MODEL        1
REMARK 921   NORMALIZED FREE ENERGY PREDICTED BY IDOCK:   -8.56 KCAL/MOL
REMARK 922        TOTAL FREE ENERGY PREDICTED BY IDOCK:  -12.62 KCAL/MOL
REMARK 923 INTER-LIGAND FREE ENERGY PREDICTED BY IDOCK:  -11.57 KCAL/MOL
REMARK 924 INTRA-LIGAND FREE ENERGY PREDICTED BY IDOCK:   -1.05 KCAL/MOL
REMARK 927      BINDING AFFINITY PREDICTED BY RF-SCORE:    0.00 PKD
ROOT
HETATM    1  N   UNL     1      -9.068   9.947  70.001  1.00  0.00    -0.338 NA 
HETATM    2  C   UNL     1      -9.916   8.792  70.328  1.00  0.00    -0.186 C  
HETATM    3  H2  UNL     1      -8.335  10.076  70.698  1.00  0.00     0.000 HD 
HETATM    4  H1  UNL     1      -8.675   9.885  69.062  1.00  0.00     0.000 HD 
ENDROOT
BRANCH   2   5
HETATM    5  C   UNL     1     -10.512   8.887  71.755  1.00  0.00    -0.360 C  
HETATM    6  O   UNL     1     -11.363  10.033  71.916  1.00  0.00     0.066 OA 
HETATM    7  C   UNL     1     -12.583   9.982  71.194  1.00  0.00    -0.381 C  
HETATM    8  C   UNL     1     -13.437   8.764  71.677  1.00  0.00    -0.369 C  
HETATM    9  C   UNL     1     -11.229   7.591  72.182  1.00  0.00    -0.270 C  
HETATM   10  N   UNL     1     -13.899   8.908  73.075  1.00  0.00    -1.107 NA 
HETATM   11  C   UNL     1     -12.615   7.470  71.537  1.00  0.00    -0.385 C  
HETATM   12  H   UNL     1     -11.796   6.802  73.874  1.00  0.00     0.000 HD 
HETATM   13  H1  UNL     1     -14.456   8.114  73.390  1.00  0.00     0.000 HD 
HETATM   14  H2  UNL     1     -14.404   9.784  73.205  1.00  0.00     0.000 HD 
HETATM   15  O   UNL     1     -11.354   7.600  73.610  1.00  0.00    -0.076 OA 
BRANCH   7  16
HETATM   16  O   UNL     1     -13.326  11.198  71.388  1.00  0.00    -0.261 OA 
BRANCH  16  17
HETATM   17  C   UNL     1     -12.594  12.447  71.222  1.00  0.00    -0.230 C  
HETATM   18  N   UNL     1     -13.219  13.353  73.450  1.00  0.00     0.167 NA 
HETATM   19  C   UNL     1     -12.436  14.910  71.774  1.00  0.00    -0.405 C  
HETATM   20  H1  UNL     1     -13.629  14.132  73.967  1.00  0.00     0.000 HD 
HETATM   21  H2  UNL     1     -12.286  13.125  73.793  1.00  0.00     0.000 HD 
HETATM   22  C   UNL     1     -12.383  15.274  70.290  1.00  0.00    -0.366 C  
HETATM   23  C   UNL     1     -13.214  13.624  72.004  1.00  0.00    -0.434 C  
HETATM   24  N   UNL     1     -11.719  16.587  70.222  1.00  0.00    -0.304 NA 
HETATM   25  C   UNL     1     -11.669  14.168  69.451  1.00  0.00    -0.313 C  
HETATM   26  H   UNL     1     -11.194  11.944  68.337  1.00  0.00     0.000 HD 
HETATM   27  H1  UNL     1     -11.685  16.830  69.232  1.00  0.00     0.000 HD 
HETATM   28  C   UNL     1     -12.290  12.766  69.732  1.00  0.00    -0.032 C  
HETATM   29  H2  UNL     1     -10.808  16.608  70.680  1.00  0.00     0.000 HD 
HETATM   30  O   UNL     1     -11.381  11.749  69.248  1.00  0.00    -0.251 OA 
BRANCH  25  31
HETATM   31  O   UNL     1     -11.778  14.385  68.009  1.00  0.00    -0.311 OA 
BRANCH  31  32
HETATM   32  C   UNL     1     -10.565  14.202  67.269  1.00  0.00    -0.277 C  
HETATM   33  O   UNL     1     -10.776  13.521  66.026  1.00  0.00    -0.275 OA 
HETATM   34  C   UNL     1     -11.519  14.303  65.076  1.00  0.00    -0.364 C  
HETATM   35  C   UNL     1     -10.763  15.597  64.737  1.00  0.00    -0.276 C  
HETATM   36  H   UNL     1      -9.208  17.065  68.181  1.00  0.00     0.000 HD 
HETATM   37  C   UNL     1     -10.533  16.425  66.016  1.00  0.00    -0.323 C  
HETATM   38  H1  UNL     1      -9.622  18.208  66.553  1.00  0.00     0.000 HD 
HETATM   39  O   UNL     1     -11.449  16.384  63.759  1.00  0.00    -1.590 OA 
HETATM   40  H   UNL     1     -10.983  17.184  63.549  1.00  0.00     0.000 HD 
HETATM   41  H2  UNL     1     -10.226  18.209  64.975  1.00  0.00     0.000 HD 
HETATM   42  C   UNL     1      -9.823  15.549  67.063  1.00  0.00    -0.232 C  
HETATM   43  N   UNL     1      -9.774  17.660  65.706  1.00  0.00    -0.538 NA 
HETATM   44  O   UNL     1      -9.662  16.241  68.307  1.00  0.00    -0.216 OA 
BRANCH  34  45
HETATM   45  C   UNL     1     -11.719  13.460  63.808  1.00  0.00    -0.376 C  
HETATM   46  O   UNL     1     -12.659  14.080  62.932  1.00  0.00    -0.958 OA 
HETATM   47  H   UNL     1     -12.783  13.559  62.147  1.00  0.00     0.000 HD 
ENDBRANCH  34  45
ENDBRANCH  31  32
ENDBRANCH  25  31
ENDBRANCH  16  17
ENDBRANCH   7  16
ENDBRANCH   2   5
TORSDOF 6
ENDMDL
MODEL        2
REMARK 921   NORMALIZED FREE ENERGY PREDICTED BY IDOCK:   -8.34 KCAL/MOL
REMARK 922        TOTAL FREE ENERGY PREDICTED BY IDOCK:  -12.32 KCAL/MOL
REMARK 923 INTER-LIGAND FREE ENERGY PREDICTED BY IDOCK:  -10.63 KCAL/MOL
REMARK 924 INTRA-LIGAND FREE ENERGY PREDICTED BY IDOCK:   -1.69 KCAL/MOL
REMARK 927      BINDING AFFINITY PREDICTED BY RF-SCORE:    0.00 PKD
ROOT
HETATM    1  N   UNL     1     -14.258   8.800  73.213  1.00  0.00    -1.147 NA 
HETATM    2  C   UNL     1     -13.294   9.338  72.242  1.00  0.00    -0.477 C  
HETATM    3  H2  UNL     1     -13.807   8.155  73.861  1.00  0.00     0.000 HD 
HETATM    4  H1  UNL     1     -14.756   9.536  73.712  1.00  0.00     0.000 HD 
ENDROOT
BRANCH   2   5
HETATM    5  C   UNL     1     -12.538   8.219  71.483  1.00  0.00    -0.309 C  
HETATM    6  O   UNL     1     -11.569   8.743  70.561  1.00  0.00    -0.244 OA 
HETATM    7  C   UNL     1     -10.446   9.370  71.160  1.00  0.00    -0.322 C  
HETATM    8  C   UNL     1      -9.664   8.338  72.036  1.00  0.00    -0.252 C  
HETATM    9  C   UNL     1     -11.904   7.186  72.436  1.00  0.00    -0.185 C  
HETATM   10  N   UNL     1      -9.040   7.264  71.234  1.00  0.00    -0.146 NA 
HETATM   11  C   UNL     1     -10.617   7.718  73.076  1.00  0.00    -0.441 C  
HETATM   12  H   UNL     1     -11.232   5.362  72.270  1.00  0.00     0.000 HD 
HETATM   13  H1  UNL     1      -8.529   6.590  71.806  1.00  0.00     0.000 HD 
HETATM   14  H2  UNL     1      -8.442   7.652  70.505  1.00  0.00     0.000 HD 
HETATM   15  O   UNL     1     -11.623   5.999  71.683  1.00  0.00    -0.277 OA 
BRANCH   7  16
HETATM   16  O   UNL     1      -9.575   9.900  70.147  1.00  0.00    -0.245 OA 
BRANCH  16  17
HETATM   17  C   UNL     1     -10.140  10.057  68.812  1.00  0.00    -0.185 C  
HETATM   18  N   UNL     1      -9.627   7.734  68.092  1.00  0.00    -0.149 NA 
HETATM   19  C   UNL     1     -10.064   9.382  66.377  1.00  0.00    -0.332 C  
HETATM   20  H1  UNL     1      -9.181   7.140  67.393  1.00  0.00     0.000 HD 
HETATM   21  H2  UNL     1     -10.608   7.489  68.223  1.00  0.00     0.000 HD 
HETATM   22  C   UNL     1      -9.934  10.841  65.940  1.00  0.00    -0.250 C  
HETATM   23  C   UNL     1      -9.464   9.158  67.756  1.00  0.00    -0.140 C  
HETATM   24  N   UNL     1     -10.433  10.892  64.555  1.00  0.00    -0.349 NA 
HETATM   25  C   UNL     1     -10.689  11.802  66.912  1.00  0.00    -0.250 C  
HETATM   26  H   UNL     1     -11.309  13.078  69.009  1.00  0.00     0.000 HD 
HETATM   27  H1  UNL     1     -10.346  11.866  64.264  1.00  0.00     0.000 HD 
HETATM   28  C   UNL     1     -10.263  11.548  68.390  1.00  0.00    -0.205 C  
HETATM   29  H2  UNL     1     -11.375  10.516  64.446  1.00  0.00     0.000 HD 
HETATM   30  O   UNL     1     -11.233  12.167  69.267  1.00  0.00    -0.250 OA 
BRANCH  25  31
HETATM   31  O   UNL     1     -10.419  13.213  66.643  1.00  0.00    -0.271 OA 
BRANCH  31  32
HETATM   32  C   UNL     1     -11.533  14.096  66.832  1.00  0.00    -0.357 C  
HETATM   33  O   UNL     1     -11.256  15.137  67.777  1.00  0.00    -0.304 OA 
HETATM   34  C   UNL     1     -10.282  16.081  67.302  1.00  0.00    -0.277 C  
HETATM   35  C   UNL     1     -10.784  16.776  66.026  1.00  0.00    -0.138 C  
HETATM   36  H   UNL     1     -12.566  13.971  63.704  1.00  0.00     0.000 HD 
HETATM   37  C   UNL     1     -11.064  15.730  64.930  1.00  0.00    -0.399 C  
HETATM   38  H1  UNL     1     -11.768  15.693  62.980  1.00  0.00     0.000 HD 
HETATM   39  O   UNL     1      -9.862  17.758  65.546  1.00  0.00    -0.439 OA 
HETATM   40  H   UNL     1     -10.172  18.187  64.757  1.00  0.00     0.000 HD 
HETATM   41  H2  UNL     1     -10.959  17.122  63.377  1.00  0.00     0.000 HD 
HETATM   42  C   UNL     1     -12.034  14.669  65.481  1.00  0.00    -0.256 C  
HETATM   43  N   UNL     1     -11.583  16.386  63.706  1.00  0.00    -0.928 NA 
HETATM   44  O   UNL     1     -12.260  13.619  64.532  1.00  0.00    -0.410 OA 
BRANCH  34  45
HETATM   45  C   UNL     1     -10.035  17.118  68.406  1.00  0.00    -0.310 C  
HETATM   46  O   UNL     1     -10.617  18.375  68.061  1.00  0.00    -0.381 OA 
HETATM   47  H   UNL     1     -10.465  19.016  68.744  1.00  0.00     0.000 HD 
ENDBRANCH  34  45
ENDBRANCH  31  32
ENDBRANCH  25  31
ENDBRANCH  16  17
ENDBRANCH   7  16
ENDBRANCH   2   5
TORSDOF 6
ENDMDL
MODEL        3
REMARK 921   NORMALIZED FREE ENERGY PREDICTED BY IDOCK:   -8.26 KCAL/MOL
REMARK 922        TOTAL FREE ENERGY PREDICTED BY IDOCK:  -12.22 KCAL/MOL
REMARK 923 INTER-LIGAND FREE ENERGY PREDICTED BY IDOCK:  -10.50 KCAL/MOL
REMARK 924 INTRA-LIGAND FREE ENERGY PREDICTED BY IDOCK:   -1.72 KCAL/MOL
REMARK 927      BINDING AFFINITY PREDICTED BY RF-SCORE:    0.00 PKD
ROOT
HETATM    1  N   UNL     1      -8.412  12.173  68.894  1.00  0.00    -0.361 NA 
HETATM    2  C   UNL     1      -7.325  11.495  68.172  1.00  0.00    -0.094 C  
HETATM    3  H2  UNL     1      -8.772  11.590  69.650  1.00  0.00     0.000 HD 
HETATM    4  H1  UNL     1      -8.134  13.091  69.237  1.00  0.00     0.000 HD 
ENDROOT
BRANCH   2   5
HETATM    5  C   UNL     1      -7.749  10.099  67.650  1.00  0.00    -0.091 C  
HETATM    6  O   UNL     1      -9.112  10.075  67.197  1.00  0.00    -0.137 OA 
HETATM    7  C   UNL     1      -9.365  10.815  66.014  1.00  0.00    -0.186 C  
HETATM    8  C   UNL     1      -8.529  10.228  64.830  1.00  0.00    -0.177 C  
HETATM    9  C   UNL     1      -6.791   9.557  66.571  1.00  0.00    -0.083 C  
HETATM   10  N   UNL     1      -8.954   8.863  64.451  1.00  0.00    -0.422 NA 
HETATM   11  C   UNL     1      -7.036  10.217  65.210  1.00  0.00    -0.130 C  
HETATM   12  H   UNL     1      -6.396   7.806  65.806  1.00  0.00     0.000 HD 
HETATM   13  H1  UNL     1      -8.408   8.480  63.678  1.00  0.00     0.000 HD 
HETATM   14  H2  UNL     1      -9.951   8.835  64.243  1.00  0.00     0.000 HD 
HETATM   15  O   UNL     1      -6.986   8.140  66.471  1.00  0.00    -0.066 OA 
BRANCH   7  16
HETATM   16  O   UNL     1     -10.764  10.764  65.686  1.00  0.00    -0.183 OA 
BRANCH  16  17
HETATM   17  C   UNL     1     -11.410  12.030  65.365  1.00  0.00    -0.321 C  
HETATM   18  N   UNL     1     -12.020  11.374  63.047  1.00  0.00    -0.867 NA 
HETATM   19  C   UNL     1     -11.992  13.731  63.586  1.00  0.00    -0.298 C  
HETATM   20  H1  UNL     1     -11.972  11.610  62.056  1.00  0.00     0.000 HD 
HETATM   21  H2  UNL     1     -12.982  11.230  63.353  1.00  0.00     0.000 HD 
HETATM   22  C   UNL     1     -11.339  14.852  64.395  1.00  0.00    -0.201 C  
HETATM   23  C   UNL     1     -11.337  12.388  63.866  1.00  0.00    -0.433 C  
HETATM   24  N   UNL     1     -11.976  16.099  63.940  1.00  0.00    -1.332 NA 
HETATM   25  C   UNL     1     -11.471  14.606  65.931  1.00  0.00    -0.338 C  
HETATM   26  H   UNL     1     -11.180  13.561  68.218  1.00  0.00     0.000 HD 
HETATM   27  H1  UNL     1     -11.540  16.847  64.479  1.00  0.00     0.000 HD 
HETATM   28  C   UNL     1     -10.968  13.180  66.313  1.00  0.00    -0.280 C  
HETATM   29  H2  UNL     1     -12.994  16.086  64.009  1.00  0.00     0.000 HD 
HETATM   30  O   UNL     1     -11.449  12.858  67.639  1.00  0.00    -0.293 OA 
BRANCH  25  31
HETATM   31  O   UNL     1     -10.686  15.547  66.729  1.00  0.00    -0.303 OA 
BRANCH  31  32
HETATM   32  C   UNL     1      -9.627  16.210  66.026  1.00  0.00    -0.346 C  
HETATM   33  O   UNL     1      -9.955  17.565  65.689  1.00  0.00    -0.561 OA 
HETATM   34  C   UNL     1     -10.051  18.421  66.839  1.00  0.00    -0.367 C  
HETATM   35  C   UNL     1      -8.709  18.473  67.585  1.00  0.00    -0.267 C  
HETATM   36  H   UNL     1      -7.184  14.717  67.659  1.00  0.00     0.000 HD 
HETATM   37  C   UNL     1      -8.298  17.056  68.032  1.00  0.00    -0.211 C  
HETATM   38  H1  UNL     1      -6.714  16.152  69.018  1.00  0.00     0.000 HD 
HETATM   39  O   UNL     1      -8.749  19.352  68.713  1.00  0.00    -0.364 OA 
HETATM   40  H   UNL     1      -7.920  19.384  69.174  1.00  0.00     0.000 HD 
HETATM   41  H2  UNL     1      -6.984  17.748  69.501  1.00  0.00     0.000 HD 
HETATM   42  C   UNL     1      -8.291  16.123  66.809  1.00  0.00    -0.264 C  
HETATM   43  N   UNL     1      -6.986  17.090  68.723  1.00  0.00    -0.199 NA 
HETATM   44  O   UNL     1      -8.002  14.770  67.180  1.00  0.00    -0.198 OA 
BRANCH  34  45
HETATM   45  C   UNL     1     -10.446  19.826  66.363  1.00  0.00    -0.507 C  
HETATM   46  O   UNL     1      -9.298  20.554  65.926  1.00  0.00    -0.617 OA 
HETATM   47  H   UNL     1      -9.542  21.423  65.631  1.00  0.00     0.000 HD 
ENDBRANCH  34  45
ENDBRANCH  31  32
ENDBRANCH  25  31
ENDBRANCH  16  17
ENDBRANCH   7  16
ENDBRANCH   2   5
TORSDOF 6
ENDMDL
MODEL        4
REMARK 921   NORMALIZED FREE ENERGY PREDICTED BY IDOCK:   -8.12 KCAL/MOL
REMARK 922        TOTAL FREE ENERGY PREDICTED BY IDOCK:  -12.02 KCAL/MOL
REMARK 923 INTER-LIGAND FREE ENERGY PREDICTED BY IDOCK:  -10.56 KCAL/MOL
REMARK 924 INTRA-LIGAND FREE ENERGY PREDICTED BY IDOCK:   -1.46 KCAL/MOL
REMARK 927      BINDING AFFINITY PREDICTED BY RF-SCORE:    0.00 PKD
ROOT
HETATM    1  N   UNL     1      -6.076  18.751  69.232  1.00  0.00    -0.245 NA 
HETATM    2  C   UNL     1      -7.509  18.597  68.940  1.00  0.00    -0.270 C  
HETATM    3  H2  UNL     1      -5.681  19.543  68.727  1.00  0.00     0.000 HD 
HETATM    4  H1  UNL     1      -5.892  18.821  70.232  1.00  0.00     0.000 HD 
ENDROOT
BRANCH   2   5
HETATM    5  C   UNL     1      -7.790  18.489  67.419  1.00  0.00    -0.235 C  
HETATM    6  O   UNL     1      -8.784  17.498  67.117  1.00  0.00    -0.227 OA 
HETATM    7  C   UNL     1     -10.100  17.816  67.540  1.00  0.00    -0.340 C  
HETATM    8  C   UNL     1     -10.588  19.119  66.826  1.00  0.00    -0.439 C  
HETATM    9  C   UNL     1      -8.145  19.850  66.788  1.00  0.00    -0.315 C  
HETATM   10  N   UNL     1     -10.755  18.943  65.367  1.00  0.00    -0.497 NA 
HETATM   11  C   UNL     1      -9.590  20.260  67.096  1.00  0.00    -0.580 C  
HETATM   12  H   UNL     1      -8.176  20.585  64.981  1.00  0.00     0.000 HD 
HETATM   13  H1  UNL     1     -11.074  19.793  64.901  1.00  0.00     0.000 HD 
HETATM   14  H2  UNL     1     -11.374  18.159  65.161  1.00  0.00     0.000 HD 
HETATM   15  O   UNL     1      -7.957  19.746  65.371  1.00  0.00    -0.319 OA 
BRANCH   7  16
HETATM   16  O   UNL     1     -10.996  16.734  67.232  1.00  0.00    -0.195 OA 
BRANCH  16  17
HETATM   17  C   UNL     1     -10.415  15.567  66.579  1.00  0.00    -0.300 C  
HETATM   18  N   UNL     1     -11.046  16.276  64.282  1.00  0.00    -1.192 NA 
HETATM   19  C   UNL     1     -10.512  13.946  64.641  1.00  0.00    -0.419 C  
HETATM   20  H1  UNL     1     -11.518  16.024  63.414  1.00  0.00     0.000 HD 
HETATM   21  H2  UNL     1     -10.080  16.558  64.116  1.00  0.00     0.000 HD 
HETATM   22  C   UNL     1     -10.561  12.753  65.597  1.00  0.00    -0.275 C  
HETATM   23  C   UNL     1     -11.131  15.185  65.266  1.00  0.00    -0.383 C  
HETATM   24  N   UNL     1     -10.052  11.603  64.830  1.00  0.00    -0.251 NA 
HETATM   25  C   UNL     1      -9.762  13.033  66.909  1.00  0.00    -0.238 C  
HETATM   26  H   UNL     1      -9.088  14.054  69.125  1.00  0.00     0.000 HD 
HETATM   27  H1  UNL     1     -10.086  10.807  65.468  1.00  0.00     0.000 HD 
HETATM   28  C   UNL     1     -10.210  14.378  67.558  1.00  0.00    -0.240 C  
HETATM   29  H2  UNL     1      -9.130  11.760  64.421  1.00  0.00     0.000 HD 
HETATM   30  O   UNL     1      -9.214  14.781  68.527  1.00  0.00    -0.183 OA 
BRANCH  25  31
HETATM   31  O   UNL     1      -9.955  12.000  67.926  1.00  0.00    -0.187 OA 
BRANCH  31  32
HETATM   32  C   UNL     1     -11.211  11.311  67.867  1.00  0.00    -0.290 C  
HETATM   33  O   UNL     1     -11.110  10.036  67.220  1.00  0.00    -0.229 OA 
HETATM   34  C   UNL     1     -10.348   9.082  67.978  1.00  0.00    -0.224 C  
HETATM   35  C   UNL     1     -11.012   8.824  69.340  1.00  0.00    -0.030 C  
HETATM   36  H   UNL     1     -12.294  12.387  70.789  1.00  0.00     0.000 HD 
HETATM   37  C   UNL     1     -11.120  10.141  70.132  1.00  0.00    -0.315 C  
HETATM   38  H1  UNL     1     -11.862  10.783  71.959  1.00  0.00     0.000 HD 
HETATM   39  O   UNL     1     -10.309   7.843  70.108  1.00  0.00    -0.206 OA 
HETATM   40  H   UNL     1     -10.719   7.685  70.950  1.00  0.00     0.000 HD 
HETATM   41  H2  UNL     1     -11.329   9.180  71.975  1.00  0.00     0.000 HD 
HETATM   42  C   UNL     1     -11.852  11.188  69.275  1.00  0.00    -0.352 C  
HETATM   43  N   UNL     1     -11.791   9.911  71.434  1.00  0.00    -0.391 NA 
HETATM   44  O   UNL     1     -11.902  12.463  69.928  1.00  0.00    -0.322 OA 
BRANCH  34  45
HETATM   45  C   UNL     1     -10.271   7.777  67.172  1.00  0.00    -0.295 C  
HETATM   46  O   UNL     1     -11.294   6.869  67.580  1.00  0.00    -0.582 OA 
HETATM   47  H   UNL     1     -11.247   6.061  67.082  1.00  0.00     0.000 HD 
ENDBRANCH  34  45
ENDBRANCH  31  32
ENDBRANCH  25  31
ENDBRANCH  16  17
ENDBRANCH   7  16
ENDBRANCH   2   5
TORSDOF 6
ENDMDL
MODEL        5
REMARK 921   NORMALIZED FREE ENERGY PREDICTED BY IDOCK:   -8.03 KCAL/MOL
REMARK 922        TOTAL FREE ENERGY PREDICTED BY IDOCK:  -11.89 KCAL/MOL
REMARK 923 INTER-LIGAND FREE ENERGY PREDICTED BY IDOCK:  -10.11 KCAL/MOL
REMARK 924 INTRA-LIGAND FREE ENERGY PREDICTED BY IDOCK:   -1.79 KCAL/MOL
REMARK 927      BINDING AFFINITY PREDICTED BY RF-SCORE:    0.00 PKD
ROOT
HETATM    1  N   UNL     1      -8.031  13.388  68.748  1.00  0.00    -0.320 NA 
HETATM    2  C   UNL     1      -7.613  12.047  68.312  1.00  0.00    -0.117 C  
HETATM    3  H2  UNL     1      -8.156  13.424  69.759  1.00  0.00     0.000 HD 
HETATM    4  H1  UNL     1      -7.390  14.114  68.429  1.00  0.00     0.000 HD 
ENDROOT
BRANCH   2   5
HETATM    5  C   UNL     1      -8.587  10.943  68.796  1.00  0.00    -0.159 C  
HETATM    6  O   UNL     1      -9.957  11.256  68.500  1.00  0.00    -0.190 OA 
HETATM    7  C   UNL     1     -10.296  11.230  67.122  1.00  0.00    -0.209 C  
HETATM    8  C   UNL     1     -10.068   9.795  66.544  1.00  0.00    -0.239 C  
HETATM    9  C   UNL     1      -8.204   9.546  68.268  1.00  0.00    -0.113 C  
HETATM   10  N   UNL     1     -10.992   8.794  67.120  1.00  0.00    -0.328 NA 
HETATM   11  C   UNL     1      -8.612   9.362  66.801  1.00  0.00    -0.134 C  
HETATM   12  H   UNL     1      -8.621   7.705  68.759  1.00  0.00     0.000 HD 
HETATM   13  H1  UNL     1     -10.843   7.857  66.742  1.00  0.00     0.000 HD 
HETATM   14  H2  UNL     1     -11.962   9.084  67.006  1.00  0.00     0.000 HD 
HETATM   15  O   UNL     1      -8.856   8.566  69.085  1.00  0.00    -0.140 OA 
BRANCH   7  16
HETATM   16  O   UNL     1     -11.671  11.609  66.943  1.00  0.00    -0.552 OA 
BRANCH  16  17
HETATM   17  C   UNL     1     -11.920  12.936  66.395  1.00  0.00    -0.395 C  
HETATM   18  N   UNL     1     -13.386  12.134  64.555  1.00  0.00    -0.513 NA 
HETATM   19  C   UNL     1     -12.409  14.336  64.347  1.00  0.00    -0.417 C  
HETATM   20  H1  UNL     1     -13.563  12.129  63.551  1.00  0.00     0.000 HD 
HETATM   21  H2  UNL     1     -14.200  12.454  65.079  1.00  0.00     0.000 HD 
HETATM   22  C   UNL     1     -11.205  15.235  64.632  1.00  0.00    -0.356 C  
HETATM   23  C   UNL     1     -12.189  12.928  64.876  1.00  0.00    -0.453 C  
HETATM   24  N   UNL     1     -11.494  16.516  63.964  1.00  0.00    -1.581 NA 
HETATM   25  C   UNL     1     -10.941  15.375  66.164  1.00  0.00    -0.279 C  
HETATM   26  H   UNL     1     -10.340  14.779  68.550  1.00  0.00     0.000 HD 
HETATM   27  H1  UNL     1     -10.691  17.116  64.154  1.00  0.00     0.000 HD 
HETATM   28  C   UNL     1     -10.855  13.975  66.845  1.00  0.00    -0.290 C  
HETATM   29  H2  UNL     1     -12.386  16.928  64.240  1.00  0.00     0.000 HD 
HETATM   30  O   UNL     1     -10.991  14.144  68.275  1.00  0.00    -0.239 OA 
BRANCH  25  31
HETATM   31  O   UNL     1      -9.684  16.058  66.467  1.00  0.00    -0.236 OA 
BRANCH  31  32
HETATM   32  C   UNL     1      -9.780  17.117  67.427  1.00  0.00    -0.253 C  
HETATM   33  O   UNL     1      -8.901  16.930  68.544  1.00  0.00    -0.234 OA 
HETATM   34  C   UNL     1      -7.513  17.052  68.191  1.00  0.00    -0.195 C  
HETATM   35  C   UNL     1      -7.220  18.456  67.641  1.00  0.00    -0.214 C  
HETATM   36  H   UNL     1     -10.291  19.504  65.210  1.00  0.00     0.000 HD 
HETATM   37  C   UNL     1      -8.091  18.729  66.400  1.00  0.00    -0.280 C  
HETATM   38  H1  UNL     1      -8.418  20.277  65.058  1.00  0.00     0.000 HD 
HETATM   39  O   UNL     1      -5.837  18.634  67.320  1.00  0.00    -0.154 OA 
HETATM   40  H   UNL     1      -5.656  19.502  66.979  1.00  0.00     0.000 HD 
HETATM   41  H2  UNL     1      -6.852  20.255  65.691  1.00  0.00     0.000 HD 
HETATM   42  C   UNL     1      -9.569  18.502  66.761  1.00  0.00    -0.321 C  
HETATM   43  N   UNL     1      -7.841  20.096  65.880  1.00  0.00    -0.260 NA 
HETATM   44  O   UNL     1     -10.420  18.656  65.618  1.00  0.00    -0.603 OA 
BRANCH  34  45
HETATM   45  C   UNL     1      -6.671  16.790  69.448  1.00  0.00    -0.226 C  
HETATM   46  O   UNL     1      -5.977  15.547  69.343  1.00  0.00    -0.109 OA 
HETATM   47  H   UNL     1      -5.456  15.385  70.120  1.00  0.00     0.000 HD 
ENDBRANCH  34  45
ENDBRANCH  31  32
ENDBRANCH  25  31
ENDBRANCH  16  17
ENDBRANCH   7  16
ENDBRANCH   2   5
TORSDOF 6
ENDMDL
MODEL        6
REMARK 921   NORMALIZED FREE ENERGY PREDICTED BY IDOCK:   -8.00 KCAL/MOL
REMARK 922        TOTAL FREE ENERGY PREDICTED BY IDOCK:  -11.86 KCAL/MOL
REMARK 923 INTER-LIGAND FREE ENERGY PREDICTED BY IDOCK:  -11.11 KCAL/MOL
REMARK 924 INTRA-LIGAND FREE ENERGY PREDICTED BY IDOCK:   -0.75 KCAL/MOL
REMARK 927      BINDING AFFINITY PREDICTED BY RF-SCORE:    0.00 PKD
ROOT
HETATM    1  N   UNL     1     -13.271  12.680  72.149  1.00  0.00    -0.469 NA 
HETATM    2  C   UNL     1     -12.346  12.459  71.028  1.00  0.00    -0.210 C  
HETATM    3  H2  UNL     1     -13.181  11.945  72.851  1.00  0.00     0.000 HD 
HETATM    4  H1  UNL     1     -13.158  13.603  72.567  1.00  0.00     0.000 HD 
ENDROOT
BRANCH   2   5
HETATM    5  C   UNL     1     -12.517  11.055  70.394  1.00  0.00    -0.313 C  
HETATM    6  O   UNL     1     -12.608  11.110  68.962  1.00  0.00    -0.370 OA 
HETATM    7  C   UNL     1     -11.411  11.484  68.297  1.00  0.00    -0.299 C  
HETATM    8  C   UNL     1     -10.287  10.440  68.598  1.00  0.00    -0.184 C  
HETATM    9  C   UNL     1     -11.426  10.066  70.849  1.00  0.00    -0.371 C  
HETATM   10  N   UNL     1     -10.573   9.109  68.018  1.00  0.00    -0.355 NA 
HETATM   11  C   UNL     1     -10.099  10.309  70.121  1.00  0.00    -0.099 C  
HETATM   12  H   UNL     1     -11.220   8.126  70.866  1.00  0.00     0.000 HD 
HETATM   13  H1  UNL     1      -9.839   8.427  68.214  1.00  0.00     0.000 HD 
HETATM   14  H2  UNL     1     -10.751   9.177  67.017  1.00  0.00     0.000 HD 
HETATM   15  O   UNL     1     -11.893   8.736  70.586  1.00  0.00    -0.232 OA 
BRANCH   7  16
HETATM   16  O   UNL     1     -11.634  11.557  66.878  1.00  0.00    -0.503 OA 
BRANCH  16  17
HETATM   17  C   UNL     1     -11.864  12.883  66.318  1.00  0.00    -0.416 C  
HETATM   18  N   UNL     1     -13.211  12.067  64.395  1.00  0.00    -0.566 NA 
HETATM   19  C   UNL     1     -12.246  14.279  64.245  1.00  0.00    -0.451 C  
HETATM   20  H1  UNL     1     -13.329  12.061  63.382  1.00  0.00     0.000 HD 
HETATM   21  H2  UNL     1     -14.058  12.379  64.870  1.00  0.00     0.000 HD 
HETATM   22  C   UNL     1     -11.070  15.190  64.600  1.00  0.00    -0.324 C  
HETATM   23  C   UNL     1     -12.043  12.873  64.785  1.00  0.00    -0.422 C  
HETATM   24  N   UNL     1     -11.333  16.469  63.917  1.00  0.00    -1.559 NA 
HETATM   25  C   UNL     1     -10.898  15.331  66.145  1.00  0.00    -0.320 C  
HETATM   26  H   UNL     1     -10.431  14.739  68.562  1.00  0.00     0.000 HD 
HETATM   27  H1  UNL     1     -10.548  17.077  64.154  1.00  0.00     0.000 HD 
HETATM   28  C   UNL     1     -10.837  13.931  66.829  1.00  0.00    -0.286 C  
HETATM   29  H2  UNL     1     -12.243  16.872  64.140  1.00  0.00     0.000 HD 
HETATM   30  O   UNL     1     -11.058  14.098  68.249  1.00  0.00    -0.239 OA 
BRANCH  25  31
HETATM   31  O   UNL     1      -9.668  16.026  66.521  1.00  0.00    -0.236 OA 
BRANCH  31  32
HETATM   32  C   UNL     1      -9.827  17.069  67.491  1.00  0.00    -0.258 C  
HETATM   33  O   UNL     1      -8.966  16.903  68.625  1.00  0.00    -0.251 OA 
HETATM   34  C   UNL     1      -7.576  17.084  68.305  1.00  0.00    -0.213 C  
HETATM   35  C   UNL     1      -7.327  18.506  67.778  1.00  0.00    -0.229 C  
HETATM   36  H   UNL     1     -10.383  19.461  65.291  1.00  0.00     0.000 HD 
HETATM   37  C   UNL     1      -8.181  18.760  66.521  1.00  0.00    -0.291 C  
HETATM   38  H1  UNL     1      -8.540  20.309  65.191  1.00  0.00     0.000 HD 
HETATM   39  O   UNL     1      -5.946  18.742  67.491  1.00  0.00    -0.177 OA 
HETATM   40  H   UNL     1      -5.792  19.621  67.164  1.00  0.00     0.000 HD 
HETATM   41  H2  UNL     1      -6.989  20.342  65.858  1.00  0.00     0.000 HD 
HETATM   42  C   UNL     1      -9.657  18.470  66.846  1.00  0.00    -0.307 C  
HETATM   43  N   UNL     1      -7.975  20.141  66.023  1.00  0.00    -0.260 NA 
HETATM   44  O   UNL     1     -10.488  18.603  65.686  1.00  0.00    -0.603 OA 
BRANCH  34  45
HETATM   45  C   UNL     1      -6.753  16.841  69.578  1.00  0.00    -0.181 C  
HETATM   46  O   UNL     1      -5.415  16.465  69.251  1.00  0.00    -0.119 OA 
HETATM   47  H   UNL     1      -4.905  16.314  70.038  1.00  0.00     0.000 HD 
ENDBRANCH  34  45
ENDBRANCH  31  32
ENDBRANCH  25  31
ENDBRANCH  16  17
ENDBRANCH   7  16
ENDBRANCH   2   5
TORSDOF 6
ENDMDL
MODEL        7
REMARK 921   NORMALIZED FREE ENERGY PREDICTED BY IDOCK:   -7.97 KCAL/MOL
REMARK 922        TOTAL FREE ENERGY PREDICTED BY IDOCK:  -11.83 KCAL/MOL
REMARK 923 INTER-LIGAND FREE ENERGY PREDICTED BY IDOCK:  -10.21 KCAL/MOL
REMARK 924 INTRA-LIGAND FREE ENERGY PREDICTED BY IDOCK:   -1.62 KCAL/MOL
REMARK 927      BINDING AFFINITY PREDICTED BY RF-SCORE:    0.00 PKD
ROOT
HETATM    1  N   UNL     1      -7.034  15.386  68.698  1.00  0.00    -0.108 NA 
HETATM    2  C   UNL     1      -7.209  16.836  68.527  1.00  0.00    -0.194 C  
HETATM    3  H2  UNL     1      -6.380  15.011  68.012  1.00  0.00     0.000 HD 
HETATM    4  H1  UNL     1      -6.754  15.140  69.647  1.00  0.00     0.000 HD 
ENDROOT
BRANCH   2   5
HETATM    5  C   UNL     1      -7.635  17.210  67.085  1.00  0.00    -0.174 C  
HETATM    6  O   UNL     1      -8.839  16.540  66.680  1.00  0.00    -0.213 OA 
HETATM    7  C   UNL     1     -10.017  16.960  67.351  1.00  0.00    -0.269 C  
HETATM    8  C   UNL     1     -10.276  18.477  67.070  1.00  0.00    -0.380 C  
HETATM    9  C   UNL     1      -7.746  18.734  66.879  1.00  0.00    -0.236 C  
HETATM   10  N   UNL     1     -10.601  18.748  65.652  1.00  0.00    -0.578 NA 
HETATM   11  C   UNL     1      -9.039  19.296  67.481  1.00  0.00    -0.349 C  
HETATM   12  H   UNL     1      -7.774  19.937  65.344  1.00  0.00     0.000 HD 
HETATM   13  H1  UNL     1     -10.770  19.738  65.469  1.00  0.00     0.000 HD 
HETATM   14  H2  UNL     1     -11.387  18.179  65.342  1.00  0.00     0.000 HD 
HETATM   15  O   UNL     1      -7.706  18.998  65.471  1.00  0.00    -0.436 OA 
BRANCH   7  16
HETATM   16  O   UNL     1     -11.145  16.188  66.905  1.00  0.00    -0.164 OA 
BRANCH  16  17
HETATM   17  C   UNL     1     -10.859  15.042  66.052  1.00  0.00    -0.334 C  
HETATM   18  N   UNL     1     -11.600  16.150  63.954  1.00  0.00    -1.469 NA 
HETATM   19  C   UNL     1     -11.457  13.736  63.970  1.00  0.00    -0.244 C  
HETATM   20  H1  UNL     1     -12.202  16.099  63.133  1.00  0.00     0.000 HD 
HETATM   21  H2  UNL     1     -10.623  16.289  63.695  1.00  0.00     0.000 HD 
HETATM   22  C   UNL     1     -11.615  12.449  64.781  1.00  0.00    -0.341 C  
HETATM   23  C   UNL     1     -11.771  14.964  64.809  1.00  0.00    -0.402 C  
HETATM   24  N   UNL     1     -11.409  11.346  63.828  1.00  0.00    -0.524 NA 
HETATM   25  C   UNL     1     -10.640  12.414  66.000  1.00  0.00    -0.256 C  
HETATM   26  H   UNL     1      -9.555  12.999  68.211  1.00  0.00     0.000 HD 
HETATM   27  H1  UNL     1     -11.515  10.488  64.368  1.00  0.00     0.000 HD 
HETATM   28  C   UNL     1     -10.765  13.713  66.852  1.00  0.00    -0.275 C  
HETATM   29  H2  UNL     1     -10.524  11.403  63.322  1.00  0.00     0.000 HD 
HETATM   30  O   UNL     1      -9.613  13.811  67.722  1.00  0.00    -0.207 OA 
BRANCH  25  31
HETATM   31  O   UNL     1     -10.903  11.298  66.908  1.00  0.00    -0.257 OA 
BRANCH  31  32
HETATM   32  C   UNL     1      -9.738  10.665  67.452  1.00  0.00    -0.167 C  
HETATM   33  O   UNL     1      -9.781  10.568  68.882  1.00  0.00    -0.181 OA 
HETATM   34  C   UNL     1     -10.789   9.657  69.352  1.00  0.00    -0.217 C  
HETATM   35  C   UNL     1     -10.518   8.238  68.829  1.00  0.00    -0.177 C  
HETATM   36  H   UNL     1      -9.344   8.543  64.960  1.00  0.00     0.000 HD 
HETATM   37  C   UNL     1     -10.502   8.237  67.288  1.00  0.00    -0.303 C  
HETATM   38  H1  UNL     1     -10.196   6.877  65.753  1.00  0.00     0.000 HD 
HETATM   39  O   UNL     1     -11.474   7.291  69.313  1.00  0.00    -0.468 OA 
HETATM   40  H   UNL     1     -11.307   6.414  68.989  1.00  0.00     0.000 HD 
HETATM   41  H2  UNL     1     -10.851   6.182  67.146  1.00  0.00     0.000 HD 
HETATM   42  C   UNL     1      -9.489   9.283  66.793  1.00  0.00    -0.175 C  
HETATM   43  N   UNL     1     -10.206   6.878  66.773  1.00  0.00    -0.220 NA 
HETATM   44  O   UNL     1      -9.497   9.389  65.364  1.00  0.00    -0.261 OA 
BRANCH  34  45
HETATM   45  C   UNL     1     -10.771   9.668  70.887  1.00  0.00    -0.332 C  
HETATM   46  O   UNL     1     -11.967   9.092  71.411  1.00  0.00    -0.297 OA 
HETATM   47  H   UNL     1     -11.956   9.098  72.361  1.00  0.00     0.000 HD 
ENDBRANCH  34  45
ENDBRANCH  31  32
ENDBRANCH  25  31
ENDBRANCH  16  17
ENDBRANCH   7  16
ENDBRANCH   2   5
TORSDOF 6
ENDMDL
MODEL        8
REMARK 921   NORMALIZED FREE ENERGY PREDICTED BY IDOCK:   -7.96 KCAL/MOL
REMARK 922        TOTAL FREE ENERGY PREDICTED BY IDOCK:  -11.81 KCAL/MOL
REMARK 923 INTER-LIGAND FREE ENERGY PREDICTED BY IDOCK:  -10.48 KCAL/MOL
REMARK 924 INTRA-LIGAND FREE ENERGY PREDICTED BY IDOCK:   -1.33 KCAL/MOL
REMARK 927      BINDING AFFINITY PREDICTED BY RF-SCORE:    0.00 PKD
ROOT
HETATM    1  N   UNL     1     -11.192  11.477  63.137  1.00  0.00    -0.833 NA 
HETATM    2  C   UNL     1     -10.932  11.462  64.584  1.00  0.00    -0.255 C  
HETATM    3  H2  UNL     1     -11.283  12.431  62.789  1.00  0.00     0.000 HD 
HETATM    4  H1  UNL     1     -10.488  10.959  62.613  1.00  0.00     0.000 HD 
ENDROOT
BRANCH   2   5
HETATM    5  C   UNL     1     -12.003  12.249  65.381  1.00  0.00    -0.332 C  
HETATM    6  O   UNL     1     -11.787  12.182  66.799  1.00  0.00    -0.561 OA 
HETATM    7  C   UNL     1     -10.641  12.875  67.268  1.00  0.00    -0.234 C  
HETATM    8  C   UNL     1     -10.772  14.399  66.944  1.00  0.00    -0.292 C  
HETATM    9  C   UNL     1     -12.138  13.709  64.904  1.00  0.00    -0.397 C  
HETATM   10  N   UNL     1     -11.868  15.051  67.693  1.00  0.00    -0.425 NA 
HETATM   11  C   UNL     1     -10.998  14.587  65.432  1.00  0.00    -0.346 C  
HETATM   12  H   UNL     1     -13.482  15.113  65.069  1.00  0.00     0.000 HD 
HETATM   13  H1  UNL     1     -11.954  16.046  67.482  1.00  0.00     0.000 HD 
HETATM   14  H2  UNL     1     -11.767  14.897  68.696  1.00  0.00     0.000 HD 
HETATM   15  O   UNL     1     -13.399  14.213  65.363  1.00  0.00    -0.705 OA 
BRANCH   7  16
HETATM   16  O   UNL     1     -10.497  12.695  68.687  1.00  0.00    -0.237 OA 
BRANCH  16  17
HETATM   17  C   UNL     1     -11.481  11.843  69.343  1.00  0.00    -0.302 C  
HETATM   18  N   UNL     1     -12.849  13.729  70.209  1.00  0.00    -0.159 NA 
HETATM   19  C   UNL     1     -13.120  11.563  71.248  1.00  0.00    -0.281 C  
HETATM   20  H1  UNL     1     -13.277  14.163  71.026  1.00  0.00     0.000 HD 
HETATM   21  H2  UNL     1     -13.534  13.555  69.474  1.00  0.00     0.000 HD 
HETATM   22  C   UNL     1     -12.453  10.255  71.675  1.00  0.00    -0.392 C  
HETATM   23  C   UNL     1     -12.128  12.501  70.580  1.00  0.00    -0.274 C  
HETATM   24  N   UNL     1     -13.482   9.501  72.412  1.00  0.00    -0.619 NA 
HETATM   25  C   UNL     1     -11.868   9.481  70.452  1.00  0.00    -0.124 C  
HETATM   26  H   UNL     1     -10.416   8.907  68.459  1.00  0.00     0.000 HD 
HETATM   27  H1  UNL     1     -13.037   8.629  72.697  1.00  0.00     0.000 HD 
HETATM   28  C   UNL     1     -10.949  10.405  69.596  1.00  0.00    -0.277 C  
HETATM   29  H2  UNL     1     -14.346   9.366  71.884  1.00  0.00     0.000 HD 
HETATM   30  O   UNL     1     -10.741   9.786  68.304  1.00  0.00    -0.229 OA 
BRANCH  25  31
HETATM   31  O   UNL     1     -11.050   8.333  70.841  1.00  0.00    -0.251 OA 
BRANCH  31  32
HETATM   32  C   UNL     1     -11.716   7.065  70.798  1.00  0.00    -0.349 C  
HETATM   33  O   UNL     1     -11.776   6.519  69.474  1.00  0.00    -0.329 OA 
HETATM   34  C   UNL     1     -10.488   6.130  68.969  1.00  0.00    -0.248 C  
HETATM   35  C   UNL     1      -9.869   5.040  69.858  1.00  0.00    -0.226 C  
HETATM   36  H   UNL     1     -10.602   6.027  73.722  1.00  0.00     0.000 HD 
HETATM   37  C   UNL     1      -9.720   5.558  71.302  1.00  0.00    -0.166 C  
HETATM   38  H1  UNL     1      -9.057   4.846  73.133  1.00  0.00     0.000 HD 
HETATM   39  O   UNL     1      -8.604   4.591  69.364  1.00  0.00    -0.080 OA 
HETATM   40  H   UNL     1      -8.221   3.918  69.914  1.00  0.00     0.000 HD 
HETATM   41  H2  UNL     1      -8.276   4.138  71.813  1.00  0.00     0.000 HD 
HETATM   42  C   UNL     1     -11.085   6.063  71.800  1.00  0.00    -0.276 C  
HETATM   43  N   UNL     1      -9.156   4.503  72.177  1.00  0.00    -0.124 NA 
HETATM   44  O   UNL     1     -10.988   6.640  73.108  1.00  0.00    -0.266 OA 
BRANCH  34  45
HETATM   45  C   UNL     1     -10.669   5.604  67.538  1.00  0.00    -0.187 C  
HETATM   46  O   UNL     1     -11.565   6.437  66.802  1.00  0.00    -0.700 OA 
HETATM   47  H   UNL     1     -11.677   6.112  65.916  1.00  0.00     0.000 HD 
ENDBRANCH  34  45
ENDBRANCH  31  32
ENDBRANCH  25  31
ENDBRANCH  16  17
ENDBRANCH   7  16
ENDBRANCH   2   5
TORSDOF 6
ENDMDL
MODEL        9
REMARK 921   NORMALIZED FREE ENERGY PREDICTED BY IDOCK:   -7.91 KCAL/MOL
REMARK 922        TOTAL FREE ENERGY PREDICTED BY IDOCK:  -11.74 KCAL/MOL
REMARK 923 INTER-LIGAND FREE ENERGY PREDICTED BY IDOCK:  -10.36 KCAL/MOL
REMARK 924 INTRA-LIGAND FREE ENERGY PREDICTED BY IDOCK:   -1.39 KCAL/MOL
REMARK 927      BINDING AFFINITY PREDICTED BY RF-SCORE:    0.00 PKD
ROOT
HETATM    1  N   UNL     1      -6.430  12.508  66.859  1.00  0.00    -0.475 NA 
HETATM    2  C   UNL     1      -7.411  11.443  66.597  1.00  0.00    -0.107 C  
HETATM    3  H2  UNL     1      -5.798  12.248  67.616  1.00  0.00     0.000 HD 
HETATM    4  H1  UNL     1      -5.913  12.771  66.021  1.00  0.00     0.000 HD 
ENDROOT
BRANCH   2   5
HETATM    5  C   UNL     1      -8.197  11.043  67.870  1.00  0.00    -0.119 C  
HETATM    6  O   UNL     1      -9.578  11.432  67.804  1.00  0.00    -0.166 OA 
HETATM    7  C   UNL     1     -10.359  10.721  66.857  1.00  0.00    -0.241 C  
HETATM    8  C   UNL     1     -10.377   9.200  67.217  1.00  0.00    -0.270 C  
HETATM    9  C   UNL     1      -8.052   9.546  68.206  1.00  0.00    -0.102 C  
HETATM   10  N   UNL     1     -11.083   8.921  68.487  1.00  0.00    -0.442 NA 
HETATM   11  C   UNL     1      -8.933   8.673  67.304  1.00  0.00    -0.145 C  
HETATM   12  H   UNL     1      -8.331   8.436  69.787  1.00  0.00     0.000 HD 
HETATM   13  H1  UNL     1     -11.095   7.928  68.722  1.00  0.00     0.000 HD 
HETATM   14  H2  UNL     1     -12.028   9.305  68.472  1.00  0.00     0.000 HD 
HETATM   15  O   UNL     1      -8.421   9.359  69.579  1.00  0.00    -0.130 OA 
BRANCH   7  16
HETATM   16  O   UNL     1     -11.704  11.229  66.841  1.00  0.00    -0.464 OA 
BRANCH  16  17
HETATM   17  C   UNL     1     -11.908  12.528  66.213  1.00  0.00    -0.390 C  
HETATM   18  N   UNL     1     -12.357  11.599  63.952  1.00  0.00    -0.356 NA 
HETATM   19  C   UNL     1     -11.727  13.928  64.115  1.00  0.00    -0.369 C  
HETATM   20  H1  UNL     1     -12.107  11.612  62.963  1.00  0.00     0.000 HD 
HETATM   21  H2  UNL     1     -13.352  11.773  64.090  1.00  0.00     0.000 HD 
HETATM   22  C   UNL     1     -10.896  14.982  64.848  1.00  0.00    -0.411 C  
HETATM   23  C   UNL     1     -11.530  12.546  64.717  1.00  0.00    -0.323 C  
HETATM   24  N   UNL     1     -11.080  16.234  64.095  1.00  0.00    -1.202 NA 
HETATM   25  C   UNL     1     -11.303  15.092  66.352  1.00  0.00    -0.275 C  
HETATM   26  H   UNL     1     -11.642  14.487  68.787  1.00  0.00     0.000 HD 
HETATM   27  H1  UNL     1     -10.525  16.937  64.584  1.00  0.00     0.000 HD 
HETATM   28  C   UNL     1     -11.289  13.691  67.037  1.00  0.00    -0.324 C  
HETATM   29  H2  UNL     1     -12.058  16.498  63.973  1.00  0.00     0.000 HD 
HETATM   30  O   UNL     1     -12.020  13.776  68.283  1.00  0.00    -0.357 OA 
BRANCH  25  31
HETATM   31  O   UNL     1     -10.398  15.939  67.127  1.00  0.00    -0.287 OA 
BRANCH  31  32
HETATM   32  C   UNL     1      -9.111  16.159  66.537  1.00  0.00    -0.277 C  
HETATM   33  O   UNL     1      -8.985  17.466  65.963  1.00  0.00    -0.493 OA 
HETATM   34  C   UNL     1      -8.979  18.514  66.947  1.00  0.00    -0.280 C  
HETATM   35  C   UNL     1      -7.789  18.345  67.904  1.00  0.00    -0.256 C  
HETATM   36  H   UNL     1      -7.439  14.400  68.768  1.00  0.00     0.000 HD 
HETATM   37  C   UNL     1      -7.867  16.977  68.609  1.00  0.00    -0.257 C  
HETATM   38  H1  UNL     1      -6.756  15.884  69.976  1.00  0.00     0.000 HD 
HETATM   39  O   UNL     1      -7.720  19.395  68.873  1.00  0.00    -0.352 OA 
HETATM   40  H   UNL     1      -6.984  19.291  69.464  1.00  0.00     0.000 HD 
HETATM   41  H2  UNL     1      -6.613  17.555  70.176  1.00  0.00     0.000 HD 
HETATM   42  C   UNL     1      -7.971  15.868  67.548  1.00  0.00    -0.145 C  
HETATM   43  N   UNL     1      -6.704  16.789  69.509  1.00  0.00    -0.225 NA 
HETATM   44  O   UNL     1      -8.137  14.578  68.149  1.00  0.00    -0.122 OA 
BRANCH  34  45
HETATM   45  C   UNL     1      -8.885  19.861  66.218  1.00  0.00    -0.345 C  
HETATM   46  O   UNL     1      -9.753  20.823  66.817  1.00  0.00    -0.649 OA 
HETATM   47  H   UNL     1      -9.694  21.657  66.366  1.00  0.00     0.000 HD 
ENDBRANCH  34  45
ENDBRANCH  31  32
ENDBRANCH  25  31
ENDBRANCH  16  17
ENDBRANCH   7  16
ENDBRANCH   2   5
TORSDOF 6
ENDMDL
MODEL       10
REMARK 921   NORMALIZED FREE ENERGY PREDICTED BY IDOCK:   -7.84 KCAL/MOL
REMARK 922        TOTAL FREE ENERGY PREDICTED BY IDOCK:  -11.64 KCAL/MOL
REMARK 923 INTER-LIGAND FREE ENERGY PREDICTED BY IDOCK:   -9.67 KCAL/MOL
REMARK 924 INTRA-LIGAND FREE ENERGY PREDICTED BY IDOCK:   -1.97 KCAL/MOL
REMARK 927      BINDING AFFINITY PREDICTED BY RF-SCORE:    0.00 PKD
ROOT
HETATM    1  N   UNL     1      -9.824  10.836  69.596  1.00  0.00    -0.438 NA 
HETATM    2  C   UNL     1      -8.401  10.843  69.227  1.00  0.00    -0.012 C  
HETATM    3  H2  UNL     1     -10.068   9.988  70.108  1.00  0.00     0.000 HD 
HETATM    4  H1  UNL     1     -10.092  11.670  70.116  1.00  0.00     0.000 HD 
ENDROOT
BRANCH   2   5
HETATM    5  C   UNL     1      -7.993   9.574  68.436  1.00  0.00    -0.093 C  
HETATM    6  O   UNL     1      -8.886   9.301  67.344  1.00  0.00    -0.118 OA 
HETATM    7  C   UNL     1      -8.828  10.230  66.273  1.00  0.00    -0.146 C  
HETATM    8  C   UNL     1      -7.397  10.228  65.644  1.00  0.00    -0.149 C  
HETATM    9  C   UNL     1      -6.527   9.620  67.963  1.00  0.00    -0.057 C  
HETATM   10  N   UNL     1      -7.066   8.950  64.977  1.00  0.00    -0.083 NA 
HETATM   11  C   UNL     1      -6.353  10.524  66.738  1.00  0.00    -0.079 C  
HETATM   12  H   UNL     1      -5.214   8.310  67.356  1.00  0.00     0.000 HD 
HETATM   13  H1  UNL     1      -6.132   8.949  64.567  1.00  0.00     0.000 HD 
HETATM   14  H2  UNL     1      -7.772   8.708  64.282  1.00  0.00     0.000 HD 
HETATM   15  O   UNL     1      -6.118   8.283  67.647  1.00  0.00    -0.049 OA 
BRANCH   7  16
HETATM   16  O   UNL     1      -9.796   9.888  65.267  1.00  0.00    -0.302 OA 
BRANCH  16  17
HETATM   17  C   UNL     1     -10.772  10.913  64.921  1.00  0.00    -0.170 C  
HETATM   18  N   UNL     1     -10.340  10.798  62.476  1.00  0.00    -0.685 NA 
HETATM   19  C   UNL     1     -11.435  12.773  63.340  1.00  0.00    -0.454 C  
HETATM   20  H1  UNL     1     -10.099  11.314  61.630  1.00  0.00     0.000 HD 
HETATM   21  H2  UNL     1     -11.204  10.269  62.359  1.00  0.00     0.000 HD 
HETATM   22  C   UNL     1     -11.567  13.759  64.501  1.00  0.00    -0.392 C  
HETATM   23  C   UNL     1     -10.407  11.694  63.641  1.00  0.00    -0.419 C  
HETATM   24  N   UNL     1     -12.489  14.809  64.033  1.00  0.00    -1.000 NA 
HETATM   25  C   UNL     1     -12.040  13.049  65.808  1.00  0.00    -0.454 C  
HETATM   26  H   UNL     1     -12.047  11.537  67.839  1.00  0.00     0.000 HD 
HETATM   27  H1  UNL     1     -12.577  15.467  64.807  1.00  0.00     0.000 HD 
HETATM   28  C   UNL     1     -11.141  11.817  66.130  1.00  0.00    -0.307 C  
HETATM   29  H2  UNL     1     -13.384  14.448  63.700  1.00  0.00     0.000 HD 
HETATM   30  O   UNL     1     -11.822  10.985  67.100  1.00  0.00    -0.397 OA 
BRANCH  25  31
HETATM   31  O   UNL     1     -11.983  13.918  66.983  1.00  0.00    -0.391 OA 
BRANCH  31  32
HETATM   32  C   UNL     1     -10.701  14.005  67.617  1.00  0.00    -0.257 C  
HETATM   33  O   UNL     1      -9.842  14.969  66.992  1.00  0.00    -0.232 OA 
HETATM   34  C   UNL     1     -10.291  16.322  67.175  1.00  0.00    -0.285 C  
HETATM   35  C   UNL     1     -10.328  16.679  68.669  1.00  0.00    -0.304 C  
HETATM   36  H   UNL     1     -11.827  13.488  70.672  1.00  0.00     0.000 HD 
HETATM   37  C   UNL     1     -11.272  15.719  69.419  1.00  0.00    -0.324 C  
HETATM   38  H1  UNL     1     -11.913  15.397  71.364  1.00  0.00     0.000 HD 
HETATM   39  O   UNL     1     -10.727  18.035  68.892  1.00  0.00    -0.330 OA 
HETATM   40  H   UNL     1     -10.750  18.255  69.815  1.00  0.00     0.000 HD 
HETATM   41  H2  UNL     1     -11.525  17.009  71.042  1.00  0.00     0.000 HD 
HETATM   42  C   UNL     1     -10.842  14.268  69.139  1.00  0.00    -0.242 C  
HETATM   43  N   UNL     1     -11.288  16.032  70.868  1.00  0.00    -0.388 NA 
HETATM   44  O   UNL     1     -11.740  13.327  69.740  1.00  0.00    -0.298 OA 
BRANCH  34  45
HETATM   45  C   UNL     1      -9.325  17.255  66.432  1.00  0.00    -0.258 C  
HETATM   46  O   UNL     1     -10.036  18.316  65.794  1.00  0.00    -0.560 OA 
HETATM   47  H   UNL     1      -9.438  18.894  65.334  1.00  0.00     0.000 HD 
ENDBRANCH  34  45
ENDBRANCH  31  32
ENDBRANCH  25  31
ENDBRANCH  16  17
ENDBRANCH   7  16
ENDBRANCH   2   5
TORSDOF 6
ENDMDL
MODEL       11
REMARK 921   NORMALIZED FREE ENERGY PREDICTED BY IDOCK:   -7.75 KCAL/MOL
REMARK 922        TOTAL FREE ENERGY PREDICTED BY IDOCK:  -11.52 KCAL/MOL
REMARK 923 INTER-LIGAND FREE ENERGY PREDICTED BY IDOCK:  -11.14 KCAL/MOL
REMARK 924 INTRA-LIGAND FREE ENERGY PREDICTED BY IDOCK:   -0.38 KCAL/MOL
REMARK 927      BINDING AFFINITY PREDICTED BY RF-SCORE:    0.00 PKD
ROOT
HETATM    1  N   UNL     1     -13.347  12.492  72.319  1.00  0.00    -0.503 NA 
HETATM    2  C   UNL     1     -12.487  12.364  71.134  1.00  0.00    -0.222 C  
HETATM    3  H2  UNL     1     -13.132  11.773  73.010  1.00  0.00     0.000 HD 
HETATM    4  H1  UNL     1     -13.300  13.424  72.731  1.00  0.00     0.000 HD 
ENDROOT
BRANCH   2   5
HETATM    5  C   UNL     1     -12.558  10.948  70.508  1.00  0.00    -0.324 C  
HETATM    6  O   UNL     1     -12.769  10.988  69.088  1.00  0.00    -0.277 OA 
HETATM    7  C   UNL     1     -11.677  11.485  68.331  1.00  0.00    -0.303 C  
HETATM    8  C   UNL     1     -10.427  10.568  68.535  1.00  0.00    -0.188 C  
HETATM    9  C   UNL     1     -11.334  10.082  70.868  1.00  0.00    -0.361 C  
HETATM   10  N   UNL     1     -10.614   9.213  67.973  1.00  0.00    -0.355 NA 
HETATM   11  C   UNL     1     -10.104  10.464  70.037  1.00  0.00    -0.078 C  
HETATM   12  H   UNL     1     -10.921   8.175  70.859  1.00  0.00     0.000 HD 
HETATM   13  H1  UNL     1      -9.799   8.614  68.106  1.00  0.00     0.000 HD 
HETATM   14  H2  UNL     1     -10.879   9.258  66.990  1.00  0.00     0.000 HD 
HETATM   15  O   UNL     1     -11.675   8.709  70.637  1.00  0.00    -0.255 OA 
BRANCH   7  16
HETATM   16  O   UNL     1     -12.019  11.529  66.935  1.00  0.00    -0.516 OA 
BRANCH  16  17
HETATM   17  C   UNL     1     -12.228  12.848  66.352  1.00  0.00    -0.231 C  
HETATM   18  N   UNL     1     -13.083  11.987  64.183  1.00  0.00    -0.685 NA 
HETATM   19  C   UNL     1     -12.277  14.266  64.259  1.00  0.00    -0.451 C  
HETATM   20  H1  UNL     1     -12.989  11.998  63.168  1.00  0.00     0.000 HD 
HETATM   21  H2  UNL     1     -14.031  12.225  64.475  1.00  0.00     0.000 HD 
HETATM   22  C   UNL     1     -11.272  15.250  64.860  1.00  0.00    -0.415 C  
HETATM   23  C   UNL     1     -12.085  12.865  64.816  1.00  0.00    -0.422 C  
HETATM   24  N   UNL     1     -11.483  16.523  64.150  1.00  0.00    -1.463 NA 
HETATM   25  C   UNL     1     -11.434  15.363  66.408  1.00  0.00     0.001 C  
HETATM   26  H   UNL     1     -11.433  14.745  68.863  1.00  0.00     0.000 HD 
HETATM   27  H1  UNL     1     -10.813  17.179  64.550  1.00  0.00     0.000 HD 
HETATM   28  C   UNL     1     -11.410  13.955  67.076  1.00  0.00    -0.326 C  
HETATM   29  H2  UNL     1     -12.448  16.854  64.182  1.00  0.00     0.000 HD 
HETATM   30  O   UNL     1     -11.933  14.069  68.421  1.00  0.00    -0.349 OA 
BRANCH  25  31
HETATM   31  O   UNL     1     -10.364  16.135  67.038  1.00  0.00    -0.281 OA 
BRANCH  31  32
HETATM   32  C   UNL     1      -9.126  16.166  66.317  1.00  0.00    -0.338 C  
HETATM   33  O   UNL     1      -8.843  17.458  65.764  1.00  0.00    -0.522 OA 
HETATM   34  C   UNL     1      -8.560  18.448  66.766  1.00  0.00    -0.276 C  
HETATM   35  C   UNL     1      -7.322  18.047  67.583  1.00  0.00    -0.208 C  
HETATM   36  H   UNL     1      -7.551  14.065  68.311  1.00  0.00     0.000 HD 
HETATM   37  C   UNL     1      -7.555  16.682  68.260  1.00  0.00    -0.181 C  
HETATM   38  H1  UNL     1      -6.508  15.366  69.472  1.00  0.00     0.000 HD 
HETATM   39  O   UNL     1      -6.979  19.031  68.564  1.00  0.00    -0.253 OA 
HETATM   40  H   UNL     1      -6.214  18.783  69.069  1.00  0.00     0.000 HD 
HETATM   41  H2  UNL     1      -6.067  16.981  69.695  1.00  0.00     0.000 HD 
HETATM   42  C   UNL     1      -7.952  15.650  67.191  1.00  0.00    -0.219 C  
HETATM   43  N   UNL     1      -6.353  16.269  69.024  1.00  0.00    -0.143 NA 
HETATM   44  O   UNL     1      -8.269  14.381  67.776  1.00  0.00    -0.144 OA 
BRANCH  34  45
HETATM   45  C   UNL     1      -8.317  19.791  66.063  1.00  0.00    -0.295 C  
HETATM   46  O   UNL     1      -8.908  20.862  66.798  1.00  0.00    -0.558 OA 
HETATM   47  H   UNL     1      -8.758  21.693  66.364  1.00  0.00     0.000 HD 
ENDBRANCH  34  45
ENDBRANCH  31  32
ENDBRANCH  25  31
ENDBRANCH  16  17
ENDBRANCH   7  16
ENDBRANCH   2   5
TORSDOF 6
ENDMDL
MODEL       12
REMARK 921   NORMALIZED FREE ENERGY PREDICTED BY IDOCK:   -7.73 KCAL/MOL
REMARK 922        TOTAL FREE ENERGY PREDICTED BY IDOCK:  -11.49 KCAL/MOL
REMARK 923 INTER-LIGAND FREE ENERGY PREDICTED BY IDOCK:  -10.22 KCAL/MOL
REMARK 924 INTRA-LIGAND FREE ENERGY PREDICTED BY IDOCK:   -1.27 KCAL/MOL
REMARK 927      BINDING AFFINITY PREDICTED BY RF-SCORE:    0.00 PKD
ROOT
HETATM    1  N   UNL     1     -12.005   9.736  69.947  1.00  0.00    -0.459 NA 
HETATM    2  C   UNL     1     -10.559   9.999  69.968  1.00  0.00    -0.293 C  
HETATM    3  H2  UNL     1     -12.212   8.789  70.264  1.00  0.00     0.000 HD 
HETATM    4  H1  UNL     1     -12.531  10.426  70.481  1.00  0.00     0.000 HD 
ENDROOT
BRANCH   2   5
HETATM    5  C   UNL     1      -9.759   8.949  69.156  1.00  0.00    -0.168 C  
HETATM    6  O   UNL     1     -10.110   8.954  67.763  1.00  0.00    -0.185 OA 
HETATM    7  C   UNL     1      -9.706  10.110  67.045  1.00  0.00    -0.180 C  
HETATM    8  C   UNL     1      -8.148  10.240  67.078  1.00  0.00    -0.121 C  
HETATM    9  C   UNL     1      -8.237   9.087  69.351  1.00  0.00    -0.117 C  
HETATM   10  N   UNL     1      -7.468   9.152  66.341  1.00  0.00    -0.092 NA 
HETATM   11  C   UNL     1      -7.663  10.254  68.539  1.00  0.00    -0.091 C  
HETATM   12  H   UNL     1      -6.683   7.943  69.064  1.00  0.00     0.000 HD 
HETATM   13  H1  UNL     1      -6.452   9.237  66.362  1.00  0.00     0.000 HD 
HETATM   14  H2  UNL     1      -7.811   9.090  65.383  1.00  0.00     0.000 HD 
HETATM   15  O   UNL     1      -7.621   7.858  68.944  1.00  0.00    -0.096 OA 
BRANCH   7  16
HETATM   16  O   UNL     1     -10.154  10.028  65.682  1.00  0.00    -0.282 OA 
BRANCH  16  17
HETATM   17  C   UNL     1     -11.018  11.103  65.210  1.00  0.00    -0.083 C  
HETATM   18  N   UNL     1     -10.484  10.763  62.806  1.00  0.00    -0.741 NA 
HETATM   19  C   UNL     1     -11.438  12.885  63.465  1.00  0.00    -0.470 C  
HETATM   20  H1  UNL     1     -10.159  11.190  61.939  1.00  0.00     0.000 HD 
HETATM   21  H2  UNL     1     -11.385  10.302  62.683  1.00  0.00     0.000 HD 
HETATM   22  C   UNL     1     -11.537  13.966  64.542  1.00  0.00    -0.393 C  
HETATM   23  C   UNL     1     -10.525  11.749  63.898  1.00  0.00    -0.390 C  
HETATM   24  N   UNL     1     -12.339  15.050  63.951  1.00  0.00    -1.059 NA 
HETATM   25  C   UNL     1     -12.132  13.401  65.871  1.00  0.00    -0.439 C  
HETATM   26  H   UNL     1     -12.368  12.057  68.003  1.00  0.00     0.000 HD 
HETATM   27  H1  UNL     1     -12.404  15.771  64.669  1.00  0.00     0.000 HD 
HETATM   28  C   UNL     1     -11.362  12.125  66.329  1.00  0.00    -0.357 C  
HETATM   29  H2  UNL     1     -13.246  14.742  63.598  1.00  0.00     0.000 HD 
HETATM   30  O   UNL     1     -12.158  11.432  67.319  1.00  0.00    -0.464 OA 
BRANCH  25  31
HETATM   31  O   UNL     1     -12.053  14.350  66.980  1.00  0.00    -0.418 OA 
BRANCH  31  32
HETATM   32  C   UNL     1     -10.848  14.287  67.755  1.00  0.00    -0.253 C  
HETATM   33  O   UNL     1      -9.830  15.168  67.263  1.00  0.00    -0.225 OA 
HETATM   34  C   UNL     1     -10.156  16.557  67.442  1.00  0.00    -0.279 C  
HETATM   35  C   UNL     1     -10.325  16.881  68.935  1.00  0.00    -0.333 C  
HETATM   36  H   UNL     1     -12.360  13.821  70.647  1.00  0.00     0.000 HD 
HETATM   37  C   UNL     1     -11.441  16.008  69.541  1.00  0.00    -0.326 C  
HETATM   38  H1  UNL     1     -12.329  15.710  71.391  1.00  0.00     0.000 HD 
HETATM   39  O   UNL     1     -10.606  18.265  69.159  1.00  0.00    -0.377 OA 
HETATM   40  H   UNL     1     -10.711  18.465  70.082  1.00  0.00     0.000 HD 
HETATM   41  H2  UNL     1     -11.743  17.280  71.171  1.00  0.00     0.000 HD 
HETATM   42  C   UNL     1     -11.133  14.527  69.260  1.00  0.00    -0.270 C  
HETATM   43  N   UNL     1     -11.590  16.288  70.990  1.00  0.00    -0.384 NA 
HETATM   44  O   UNL     1     -12.186  13.673  69.725  1.00  0.00    -0.321 OA 
BRANCH  34  45
HETATM   45  C   UNL     1      -9.022  17.400  66.844  1.00  0.00    -0.245 C  
HETATM   46  O   UNL     1      -9.434  18.755  66.672  1.00  0.00    -0.307 OA 
HETATM   47  H   UNL     1      -8.732  19.277  66.302  1.00  0.00     0.000 HD 
ENDBRANCH  34  45
ENDBRANCH  31  32
ENDBRANCH  25  31
ENDBRANCH  16  17
ENDBRANCH   7  16
ENDBRANCH   2   5
TORSDOF 6
ENDMDL
MODEL       13
REMARK 921   NORMALIZED FREE ENERGY PREDICTED BY IDOCK:   -7.67 KCAL/MOL
REMARK 922        TOTAL FREE ENERGY PREDICTED BY IDOCK:  -11.42 KCAL/MOL
REMARK 923 INTER-LIGAND FREE ENERGY PREDICTED BY IDOCK:  -10.31 KCAL/MOL
REMARK 924 INTRA-LIGAND FREE ENERGY PREDICTED BY IDOCK:   -1.10 KCAL/MOL
REMARK 927      BINDING AFFINITY PREDICTED BY RF-SCORE:    0.00 PKD
ROOT
HETATM    1  N   UNL     1     -11.339  16.329  64.065  1.00  0.00    -1.475 NA 
HETATM    2  C   UNL     1     -10.846  15.682  65.290  1.00  0.00    -0.406 C  
HETATM    3  H2  UNL     1     -11.972  15.716  63.554  1.00  0.00     0.000 HD 
HETATM    4  H1  UNL     1     -11.773  17.232  64.254  1.00  0.00     0.000 HD 
ENDROOT
BRANCH   2   5
HETATM    5  C   UNL     1     -10.186  14.310  65.003  1.00  0.00    -0.372 C  
HETATM    6  O   UNL     1      -9.816  13.620  66.208  1.00  0.00    -0.289 OA 
HETATM    7  C   UNL     1     -10.902  13.158  66.995  1.00  0.00    -0.264 C  
HETATM    8  C   UNL     1     -11.752  12.131  66.177  1.00  0.00    -0.315 C  
HETATM    9  C   UNL     1     -11.051  13.419  64.090  1.00  0.00    -0.327 C  
HETATM   10  N   UNL     1     -11.015  10.882  65.885  1.00  0.00    -0.063 NA 
HETATM   11  C   UNL     1     -12.213  12.778  64.858  1.00  0.00    -0.519 C  
HETATM   12  H   UNL     1     -10.743  11.850  62.972  1.00  0.00     0.000 HD 
HETATM   13  H1  UNL     1     -11.570  10.212  65.352  1.00  0.00     0.000 HD 
HETATM   14  H2  UNL     1     -10.656  10.461  66.741  1.00  0.00     0.000 HD 
HETATM   15  O   UNL     1     -10.210  12.400  63.535  1.00  0.00    -0.414 OA 
BRANCH   7  16
HETATM   16  O   UNL     1     -10.415  12.533  68.194  1.00  0.00    -0.215 OA 
BRANCH  16  17
HETATM   17  C   UNL     1     -11.396  11.832  69.013  1.00  0.00    -0.278 C  
HETATM   18  N   UNL     1     -12.641  13.886  69.654  1.00  0.00    -0.344 NA 
HETATM   19  C   UNL     1     -12.943  11.909  71.012  1.00  0.00    -0.180 C  
HETATM   20  H1  UNL     1     -13.008  14.454  70.417  1.00  0.00     0.000 HD 
HETATM   21  H2  UNL     1     -13.371  13.639  68.985  1.00  0.00     0.000 HD 
HETATM   22  C   UNL     1     -12.307  10.646  71.596  1.00  0.00    -0.234 C  
HETATM   23  C   UNL     1     -11.951  12.692  70.168  1.00  0.00    -0.299 C  
HETATM   24  N   UNL     1     -13.326  10.057  72.482  1.00  0.00    -0.560 NA 
HETATM   25  C   UNL     1     -11.818   9.677  70.475  1.00  0.00    -0.215 C  
HETATM   26  H   UNL     1     -10.496   8.753  68.523  1.00  0.00     0.000 HD 
HETATM   27  H1  UNL     1     -12.901   9.215  72.872  1.00  0.00     0.000 HD 
HETATM   28  C   UNL     1     -10.909  10.423  69.451  1.00  0.00    -0.248 C  
HETATM   29  H2  UNL     1     -14.220   9.887  72.021  1.00  0.00     0.000 HD 
HETATM   30  O   UNL     1     -10.794   9.614  68.256  1.00  0.00    -0.231 OA 
BRANCH  25  31
HETATM   31  O   UNL     1     -11.027   8.561  70.991  1.00  0.00    -0.233 OA 
BRANCH  31  32
HETATM   32  C   UNL     1     -11.678   7.284  70.959  1.00  0.00    -0.307 C  
HETATM   33  O   UNL     1     -11.676   6.698  69.651  1.00  0.00    -0.298 OA 
HETATM   34  C   UNL     1     -10.364   6.308  69.212  1.00  0.00    -0.218 C  
HETATM   35  C   UNL     1      -9.772   5.253  70.160  1.00  0.00    -0.196 C  
HETATM   36  H   UNL     1     -10.676   6.348  73.957  1.00  0.00     0.000 HD 
HETATM   37  C   UNL     1      -9.689   5.817  71.592  1.00  0.00    -0.161 C  
HETATM   38  H1  UNL     1      -9.096   5.168  73.470  1.00  0.00     0.000 HD 
HETATM   39  O   UNL     1      -8.483   4.804  69.732  1.00  0.00    -0.074 OA 
HETATM   40  H   UNL     1      -8.116   4.153  70.318  1.00  0.00     0.000 HD 
HETATM   41  H2  UNL     1      -8.253   4.430  72.206  1.00  0.00     0.000 HD 
HETATM   42  C   UNL     1     -11.079   6.320  72.017  1.00  0.00    -0.268 C  
HETATM   43  N   UNL     1      -9.151   4.795  72.522  1.00  0.00    -0.128 NA 
HETATM   44  O   UNL     1     -11.043   6.938  73.310  1.00  0.00    -0.254 OA 
BRANCH  34  45
HETATM   45  C   UNL     1     -10.480   5.737  67.792  1.00  0.00    -0.226 C  
HETATM   46  O   UNL     1     -11.300   6.572  66.976  1.00  0.00    -0.703 OA 
HETATM   47  H   UNL     1     -11.372   6.219  66.097  1.00  0.00     0.000 HD 
ENDBRANCH  34  45
ENDBRANCH  31  32
ENDBRANCH  25  31
ENDBRANCH  16  17
ENDBRANCH   7  16
ENDBRANCH   2   5
TORSDOF 6
ENDMDL
MODEL       14
REMARK 921   NORMALIZED FREE ENERGY PREDICTED BY IDOCK:   -7.66 KCAL/MOL
REMARK 922        TOTAL FREE ENERGY PREDICTED BY IDOCK:  -11.40 KCAL/MOL
REMARK 923 INTER-LIGAND FREE ENERGY PREDICTED BY IDOCK:  -10.31 KCAL/MOL
REMARK 924 INTRA-LIGAND FREE ENERGY PREDICTED BY IDOCK:   -1.09 KCAL/MOL
REMARK 927      BINDING AFFINITY PREDICTED BY RF-SCORE:    0.00 PKD
ROOT
HETATM    1  N   UNL     1      -7.354  14.629  66.951  1.00  0.00    -0.297 NA 
HETATM    2  C   UNL     1      -7.209  16.012  67.426  1.00  0.00    -0.187 C  
HETATM    3  H2  UNL     1      -7.144  14.557  65.956  1.00  0.00     0.000 HD 
HETATM    4  H1  UNL     1      -6.792  13.973  67.494  1.00  0.00     0.000 HD 
ENDROOT
BRANCH   2   5
HETATM    5  C   UNL     1      -8.063  17.008  66.601  1.00  0.00    -0.262 C  
HETATM    6  O   UNL     1      -9.470  16.846  66.836  1.00  0.00    -0.236 OA 
HETATM    7  C   UNL     1      -9.912  17.229  68.129  1.00  0.00    -0.303 C  
HETATM    8  C   UNL     1      -9.630  18.749  68.360  1.00  0.00    -0.365 C  
HETATM    9  C   UNL     1      -7.625  18.472  66.807  1.00  0.00    -0.229 C  
HETATM   10  N   UNL     1     -10.434  19.621  67.476  1.00  0.00    -0.448 NA 
HETATM   11  C   UNL     1      -8.132  19.034  68.141  1.00  0.00    -0.347 C  
HETATM   12  H   UNL     1      -7.872  20.152  65.847  1.00  0.00     0.000 HD 
HETATM   13  H1  UNL     1     -10.249  20.613  67.626  1.00  0.00     0.000 HD 
HETATM   14  H2  UNL     1     -11.428  19.416  67.567  1.00  0.00     0.000 HD 
HETATM   15  O   UNL     1      -8.142  19.250  65.720  1.00  0.00    -0.448 OA 
BRANCH   7  16
HETATM   16  O   UNL     1     -11.321  16.974  68.267  1.00  0.00    -0.174 OA 
BRANCH  16  17
HETATM   17  C   UNL     1     -11.709  15.618  68.633  1.00  0.00    -0.352 C  
HETATM   18  N   UNL     1     -12.269  16.187  70.987  1.00  0.00    -0.537 NA 
HETATM   19  C   UNL     1     -11.862  13.865  70.449  1.00  0.00    -0.335 C  
HETATM   20  H1  UNL     1     -12.113  15.975  71.972  1.00  0.00     0.000 HD 
HETATM   21  H2  UNL     1     -13.260  16.155  70.747  1.00  0.00     0.000 HD 
HETATM   22  C   UNL     1     -11.077  12.866  69.599  1.00  0.00     0.094 C  
HETATM   23  C   UNL     1     -11.474  15.298  70.124  1.00  0.00    -0.292 C  
HETATM   24  N   UNL     1     -11.452  11.532  70.097  1.00  0.00    -0.496 NA 
HETATM   25  C   UNL     1     -11.353  13.065  68.075  1.00  0.00    -0.290 C  
HETATM   26  H   UNL     1     -11.405  14.116  65.772  1.00  0.00     0.000 HD 
HETATM   27  H1  UNL     1     -10.928  10.865  69.530  1.00  0.00     0.000 HD 
HETATM   28  C   UNL     1     -11.136  14.552  67.658  1.00  0.00    -0.304 C  
HETATM   29  H2  UNL     1     -12.459  11.364  70.098  1.00  0.00     0.000 HD 
HETATM   30  O   UNL     1     -11.755  14.768  66.368  1.00  0.00    -0.346 OA 
BRANCH  25  31
HETATM   31  O   UNL     1     -10.470  12.267  67.226  1.00  0.00    -0.215 OA 
BRANCH  31  32
HETATM   32  C   UNL     1     -11.078  11.119  66.619  1.00  0.00    -0.189 C  
HETATM   33  O   UNL     1     -12.030  11.471  65.608  1.00  0.00    -0.150 OA 
HETATM   34  C   UNL     1     -11.423  12.061  64.447  1.00  0.00    -0.343 C  
HETATM   35  C   UNL     1     -10.442  11.075  63.793  1.00  0.00    -0.341 C  
HETATM   36  H   UNL     1      -8.380   9.228  66.755  1.00  0.00     0.000 HD 
HETATM   37  C   UNL     1      -9.346  10.676  64.800  1.00  0.00    -0.233 C  
HETATM   38  H1  UNL     1      -7.686   9.434  64.857  1.00  0.00     0.000 HD 
HETATM   39  O   UNL     1      -9.849  11.609  62.605  1.00  0.00    -0.539 OA 
HETATM   40  H   UNL     1      -9.242  11.000  62.202  1.00  0.00     0.000 HD 
HETATM   41  H2  UNL     1      -8.017  10.044  63.317  1.00  0.00     0.000 HD 
HETATM   42  C   UNL     1     -10.007  10.135  66.079  1.00  0.00    -0.256 C  
HETATM   43  N   UNL     1      -8.412   9.698  64.190  1.00  0.00    -0.165 NA 
HETATM   44  O   UNL     1      -9.036   9.831  67.087  1.00  0.00    -0.134 OA 
BRANCH  34  45
HETATM   45  C   UNL     1     -12.536  12.434  63.457  1.00  0.00    -0.500 C  
HETATM   46  O   UNL     1     -12.404  13.791  63.034  1.00  0.00    -1.089 OA 
HETATM   47  H   UNL     1     -13.092  14.021  62.421  1.00  0.00     0.000 HD 
ENDBRANCH  34  45
ENDBRANCH  31  32
ENDBRANCH  25  31
ENDBRANCH  16  17
ENDBRANCH   7  16
ENDBRANCH   2   5
TORSDOF 6
ENDMDL
MODEL       15
REMARK 921   NORMALIZED FREE ENERGY PREDICTED BY IDOCK:   -7.60 KCAL/MOL
REMARK 922        TOTAL FREE ENERGY PREDICTED BY IDOCK:  -11.32 KCAL/MOL
REMARK 923 INTER-LIGAND FREE ENERGY PREDICTED BY IDOCK:  -10.72 KCAL/MOL
REMARK 924 INTRA-LIGAND FREE ENERGY PREDICTED BY IDOCK:   -0.59 KCAL/MOL
REMARK 927      BINDING AFFINITY PREDICTED BY RF-SCORE:    0.00 PKD
ROOT
HETATM    1  N   UNL     1     -10.651  15.104  70.524  1.00  0.00    -0.525 NA 
HETATM    2  C   UNL     1     -11.002  16.335  69.800  1.00  0.00    -0.354 C  
HETATM    3  H2  UNL     1      -9.972  15.291  71.261  1.00  0.00     0.000 HD 
HETATM    4  H1  UNL     1     -11.472  14.627  70.894  1.00  0.00     0.000 HD 
ENDROOT
BRANCH   2   5
HETATM    5  C   UNL     1      -9.753  17.061  69.239  1.00  0.00    -0.083 C  
HETATM    6  O   UNL     1      -9.205  16.395  68.090  1.00  0.00    -0.196 OA 
HETATM    7  C   UNL     1     -10.009  16.451  66.922  1.00  0.00    -0.271 C  
HETATM    8  C   UNL     1     -10.205  17.938  66.481  1.00  0.00    -0.379 C  
HETATM    9  C   UNL     1     -10.018  18.551  68.949  1.00  0.00    -0.347 C  
HETATM   10  N   UNL     1      -8.946  18.572  66.033  1.00  0.00    -0.484 NA 
HETATM   11  C   UNL     1     -10.803  18.747  67.647  1.00  0.00    -0.382 C  
HETATM   12  H   UNL     1      -8.917  20.140  68.686  1.00  0.00     0.000 HD 
HETATM   13  H1  UNL     1      -9.074  19.543  65.745  1.00  0.00     0.000 HD 
HETATM   14  H2  UNL     1      -8.505  18.027  65.293  1.00  0.00     0.000 HD 
HETATM   15  O   UNL     1      -8.754  19.221  68.864  1.00  0.00    -0.362 OA 
BRANCH   7  16
HETATM   16  O   UNL     1      -9.389  15.711  65.857  1.00  0.00    -0.335 OA 
BRANCH  16  17
HETATM   17  C   UNL     1     -10.196  14.678  65.219  1.00  0.00    -0.391 C  
HETATM   18  N   UNL     1     -11.424  16.253  63.740  1.00  0.00    -1.429 NA 
HETATM   19  C   UNL     1     -12.389  14.069  64.118  1.00  0.00    -0.374 C  
HETATM   20  H1  UNL     1     -12.334  16.590  63.426  1.00  0.00     0.000 HD 
HETATM   21  H2  UNL     1     -10.844  15.953  62.957  1.00  0.00     0.000 HD 
HETATM   22  C   UNL     1     -12.600  12.914  65.097  1.00  0.00    -0.471 C  
HETATM   23  C   UNL     1     -11.573  15.187  64.744  1.00  0.00    -0.364 C  
HETATM   24  N   UNL     1     -13.500  11.968  64.415  1.00  0.00    -0.339 NA 
HETATM   25  C   UNL     1     -11.244  12.278  65.538  1.00  0.00    -0.332 C  
HETATM   26  H   UNL     1      -8.962  12.014  66.603  1.00  0.00     0.000 HD 
HETATM   27  H1  UNL     1     -13.641  11.198  65.069  1.00  0.00     0.000 HD 
HETATM   28  C   UNL     1     -10.259  13.370  66.057  1.00  0.00    -0.300 C  
HETATM   29  H2  UNL     1     -13.162  11.670  63.500  1.00  0.00     0.000 HD 
HETATM   30  O   UNL     1      -8.924  12.813  66.092  1.00  0.00    -0.034 OA 
BRANCH  25  31
HETATM   31  O   UNL     1     -11.393  11.310  66.624  1.00  0.00    -0.338 OA 
BRANCH  31  32
HETATM   32  C   UNL     1     -10.503  11.492  67.732  1.00  0.00    -0.188 C  
HETATM   33  O   UNL     1     -11.182  11.925  68.918  1.00  0.00    -0.218 OA 
HETATM   34  C   UNL     1     -12.047  10.917  69.469  1.00  0.00    -0.309 C  
HETATM   35  C   UNL     1     -11.237   9.672  69.864  1.00  0.00    -0.207 C  
HETATM   36  H   UNL     1      -8.508   8.989  66.945  1.00  0.00     0.000 HD 
HETATM   37  C   UNL     1     -10.506   9.105  68.631  1.00  0.00    -0.207 C  
HETATM   38  H1  UNL     1      -9.211   7.547  68.191  1.00  0.00     0.000 HD 
HETATM   39  O   UNL     1     -12.056   8.661  70.459  1.00  0.00    -0.489 OA 
HETATM   40  H   UNL     1     -11.555   7.891  70.703  1.00  0.00     0.000 HD 
HETATM   41  H2  UNL     1     -10.254   7.211  69.477  1.00  0.00     0.000 HD 
HETATM   42  C   UNL     1      -9.658  10.217  67.991  1.00  0.00    -0.145 C  
HETATM   43  N   UNL     1      -9.694   7.922  69.007  1.00  0.00    -0.159 NA 
HETATM   44  O   UNL     1      -9.025   9.770  66.786  1.00  0.00    -0.136 OA 
BRANCH  34  45
HETATM   45  C   UNL     1     -12.748  11.504  70.702  1.00  0.00    -0.172 C  
HETATM   46  O   UNL     1     -12.238  12.803  71.004  1.00  0.00    -0.401 OA 
HETATM   47  H   UNL     1     -12.672  13.166  71.767  1.00  0.00     0.000 HD 
ENDBRANCH  34  45
ENDBRANCH  31  32
ENDBRANCH  25  31
ENDBRANCH  16  17
ENDBRANCH   7  16
ENDBRANCH   2   5
TORSDOF 6
ENDMDL
MODEL       16
REMARK 921   NORMALIZED FREE ENERGY PREDICTED BY IDOCK:   -7.52 KCAL/MOL
REMARK 922        TOTAL FREE ENERGY PREDICTED BY IDOCK:  -11.21 KCAL/MOL
REMARK 923 INTER-LIGAND FREE ENERGY PREDICTED BY IDOCK:   -9.96 KCAL/MOL
REMARK 924 INTRA-LIGAND FREE ENERGY PREDICTED BY IDOCK:   -1.25 KCAL/MOL
REMARK 927      BINDING AFFINITY PREDICTED BY RF-SCORE:    0.00 PKD
ROOT
HETATM    1  N   UNL     1     -13.934   8.962  73.387  1.00  0.00    -1.100 NA 
HETATM    2  C   UNL     1     -13.073   9.050  72.199  1.00  0.00    -0.435 C  
HETATM    3  H2  UNL     1     -13.391   8.736  74.220  1.00  0.00     0.000 HD 
HETATM    4  H1  UNL     1     -14.487   9.807  73.526  1.00  0.00     0.000 HD 
ENDROOT
BRANCH   2   5
HETATM    5  C   UNL     1     -12.232   7.766  71.988  1.00  0.00    -0.305 C  
HETATM    6  O   UNL     1     -11.849   7.583  70.616  1.00  0.00    -0.267 OA 
HETATM    7  C   UNL     1     -10.905   8.522  70.124  1.00  0.00    -0.233 C  
HETATM    8  C   UNL     1      -9.575   8.416  70.940  1.00  0.00    -0.175 C  
HETATM    9  C   UNL     1     -11.009   7.701  72.924  1.00  0.00    -0.400 C  
HETATM   10  N   UNL     1      -8.880   7.126  70.735  1.00  0.00    -0.147 NA 
HETATM   11  C   UNL     1      -9.873   8.609  72.438  1.00  0.00    -0.315 C  
HETATM   12  H   UNL     1      -9.806   6.301  73.556  1.00  0.00     0.000 HD 
HETATM   13  H1  UNL     1      -8.012   7.057  71.267  1.00  0.00     0.000 HD 
HETATM   14  H2  UNL     1      -8.716   6.953  69.743  1.00  0.00     0.000 HD 
HETATM   15  O   UNL     1     -10.560   6.341  72.978  1.00  0.00    -0.215 OA 
BRANCH   7  16
HETATM   16  O   UNL     1     -10.638   8.275  68.733  1.00  0.00    -0.202 OA 
BRANCH  16  17
HETATM   17  C   UNL     1     -10.066   9.378  67.970  1.00  0.00    -0.191 C  
HETATM   18  N   UNL     1      -8.186   8.040  67.045  1.00  0.00    -0.115 NA 
HETATM   19  C   UNL     1      -7.984  10.449  67.014  1.00  0.00    -0.116 C  
HETATM   20  H1  UNL     1      -7.177   7.963  66.923  1.00  0.00     0.000 HD 
HETATM   21  H2  UNL     1      -8.678   7.986  66.153  1.00  0.00     0.000 HD 
HETATM   22  C   UNL     1      -8.299  11.770  67.717  1.00  0.00    -0.146 C  
HETATM   23  C   UNL     1      -8.538   9.262  67.786  1.00  0.00    -0.117 C  
HETATM   24  N   UNL     1      -7.606  12.813  66.942  1.00  0.00    -0.386 NA 
HETATM   25  C   UNL     1      -9.838  12.002  67.842  1.00  0.00    -0.196 C  
HETATM   26  H   UNL     1     -12.250  11.706  68.551  1.00  0.00     0.000 HD 
HETATM   27  H1  UNL     1      -7.816  13.694  67.411  1.00  0.00     0.000 HD 
HETATM   28  C   UNL     1     -10.539  10.766  68.484  1.00  0.00    -0.195 C  
HETATM   29  H2  UNL     1      -7.846  12.811  65.950  1.00  0.00     0.000 HD 
HETATM   30  O   UNL     1     -11.961  10.858  68.237  1.00  0.00    -0.561 OA 
BRANCH  25  31
HETATM   31  O   UNL     1     -10.175  13.149  68.684  1.00  0.00    -0.234 OA 
BRANCH  31  32
HETATM   32  C   UNL     1     -11.247  13.969  68.201  1.00  0.00    -0.275 C  
HETATM   33  O   UNL     1     -12.377  13.973  69.083  1.00  0.00    -0.313 OA 
HETATM   34  C   UNL     1     -12.113  14.637  70.330  1.00  0.00    -0.319 C  
HETATM   35  C   UNL     1     -11.747  16.110  70.088  1.00  0.00    -0.181 C  
HETATM   36  H   UNL     1      -9.303  16.267  66.857  1.00  0.00     0.000 HD 
HETATM   37  C   UNL     1     -10.504  16.203  69.182  1.00  0.00    -0.265 C  
HETATM   38  H1  UNL     1      -9.338  17.682  68.313  1.00  0.00     0.000 HD 
HETATM   39  O   UNL     1     -11.520  16.819  71.309  1.00  0.00    -0.519 OA 
HETATM   40  H   UNL     1     -11.293  17.730  71.159  1.00  0.00     0.000 HD 
HETATM   41  H2  UNL     1     -10.043  18.152  69.775  1.00  0.00     0.000 HD 
HETATM   42  C   UNL     1     -10.760  15.408  67.890  1.00  0.00    -0.286 C  
HETATM   43  N   UNL     1     -10.162  17.621  68.913  1.00  0.00    -0.371 NA 
HETATM   44  O   UNL     1      -9.601  15.385  67.047  1.00  0.00    -0.211 OA 
BRANCH  34  45
HETATM   45  C   UNL     1     -13.371  14.542  71.204  1.00  0.00    -0.354 C  
HETATM   46  O   UNL     1     -14.267  15.617  70.920  1.00  0.00    -0.812 OA 
HETATM   47  H   UNL     1     -15.046  15.558  71.461  1.00  0.00     0.000 HD 
ENDBRANCH  34  45
ENDBRANCH  31  32
ENDBRANCH  25  31
ENDBRANCH  16  17
ENDBRANCH   7  16
ENDBRANCH   2   5
TORSDOF 6
ENDMDL
MODEL       17
REMARK 921   NORMALIZED FREE ENERGY PREDICTED BY IDOCK:   -7.52 KCAL/MOL
REMARK 922        TOTAL FREE ENERGY PREDICTED BY IDOCK:  -11.21 KCAL/MOL
REMARK 923 INTER-LIGAND FREE ENERGY PREDICTED BY IDOCK:  -10.64 KCAL/MOL
REMARK 924 INTRA-LIGAND FREE ENERGY PREDICTED BY IDOCK:   -0.56 KCAL/MOL
REMARK 927      BINDING AFFINITY PREDICTED BY RF-SCORE:    0.00 PKD
ROOT
HETATM    1  N   UNL     1      -9.355  20.647  65.957  1.00  0.00    -0.469 NA 
HETATM    2  C   UNL     1     -10.412  19.846  66.591  1.00  0.00    -0.460 C  
HETATM    3  H2  UNL     1      -8.604  20.054  65.604  1.00  0.00     0.000 HD 
HETATM    4  H1  UNL     1      -9.719  21.256  65.225  1.00  0.00     0.000 HD 
ENDROOT
BRANCH   2   5
HETATM    5  C   UNL     1      -9.858  18.921  67.705  1.00  0.00    -0.331 C  
HETATM    6  O   UNL     1     -10.547  17.662  67.761  1.00  0.00    -0.374 OA 
HETATM    7  C   UNL     1     -10.319  16.801  66.657  1.00  0.00    -0.297 C  
HETATM    8  C   UNL     1      -8.802  16.436  66.571  1.00  0.00    -0.281 C  
HETATM    9  C   UNL     1      -8.333  18.721  67.601  1.00  0.00    -0.271 C  
HETATM   10  N   UNL     1      -8.345  15.616  67.714  1.00  0.00    -0.145 NA 
HETATM   11  C   UNL     1      -7.964  17.726  66.495  1.00  0.00    -0.299 C  
HETATM   12  H   UNL     1      -6.919  18.121  68.804  1.00  0.00     0.000 HD 
HETATM   13  H1  UNL     1      -7.355  15.377  67.658  1.00  0.00     0.000 HD 
HETATM   14  H2  UNL     1      -8.918  14.778  67.815  1.00  0.00     0.000 HD 
HETATM   15  O   UNL     1      -7.859  18.244  68.867  1.00  0.00    -0.281 OA 
BRANCH   7  16
HETATM   16  O   UNL     1     -11.097  15.599  66.795  1.00  0.00    -0.284 OA 
BRANCH  16  17
HETATM   17  C   UNL     1     -10.926  14.585  65.762  1.00  0.00    -0.319 C  
HETATM   18  N   UNL     1     -11.913  15.966  63.946  1.00  0.00    -1.249 NA 
HETATM   19  C   UNL     1     -11.787  13.575  63.609  1.00  0.00    -0.383 C  
HETATM   20  H1  UNL     1     -12.613  16.023  63.207  1.00  0.00     0.000 HD 
HETATM   21  H2  UNL     1     -10.975  16.150  63.591  1.00  0.00     0.000 HD 
HETATM   22  C   UNL     1     -11.852  12.187  64.246  1.00  0.00    -0.378 C  
HETATM   23  C   UNL     1     -11.985  14.672  64.643  1.00  0.00    -0.462 C  
HETATM   24  N   UNL     1     -11.772  11.228  63.130  1.00  0.00    -0.781 NA 
HETATM   25  C   UNL     1     -10.734  11.992  65.319  1.00  0.00    -0.288 C  
HETATM   26  H   UNL     1      -9.380  12.277  67.439  1.00  0.00     0.000 HD 
HETATM   27  H1  UNL     1     -11.816  10.302  63.556  1.00  0.00     0.000 HD 
HETATM   28  C   UNL     1     -10.744  13.159  66.353  1.00  0.00    -0.284 C  
HETATM   29  H2  UNL     1     -10.957  11.365  62.532  1.00  0.00     0.000 HD 
HETATM   30  O   UNL     1      -9.492  13.148  67.078  1.00  0.00    -0.225 OA 
BRANCH  25  31
HETATM   31  O   UNL     1     -10.890  10.759  66.089  1.00  0.00    -0.172 OA 
BRANCH  31  32
HETATM   32  C   UNL     1      -9.708  10.304  66.760  1.00  0.00    -0.185 C  
HETATM   33  O   UNL     1      -9.834  10.351  68.187  1.00  0.00    -0.148 OA 
HETATM   34  C   UNL     1     -10.781   9.398  68.699  1.00  0.00    -0.160 C  
HETATM   35  C   UNL     1     -10.346   7.967  68.349  1.00  0.00    -0.199 C  
HETATM   36  H   UNL     1      -8.960   7.985  64.539  1.00  0.00     0.000 HD 
HETATM   37  C   UNL     1     -10.231   7.808  66.821  1.00  0.00    -0.276 C  
HETATM   38  H1  UNL     1      -9.702   6.334  65.461  1.00  0.00     0.000 HD 
HETATM   39  O   UNL     1     -11.240   6.984  68.880  1.00  0.00    -0.467 OA 
HETATM   40  H   UNL     1     -10.971   6.099  68.664  1.00  0.00     0.000 HD 
HETATM   41  H2  UNL     1     -10.378   5.725  66.885  1.00  0.00     0.000 HD 
HETATM   42  C   UNL     1      -9.290   8.893  66.270  1.00  0.00    -0.219 C  
HETATM   43  N   UNL     1      -9.778   6.439  66.473  1.00  0.00    -0.154 NA 
HETATM   44  O   UNL     1      -9.216   8.849  64.839  1.00  0.00    -0.100 OA 
BRANCH  34  45
HETATM   45  C   UNL     1     -10.863   9.569  70.222  1.00  0.00    -0.269 C  
HETATM   46  O   UNL     1     -12.111   9.087  70.720  1.00  0.00    -0.433 OA 
HETATM   47  H   UNL     1     -12.162   9.192  71.662  1.00  0.00     0.000 HD 
ENDBRANCH  34  45
ENDBRANCH  31  32
ENDBRANCH  25  31
ENDBRANCH  16  17
ENDBRANCH   7  16
ENDBRANCH   2   5
TORSDOF 6
ENDMDL
MODEL       18
REMARK 921   NORMALIZED FREE ENERGY PREDICTED BY IDOCK:   -7.51 KCAL/MOL
REMARK 922        TOTAL FREE ENERGY PREDICTED BY IDOCK:  -11.19 KCAL/MOL
REMARK 923 INTER-LIGAND FREE ENERGY PREDICTED BY IDOCK:   -9.80 KCAL/MOL
REMARK 924 INTRA-LIGAND FREE ENERGY PREDICTED BY IDOCK:   -1.40 KCAL/MOL
REMARK 927      BINDING AFFINITY PREDICTED BY RF-SCORE:    0.00 PKD
ROOT
HETATM    1  N   UNL     1     -13.330  12.404  72.344  1.00  0.00    -0.527 NA 
HETATM    2  C   UNL     1     -12.512  11.747  71.314  1.00  0.00    -0.246 C  
HETATM    3  H2  UNL     1     -13.531  11.768  73.115  1.00  0.00     0.000 HD 
HETATM    4  H1  UNL     1     -12.907  13.269  72.679  1.00  0.00     0.000 HD 
ENDROOT
BRANCH   2   5
HETATM    5  C   UNL     1     -13.155  10.432  70.804  1.00  0.00    -0.286 C  
HETATM    6  O   UNL     1     -12.387   9.820  69.755  1.00  0.00     0.225 OA 
HETATM    7  C   UNL     1     -11.136   9.286  70.159  1.00  0.00    -0.230 C  
HETATM    8  C   UNL     1     -11.356   8.158  71.220  1.00  0.00    -0.265 C  
HETATM    9  C   UNL     1     -13.442   9.435  71.944  1.00  0.00    -0.426 C  
HETATM   10  N   UNL     1     -12.044   6.974  70.661  1.00  0.00    -0.546 NA 
HETATM   11  C   UNL     1     -12.168   8.716  72.403  1.00  0.00    -0.419 C  
HETATM   12  H   UNL     1     -14.577   7.866  72.173  1.00  0.00     0.000 HD 
HETATM   13  H1  UNL     1     -12.188   6.238  71.353  1.00  0.00     0.000 HD 
HETATM   14  H2  UNL     1     -11.551   6.616  69.844  1.00  0.00     0.000 HD 
HETATM   15  O   UNL     1     -14.400   8.480  71.471  1.00  0.00    -0.424 OA 
BRANCH   7  16
HETATM   16  O   UNL     1     -10.437   8.749  69.023  1.00  0.00    -0.215 OA 
BRANCH  16  17
HETATM   17  C   UNL     1      -9.372   9.570  68.461  1.00  0.00    -0.137 C  
HETATM   18  N   UNL     1      -7.960   9.512  70.505  1.00  0.00    -0.180 NA 
HETATM   19  C   UNL     1      -7.536  11.256  68.885  1.00  0.00    -0.123 C  
HETATM   20  H1  UNL     1      -7.457  10.056  71.207  1.00  0.00     0.000 HD 
HETATM   21  H2  UNL     1      -7.352   8.829  70.053  1.00  0.00     0.000 HD 
HETATM   22  C   UNL     1      -8.126  12.212  67.848  1.00  0.00    -0.153 C  
HETATM   23  C   UNL     1      -8.612  10.393  69.522  1.00  0.00    -0.093 C  
HETATM   24  N   UNL     1      -7.010  13.065  67.406  1.00  0.00    -0.275 NA 
HETATM   25  C   UNL     1      -8.821  11.439  66.683  1.00  0.00    -0.183 C  
HETATM   26  H   UNL     1     -10.463   9.973  65.431  1.00  0.00     0.000 HD 
HETATM   27  H1  UNL     1      -7.404  13.703  66.714  1.00  0.00     0.000 HD 
HETATM   28  C   UNL     1      -9.845  10.400  67.235  1.00  0.00    -0.178 C  
HETATM   29  H2  UNL     1      -6.204  12.540  67.064  1.00  0.00     0.000 HD 
HETATM   30  O   UNL     1     -10.174   9.466  66.180  1.00  0.00    -0.279 OA 
BRANCH  25  31
HETATM   31  O   UNL     1      -9.570  12.315  65.783  1.00  0.00    -0.241 OA 
BRANCH  31  32
HETATM   32  C   UNL     1     -10.818  12.797  66.297  1.00  0.00    -0.275 C  
HETATM   33  O   UNL     1     -10.694  14.075  66.934  1.00  0.00    -0.282 OA 
HETATM   34  C   UNL     1     -10.391  15.135  66.012  1.00  0.00    -0.311 C  
HETATM   35  C   UNL     1     -11.511  15.278  64.970  1.00  0.00    -0.300 C  
HETATM   36  H   UNL     1     -12.660  11.551  63.864  1.00  0.00     0.000 HD 
HETATM   37  C   UNL     1     -11.684  13.957  64.196  1.00  0.00    -0.340 C  
HETATM   38  H1  UNL     1     -12.900  13.197  62.698  1.00  0.00     0.000 HD 
HETATM   39  O   UNL     1     -11.268  16.354  64.059  1.00  0.00    -1.333 OA 
HETATM   40  H   UNL     1     -11.960  16.442  63.414  1.00  0.00     0.000 HD 
HETATM   41  H2  UNL     1     -12.652  14.864  62.583  1.00  0.00     0.000 HD 
HETATM   42  C   UNL     1     -11.912  12.811  65.197  1.00  0.00    -0.424 C  
HETATM   43  N   UNL     1     -12.786  14.072  63.211  1.00  0.00    -0.492 NA 
HETATM   44  O   UNL     1     -11.990  11.542  64.537  1.00  0.00    -0.078 OA 
BRANCH  34  45
HETATM   45  C   UNL     1     -10.240  16.439  66.808  1.00  0.00    -0.285 C  
HETATM   46  O   UNL     1      -9.464  17.390  66.079  1.00  0.00    -0.473 OA 
HETATM   47  H   UNL     1      -9.371  18.197  66.571  1.00  0.00     0.000 HD 
ENDBRANCH  34  45
ENDBRANCH  31  32
ENDBRANCH  25  31
ENDBRANCH  16  17
ENDBRANCH   7  16
ENDBRANCH   2   5
TORSDOF 6
ENDMDL
MODEL       19
REMARK 921   NORMALIZED FREE ENERGY PREDICTED BY IDOCK:   -7.50 KCAL/MOL
REMARK 922        TOTAL FREE ENERGY PREDICTED BY IDOCK:  -11.18 KCAL/MOL
REMARK 923 INTER-LIGAND FREE ENERGY PREDICTED BY IDOCK:   -9.30 KCAL/MOL
REMARK 924 INTRA-LIGAND FREE ENERGY PREDICTED BY IDOCK:   -1.88 KCAL/MOL
REMARK 927      BINDING AFFINITY PREDICTED BY RF-SCORE:    0.00 PKD
ROOT
HETATM    1  N   UNL     1     -11.250  14.281  69.525  1.00  0.00    -0.302 NA 
HETATM    2  C   UNL     1     -11.371  15.201  68.384  1.00  0.00    -0.315 C  
HETATM    3  H2  UNL     1     -10.305  14.294  69.909  1.00  0.00     0.000 HD 
HETATM    4  H1  UNL     1     -11.944  14.468  70.248  1.00  0.00     0.000 HD 
ENDROOT
BRANCH   2   5
HETATM    5  C   UNL     1     -10.316  14.916  67.286  1.00  0.00    -0.251 C  
HETATM    6  O   UNL     1     -10.329  13.545  66.858  1.00  0.00    -0.260 OA 
HETATM    7  C   UNL     1     -11.483  13.153  66.132  1.00  0.00    -0.330 C  
HETATM    8  C   UNL     1     -11.597  13.994  64.819  1.00  0.00    -0.381 C  
HETATM    9  C   UNL     1     -10.438  15.878  66.088  1.00  0.00    -0.326 C  
HETATM   10  N   UNL     1     -10.505  13.711  63.862  1.00  0.00    -0.511 NA 
HETATM   11  C   UNL     1     -11.602  15.494  65.167  1.00  0.00    -0.060 C  
HETATM   12  H   UNL     1      -9.279  16.435  64.620  1.00  0.00     0.000 HD 
HETATM   13  H1  UNL     1     -10.580  14.260  63.005  1.00  0.00     0.000 HD 
HETATM   14  H2  UNL     1     -10.450  12.715  63.654  1.00  0.00     0.000 HD 
HETATM   15  O   UNL     1      -9.204  15.842  65.359  1.00  0.00    -0.271 OA 
BRANCH   7  16
HETATM   16  O   UNL     1     -11.411  11.755  65.803  1.00  0.00    -0.318 OA 
BRANCH  16  17
HETATM   17  C   UNL     1     -10.353  10.984  66.446  1.00  0.00    -0.250 C  
HETATM   18  N   UNL     1      -8.882  10.935  64.443  1.00  0.00    -0.341 NA 
HETATM   19  C   UNL     1      -8.486   9.299  66.179  1.00  0.00    -0.135 C  
HETATM   20  H1  UNL     1      -8.353  10.356  63.791  1.00  0.00     0.000 HD 
HETATM   21  H2  UNL     1      -8.296  11.652  64.870  1.00  0.00     0.000 HD 
HETATM   22  C   UNL     1      -9.097   8.401  67.255  1.00  0.00    -0.137 C  
HETATM   23  C   UNL     1      -9.553  10.108  65.459  1.00  0.00    -0.250 C  
HETATM   24  N   UNL     1      -7.984   7.591  67.781  1.00  0.00    -0.116 NA 
HETATM   25  C   UNL     1      -9.835   9.234  68.350  1.00  0.00    -0.155 C  
HETATM   26  H   UNL     1     -11.530  10.751  69.462  1.00  0.00     0.000 HD 
HETATM   27  H1  UNL     1      -8.392   6.991  68.498  1.00  0.00     0.000 HD 
HETATM   28  C   UNL     1     -10.853  10.223  67.706  1.00  0.00    -0.292 C  
HETATM   29  H2  UNL     1      -7.195   8.147  68.112  1.00  0.00     0.000 HD 
HETATM   30  O   UNL     1     -11.224  11.216  68.691  1.00  0.00    -0.211 OA 
BRANCH  25  31
HETATM   31  O   UNL     1     -10.600   8.404  69.280  1.00  0.00    -0.223 OA 
BRANCH  31  32
HETATM   32  C   UNL     1     -10.351   8.654  70.669  1.00  0.00    -0.202 C  
HETATM   33  O   UNL     1     -11.450   9.311  71.315  1.00  0.00    -0.290 OA 
HETATM   34  C   UNL     1     -12.615   8.476  71.427  1.00  0.00    -0.283 C  
HETATM   35  C   UNL     1     -12.302   7.228  72.266  1.00  0.00    -0.112 C  
HETATM   36  H   UNL     1      -8.632   5.889  71.183  1.00  0.00     0.000 HD 
HETATM   37  C   UNL     1     -11.157   6.427  71.617  1.00  0.00    -0.267 C  
HETATM   38  H1  UNL     1     -10.066   4.708  72.007  1.00  0.00     0.000 HD 
HETATM   39  O   UNL     1     -13.450   6.392  72.441  1.00  0.00    -0.465 OA 
HETATM   40  H   UNL     1     -13.257   5.620  72.959  1.00  0.00     0.000 HD 
HETATM   41  H2  UNL     1     -11.642   4.656  72.611  1.00  0.00     0.000 HD 
HETATM   42  C   UNL     1      -9.946   7.354  71.412  1.00  0.00    -0.186 C  
HETATM   43  N   UNL     1     -10.824   5.238  72.438  1.00  0.00    -0.229 NA 
HETATM   44  O   UNL     1      -8.880   6.685  70.728  1.00  0.00    -0.145 OA 
BRANCH  34  45
HETATM   45  C   UNL     1     -13.732   9.294  72.090  1.00  0.00    -0.453 C  
HETATM   46  O   UNL     1     -13.916   8.892  73.448  1.00  0.00    -1.236 OA 
HETATM   47  H   UNL     1     -14.607   9.398  73.858  1.00  0.00     0.000 HD 
ENDBRANCH  34  45
ENDBRANCH  31  32
ENDBRANCH  25  31
ENDBRANCH  16  17
ENDBRANCH   7  16
ENDBRANCH   2   5
TORSDOF 6
ENDMDL
MODEL       20
REMARK 921   NORMALIZED FREE ENERGY PREDICTED BY IDOCK:   -7.49 KCAL/MOL
REMARK 922        TOTAL FREE ENERGY PREDICTED BY IDOCK:  -11.17 KCAL/MOL
REMARK 923 INTER-LIGAND FREE ENERGY PREDICTED BY IDOCK:   -9.70 KCAL/MOL
REMARK 924 INTRA-LIGAND FREE ENERGY PREDICTED BY IDOCK:   -1.47 KCAL/MOL
REMARK 927      BINDING AFFINITY PREDICTED BY RF-SCORE:    0.00 PKD
ROOT
HETATM    1  N   UNL     1     -11.264   7.842  69.226  1.00  0.00    -0.426 NA 
HETATM    2  C   UNL     1     -10.697   6.558  68.787  1.00  0.00    -0.272 C  
HETATM    3  H2  UNL     1     -12.231   7.941  68.919  1.00  0.00     0.000 HD 
HETATM    4  H1  UNL     1     -11.181   7.977  70.233  1.00  0.00     0.000 HD 
ENDROOT
BRANCH   2   5
HETATM    5  C   UNL     1     -10.823   6.353  67.256  1.00  0.00    -0.385 C  
HETATM    6  O   UNL     1     -10.270   7.450  66.512  1.00  0.00    -0.194 OA 
HETATM    7  C   UNL     1      -8.859   7.574  66.580  1.00  0.00    -0.146 C  
HETATM    8  C   UNL     1      -8.183   6.293  65.989  1.00  0.00    -0.125 C  
HETATM    9  C   UNL     1     -10.234   5.007  66.791  1.00  0.00    -0.248 C  
HETATM   10  N   UNL     1      -8.420   6.140  64.537  1.00  0.00    -0.334 NA 
HETATM   11  C   UNL     1      -8.703   5.047  66.730  1.00  0.00    -0.108 C  
HETATM   12  H   UNL     1     -10.405   3.880  65.208  1.00  0.00     0.000 HD 
HETATM   13  H1  UNL     1      -7.979   5.305  64.151  1.00  0.00     0.000 HD 
HETATM   14  H2  UNL     1      -8.129   6.975  64.029  1.00  0.00     0.000 HD 
HETATM   15  O   UNL     1     -10.768   4.710  65.495  1.00  0.00    -0.275 OA 
BRANCH   7  16
HETATM   16  O   UNL     1      -8.425   8.730  65.844  1.00  0.00    -0.127 OA 
BRANCH  16  17
HETATM   17  C   UNL     1      -9.468   9.566  65.262  1.00  0.00    -0.258 C  
HETATM   18  N   UNL     1      -9.105   8.766  62.937  1.00  0.00    -0.406 NA 
HETATM   19  C   UNL     1     -10.282  10.855  63.245  1.00  0.00    -0.317 C  
HETATM   20  H1  UNL     1      -8.919   9.025  61.968  1.00  0.00     0.000 HD 
HETATM   21  H2  UNL     1      -9.941   8.187  63.018  1.00  0.00     0.000 HD 
HETATM   22  C   UNL     1     -10.435  12.128  64.077  1.00  0.00    -0.386 C  
HETATM   23  C   UNL     1      -9.186   9.958  63.796  1.00  0.00    -0.243 C  
HETATM   24  N   UNL     1     -11.428  12.954  63.369  1.00  0.00    -0.704 NA 
HETATM   25  C   UNL     1     -10.827  11.808  65.554  1.00  0.00    -0.297 C  
HETATM   26  H   UNL     1     -10.686  10.951  67.932  1.00  0.00     0.000 HD 
HETATM   27  H1  UNL     1     -11.530  13.804  63.924  1.00  0.00     0.000 HD 
HETATM   28  C   UNL     1      -9.850  10.764  66.176  1.00  0.00    -0.221 C  
HETATM   29  H2  UNL     1     -12.311  12.472  63.195  1.00  0.00     0.000 HD 
HETATM   30  O   UNL     1     -10.452  10.219  67.374  1.00  0.00    -0.217 OA 
BRANCH  25  31
HETATM   31  O   UNL     1     -10.783  12.982  66.424  1.00  0.00    -0.278 OA 
BRANCH  31  32
HETATM   32  C   UNL     1      -9.621  13.809  66.276  1.00  0.00    -0.249 C  
HETATM   33  O   UNL     1      -9.849  14.929  65.411  1.00  0.00    -0.342 OA 
HETATM   34  C   UNL     1     -10.759  15.892  65.969  1.00  0.00    -0.284 C  
HETATM   35  C   UNL     1     -10.199  16.465  67.280  1.00  0.00    -0.278 C  
HETATM   36  H   UNL     1      -8.555  13.404  69.370  1.00  0.00     0.000 HD 
HETATM   37  C   UNL     1      -9.966  15.329  68.295  1.00  0.00    -0.222 C  
HETATM   38  H1  UNL     1      -9.239  15.115  70.226  1.00  0.00     0.000 HD 
HETATM   39  O   UNL     1     -11.055  17.462  67.844  1.00  0.00    -0.256 OA 
HETATM   40  H   UNL     1     -10.709  17.816  68.655  1.00  0.00     0.000 HD 
HETATM   41  H2  UNL     1      -9.968  16.613  69.944  1.00  0.00     0.000 HD 
HETATM   42  C   UNL     1      -9.070  14.256  67.656  1.00  0.00    -0.192 C  
HETATM   43  N   UNL     1      -9.393  15.867  69.553  1.00  0.00    -0.244 NA 
HETATM   44  O   UNL     1      -8.893  13.130  68.525  1.00  0.00    -0.145 OA 
BRANCH  34  45
HETATM   45  C   UNL     1     -10.959  17.017  64.943  1.00  0.00     0.092 C  
HETATM   46  O   UNL     1     -11.527  16.507  63.737  1.00  0.00    -1.615 OA 
HETATM   47  H   UNL     1     -11.651  17.203  63.102  1.00  0.00     0.000 HD 
ENDBRANCH  34  45
ENDBRANCH  31  32
ENDBRANCH  25  31
ENDBRANCH  16  17
ENDBRANCH   7  16
ENDBRANCH   2   5
TORSDOF 6
ENDMDL
MODEL       21
REMARK 921   NORMALIZED FREE ENERGY PREDICTED BY IDOCK:   -7.46 KCAL/MOL
REMARK 922        TOTAL FREE ENERGY PREDICTED BY IDOCK:  -11.13 KCAL/MOL
REMARK 923 INTER-LIGAND FREE ENERGY PREDICTED BY IDOCK:  -10.17 KCAL/MOL
REMARK 924 INTRA-LIGAND FREE ENERGY PREDICTED BY IDOCK:   -0.97 KCAL/MOL
REMARK 927      BINDING AFFINITY PREDICTED BY RF-SCORE:    0.00 PKD
ROOT
HETATM    1  N   UNL     1     -10.993   5.590  66.380  1.00  0.00    -0.720 NA 
HETATM    2  C   UNL     1     -11.211   6.882  67.047  1.00  0.00    -0.085 C  
HETATM    3  H2  UNL     1     -10.643   4.892  67.036  1.00  0.00     0.000 HD 
HETATM    4  H1  UNL     1     -11.828   5.258  65.900  1.00  0.00     0.000 HD 
ENDROOT
BRANCH   2   5
HETATM    5  C   UNL     1      -9.942   7.387  67.778  1.00  0.00    -0.167 C  
HETATM    6  O   UNL     1      -9.408   8.581  67.184  1.00  0.00    -0.143 OA 
HETATM    7  C   UNL     1     -10.206   9.743  67.345  1.00  0.00    -0.230 C  
HETATM    8  C   UNL     1     -10.360  10.075  68.865  1.00  0.00    -0.202 C  
HETATM    9  C   UNL     1     -10.166   7.568  69.293  1.00  0.00    -0.201 C  
HETATM   10  N   UNL     1      -9.083  10.473  69.496  1.00  0.00    -0.394 NA 
HETATM   11  C   UNL     1     -10.941   8.854  69.603  1.00  0.00    -0.132 C  
HETATM   12  H   UNL     1      -9.022   7.714  70.866  1.00  0.00     0.000 HD 
HETATM   13  H1  UNL     1      -9.185  10.690  70.488  1.00  0.00     0.000 HD 
HETATM   14  H2  UNL     1      -8.654  11.250  68.994  1.00  0.00     0.000 HD 
HETATM   15  O   UNL     1      -8.884   7.602  69.932  1.00  0.00    -0.142 OA 
BRANCH   7  16
HETATM   16  O   UNL     1      -9.601  10.858  66.668  1.00  0.00    -0.179 OA 
BRANCH  16  17
HETATM   17  C   UNL     1     -10.506  11.861  66.121  1.00  0.00    -0.237 C  
HETATM   18  N   UNL     1     -10.745  10.748  63.912  1.00  0.00    -0.455 NA 
HETATM   19  C   UNL     1     -11.334  13.088  64.071  1.00  0.00    -0.458 C  
HETATM   20  H1  UNL     1     -10.674  10.845  62.899  1.00  0.00     0.000 HD 
HETATM   21  H2  UNL     1     -11.666  10.411  64.194  1.00  0.00     0.000 HD 
HETATM   22  C   UNL     1     -11.041  14.441  64.719  1.00  0.00    -0.394 C  
HETATM   23  C   UNL     1     -10.398  12.008  64.589  1.00  0.00    -0.287 C  
HETATM   24  N   UNL     1     -11.923  15.409  64.044  1.00  0.00    -0.949 NA 
HETATM   25  C   UNL     1     -11.237  14.392  66.267  1.00  0.00    -0.338 C  
HETATM   26  H   UNL     1     -10.891  13.791  68.702  1.00  0.00     0.000 HD 
HETATM   27  H1  UNL     1     -11.727  16.312  64.476  1.00  0.00     0.000 HD 
HETATM   28  C   UNL     1     -10.436  13.209  66.893  1.00  0.00    -0.256 C  
HETATM   29  H2  UNL     1     -12.910  15.150  64.069  1.00  0.00     0.000 HD 
HETATM   30  O   UNL     1     -10.933  12.968  68.231  1.00  0.00    -0.239 OA 
BRANCH  25  31
HETATM   31  O   UNL     1     -10.772  15.604  66.940  1.00  0.00    -0.311 OA 
BRANCH  31  32
HETATM   32  C   UNL     1      -9.674  16.273  66.306  1.00  0.00    -0.304 C  
HETATM   33  O   UNL     1     -10.033  17.567  65.805  1.00  0.00    -0.546 OA 
HETATM   34  C   UNL     1     -10.318  18.513  66.849  1.00  0.00    -0.397 C  
HETATM   35  C   UNL     1      -9.082  18.720  67.738  1.00  0.00    -0.286 C  
HETATM   36  H   UNL     1      -7.369  15.097  68.348  1.00  0.00     0.000 HD 
HETATM   37  C   UNL     1      -8.650  17.380  68.363  1.00  0.00    -0.270 C  
HETATM   38  H1  UNL     1      -7.151  16.674  69.610  1.00  0.00     0.000 HD 
HETATM   39  O   UNL     1      -9.310  19.691  68.764  1.00  0.00    -0.358 OA 
HETATM   40  H   UNL     1      -8.546  19.819  69.314  1.00  0.00     0.000 HD 
HETATM   41  H2  UNL     1      -7.567  18.285  69.903  1.00  0.00     0.000 HD 
HETATM   42  C   UNL     1      -8.441  16.345  67.244  1.00  0.00    -0.175 C  
HETATM   43  N   UNL     1      -7.437  17.562  69.196  1.00  0.00    -0.163 NA 
HETATM   44  O   UNL     1      -8.124  15.052  67.774  1.00  0.00    -0.131 OA 
BRANCH  34  45
HETATM   45  C   UNL     1     -10.730  19.841  66.198  1.00  0.00    -0.386 C  
HETATM   46  O   UNL     1      -9.586  20.655  65.941  1.00  0.00    -0.631 OA 
HETATM   47  H   UNL     1      -9.840  21.477  65.538  1.00  0.00     0.000 HD 
ENDBRANCH  34  45
ENDBRANCH  31  32
ENDBRANCH  25  31
ENDBRANCH  16  17
ENDBRANCH   7  16
ENDBRANCH   2   5
TORSDOF 6
ENDMDL
MODEL       22
REMARK 921   NORMALIZED FREE ENERGY PREDICTED BY IDOCK:   -7.45 KCAL/MOL
REMARK 922        TOTAL FREE ENERGY PREDICTED BY IDOCK:  -11.12 KCAL/MOL
REMARK 923 INTER-LIGAND FREE ENERGY PREDICTED BY IDOCK:   -9.64 KCAL/MOL
REMARK 924 INTRA-LIGAND FREE ENERGY PREDICTED BY IDOCK:   -1.47 KCAL/MOL
REMARK 927      BINDING AFFINITY PREDICTED BY RF-SCORE:    0.00 PKD
ROOT
HETATM    1  N   UNL     1     -10.253  16.967  65.900  1.00  0.00    -0.491 NA 
HETATM    2  C   UNL     1      -9.910  15.539  65.830  1.00  0.00    -0.357 C  
HETATM    3  H2  UNL     1     -11.263  17.101  65.944  1.00  0.00     0.000 HD 
HETATM    4  H1  UNL     1      -9.784  17.439  66.672  1.00  0.00     0.000 HD 
ENDROOT
BRANCH   2   5
HETATM    5  C   UNL     1     -10.623  14.821  64.656  1.00  0.00    -0.206 C  
HETATM    6  O   UNL     1     -10.327  13.416  64.614  1.00  0.00    -0.395 OA 
HETATM    7  C   UNL     1     -10.876  12.653  65.676  1.00  0.00    -0.274 C  
HETATM    8  C   UNL     1     -12.437  12.745  65.646  1.00  0.00    -0.275 C  
HETATM    9  C   UNL     1     -12.144  15.073  64.647  1.00  0.00    -0.323 C  
HETATM   10  N   UNL     1     -13.024  12.100  64.451  1.00  0.00    -0.702 NA 
HETATM   11  C   UNL     1     -12.867  14.223  65.697  1.00  0.00    -0.321 C  
HETATM   12  H   UNL     1     -13.577  14.917  63.332  1.00  0.00     0.000 HD 
HETATM   13  H1  UNL     1     -14.043  12.160  64.431  1.00  0.00     0.000 HD 
HETATM   14  H2  UNL     1     -12.713  11.132  64.368  1.00  0.00     0.000 HD 
HETATM   15  O   UNL     1     -12.640  14.762  63.338  1.00  0.00    -0.466 OA 
BRANCH   7  16
HETATM   16  O   UNL     1     -10.472  11.278  65.560  1.00  0.00    -0.258 OA 
BRANCH  16  17
HETATM   17  C   UNL     1      -9.544  10.780  66.567  1.00  0.00    -0.183 C  
HETATM   18  N   UNL     1      -7.570  10.792  65.058  1.00  0.00    -0.356 NA 
HETATM   19  C   UNL     1      -7.456   9.441  67.059  1.00  0.00    -0.091 C  
HETATM   20  H1  UNL     1      -6.798  10.255  64.663  1.00  0.00     0.000 HD 
HETATM   21  H2  UNL     1      -7.240  11.643  65.513  1.00  0.00     0.000 HD 
HETATM   22  C   UNL     1      -8.213   8.562  68.056  1.00  0.00    -0.120 C  
HETATM   23  C   UNL     1      -8.377   9.966  65.970  1.00  0.00    -0.122 C  
HETATM   24  N   UNL     1      -7.193   8.024  68.972  1.00  0.00    -0.076 NA 
HETATM   25  C   UNL     1      -9.346   9.357  68.779  1.00  0.00    -0.146 C  
HETATM   26  H   UNL     1     -11.488  10.650  69.163  1.00  0.00     0.000 HD 
HETATM   27  H1  UNL     1      -7.697   7.438  69.637  1.00  0.00     0.000 HD 
HETATM   28  C   UNL     1     -10.268  10.075  67.748  1.00  0.00    -0.192 C  
HETATM   29  H2  UNL     1      -6.621   8.744  69.415  1.00  0.00     0.000 HD 
HETATM   30  O   UNL     1     -11.046  11.080  68.441  1.00  0.00    -0.210 OA 
BRANCH  25  31
HETATM   31  O   UNL     1     -10.217   8.502  69.585  1.00  0.00    -0.198 OA 
BRANCH  31  32
HETATM   32  C   UNL     1     -10.176   8.747  70.997  1.00  0.00    -0.237 C  
HETATM   33  O   UNL     1     -11.371   9.375  71.481  1.00  0.00    -0.354 OA 
HETATM   34  C   UNL     1     -12.521   8.515  71.420  1.00  0.00    -0.297 C  
HETATM   35  C   UNL     1     -12.305   7.266  72.290  1.00  0.00    -0.112 C  
HETATM   36  H   UNL     1      -8.488   6.014  71.739  1.00  0.00     0.000 HD 
HETATM   37  C   UNL     1     -11.060   6.496  71.808  1.00  0.00    -0.257 C  
HETATM   38  H1  UNL     1      -9.999   4.797  72.343  1.00  0.00     0.000 HD 
HETATM   39  O   UNL     1     -13.447   6.405  72.293  1.00  0.00    -0.486 OA 
HETATM   40  H   UNL     1     -13.313   5.633  72.830  1.00  0.00     0.000 HD 
HETATM   41  H2  UNL     1     -11.644   4.706  72.713  1.00  0.00     0.000 HD 
HETATM   42  C   UNL     1      -9.854   7.450  71.784  1.00  0.00    -0.167 C  
HETATM   43  N   UNL     1     -10.822   5.307  72.662  1.00  0.00    -0.240 NA 
HETATM   44  O   UNL     1      -8.686   6.808  71.257  1.00  0.00    -0.128 OA 
BRANCH  34  45
HETATM   45  C   UNL     1     -13.740   9.303  71.920  1.00  0.00    -0.398 C  
HETATM   46  O   UNL     1     -14.015   8.996  73.287  1.00  0.00    -1.205 OA 
HETATM   47  H   UNL     1     -14.770   9.484  73.596  1.00  0.00     0.000 HD 
ENDBRANCH  34  45
ENDBRANCH  31  32
ENDBRANCH  25  31
ENDBRANCH  16  17
ENDBRANCH   7  16
ENDBRANCH   2   5
TORSDOF 6
ENDMDL
MODEL       23
REMARK 921   NORMALIZED FREE ENERGY PREDICTED BY IDOCK:   -7.45 KCAL/MOL
REMARK 922        TOTAL FREE ENERGY PREDICTED BY IDOCK:  -11.11 KCAL/MOL
REMARK 923 INTER-LIGAND FREE ENERGY PREDICTED BY IDOCK:   -9.31 KCAL/MOL
REMARK 924 INTRA-LIGAND FREE ENERGY PREDICTED BY IDOCK:   -1.80 KCAL/MOL
REMARK 927      BINDING AFFINITY PREDICTED BY RF-SCORE:    0.00 PKD
ROOT
HETATM    1  N   UNL     1     -11.205   7.404  69.134  1.00  0.00    -0.437 NA 
HETATM    2  C   UNL     1     -10.695   6.097  68.696  1.00  0.00    -0.307 C  
HETATM    3  H2  UNL     1     -12.133   7.584  68.752  1.00  0.00     0.000 HD 
HETATM    4  H1  UNL     1     -11.198   7.501  70.148  1.00  0.00     0.000 HD 
ENDROOT
BRANCH   2   5
HETATM    5  C   UNL     1     -10.704   5.950  67.153  1.00  0.00    -0.306 C  
HETATM    6  O   UNL     1     -10.075   7.060  66.495  1.00  0.00    -0.173 OA 
HETATM    7  C   UNL     1      -8.671   7.151  66.677  1.00  0.00    -0.128 C  
HETATM    8  C   UNL     1      -7.975   5.879  66.092  1.00  0.00    -0.106 C  
HETATM    9  C   UNL     1     -10.106   4.609  66.685  1.00  0.00    -0.234 C  
HETATM   10  N   UNL     1      -8.101   5.783  64.622  1.00  0.00    -0.129 NA 
HETATM   11  C   UNL     1      -8.574   4.618  66.744  1.00  0.00    -0.108 C  
HETATM   12  H   UNL     1     -10.174   3.544  65.051  1.00  0.00     0.000 HD 
HETATM   13  H1  UNL     1      -7.647   4.953  64.240  1.00  0.00     0.000 HD 
HETATM   14  H2  UNL     1      -7.756   6.629  64.169  1.00  0.00     0.000 HD 
HETATM   15  O   UNL     1     -10.543   4.370  65.340  1.00  0.00    -0.268 OA 
BRANCH   7  16
HETATM   16  O   UNL     1      -8.160   8.324  66.021  1.00  0.00    -0.100 OA 
BRANCH  16  17
HETATM   17  C   UNL     1      -9.129   9.162  65.327  1.00  0.00    -0.195 C  
HETATM   18  N   UNL     1      -8.565   8.305  63.063  1.00  0.00    -0.419 NA 
HETATM   19  C   UNL     1      -9.730  10.418  63.216  1.00  0.00    -0.308 C  
HETATM   20  H1  UNL     1      -8.286   8.540  62.111  1.00  0.00     0.000 HD 
HETATM   21  H2  UNL     1      -9.415   7.741  63.077  1.00  0.00     0.000 HD 
HETATM   22  C   UNL     1      -9.938  11.712  64.004  1.00  0.00    -0.296 C  
HETATM   23  C   UNL     1      -8.706   9.517  63.886  1.00  0.00    -0.216 C  
HETATM   24  N   UNL     1     -10.847  12.537  63.190  1.00  0.00    -0.650 NA 
HETATM   25  C   UNL     1     -10.471  11.430  65.444  1.00  0.00    -0.280 C  
HETATM   26  H   UNL     1     -10.567  10.624  67.842  1.00  0.00     0.000 HD 
HETATM   27  H1  UNL     1     -10.985  13.400  63.715  1.00  0.00     0.000 HD 
HETATM   28  C   UNL     1      -9.574  10.385  66.176  1.00  0.00    -0.196 C  
HETATM   29  H2  UNL     1     -11.718  12.065  62.944  1.00  0.00     0.000 HD 
HETATM   30  O   UNL     1     -10.294   9.877  67.323  1.00  0.00    -0.214 OA 
BRANCH  25  31
HETATM   31  O   UNL     1     -10.488  12.622  66.290  1.00  0.00    -0.246 OA 
BRANCH  31  32
HETATM   32  C   UNL     1     -11.787  13.044  66.726  1.00  0.00    -0.388 C  
HETATM   33  O   UNL     1     -12.243  12.321  67.876  1.00  0.00    -0.409 OA 
HETATM   34  C   UNL     1     -11.486  12.616  69.062  1.00  0.00    -0.303 C  
HETATM   35  C   UNL     1     -11.600  14.108  69.415  1.00  0.00    -0.304 C  
HETATM   36  H   UNL     1     -11.354  16.223  65.965  1.00  0.00     0.000 HD 
HETATM   37  C   UNL     1     -11.082  14.968  68.246  1.00  0.00    -0.286 C  
HETATM   38  H1  UNL     1     -10.876  16.980  67.788  1.00  0.00     0.000 HD 
HETATM   39  O   UNL     1     -10.896  14.435  70.616  1.00  0.00    -0.411 OA 
HETATM   40  H   UNL     1     -10.967  15.356  70.835  1.00  0.00     0.000 HD 
HETATM   41  H2  UNL     1     -10.763  16.651  69.442  1.00  0.00     0.000 HD 
HETATM   42  C   UNL     1     -11.831  14.577  66.961  1.00  0.00    -0.385 C  
HETATM   43  N   UNL     1     -11.219  16.410  68.562  1.00  0.00    -0.363 NA 
HETATM   44  O   UNL     1     -11.327  15.284  65.821  1.00  0.00    -0.293 OA 
BRANCH  34  45
HETATM   45  C   UNL     1     -12.034  11.758  70.211  1.00  0.00    -0.343 C  
HETATM   46  O   UNL     1     -12.370  10.450  69.749  1.00  0.00    -0.514 OA 
HETATM   47  H   UNL     1     -12.709   9.918  70.460  1.00  0.00     0.000 HD 
ENDBRANCH  34  45
ENDBRANCH  31  32
ENDBRANCH  25  31
ENDBRANCH  16  17
ENDBRANCH   7  16
ENDBRANCH   2   5
TORSDOF 6
ENDMDL
MODEL       24
REMARK 921   NORMALIZED FREE ENERGY PREDICTED BY IDOCK:   -7.43 KCAL/MOL
REMARK 922        TOTAL FREE ENERGY PREDICTED BY IDOCK:  -11.09 KCAL/MOL
REMARK 923 INTER-LIGAND FREE ENERGY PREDICTED BY IDOCK:   -9.24 KCAL/MOL
REMARK 924 INTRA-LIGAND FREE ENERGY PREDICTED BY IDOCK:   -1.84 KCAL/MOL
REMARK 927      BINDING AFFINITY PREDICTED BY RF-SCORE:    0.00 PKD
ROOT
HETATM    1  N   UNL     1     -10.879  18.918  67.521  1.00  0.00    -0.428 NA 
HETATM    2  C   UNL     1      -9.925  19.413  66.518  1.00  0.00    -0.396 C  
HETATM    3  H2  UNL     1     -11.152  19.659  68.166  1.00  0.00     0.000 HD 
HETATM    4  H1  UNL     1     -11.696  18.481  67.095  1.00  0.00     0.000 HD 
ENDROOT
BRANCH   2   5
HETATM    5  C   UNL     1      -8.684  20.077  67.166  1.00  0.00    -0.339 C  
HETATM    6  O   UNL     1      -8.182  19.325  68.281  1.00  0.00    -0.311 OA 
HETATM    7  C   UNL     1      -7.590  18.079  67.949  1.00  0.00    -0.231 C  
HETATM    8  C   UNL     1      -6.354  18.308  67.018  1.00  0.00    -0.173 C  
HETATM    9  C   UNL     1      -7.571  20.371  66.141  1.00  0.00    -0.129 C  
HETATM   10  N   UNL     1      -5.249  19.016  67.699  1.00  0.00    -0.172 NA 
HETATM   11  C   UNL     1      -6.788  19.105  65.774  1.00  0.00    -0.307 C  
HETATM   12  H   UNL     1      -6.000  21.527  66.078  1.00  0.00     0.000 HD 
HETATM   13  H1  UNL     1      -4.442  19.166  67.092  1.00  0.00     0.000 HD 
HETATM   14  H2  UNL     1      -4.977  18.533  68.555  1.00  0.00     0.000 HD 
HETATM   15  O   UNL     1      -6.687  21.346  66.710  1.00  0.00    -0.439 OA 
BRANCH   7  16
HETATM   16  O   UNL     1      -7.173  17.394  69.142  1.00  0.00    -0.244 OA 
BRANCH  16  17
HETATM   17  C   UNL     1      -7.558  15.993  69.263  1.00  0.00    -0.230 C  
HETATM   18  N   UNL     1      -5.309  15.218  69.984  1.00  0.00    -0.111 NA 
HETATM   19  C   UNL     1      -6.848  13.571  69.110  1.00  0.00    -0.084 C  
HETATM   20  H1  UNL     1      -4.538  14.573  69.815  1.00  0.00     0.000 HD 
HETATM   21  H2  UNL     1      -5.652  15.151  70.943  1.00  0.00     0.000 HD 
HETATM   22  C   UNL     1      -7.973  13.268  68.121  1.00  0.00    -0.150 C  
HETATM   23  C   UNL     1      -6.391  15.017  69.007  1.00  0.00    -0.100 C  
HETATM   24  N   UNL     1      -8.231  11.822  68.236  1.00  0.00    -0.151 NA 
HETATM   25  C   UNL     1      -9.232  14.151  68.392  1.00  0.00    -0.203 C  
HETATM   26  H   UNL     1     -10.728  16.183  68.593  1.00  0.00     0.000 HD 
HETATM   27  H1  UNL     1      -8.982  11.620  67.576  1.00  0.00     0.000 HD 
HETATM   28  C   UNL     1      -8.849  15.660  68.465  1.00  0.00    -0.187 C  
HETATM   29  H2  UNL     1      -8.433  11.518  69.189  1.00  0.00     0.000 HD 
HETATM   30  O   UNL     1      -9.938  16.387  69.081  1.00  0.00    -0.252 OA 
BRANCH  25  31
HETATM   31  O   UNL     1     -10.247  14.034  67.346  1.00  0.00    -0.245 OA 
BRANCH  31  32
HETATM   32  C   UNL     1      -9.757  14.135  66.003  1.00  0.00    -0.274 C  
HETATM   33  O   UNL     1      -9.579  12.854  65.384  1.00  0.00    -0.088 OA 
HETATM   34  C   UNL     1     -10.821  12.175  65.134  1.00  0.00    -0.300 C  
HETATM   35  C   UNL     1     -11.701  12.998  64.181  1.00  0.00    -0.412 C  
HETATM   36  H   UNL     1     -11.411  16.891  65.273  1.00  0.00     0.000 HD 
HETATM   37  C   UNL     1     -11.987  14.384  64.791  1.00  0.00    -0.447 C  
HETATM   38  H1  UNL     1     -12.997  16.117  64.267  1.00  0.00     0.000 HD 
HETATM   39  O   UNL     1     -12.929  12.334  63.870  1.00  0.00    -0.753 OA 
HETATM   40  H   UNL     1     -13.474  12.843  63.281  1.00  0.00     0.000 HD 
HETATM   41  H2  UNL     1     -13.666  14.720  63.594  1.00  0.00     0.000 HD 
HETATM   42  C   UNL     1     -10.654  15.065  65.145  1.00  0.00    -0.418 C  
HETATM   43  N   UNL     1     -12.808  15.200  63.863  1.00  0.00    -0.508 NA 
HETATM   44  O   UNL     1     -10.861  16.322  65.799  1.00  0.00    -0.271 OA 
BRANCH  34  45
HETATM   45  C   UNL     1     -10.506  10.806  64.514  1.00  0.00    -0.281 C  
HETATM   46  O   UNL     1     -10.288  10.925  63.108  1.00  0.00    -0.612 OA 
HETATM   47  H   UNL     1     -10.093  10.079  62.725  1.00  0.00     0.000 HD 
ENDBRANCH  34  45
ENDBRANCH  31  32
ENDBRANCH  25  31
ENDBRANCH  16  17
ENDBRANCH   7  16
ENDBRANCH   2   5
TORSDOF 6
ENDMDL
MODEL       25
REMARK 921   NORMALIZED FREE ENERGY PREDICTED BY IDOCK:   -7.43 KCAL/MOL
REMARK 922        TOTAL FREE ENERGY PREDICTED BY IDOCK:  -11.09 KCAL/MOL
REMARK 923 INTER-LIGAND FREE ENERGY PREDICTED BY IDOCK:  -10.09 KCAL/MOL
REMARK 924 INTRA-LIGAND FREE ENERGY PREDICTED BY IDOCK:   -0.99 KCAL/MOL
REMARK 927      BINDING AFFINITY PREDICTED BY RF-SCORE:    0.00 PKD
ROOT
HETATM    1  N   UNL     1      -9.778  10.668  62.454  1.00  0.00    -0.645 NA 
HETATM    2  C   UNL     1      -9.770  11.405  63.726  1.00  0.00    -0.287 C  
HETATM    3  H2  UNL     1     -10.480  11.042  61.816  1.00  0.00     0.000 HD 
HETATM    4  H1  UNL     1      -8.857  10.644  62.016  1.00  0.00     0.000 HD 
ENDROOT
BRANCH   2   5
HETATM    5  C   UNL     1     -11.168  11.441  64.391  1.00  0.00    -0.207 C  
HETATM    6  O   UNL     1     -11.150  12.105  65.665  1.00  0.00    -0.295 OA 
HETATM    7  C   UNL     1     -10.919  13.504  65.611  1.00  0.00    -0.289 C  
HETATM    8  C   UNL     1     -12.061  14.201  64.801  1.00  0.00    -0.441 C  
HETATM    9  C   UNL     1     -12.247  12.036  63.465  1.00  0.00    -0.547 C  
HETATM   10  N   UNL     1     -13.374  14.120  65.477  1.00  0.00    -0.666 NA 
HETATM   11  C   UNL     1     -12.161  13.566  63.401  1.00  0.00    -0.351 C  
HETATM   12  H   UNL     1     -14.197  12.005  63.391  1.00  0.00     0.000 HD 
HETATM   13  H1  UNL     1     -14.119  14.574  64.948  1.00  0.00     0.000 HD 
HETATM   14  H2  UNL     1     -13.320  14.489  66.425  1.00  0.00     0.000 HD 
HETATM   15  O   UNL     1     -13.531  11.639  63.962  1.00  0.00    -0.334 OA 
BRANCH   7  16
HETATM   16  O   UNL     1     -10.870  14.051  66.940  1.00  0.00    -0.286 OA 
BRANCH  16  17
HETATM   17  C   UNL     1      -9.941  13.424  67.873  1.00  0.00    -0.236 C  
HETATM   18  N   UNL     1      -7.945  14.647  67.037  1.00  0.00    -0.348 NA 
HETATM   19  C   UNL     1      -7.583  12.626  68.314  1.00  0.00    -0.133 C  
HETATM   20  H1  UNL     1      -6.996  14.575  66.673  1.00  0.00     0.000 HD 
HETATM   21  H2  UNL     1      -7.989  15.254  67.855  1.00  0.00     0.000 HD 
HETATM   22  C   UNL     1      -8.086  11.225  68.665  1.00  0.00    -0.145 C  
HETATM   23  C   UNL     1      -8.504  13.315  67.321  1.00  0.00    -0.201 C  
HETATM   24  N   UNL     1      -7.048  10.629  69.525  1.00  0.00    -0.113 NA 
HETATM   25  C   UNL     1      -9.498  11.269  69.329  1.00  0.00     0.202 C  
HETATM   26  H   UNL     1     -11.987  11.619  69.632  1.00  0.00     0.000 HD 
HETATM   27  H1  UNL     1      -7.383   9.694  69.758  1.00  0.00     0.000 HD 
HETATM   28  C   UNL     1     -10.496  12.097  68.462  1.00  0.00    -0.233 C  
HETATM   29  H2  UNL     1      -6.819  11.197  70.341  1.00  0.00     0.000 HD 
HETATM   30  O   UNL     1     -11.648  12.430  69.271  1.00  0.00    -0.282 OA 
BRANCH  25  31
HETATM   31  O   UNL     1     -10.094   9.944  69.491  1.00  0.00    -0.193 OA 
BRANCH  31  32
HETATM   32  C   UNL     1     -10.005   9.391  70.810  1.00  0.00    -0.289 C  
HETATM   33  O   UNL     1     -11.063   9.839  71.668  1.00  0.00    -0.294 OA 
HETATM   34  C   UNL     1     -12.351   9.330  71.282  1.00  0.00    -0.328 C  
HETATM   35  C   UNL     1     -12.363   7.795  71.345  1.00  0.00    -0.323 C  
HETATM   36  H   UNL     1      -8.841   6.462  69.843  1.00  0.00     0.000 HD 
HETATM   37  C   UNL     1     -11.282   7.219  70.410  1.00  0.00    -0.276 C  
HETATM   38  H1  UNL     1     -10.546   5.358  69.870  1.00  0.00     0.000 HD 
HETATM   39  O   UNL     1     -13.643   7.250  71.011  1.00  0.00    -0.589 OA 
HETATM   40  H   UNL     1     -13.651   6.301  71.050  1.00  0.00     0.000 HD 
HETATM   41  H2  UNL     1     -12.179   5.336  70.300  1.00  0.00     0.000 HD 
HETATM   42  C   UNL     1      -9.922   7.843  70.767  1.00  0.00    -0.184 C  
HETATM   43  N   UNL     1     -11.261   5.739  70.489  1.00  0.00    -0.219 NA 
HETATM   44  O   UNL     1      -8.892   7.411  69.870  1.00  0.00    -0.140 OA 
BRANCH  34  45
HETATM   45  C   UNL     1     -13.404   9.907  72.238  1.00  0.00    -0.334 C  
HETATM   46  O   UNL     1     -13.818   8.924  73.187  1.00  0.00    -1.084 OA 
HETATM   47  H   UNL     1     -14.470   9.281  73.779  1.00  0.00     0.000 HD 
ENDBRANCH  34  45
ENDBRANCH  31  32
ENDBRANCH  25  31
ENDBRANCH  16  17
ENDBRANCH   7  16
ENDBRANCH   2   5
TORSDOF 6
ENDMDL
MODEL       26
REMARK 921   NORMALIZED FREE ENERGY PREDICTED BY IDOCK:   -7.37 KCAL/MOL
REMARK 922        TOTAL FREE ENERGY PREDICTED BY IDOCK:  -11.00 KCAL/MOL
REMARK 923 INTER-LIGAND FREE ENERGY PREDICTED BY IDOCK:   -9.65 KCAL/MOL
REMARK 924 INTRA-LIGAND FREE ENERGY PREDICTED BY IDOCK:   -1.35 KCAL/MOL
REMARK 927      BINDING AFFINITY PREDICTED BY RF-SCORE:    0.00 PKD
ROOT
HETATM    1  N   UNL     1     -11.365   9.726  68.810  1.00  0.00    -0.482 NA 
HETATM    2  C   UNL     1     -10.541   8.509  68.765  1.00  0.00    -0.133 C  
HETATM    3  H2  UNL     1     -12.299   9.552  68.441  1.00  0.00     0.000 HD 
HETATM    4  H1  UNL     1     -11.407  10.129  69.745  1.00  0.00     0.000 HD 
ENDROOT
BRANCH   2   5
HETATM    5  C   UNL     1     -10.477   7.895  67.344  1.00  0.00    -0.290 C  
HETATM    6  O   UNL     1     -10.225   8.885  66.333  1.00  0.00    -0.283 OA 
HETATM    7  C   UNL     1      -8.928   9.457  66.362  1.00  0.00    -0.152 C  
HETATM    8  C   UNL     1      -7.851   8.348  66.128  1.00  0.00    -0.101 C  
HETATM    9  C   UNL     1      -9.472   6.730  67.250  1.00  0.00    -0.135 C  
HETATM   10  N   UNL     1      -7.914   7.767  64.769  1.00  0.00    -0.138 NA 
HETATM   11  C   UNL     1      -8.025   7.232  67.174  1.00  0.00    -0.110 C  
HETATM   12  H   UNL     1      -9.167   5.245  66.021  1.00  0.00     0.000 HD 
HETATM   13  H1  UNL     1      -7.212   7.043  64.616  1.00  0.00     0.000 HD 
HETATM   14  H2  UNL     1      -7.851   8.494  64.057  1.00  0.00     0.000 HD 
HETATM   15  O   UNL     1      -9.787   5.964  66.080  1.00  0.00    -0.071 OA 
BRANCH   7  16
HETATM   16  O   UNL     1      -8.808  10.466  65.344  1.00  0.00    -0.164 OA 
BRANCH  16  17
HETATM   17  C   UNL     1      -9.915  11.406  65.219  1.00  0.00    -0.258 C  
HETATM   18  N   UNL     1     -10.621  10.602  62.976  1.00  0.00    -0.596 NA 
HETATM   19  C   UNL     1     -11.366  12.791  63.680  1.00  0.00    -0.514 C  
HETATM   20  H1  UNL     1     -10.829  10.853  62.010  1.00  0.00     0.000 HD 
HETATM   21  H2  UNL     1     -11.399  10.106  63.411  1.00  0.00     0.000 HD 
HETATM   22  C   UNL     1     -11.042  14.064  64.463  1.00  0.00    -0.351 C  
HETATM   23  C   UNL     1     -10.229  11.786  63.757  1.00  0.00    -0.399 C  
HETATM   24  N   UNL     1     -12.158  14.991  64.204  1.00  0.00    -0.854 NA 
HETATM   25  C   UNL     1     -10.817  13.765  65.979  1.00  0.00    -0.282 C  
HETATM   26  H   UNL     1      -9.787  12.872  68.112  1.00  0.00     0.000 HD 
HETATM   27  H1  UNL     1     -11.941  15.840  64.726  1.00  0.00     0.000 HD 
HETATM   28  C   UNL     1      -9.773  12.624  66.174  1.00  0.00    -0.251 C  
HETATM   29  H2  UNL     1     -13.074  14.598  64.423  1.00  0.00     0.000 HD 
HETATM   30  O   UNL     1      -9.874  12.127  67.529  1.00  0.00    -0.187 OA 
BRANCH  25  31
HETATM   31  O   UNL     1     -10.309  14.920  66.719  1.00  0.00    -0.262 OA 
BRANCH  31  32
HETATM   32  C   UNL     1      -9.312  15.692  66.037  1.00  0.00    -0.349 C  
HETATM   33  O   UNL     1      -9.815  16.952  65.572  1.00  0.00    -0.559 OA 
HETATM   34  C   UNL     1     -10.130  17.859  66.642  1.00  0.00    -0.362 C  
HETATM   35  C   UNL     1      -8.873  18.173  67.468  1.00  0.00    -0.256 C  
HETATM   36  H   UNL     1      -6.804  14.718  67.942  1.00  0.00     0.000 HD 
HETATM   37  C   UNL     1      -8.287  16.873  68.052  1.00  0.00    -0.204 C  
HETATM   38  H1  UNL     1      -6.665  16.299  69.211  1.00  0.00     0.000 HD 
HETATM   39  O   UNL     1      -9.135  19.109  68.517  1.00  0.00    -0.344 OA 
HETATM   40  H   UNL     1      -8.358  19.303  69.028  1.00  0.00     0.000 HD 
HETATM   41  H2  UNL     1      -7.212  17.862  69.545  1.00  0.00     0.000 HD 
HETATM   42  C   UNL     1      -8.043  15.871  66.910  1.00  0.00    -0.250 C  
HETATM   43  N   UNL     1      -7.053  17.160  68.823  1.00  0.00    -0.218 NA 
HETATM   44  O   UNL     1      -7.581  14.609  67.407  1.00  0.00    -0.182 OA 
BRANCH  34  45
HETATM   45  C   UNL     1     -10.696  19.148  66.030  1.00  0.00    -0.364 C  
HETATM   46  O   UNL     1      -9.707  20.178  66.014  1.00  0.00    -0.554 OA 
HETATM   47  H   UNL     1     -10.057  20.975  65.636  1.00  0.00     0.000 HD 
ENDBRANCH  34  45
ENDBRANCH  31  32
ENDBRANCH  25  31
ENDBRANCH  16  17
ENDBRANCH   7  16
ENDBRANCH   2   5
TORSDOF 6
ENDMDL
MODEL       27
REMARK 921   NORMALIZED FREE ENERGY PREDICTED BY IDOCK:   -7.32 KCAL/MOL
REMARK 922        TOTAL FREE ENERGY PREDICTED BY IDOCK:  -10.94 KCAL/MOL
REMARK 923 INTER-LIGAND FREE ENERGY PREDICTED BY IDOCK:   -9.34 KCAL/MOL
REMARK 924 INTRA-LIGAND FREE ENERGY PREDICTED BY IDOCK:   -1.61 KCAL/MOL
REMARK 927      BINDING AFFINITY PREDICTED BY RF-SCORE:    0.00 PKD
ROOT
HETATM    1  N   UNL     1     -11.050   4.769  65.647  1.00  0.00    -0.926 NA 
HETATM    2  C   UNL     1     -10.593   5.493  66.843  1.00  0.00    -0.278 C  
HETATM    3  H2  UNL     1     -10.958   3.761  65.768  1.00  0.00     0.000 HD 
HETATM    4  H1  UNL     1     -12.002   5.023  65.383  1.00  0.00     0.000 HD 
ENDROOT
BRANCH   2   5
HETATM    5  C   UNL     1      -9.147   5.108  67.245  1.00  0.00    -0.113 C  
HETATM    6  O   UNL     1      -8.508   6.128  68.029  1.00  0.00    -0.116 OA 
HETATM    7  C   UNL     1      -9.037   6.303  69.333  1.00  0.00    -0.139 C  
HETATM    8  C   UNL     1      -8.869   4.985  70.158  1.00  0.00    -0.110 C  
HETATM    9  C   UNL     1      -9.075   3.736  67.944  1.00  0.00    -0.152 C  
HETATM   10  N   UNL     1      -7.452   4.657  70.428  1.00  0.00    -0.050 NA 
HETATM   11  C   UNL     1      -9.533   3.818  69.405  1.00  0.00    -0.257 C  
HETATM   12  H   UNL     1      -7.674   2.428  68.312  1.00  0.00     0.000 HD 
HETATM   13  H1  UNL     1      -7.342   3.797  70.966  1.00  0.00     0.000 HD 
HETATM   14  H2  UNL     1      -6.977   5.436  70.883  1.00  0.00     0.000 HD 
HETATM   15  O   UNL     1      -7.719   3.274  67.881  1.00  0.00    -0.063 OA 
BRANCH   7  16
HETATM   16  O   UNL     1      -8.359   7.380  70.003  1.00  0.00    -0.132 OA 
BRANCH  16  17
HETATM   17  C   UNL     1      -9.105   8.621  70.171  1.00  0.00    -0.158 C  
HETATM   18  N   UNL     1      -9.876   8.093  72.474  1.00  0.00    -0.265 NA 
HETATM   19  C   UNL     1     -11.075   9.791  71.239  1.00  0.00    -0.375 C  
HETATM   20  H1  UNL     1     -10.674   8.002  73.103  1.00  0.00     0.000 HD 
HETATM   21  H2  UNL     1      -9.178   8.738  72.843  1.00  0.00     0.000 HD 
HETATM   22  C   UNL     1     -11.573  10.272  69.875  1.00  0.00    -0.256 C  
HETATM   23  C   UNL     1     -10.311   8.483  71.122  1.00  0.00    -0.215 C  
HETATM   24  N   UNL     1     -12.394  11.465  70.144  1.00  0.00    -0.286 NA 
HETATM   25  C   UNL     1     -10.391  10.535  68.891  1.00  0.00    -0.208 C  
HETATM   26  H   UNL     1      -8.399  10.125  67.382  1.00  0.00     0.000 HD 
HETATM   27  H1  UNL     1     -12.727  11.785  69.235  1.00  0.00     0.000 HD 
HETATM   28  C   UNL     1      -9.443   9.300  68.814  1.00  0.00    -0.150 C  
HETATM   29  H2  UNL     1     -11.905  12.185  70.677  1.00  0.00     0.000 HD 
HETATM   30  O   UNL     1      -8.192   9.710  68.212  1.00  0.00    -0.105 OA 
BRANCH  25  31
HETATM   31  O   UNL     1     -10.835  10.799  67.523  1.00  0.00    -0.246 OA 
BRANCH  31  32
HETATM   32  C   UNL     1     -10.208  11.917  66.881  1.00  0.00    -0.208 C  
HETATM   33  O   UNL     1      -9.427  11.531  65.743  1.00  0.00    -0.227 OA 
HETATM   34  C   UNL     1     -10.226  11.046  64.651  1.00  0.00    -0.330 C  
HETATM   35  C   UNL     1     -11.190  12.140  64.164  1.00  0.00    -0.368 C  
HETATM   36  H   UNL     1     -12.686  14.021  67.429  1.00  0.00     0.000 HD 
HETATM   37  C   UNL     1     -12.110  12.585  65.317  1.00  0.00    -0.444 C  
HETATM   38  H1  UNL     1     -13.630  13.960  65.631  1.00  0.00     0.000 HD 
HETATM   39  O   UNL     1     -11.974  11.712  63.046  1.00  0.00    -0.887 OA 
HETATM   40  H   UNL     1     -12.570  12.388  62.746  1.00  0.00     0.000 HD 
HETATM   41  H2  UNL     1     -13.553  13.393  64.042  1.00  0.00     0.000 HD 
HETATM   42  C   UNL     1     -11.245  13.011  66.517  1.00  0.00    -0.302 C  
HETATM   43  N   UNL     1     -13.021  13.665  64.868  1.00  0.00    -0.719 NA 
HETATM   44  O   UNL     1     -12.051  13.351  67.652  1.00  0.00    -0.342 OA 
BRANCH  34  45
HETATM   45  C   UNL     1      -9.286  10.625  63.513  1.00  0.00    -0.262 C  
HETATM   46  O   UNL     1      -8.900  11.755  62.731  1.00  0.00    -0.647 OA 
HETATM   47  H   UNL     1      -8.318  11.495  62.027  1.00  0.00     0.000 HD 
ENDBRANCH  34  45
ENDBRANCH  31  32
ENDBRANCH  25  31
ENDBRANCH  16  17
ENDBRANCH   7  16
ENDBRANCH   2   5
TORSDOF 6
ENDMDL
MODEL       28
REMARK 921   NORMALIZED FREE ENERGY PREDICTED BY IDOCK:   -7.30 KCAL/MOL
REMARK 922        TOTAL FREE ENERGY PREDICTED BY IDOCK:  -10.92 KCAL/MOL
REMARK 923 INTER-LIGAND FREE ENERGY PREDICTED BY IDOCK:  -10.05 KCAL/MOL
REMARK 924 INTRA-LIGAND FREE ENERGY PREDICTED BY IDOCK:   -0.87 KCAL/MOL
REMARK 927      BINDING AFFINITY PREDICTED BY RF-SCORE:    0.00 PKD
ROOT
HETATM    1  N   UNL     1     -11.277   4.870  65.475  1.00  0.00    -0.932 NA 
HETATM    2  C   UNL     1     -10.981   5.735  66.627  1.00  0.00    -0.128 C  
HETATM    3  H2  UNL     1     -10.737   4.006  65.515  1.00  0.00     0.000 HD 
HETATM    4  H1  UNL     1     -12.274   4.677  65.384  1.00  0.00     0.000 HD 
ENDROOT
BRANCH   2   5
HETATM    5  C   UNL     1      -9.465   6.029  66.765  1.00  0.00    -0.144 C  
HETATM    6  O   UNL     1      -9.074   7.219  66.063  1.00  0.00    -0.153 OA 
HETATM    7  C   UNL     1      -9.562   8.431  66.615  1.00  0.00    -0.229 C  
HETATM    8  C   UNL     1      -9.015   8.613  68.068  1.00  0.00    -0.141 C  
HETATM    9  C   UNL     1      -9.004   6.068  68.235  1.00  0.00    -0.113 C  
HETATM   10  N   UNL     1      -7.550   8.811  68.108  1.00  0.00    -0.096 NA 
HETATM   11  C   UNL     1      -9.393   7.385  68.918  1.00  0.00    -0.145 C  
HETATM   12  H   UNL     1      -7.296   5.928  69.167  1.00  0.00     0.000 HD 
HETATM   13  H1  UNL     1      -7.193   8.930  69.056  1.00  0.00     0.000 HD 
HETATM   14  H2  UNL     1      -7.270   9.590  67.512  1.00  0.00     0.000 HD 
HETATM   15  O   UNL     1      -7.580   5.904  68.261  1.00  0.00    -0.087 OA 
BRANCH   7  16
HETATM   16  O   UNL     1      -9.153   9.546  65.804  1.00  0.00    -0.168 OA 
BRANCH  16  17
HETATM   17  C   UNL     1     -10.214  10.362  65.227  1.00  0.00    -0.262 C  
HETATM   18  N   UNL     1      -9.637   9.822  62.871  1.00  0.00    -0.547 NA 
HETATM   19  C   UNL     1     -10.986  11.786  63.285  1.00  0.00    -0.387 C  
HETATM   20  H1  UNL     1      -9.407  10.188  61.947  1.00  0.00     0.000 HD 
HETATM   21  H2  UNL     1     -10.431   9.183  62.834  1.00  0.00     0.000 HD 
HETATM   22  C   UNL     1     -11.289  12.957  64.220  1.00  0.00    -0.371 C  
HETATM   23  C   UNL     1      -9.865  10.915  63.830  1.00  0.00    -0.337 C  
HETATM   24  N   UNL     1     -12.293  13.779  63.521  1.00  0.00    -1.032 NA 
HETATM   25  C   UNL     1     -11.754  12.466  65.627  1.00  0.00    -0.414 C  
HETATM   26  H   UNL     1     -11.709  11.390  67.918  1.00  0.00     0.000 HD 
HETATM   27  H1  UNL     1     -12.494  14.561  64.145  1.00  0.00     0.000 HD 
HETATM   28  C   UNL     1     -10.745  11.434  66.219  1.00  0.00    -0.270 C  
HETATM   29  H2  UNL     1     -13.123  13.258  63.238  1.00  0.00     0.000 HD 
HETATM   30  O   UNL     1     -11.384  10.734  67.312  1.00  0.00    -0.397 OA 
BRANCH  25  31
HETATM   31  O   UNL     1     -11.857  13.548  66.604  1.00  0.00    -0.364 OA 
BRANCH  31  32
HETATM   32  C   UNL     1     -10.676  13.784  67.382  1.00  0.00    -0.275 C  
HETATM   33  O   UNL     1      -9.814  14.765  66.790  1.00  0.00    -0.241 OA 
HETATM   34  C   UNL     1     -10.377  16.087  66.803  1.00  0.00    -0.300 C  
HETATM   35  C   UNL     1     -10.631  16.549  68.247  1.00  0.00    -0.326 C  
HETATM   36  H   UNL     1     -12.146  13.404  70.308  1.00  0.00     0.000 HD 
HETATM   37  C   UNL     1     -11.593  15.573  68.952  1.00  0.00    -0.373 C  
HETATM   38  H1  UNL     1     -12.455  15.344  70.824  1.00  0.00     0.000 HD 
HETATM   39  O   UNL     1     -11.149  17.881  68.306  1.00  0.00    -0.181 OA 
HETATM   40  H   UNL     1     -11.307  18.166  69.198  1.00  0.00     0.000 HD 
HETATM   41  H2  UNL     1     -12.143  16.954  70.419  1.00  0.00     0.000 HD 
HETATM   42  C   UNL     1     -11.030  14.146  68.848  1.00  0.00    -0.259 C  
HETATM   43  N   UNL     1     -11.818  15.990  70.357  1.00  0.00    -0.323 NA 
HETATM   44  O   UNL     1     -11.929  13.182  69.410  1.00  0.00    -0.307 OA 
BRANCH  34  45
HETATM   45  C   UNL     1      -9.391  17.039  66.110  1.00  0.00    -0.214 C  
HETATM   46  O   UNL     1      -9.986  18.319  65.900  1.00  0.00    -0.538 OA 
HETATM   47  H   UNL     1      -9.376  18.908  65.471  1.00  0.00     0.000 HD 
ENDBRANCH  34  45
ENDBRANCH  31  32
ENDBRANCH  25  31
ENDBRANCH  16  17
ENDBRANCH   7  16
ENDBRANCH   2   5
TORSDOF 6
ENDMDL
MODEL       29
REMARK 921   NORMALIZED FREE ENERGY PREDICTED BY IDOCK:   -7.29 KCAL/MOL
REMARK 922        TOTAL FREE ENERGY PREDICTED BY IDOCK:  -10.90 KCAL/MOL
REMARK 923 INTER-LIGAND FREE ENERGY PREDICTED BY IDOCK:   -9.34 KCAL/MOL
REMARK 924 INTRA-LIGAND FREE ENERGY PREDICTED BY IDOCK:   -1.56 KCAL/MOL
REMARK 927      BINDING AFFINITY PREDICTED BY RF-SCORE:    0.00 PKD
ROOT
HETATM    1  N   UNL     1      -6.040  14.109  67.173  1.00  0.00    -0.250 NA 
HETATM    2  C   UNL     1      -7.328  14.631  67.654  1.00  0.00    -0.185 C  
HETATM    3  H2  UNL     1      -5.382  14.865  66.986  1.00  0.00     0.000 HD 
HETATM    4  H1  UNL     1      -5.640  13.421  67.811  1.00  0.00     0.000 HD 
ENDROOT
BRANCH   2   5
HETATM    5  C   UNL     1      -7.936  15.676  66.685  1.00  0.00    -0.150 C  
HETATM    6  O   UNL     1      -9.365  15.760  66.800  1.00  0.00    -0.218 OA 
HETATM    7  C   UNL     1      -9.839  16.318  68.015  1.00  0.00    -0.236 C  
HETATM    8  C   UNL     1      -9.327  17.788  68.161  1.00  0.00    -0.281 C  
HETATM    9  C   UNL     1      -7.279  17.063  66.825  1.00  0.00    -0.239 C  
HETATM   10  N   UNL     1      -9.902  18.698  67.147  1.00  0.00    -0.303 NA 
HETATM   11  C   UNL     1      -7.790  17.811  68.062  1.00  0.00    -0.241 C  
HETATM   12  H   UNL     1      -7.167  18.672  65.727  1.00  0.00     0.000 HD 
HETATM   13  H1  UNL     1      -9.568  19.657  67.242  1.00  0.00     0.000 HD 
HETATM   14  H2  UNL     1     -10.921  18.662  67.160  1.00  0.00     0.000 HD 
HETATM   15  O   UNL     1      -7.572  17.817  65.641  1.00  0.00    -0.541 OA 
BRANCH   7  16
HETATM   16  O   UNL     1     -11.276  16.304  68.041  1.00  0.00    -0.334 OA 
BRANCH  16  17
HETATM   17  C   UNL     1     -11.910  15.136  68.640  1.00  0.00    -0.302 C  
HETATM   18  N   UNL     1     -11.974  16.086  70.936  1.00  0.00    -0.513 NA 
HETATM   19  C   UNL     1     -12.197  13.691  70.695  1.00  0.00    -0.434 C  
HETATM   20  H1  UNL     1     -11.730  15.955  71.917  1.00  0.00     0.000 HD 
HETATM   21  H2  UNL     1     -12.970  16.274  70.819  1.00  0.00     0.000 HD 
HETATM   22  C   UNL     1     -11.796  12.439  69.913  1.00  0.00    -0.305 C  
HETATM   23  C   UNL     1     -11.540  14.937  70.125  1.00  0.00    -0.289 C  
HETATM   24  N   UNL     1     -12.393  11.304  70.638  1.00  0.00    -0.373 NA 
HETATM   25  C   UNL     1     -12.238  12.528  68.419  1.00  0.00     0.129 C  
HETATM   26  H   UNL     1     -12.381  13.294  66.010  1.00  0.00     0.000 HD 
HETATM   27  H1  UNL     1     -12.125  10.470  70.117  1.00  0.00     0.000 HD 
HETATM   28  C   UNL     1     -11.747  13.859  67.770  1.00  0.00    -0.366 C  
HETATM   29  H2  UNL     1     -13.400  11.393  70.778  1.00  0.00     0.000 HD 
HETATM   30  O   UNL     1     -12.481  14.075  66.541  1.00  0.00    -0.442 OA 
BRANCH  25  31
HETATM   31  O   UNL     1     -11.697  11.446  67.598  1.00  0.00    -0.546 OA 
BRANCH  31  32
HETATM   32  C   UNL     1     -10.332  11.099  67.867  1.00  0.00    -0.185 C  
HETATM   33  O   UNL     1     -10.213   9.930  68.688  1.00  0.00    -0.165 OA 
HETATM   34  C   UNL     1     -10.638   8.730  68.021  1.00  0.00    -0.159 C  
HETATM   35  C   UNL     1      -9.775   8.474  66.776  1.00  0.00    -0.236 C  
HETATM   36  H   UNL     1      -9.186  12.029  64.919  1.00  0.00     0.000 HD 
HETATM   37  C   UNL     1      -9.881   9.666  65.805  1.00  0.00    -0.302 C  
HETATM   38  H1  UNL     1      -9.094  10.234  63.973  1.00  0.00     0.000 HD 
HETATM   39  O   UNL     1     -10.137   7.262  66.107  1.00  0.00    -0.445 OA 
HETATM   40  H   UNL     1      -9.604   7.103  65.337  1.00  0.00     0.000 HD 
HETATM   41  H2  UNL     1      -9.238   8.560  64.154  1.00  0.00     0.000 HD 
HETATM   42  C   UNL     1      -9.517  10.960  66.554  1.00  0.00    -0.185 C  
HETATM   43  N   UNL     1      -9.024   9.444  64.615  1.00  0.00    -0.207 NA 
HETATM   44  O   UNL     1      -9.685  12.115  65.723  1.00  0.00    -0.245 OA 
BRANCH  34  45
HETATM   45  C   UNL     1     -10.508   7.559  69.005  1.00  0.00    -0.208 C  
HETATM   46  O   UNL     1     -11.458   6.537  68.704  1.00  0.00    -0.580 OA 
HETATM   47  H   UNL     1     -11.377   5.812  69.313  1.00  0.00     0.000 HD 
ENDBRANCH  34  45
ENDBRANCH  31  32
ENDBRANCH  25  31
ENDBRANCH  16  17
ENDBRANCH   7  16
ENDBRANCH   2   5
TORSDOF 6
ENDMDL
MODEL       30
REMARK 921   NORMALIZED FREE ENERGY PREDICTED BY IDOCK:   -7.24 KCAL/MOL
REMARK 922        TOTAL FREE ENERGY PREDICTED BY IDOCK:  -10.84 KCAL/MOL
REMARK 923 INTER-LIGAND FREE ENERGY PREDICTED BY IDOCK:   -9.62 KCAL/MOL
REMARK 924 INTRA-LIGAND FREE ENERGY PREDICTED BY IDOCK:   -1.22 KCAL/MOL
REMARK 927      BINDING AFFINITY PREDICTED BY RF-SCORE:    0.00 PKD
ROOT
HETATM    1  N   UNL     1     -12.168  14.950  68.535  1.00  0.00    -0.597 NA 
HETATM    2  C   UNL     1     -12.074  13.808  67.614  1.00  0.00    -0.298 C  
HETATM    3  H2  UNL     1     -12.762  15.685  68.152  1.00  0.00     0.000 HD 
HETATM    4  H1  UNL     1     -12.482  14.671  69.465  1.00  0.00     0.000 HD 
ENDROOT
BRANCH   2   5
HETATM    5  C   UNL     1     -11.598  14.232  66.202  1.00  0.00    -0.369 C  
HETATM    6  O   UNL     1     -10.395  13.555  65.806  1.00  0.00    -0.280 OA 
HETATM    7  C   UNL     1     -10.539  12.166  65.558  1.00  0.00    -0.277 C  
HETATM    8  C   UNL     1     -11.545  11.936  64.384  1.00  0.00    -0.292 C  
HETATM    9  C   UNL     1     -12.702  14.080  65.137  1.00  0.00    -0.389 C  
HETATM   10  N   UNL     1     -11.037  12.440  63.089  1.00  0.00    -0.699 NA 
HETATM   11  C   UNL     1     -12.886  12.618  64.713  1.00  0.00    -0.349 C  
HETATM   12  H   UNL     1     -13.021  14.785  63.345  1.00  0.00     0.000 HD 
HETATM   13  H1  UNL     1     -11.694  12.290  62.322  1.00  0.00     0.000 HD 
HETATM   14  H2  UNL     1     -10.125  12.039  62.873  1.00  0.00     0.000 HD 
HETATM   15  O   UNL     1     -12.340  14.878  64.002  1.00  0.00    -0.713 OA 
BRANCH   7  16
HETATM   16  O   UNL     1      -9.267  11.586  65.223  1.00  0.00    -0.184 OA 
BRANCH  16  17
HETATM   17  C   UNL     1      -8.914  10.342  65.895  1.00  0.00    -0.162 C  
HETATM   18  N   UNL     1      -7.943   9.276  63.871  1.00  0.00    -0.133 NA 
HETATM   19  C   UNL     1      -8.585   7.842  65.709  1.00  0.00    -0.162 C  
HETATM   20  H1  UNL     1      -7.950   8.467  63.250  1.00  0.00     0.000 HD 
HETATM   21  H2  UNL     1      -7.009   9.463  64.234  1.00  0.00     0.000 HD 
HETATM   22  C   UNL     1      -9.563   7.593  66.858  1.00  0.00    -0.193 C  
HETATM   23  C   UNL     1      -8.925   9.118  64.956  1.00  0.00    -0.171 C  
HETATM   24  N   UNL     1      -9.200   6.278  67.415  1.00  0.00    -0.116 NA 
HETATM   25  C   UNL     1      -9.525   8.748  67.906  1.00  0.00    -0.142 C  
HETATM   26  H   UNL     1      -9.779  11.044  68.944  1.00  0.00     0.000 HD 
HETATM   27  H1  UNL     1      -9.853   6.112  68.181  1.00  0.00     0.000 HD 
HETATM   28  C   UNL     1      -9.708  10.134  67.216  1.00  0.00    -0.167 C  
HETATM   29  H2  UNL     1      -8.220   6.207  67.691  1.00  0.00     0.000 HD 
HETATM   30  O   UNL     1      -9.294  11.171  68.137  1.00  0.00    -0.163 OA 
BRANCH  25  31
HETATM   31  O   UNL     1     -10.586   8.645  68.908  1.00  0.00    -0.209 OA 
BRANCH  31  32
HETATM   32  C   UNL     1     -10.180   8.905  70.257  1.00  0.00    -0.201 C  
HETATM   33  O   UNL     1     -10.930   9.966  70.863  1.00  0.00    -0.319 OA 
HETATM   34  C   UNL     1     -12.307   9.621  71.090  1.00  0.00    -0.339 C  
HETATM   35  C   UNL     1     -12.410   8.420  72.043  1.00  0.00    -0.361 C  
HETATM   36  H   UNL     1      -9.533   5.759  71.001  1.00  0.00     0.000 HD 
HETATM   37  C   UNL     1     -11.667   7.208  71.447  1.00  0.00    -0.296 C  
HETATM   38  H1  UNL     1     -11.240   5.250  71.979  1.00  0.00     0.000 HD 
HETATM   39  O   UNL     1     -13.767   8.073  72.331  1.00  0.00    -0.531 OA 
HETATM   40  H   UNL     1     -13.831   7.330  72.919  1.00  0.00     0.000 HD 
HETATM   41  H2  UNL     1     -12.691   5.822  72.627  1.00  0.00     0.000 HD 
HETATM   42  C   UNL     1     -10.221   7.614  71.117  1.00  0.00    -0.195 C  
HETATM   43  N   UNL     1     -11.731   6.053  72.374  1.00  0.00    -0.305 NA 
HETATM   44  O   UNL     1      -9.508   6.550  70.475  1.00  0.00    -0.165 OA 
BRANCH  34  45
HETATM   45  C   UNL     1     -13.016  10.840  71.697  1.00  0.00    -0.476 C  
HETATM   46  O   UNL     1     -12.611  12.041  71.041  1.00  0.00    -0.364 OA 
HETATM   47  H   UNL     1     -13.050  12.795  71.417  1.00  0.00     0.000 HD 
ENDBRANCH  34  45
ENDBRANCH  31  32
ENDBRANCH  25  31
ENDBRANCH  16  17
ENDBRANCH   7  16
ENDBRANCH   2   5
TORSDOF 6
ENDMDL
MODEL       31
REMARK 921   NORMALIZED FREE ENERGY PREDICTED BY IDOCK:   -7.24 KCAL/MOL
REMARK 922        TOTAL FREE ENERGY PREDICTED BY IDOCK:  -10.83 KCAL/MOL
REMARK 923 INTER-LIGAND FREE ENERGY PREDICTED BY IDOCK:   -9.10 KCAL/MOL
REMARK 924 INTRA-LIGAND FREE ENERGY PREDICTED BY IDOCK:   -1.73 KCAL/MOL
REMARK 927      BINDING AFFINITY PREDICTED BY RF-SCORE:    0.00 PKD
ROOT
HETATM    1  N   UNL     1     -12.143   9.840  71.814  1.00  0.00    -0.385 NA 
HETATM    2  C   UNL     1     -10.821   9.521  71.255  1.00  0.00    -0.343 C  
HETATM    3  H2  UNL     1     -12.684   8.993  71.987  1.00  0.00     0.000 HD 
HETATM    4  H1  UNL     1     -12.079  10.415  72.653  1.00  0.00     0.000 HD 
ENDROOT
BRANCH   2   5
HETATM    5  C   UNL     1     -10.918   8.647  69.979  1.00  0.00    -0.203 C  
HETATM    6  O   UNL     1     -10.310   9.276  68.840  1.00  0.00    -0.204 OA 
HETATM    7  C   UNL     1      -8.897   9.388  68.897  1.00  0.00    -0.136 C  
HETATM    8  C   UNL     1      -8.253   7.965  68.974  1.00  0.00    -0.126 C  
HETATM    9  C   UNL     1     -10.366   7.224  70.196  1.00  0.00    -0.212 C  
HETATM   10  N   UNL     1      -8.462   7.175  67.741  1.00  0.00    -0.120 NA 
HETATM   11  C   UNL     1      -8.833   7.201  70.179  1.00  0.00    -0.145 C  
HETATM   12  H   UNL     1     -10.540   5.506  69.288  1.00  0.00     0.000 HD 
HETATM   13  H1  UNL     1      -8.042   6.247  67.791  1.00  0.00     0.000 HD 
HETATM   14  H2  UNL     1      -8.130   7.683  66.921  1.00  0.00     0.000 HD 
HETATM   15  O   UNL     1     -10.880   6.384  69.155  1.00  0.00    -0.255 OA 
BRANCH   7  16
HETATM   16  O   UNL     1      -8.406  10.076  67.734  1.00  0.00    -0.114 OA 
BRANCH  16  17
HETATM   17  C   UNL     1      -9.405  10.662  66.849  1.00  0.00    -0.159 C  
HETATM   18  N   UNL     1      -9.472   8.724  65.294  1.00  0.00    -0.427 NA 
HETATM   19  C   UNL     1     -10.321  10.844  64.499  1.00  0.00    -0.417 C  
HETATM   20  H1  UNL     1      -9.391   8.406  64.329  1.00  0.00     0.000 HD 
HETATM   21  H2  UNL     1     -10.356   8.433  65.713  1.00  0.00     0.000 HD 
HETATM   22  C   UNL     1     -10.193  12.368  64.530  1.00  0.00    -0.299 C  
HETATM   23  C   UNL     1      -9.282  10.181  65.388  1.00  0.00    -0.202 C  
HETATM   24  N   UNL     1     -11.162  12.872  63.541  1.00  0.00    -0.594 NA 
HETATM   25  C   UNL     1     -10.414  12.934  65.967  1.00  0.00    -0.276 C  
HETATM   26  H   UNL     1     -10.055  13.424  68.425  1.00  0.00     0.000 HD 
HETATM   27  H1  UNL     1     -11.077  13.888  63.562  1.00  0.00     0.000 HD 
HETATM   28  C   UNL     1      -9.501  12.206  67.000  1.00  0.00    -0.201 C  
HETATM   29  H2  UNL     1     -12.114  12.539  63.696  1.00  0.00     0.000 HD 
HETATM   30  O   UNL     1      -9.996  12.480  68.333  1.00  0.00    -0.224 OA 
BRANCH  25  31
HETATM   31  O   UNL     1     -10.101  14.359  66.074  1.00  0.00    -0.294 OA 
BRANCH  31  32
HETATM   32  C   UNL     1     -11.192  15.196  66.477  1.00  0.00    -0.283 C  
HETATM   33  O   UNL     1     -11.320  15.286  67.902  1.00  0.00    -0.321 OA 
HETATM   34  C   UNL     1     -10.233  15.996  68.519  1.00  0.00    -0.236 C  
HETATM   35  C   UNL     1     -10.170  17.440  67.998  1.00  0.00    -0.345 C  
HETATM   36  H   UNL     1     -10.862  17.352  64.004  1.00  0.00     0.000 HD 
HETATM   37  C   UNL     1      -9.983  17.443  66.468  1.00  0.00    -0.311 C  
HETATM   38  H1  UNL     1      -9.832  18.833  64.938  1.00  0.00     0.000 HD 
HETATM   39  O   UNL     1      -9.128  18.196  68.622  1.00  0.00    -0.308 OA 
HETATM   40  H   UNL     1      -9.089  19.089  68.300  1.00  0.00     0.000 HD 
HETATM   41  H2  UNL     1      -9.249  19.398  66.420  1.00  0.00     0.000 HD 
HETATM   42  C   UNL     1     -11.096  16.600  65.823  1.00  0.00     0.168 C  
HETATM   43  N   UNL     1      -9.956  18.832  65.950  1.00  0.00    -0.518 NA 
HETATM   44  O   UNL     1     -10.921  16.492  64.404  1.00  0.00    -0.872 OA 
BRANCH  34  45
HETATM   45  C   UNL     1     -10.454  15.991  70.038  1.00  0.00    -0.258 C  
HETATM   46  O   UNL     1     -10.672  14.663  70.514  1.00  0.00    -0.481 OA 
HETATM   47  H   UNL     1     -10.808  14.660  71.454  1.00  0.00     0.000 HD 
ENDBRANCH  34  45
ENDBRANCH  31  32
ENDBRANCH  25  31
ENDBRANCH  16  17
ENDBRANCH   7  16
ENDBRANCH   2   5
TORSDOF 6
ENDMDL
MODEL       32
REMARK 921   NORMALIZED FREE ENERGY PREDICTED BY IDOCK:   -7.22 KCAL/MOL
REMARK 922        TOTAL FREE ENERGY PREDICTED BY IDOCK:  -10.81 KCAL/MOL
REMARK 923 INTER-LIGAND FREE ENERGY PREDICTED BY IDOCK:  -10.50 KCAL/MOL
REMARK 924 INTRA-LIGAND FREE ENERGY PREDICTED BY IDOCK:   -0.31 KCAL/MOL
REMARK 927      BINDING AFFINITY PREDICTED BY RF-SCORE:    0.00 PKD
ROOT
HETATM    1  N   UNL     1     -10.713  15.376  70.757  1.00  0.00    -0.466 NA 
HETATM    2  C   UNL     1     -11.049  16.389  69.746  1.00  0.00    -0.305 C  
HETATM    3  H2  UNL     1     -10.163  15.780  71.514  1.00  0.00     0.000 HD 
HETATM    4  H1  UNL     1     -11.539  14.899  71.115  1.00  0.00     0.000 HD 
ENDROOT
BRANCH   2   5
HETATM    5  C   UNL     1      -9.792  17.114  69.201  1.00  0.00    -0.187 C  
HETATM    6  O   UNL     1      -9.218  16.437  68.072  1.00  0.00    -0.201 OA 
HETATM    7  C   UNL     1      -9.997  16.474  66.887  1.00  0.00    -0.271 C  
HETATM    8  C   UNL     1     -10.191  17.954  66.423  1.00  0.00    -0.372 C  
HETATM    9  C   UNL     1     -10.058  18.600  68.887  1.00  0.00    -0.311 C  
HETATM   10  N   UNL     1      -8.926  18.589  65.993  1.00  0.00    -0.484 NA 
HETATM   11  C   UNL     1     -10.817  18.775  67.567  1.00  0.00    -0.396 C  
HETATM   12  H   UNL     1      -8.959  20.190  68.626  1.00  0.00     0.000 HD 
HETATM   13  H1  UNL     1      -9.053  19.555  65.690  1.00  0.00     0.000 HD 
HETATM   14  H2  UNL     1      -8.467  18.036  65.270  1.00  0.00     0.000 HD 
HETATM   15  O   UNL     1      -8.795  19.274  68.819  1.00  0.00    -0.361 OA 
BRANCH   7  16
HETATM   16  O   UNL     1      -9.352  15.723  65.845  1.00  0.00    -0.333 OA 
BRANCH  16  17
HETATM   17  C   UNL     1     -10.143  14.683  65.199  1.00  0.00    -0.324 C  
HETATM   18  N   UNL     1     -11.417  16.255  63.755  1.00  0.00    -1.429 NA 
HETATM   19  C   UNL     1     -12.334  14.046  64.108  1.00  0.00    -0.374 C  
HETATM   20  H1  UNL     1     -12.337  16.578  63.454  1.00  0.00     0.000 HD 
HETATM   21  H2  UNL     1     -10.838  15.979  62.962  1.00  0.00     0.000 HD 
HETATM   22  C   UNL     1     -12.511  12.872  65.071  1.00  0.00    -0.492 C  
HETATM   23  C   UNL     1     -11.535  15.172  64.744  1.00  0.00    -0.383 C  
HETATM   24  N   UNL     1     -13.398  11.918  64.383  1.00  0.00    -0.317 NA 
HETATM   25  C   UNL     1     -11.139  12.258  65.491  1.00  0.00    -0.307 C  
HETATM   26  H   UNL     1      -8.842  12.025  66.531  1.00  0.00     0.000 HD 
HETATM   27  H1  UNL     1     -13.517  11.135  65.026  1.00  0.00     0.000 HD 
HETATM   28  C   UNL     1     -10.172  13.362  66.017  1.00  0.00    -0.300 C  
HETATM   29  H2  UNL     1     -13.062  11.641  63.460  1.00  0.00     0.000 HD 
HETATM   30  O   UNL     1      -8.825  12.833  66.031  1.00  0.00     0.129 OA 
BRANCH  25  31
HETATM   31  O   UNL     1     -11.258  11.271  66.563  1.00  0.00    -0.273 OA 
BRANCH  31  32
HETATM   32  C   UNL     1     -10.017  10.824  67.123  1.00  0.00    -0.194 C  
HETATM   33  O   UNL     1     -10.020  10.849  68.557  1.00  0.00    -0.168 OA 
HETATM   34  C   UNL     1     -10.907   9.876  69.133  1.00  0.00    -0.221 C  
HETATM   35  C   UNL     1     -10.484   8.455  68.726  1.00  0.00    -0.178 C  
HETATM   36  H   UNL     1      -9.432   8.547  64.811  1.00  0.00     0.000 HD 
HETATM   37  C   UNL     1     -10.500   8.320  67.191  1.00  0.00    -0.316 C  
HETATM   38  H1  UNL     1     -10.070   6.873  65.769  1.00  0.00     0.000 HD 
HETATM   39  O   UNL     1     -11.316   7.453  69.317  1.00  0.00    -0.451 OA 
HETATM   40  H   UNL     1     -11.055   6.575  69.065  1.00  0.00     0.000 HD 
HETATM   41  H2  UNL     1     -10.613   6.234  67.235  1.00  0.00     0.000 HD 
HETATM   42  C   UNL     1      -9.624   9.426  66.577  1.00  0.00    -0.208 C  
HETATM   43  N   UNL     1     -10.060   6.963  66.785  1.00  0.00    -0.205 NA 
HETATM   44  O   UNL     1      -9.673   9.403  65.145  1.00  0.00    -0.229 OA 
BRANCH  34  45
HETATM   45  C   UNL     1     -10.859  10.024  70.660  1.00  0.00    -0.297 C  
HETATM   46  O   UNL     1      -9.759   9.297  71.205  1.00  0.00    -0.282 OA 
HETATM   47  H   UNL     1      -9.729   9.389  72.150  1.00  0.00     0.000 HD 
ENDBRANCH  34  45
ENDBRANCH  31  32
ENDBRANCH  25  31
ENDBRANCH  16  17
ENDBRANCH   7  16
ENDBRANCH   2   5
TORSDOF 6
ENDMDL
MODEL       33
REMARK 921   NORMALIZED FREE ENERGY PREDICTED BY IDOCK:   -7.21 KCAL/MOL
REMARK 922        TOTAL FREE ENERGY PREDICTED BY IDOCK:  -10.80 KCAL/MOL
REMARK 923 INTER-LIGAND FREE ENERGY PREDICTED BY IDOCK:   -9.99 KCAL/MOL
REMARK 924 INTRA-LIGAND FREE ENERGY PREDICTED BY IDOCK:   -0.80 KCAL/MOL
REMARK 927      BINDING AFFINITY PREDICTED BY RF-SCORE:    0.00 PKD
ROOT
HETATM    1  N   UNL     1     -11.326  16.705  64.148  1.00  0.00    -1.437 NA 
HETATM    2  C   UNL     1     -10.661  15.672  64.956  1.00  0.00    -0.436 C  
HETATM    3  H2  UNL     1     -12.335  16.700  64.301  1.00  0.00     0.000 HD 
HETATM    4  H1  UNL     1     -10.935  17.633  64.308  1.00  0.00     0.000 HD 
ENDROOT
BRANCH   2   5
HETATM    5  C   UNL     1     -11.257  14.263  64.712  1.00  0.00    -0.385 C  
HETATM    6  O   UNL     1     -10.326  13.215  65.026  1.00  0.00    -0.317 OA 
HETATM    7  C   UNL     1     -10.028  13.069  66.405  1.00  0.00    -0.277 C  
HETATM    8  C   UNL     1     -11.329  12.714  67.197  1.00  0.00    -0.319 C  
HETATM    9  C   UNL     1     -12.600  14.056  65.440  1.00  0.00    -0.505 C  
HETATM   10  N   UNL     1     -11.868  11.383  66.843  1.00  0.00    -0.410 NA 
HETATM   11  C   UNL     1     -12.400  13.789  66.936  1.00  0.00    -0.328 C  
HETATM   12  H   UNL     1     -14.100  12.819  65.278  1.00  0.00     0.000 HD 
HETATM   13  H1  UNL     1     -12.717  11.151  67.360  1.00  0.00     0.000 HD 
HETATM   14  H2  UNL     1     -11.160  10.658  66.960  1.00  0.00     0.000 HD 
HETATM   15  O   UNL     1     -13.272  12.947  64.830  1.00  0.00    -0.764 OA 
BRANCH   7  16
HETATM   16  O   UNL     1      -9.051  12.031  66.595  1.00  0.00    -0.198 OA 
BRANCH  16  17
HETATM   17  C   UNL     1      -8.512  11.875  67.940  1.00  0.00    -0.154 C  
HETATM   18  N   UNL     1      -6.905  13.761  67.741  1.00  0.00    -0.161 NA 
HETATM   19  C   UNL     1      -6.515  12.119  69.473  1.00  0.00    -0.100 C  
HETATM   20  H1  UNL     1      -5.934  14.063  67.823  1.00  0.00     0.000 HD 
HETATM   21  H2  UNL     1      -7.526  14.336  68.310  1.00  0.00     0.000 HD 
HETATM   22  C   UNL     1      -6.614  10.652  69.892  1.00  0.00    -0.137 C  
HETATM   23  C   UNL     1      -7.043  12.332  68.063  1.00  0.00    -0.099 C  
HETATM   24  N   UNL     1      -5.962  10.566  71.210  1.00  0.00    -0.329 NA 
HETATM   25  C   UNL     1      -8.093  10.153  69.893  1.00  0.00    -0.122 C  
HETATM   26  H   UNL     1     -10.390   9.480  69.066  1.00  0.00     0.000 HD 
HETATM   27  H1  UNL     1      -6.028   9.588  71.490  1.00  0.00     0.000 HD 
HETATM   28  C   UNL     1      -8.789  10.466  68.533  1.00  0.00    -0.142 C  
HETATM   29  H2  UNL     1      -6.346  11.215  71.899  1.00  0.00     0.000 HD 
HETATM   30  O   UNL     1     -10.220  10.342  68.703  1.00  0.00    -0.165 OA 
BRANCH  25  31
HETATM   31  O   UNL     1      -8.208   8.709  70.091  1.00  0.00    -0.111 OA 
BRANCH  31  32
HETATM   32  C   UNL     1      -8.639   8.302  71.396  1.00  0.00    -0.149 C  
HETATM   33  O   UNL     1      -9.800   9.016  71.839  1.00  0.00    -0.323 OA 
HETATM   34  C   UNL     1     -10.980   8.690  71.086  1.00  0.00    -0.260 C  
HETATM   35  C   UNL     1     -11.311   7.196  71.225  1.00  0.00    -0.268 C  
HETATM   36  H   UNL     1      -7.830   5.129  71.019  1.00  0.00     0.000 HD 
HETATM   37  C   UNL     1     -10.129   6.344  70.723  1.00  0.00    -0.187 C  
HETATM   38  H1  UNL     1      -9.641   4.336  70.553  1.00  0.00     0.000 HD 
HETATM   39  O   UNL     1     -12.507   6.839  70.526  1.00  0.00    -0.553 OA 
HETATM   40  H   UNL     1     -12.711   5.916  70.612  1.00  0.00     0.000 HD 
HETATM   41  H2  UNL     1     -11.299   4.638  70.432  1.00  0.00     0.000 HD 
HETATM   42  C   UNL     1      -8.851   6.767  71.467  1.00  0.00    -0.137 C  
HETATM   43  N   UNL     1     -10.424   4.900  70.885  1.00  0.00    -0.151 NA 
HETATM   44  O   UNL     1      -7.700   6.069  70.976  1.00  0.00    -0.097 OA 
BRANCH  34  45
HETATM   45  C   UNL     1     -12.142   9.541  71.618  1.00  0.00    -0.398 C  
HETATM   46  O   UNL     1     -13.037   9.892  70.562  1.00  0.00    -0.577 OA 
HETATM   47  H   UNL     1     -13.756  10.418  70.891  1.00  0.00     0.000 HD 
ENDBRANCH  34  45
ENDBRANCH  31  32
ENDBRANCH  25  31
ENDBRANCH  16  17
ENDBRANCH   7  16
ENDBRANCH   2   5
TORSDOF 6
ENDMDL
MODEL       34
REMARK 921   NORMALIZED FREE ENERGY PREDICTED BY IDOCK:   -7.18 KCAL/MOL
REMARK 922        TOTAL FREE ENERGY PREDICTED BY IDOCK:  -10.75 KCAL/MOL
REMARK 923 INTER-LIGAND FREE ENERGY PREDICTED BY IDOCK:   -9.41 KCAL/MOL
REMARK 924 INTRA-LIGAND FREE ENERGY PREDICTED BY IDOCK:   -1.34 KCAL/MOL
REMARK 927      BINDING AFFINITY PREDICTED BY RF-SCORE:    0.00 PKD
ROOT
HETATM    1  N   UNL     1     -12.609  13.934  63.221  1.00  0.00    -1.006 NA 
HETATM    2  C   UNL     1     -11.910  13.855  64.512  1.00  0.00    -0.426 C  
HETATM    3  H2  UNL     1     -12.572  13.043  62.727  1.00  0.00     0.000 HD 
HETATM    4  H1  UNL     1     -13.570  14.259  63.322  1.00  0.00     0.000 HD 
ENDROOT
BRANCH   2   5
HETATM    5  C   UNL     1     -10.450  13.360  64.360  1.00  0.00    -0.384 C  
HETATM    6  O   UNL     1      -9.845  13.045  65.624  1.00  0.00    -0.251 OA 
HETATM    7  C   UNL     1     -10.374  11.902  66.276  1.00  0.00    -0.224 C  
HETATM    8  C   UNL     1     -10.156  10.633  65.388  1.00  0.00    -0.291 C  
HETATM    9  C   UNL     1     -10.326  12.184  63.371  1.00  0.00    -0.402 C  
HETATM   10  N   UNL     1      -8.727  10.281  65.236  1.00  0.00    -0.164 NA 
HETATM   11  C   UNL     1     -10.781  10.862  64.000  1.00  0.00    -0.208 C  
HETATM   12  H   UNL     1      -8.878  11.361  62.354  1.00  0.00     0.000 HD 
HETATM   13  H1  UNL     1      -8.585   9.453  64.657  1.00  0.00     0.000 HD 
HETATM   14  H2  UNL     1      -8.278  10.173  66.145  1.00  0.00     0.000 HD 
HETATM   15  O   UNL     1      -8.955  12.086  62.963  1.00  0.00    -0.026 OA 
BRANCH   7  16
HETATM   16  O   UNL     1      -9.733  11.715  67.549  1.00  0.00    -0.175 OA 
BRANCH  16  17
HETATM   17  C   UNL     1      -9.949  12.751  68.551  1.00  0.00    -0.164 C  
HETATM   18  N   UNL     1     -12.161  11.882  69.279  1.00  0.00    -0.255 NA 
HETATM   19  C   UNL     1     -11.614  14.176  69.814  1.00  0.00    -0.351 C  
HETATM   20  H1  UNL     1     -13.146  12.091  69.436  1.00  0.00     0.000 HD 
HETATM   21  H2  UNL     1     -11.721  11.495  70.114  1.00  0.00     0.000 HD 
HETATM   22  C   UNL     1     -10.899  15.456  69.381  1.00  0.00    -0.263 C  
HETATM   23  C   UNL     1     -11.441  13.068  68.788  1.00  0.00    -0.298 C  
HETATM   24  N   UNL     1     -11.249  16.472  70.389  1.00  0.00    -0.473 NA 
HETATM   25  C   UNL     1      -9.362  15.233  69.226  1.00  0.00    -0.239 C  
HETATM   26  H   UNL     1      -7.147  14.377  68.346  1.00  0.00     0.000 HD 
HETATM   27  H1  UNL     1     -10.773  17.326  70.100  1.00  0.00     0.000 HD 
HETATM   28  C   UNL     1      -9.066  14.007  68.308  1.00  0.00    -0.191 C  
HETATM   29  H2  UNL     1     -11.035  16.188  71.346  1.00  0.00     0.000 HD 
HETATM   30  O   UNL     1      -7.687  13.609  68.494  1.00  0.00    -0.126 OA 
BRANCH  25  31
HETATM   31  O   UNL     1      -8.678  16.375  68.620  1.00  0.00    -0.212 OA 
BRANCH  31  32
HETATM   32  C   UNL     1      -8.808  16.481  67.197  1.00  0.00    -0.195 C  
HETATM   33  O   UNL     1      -9.877  17.351  66.805  1.00  0.00    -0.271 OA 
HETATM   34  C   UNL     1      -9.625  18.729  67.125  1.00  0.00    -0.300 C  
HETATM   35  C   UNL     1      -8.370  19.230  66.394  1.00  0.00    -0.321 C  
HETATM   36  H   UNL     1      -5.575  16.298  66.574  1.00  0.00     0.000 HD 
HETATM   37  C   UNL     1      -7.150  18.377  66.794  1.00  0.00    -0.205 C  
HETATM   38  H1  UNL     1      -5.131  18.266  66.333  1.00  0.00     0.000 HD 
HETATM   39  O   UNL     1      -8.109  20.613  66.650  1.00  0.00    -0.526 OA 
HETATM   40  H   UNL     1      -7.333  20.922  66.198  1.00  0.00     0.000 HD 
HETATM   41  H2  UNL     1      -5.766  19.826  66.202  1.00  0.00     0.000 HD 
HETATM   42  C   UNL     1      -7.465  16.894  66.538  1.00  0.00    -0.293 C  
HETATM   43  N   UNL     1      -5.939  18.830  66.067  1.00  0.00    -0.158 NA 
HETATM   44  O   UNL     1      -6.397  16.045  66.977  1.00  0.00    -0.295 OA 
BRANCH  34  45
HETATM   45  C   UNL     1     -10.848  19.555  66.702  1.00  0.00    -0.370 C  
HETATM   46  O   UNL     1     -10.659  20.108  65.399  1.00  0.00    -0.345 OA 
HETATM   47  H   UNL     1     -11.416  20.619  65.137  1.00  0.00     0.000 HD 
ENDBRANCH  34  45
ENDBRANCH  31  32
ENDBRANCH  25  31
ENDBRANCH  16  17
ENDBRANCH   7  16
ENDBRANCH   2   5
TORSDOF 6
ENDMDL
MODEL       35
REMARK 921   NORMALIZED FREE ENERGY PREDICTED BY IDOCK:   -7.17 KCAL/MOL
REMARK 922        TOTAL FREE ENERGY PREDICTED BY IDOCK:  -10.73 KCAL/MOL
REMARK 923 INTER-LIGAND FREE ENERGY PREDICTED BY IDOCK:   -8.76 KCAL/MOL
REMARK 924 INTRA-LIGAND FREE ENERGY PREDICTED BY IDOCK:   -1.97 KCAL/MOL
REMARK 927      BINDING AFFINITY PREDICTED BY RF-SCORE:    0.00 PKD
ROOT
HETATM    1  N   UNL     1     -13.022   7.317  70.789  1.00  0.00    -0.592 NA 
HETATM    2  C   UNL     1     -11.771   6.655  71.188  1.00  0.00    -0.346 C  
HETATM    3  H2  UNL     1     -13.602   6.698  70.224  1.00  0.00     0.000 HD 
HETATM    4  H1  UNL     1     -13.540   7.678  71.590  1.00  0.00     0.000 HD 
ENDROOT
BRANCH   2   5
HETATM    5  C   UNL     1     -10.983   6.107  69.972  1.00  0.00    -0.372 C  
HETATM    6  O   UNL     1     -10.262   7.138  69.278  1.00  0.00    -0.179 OA 
HETATM    7  C   UNL     1      -9.167   7.690  69.991  1.00  0.00    -0.151 C  
HETATM    8  C   UNL     1      -8.109   6.577  70.288  1.00  0.00    -0.121 C  
HETATM    9  C   UNL     1     -10.058   4.933  70.349  1.00  0.00    -0.245 C  
HETATM   10  N   UNL     1      -7.464   6.060  69.062  1.00  0.00    -0.084 NA 
HETATM   11  C   UNL     1      -8.781   5.417  71.046  1.00  0.00    -0.141 C  
HETATM   12  H   UNL     1      -9.152   3.502  69.380  1.00  0.00     0.000 HD 
HETATM   13  H1  UNL     1      -6.774   5.334  69.255  1.00  0.00     0.000 HD 
HETATM   14  H2  UNL     1      -7.055   6.819  68.517  1.00  0.00     0.000 HD 
HETATM   15  O   UNL     1      -9.723   4.226  69.148  1.00  0.00    -0.183 OA 
BRANCH   7  16
HETATM   16  O   UNL     1      -8.557   8.743  69.226  1.00  0.00    -0.127 OA 
BRANCH  16  17
HETATM   17  C   UNL     1      -9.331   9.279  68.114  1.00  0.00    -0.134 C  
HETATM   18  N   UNL     1      -8.698   7.474  66.527  1.00  0.00    -0.133 NA 
HETATM   19  C   UNL     1      -9.558   9.539  65.609  1.00  0.00    -0.346 C  
HETATM   20  H1  UNL     1      -8.305   7.244  65.614  1.00  0.00     0.000 HD 
HETATM   21  H2  UNL     1      -9.618   7.053  66.657  1.00  0.00     0.000 HD 
HETATM   22  C   UNL     1      -9.647  11.060  65.740  1.00  0.00    -0.222 C  
HETATM   23  C   UNL     1      -8.736   8.931  66.733  1.00  0.00    -0.119 C  
HETATM   24  N   UNL     1     -10.354  11.527  64.534  1.00  0.00    -0.280 NA 
HETATM   25  C   UNL     1     -10.340  11.483  67.073  1.00  0.00    -0.220 C  
HETATM   26  H   UNL     1     -10.761  11.816  69.548  1.00  0.00     0.000 HD 
HETATM   27  H1  UNL     1     -10.413  12.541  64.622  1.00  0.00     0.000 HD 
HETATM   28  C   UNL     1      -9.670  10.785  68.296  1.00  0.00    -0.164 C  
HETATM   29  H2  UNL     1     -11.258  11.076  64.391  1.00  0.00     0.000 HD 
HETATM   30  O   UNL     1     -10.554  10.895  69.437  1.00  0.00    -0.220 OA 
BRANCH  25  31
HETATM   31  O   UNL     1     -10.261  12.921  67.326  1.00  0.00    -0.231 OA 
BRANCH  31  32
HETATM   32  C   UNL     1     -11.472  13.651  67.090  1.00  0.00    -0.342 C  
HETATM   33  O   UNL     1     -12.269  13.792  68.273  1.00  0.00    -0.335 OA 
HETATM   34  C   UNL     1     -11.664  14.646  69.259  1.00  0.00    -0.312 C  
HETATM   35  C   UNL     1     -11.469  16.063  68.696  1.00  0.00    -0.377 C  
HETATM   36  H   UNL     1     -10.166  15.713  64.873  1.00  0.00     0.000 HD 
HETATM   37  C   UNL     1     -10.577  16.014  67.441  1.00  0.00    -0.316 C  
HETATM   38  H1  UNL     1      -9.820  17.341  66.038  1.00  0.00     0.000 HD 
HETATM   39  O   UNL     1     -10.910  16.957  69.663  1.00  0.00    -0.373 OA 
HETATM   40  H   UNL     1     -10.790  17.832  69.315  1.00  0.00     0.000 HD 
HETATM   41  H2  UNL     1     -10.058  18.034  67.560  1.00  0.00     0.000 HD 
HETATM   42  C   UNL     1     -11.182  15.025  66.430  1.00  0.00    -0.310 C  
HETATM   43  N   UNL     1     -10.411  17.373  66.869  1.00  0.00    -0.326 NA 
HETATM   44  O   UNL     1     -10.344  14.872  65.277  1.00  0.00    -0.351 OA 
BRANCH  34  45
HETATM   45  C   UNL     1     -12.580  14.687  70.490  1.00  0.00    -0.350 C  
HETATM   46  O   UNL     1     -13.448  15.820  70.437  1.00  0.00    -0.755 OA 
HETATM   47  H   UNL     1     -14.015  15.845  71.199  1.00  0.00     0.000 HD 
ENDBRANCH  34  45
ENDBRANCH  31  32
ENDBRANCH  25  31
ENDBRANCH  16  17
ENDBRANCH   7  16
ENDBRANCH   2   5
TORSDOF 6
ENDMDL
MODEL       36
REMARK 921   NORMALIZED FREE ENERGY PREDICTED BY IDOCK:   -7.12 KCAL/MOL
REMARK 922        TOTAL FREE ENERGY PREDICTED BY IDOCK:  -10.67 KCAL/MOL
REMARK 923 INTER-LIGAND FREE ENERGY PREDICTED BY IDOCK:   -9.29 KCAL/MOL
REMARK 924 INTRA-LIGAND FREE ENERGY PREDICTED BY IDOCK:   -1.38 KCAL/MOL
REMARK 927      BINDING AFFINITY PREDICTED BY RF-SCORE:    0.00 PKD
ROOT
HETATM    1  N   UNL     1     -10.396  19.952  69.861  1.00  0.00    -0.457 NA 
HETATM    2  C   UNL     1     -10.422  19.807  68.398  1.00  0.00    -0.276 C  
HETATM    3  H2  UNL     1      -9.512  20.352  70.176  1.00  0.00     0.000 HD 
HETATM    4  H1  UNL     1     -11.189  20.489  70.210  1.00  0.00     0.000 HD 
ENDROOT
BRANCH   2   5
HETATM    5  C   UNL     1      -9.217  18.990  67.868  1.00  0.00    -0.301 C  
HETATM    6  O   UNL     1      -9.082  17.723  68.531  1.00  0.00    -0.278 OA 
HETATM    7  C   UNL     1     -10.103  16.781  68.243  1.00  0.00    -0.274 C  
HETATM    8  C   UNL     1     -10.104  16.447  66.716  1.00  0.00    -0.285 C  
HETATM    9  C   UNL     1      -9.248  18.820  66.336  1.00  0.00    -0.307 C  
HETATM   10  N   UNL     1      -8.881  15.734  66.286  1.00  0.00    -0.330 NA 
HETATM   11  C   UNL     1     -10.255  17.747  65.904  1.00  0.00    -0.231 C  
HETATM   12  H   UNL     1      -7.950  18.354  64.956  1.00  0.00     0.000 HD 
HETATM   13  H1  UNL     1      -8.881  15.516  65.289  1.00  0.00     0.000 HD 
HETATM   14  H2  UNL     1      -8.732  14.894  66.844  1.00  0.00     0.000 HD 
HETATM   15  O   UNL     1      -7.931  18.459  65.900  1.00  0.00    -0.497 OA 
BRANCH   7  16
HETATM   16  O   UNL     1      -9.894  15.576  69.000  1.00  0.00    -0.207 OA 
BRANCH  16  17
HETATM   17  C   UNL     1     -11.087  14.882  69.470  1.00  0.00    -0.281 C  
HETATM   18  N   UNL     1     -11.603  16.534  71.254  1.00  0.00    -0.586 NA 
HETATM   19  C   UNL     1     -12.603  14.339  71.419  1.00  0.00    -0.434 C  
HETATM   20  H1  UNL     1     -11.792  16.684  72.244  1.00  0.00     0.000 HD 
HETATM   21  H2  UNL     1     -12.344  16.919  70.667  1.00  0.00     0.000 HD 
HETATM   22  C   UNL     1     -12.449  12.839  71.166  1.00  0.00    -0.239 C  
HETATM   23  C   UNL     1     -11.372  15.109  70.969  1.00  0.00    -0.316 C  
HETATM   24  N   UNL     1     -13.642  12.208  71.755  1.00  0.00    -0.098 NA 
HETATM   25  C   UNL     1     -12.263  12.528  69.647  1.00  0.00    -0.103 C  
HETATM   26  H   UNL     1     -11.243  12.445  67.332  1.00  0.00     0.000 HD 
HETATM   27  H1  UNL     1     -13.539  11.207  71.587  1.00  0.00     0.000 HD 
HETATM   28  C   UNL     1     -11.115  13.389  69.038  1.00  0.00    -0.249 C  
HETATM   29  H2  UNL     1     -14.522  12.592  71.408  1.00  0.00     0.000 HD 
HETATM   30  O   UNL     1     -11.225  13.358  67.596  1.00  0.00    -0.257 OA 
BRANCH  25  31
HETATM   31  O   UNL     1     -11.911  11.132  69.390  1.00  0.00    -0.313 OA 
BRANCH  31  32
HETATM   32  C   UNL     1     -10.845  10.612  70.194  1.00  0.00    -0.157 C  
HETATM   33  O   UNL     1     -11.317   9.954  71.376  1.00  0.00    -0.364 OA 
HETATM   34  C   UNL     1     -12.021   8.734  71.096  1.00  0.00    -0.285 C  
HETATM   35  C   UNL     1     -11.099   7.732  70.383  1.00  0.00    -0.251 C  
HETATM   36  H   UNL     1      -8.914   9.784  67.653  1.00  0.00     0.000 HD 
HETATM   37  C   UNL     1     -10.579   8.340  69.066  1.00  0.00    -0.150 C  
HETATM   38  H1  UNL     1      -9.315   7.797  67.514  1.00  0.00     0.000 HD 
HETATM   39  O   UNL     1     -11.751   6.485  70.126  1.00  0.00    -0.462 OA 
HETATM   40  H   UNL     1     -11.181   5.866  69.685  1.00  0.00     0.000 HD 
HETATM   41  H2  UNL     1     -10.094   6.484  68.238  1.00  0.00     0.000 HD 
HETATM   42  C   UNL     1      -9.911   9.693  69.363  1.00  0.00    -0.193 C  
HETATM   43  N   UNL     1      -9.660   7.395  68.386  1.00  0.00    -0.147 NA 
HETATM   44  O   UNL     1      -9.486  10.347  68.161  1.00  0.00    -0.141 OA 
BRANCH  34  45
HETATM   45  C   UNL     1     -12.514   8.144  72.425  1.00  0.00    -0.262 C  
HETATM   46  O   UNL     1     -11.556   7.231  72.960  1.00  0.00    -0.561 OA 
HETATM   47  H   UNL     1     -11.861   6.867  73.783  1.00  0.00     0.000 HD 
ENDBRANCH  34  45
ENDBRANCH  31  32
ENDBRANCH  25  31
ENDBRANCH  16  17
ENDBRANCH   7  16
ENDBRANCH   2   5
TORSDOF 6
ENDMDL
MODEL       37
REMARK 921   NORMALIZED FREE ENERGY PREDICTED BY IDOCK:   -7.07 KCAL/MOL
REMARK 922        TOTAL FREE ENERGY PREDICTED BY IDOCK:  -10.61 KCAL/MOL
REMARK 923 INTER-LIGAND FREE ENERGY PREDICTED BY IDOCK:   -9.29 KCAL/MOL
REMARK 924 INTRA-LIGAND FREE ENERGY PREDICTED BY IDOCK:   -1.32 KCAL/MOL
REMARK 927      BINDING AFFINITY PREDICTED BY RF-SCORE:    0.00 PKD
ROOT
HETATM    1  N   UNL     1      -9.389   4.171  69.049  1.00  0.00    -0.152 NA 
HETATM    2  C   UNL     1      -9.851   5.566  69.079  1.00  0.00    -0.162 C  
HETATM    3  H2  UNL     1      -9.814   3.626  69.799  1.00  0.00     0.000 HD 
HETATM    4  H1  UNL     1      -9.544   3.732  68.142  1.00  0.00     0.000 HD 
ENDROOT
BRANCH   2   5
HETATM    5  C   UNL     1      -9.615   6.232  70.458  1.00  0.00    -0.165 C  
HETATM    6  O   UNL     1      -9.510   7.662  70.363  1.00  0.00    -0.164 OA 
HETATM    7  C   UNL     1     -10.713   8.332  70.021  1.00  0.00    -0.239 C  
HETATM    8  C   UNL     1     -11.797   8.072  71.117  1.00  0.00    -0.284 C  
HETATM    9  C   UNL     1     -10.670   5.816  71.502  1.00  0.00    -0.258 C  
HETATM   10  N   UNL     1     -11.451   8.680  72.420  1.00  0.00    -0.348 NA 
HETATM   11  C   UNL     1     -11.997   6.555  71.294  1.00  0.00    -0.364 C  
HETATM   12  H   UNL     1     -10.797   5.850  73.449  1.00  0.00     0.000 HD 
HETATM   13  H1  UNL     1     -12.158   8.511  73.136  1.00  0.00     0.000 HD 
HETATM   14  H2  UNL     1     -11.264   9.678  72.320  1.00  0.00     0.000 HD 
HETATM   15  O   UNL     1     -10.147   6.106  72.805  1.00  0.00    -0.175 OA 
BRANCH   7  16
HETATM   16  O   UNL     1     -10.477   9.746  69.903  1.00  0.00    -0.224 OA 
BRANCH  16  17
HETATM   17  C   UNL     1      -9.431  10.161  68.978  1.00  0.00    -0.190 C  
HETATM   18  N   UNL     1      -7.576   9.846  70.602  1.00  0.00    -0.373 NA 
HETATM   19  C   UNL     1      -7.167  11.246  68.674  1.00  0.00    -0.098 C  
HETATM   20  H1  UNL     1      -6.772  10.268  71.067  1.00  0.00     0.000 HD 
HETATM   21  H2  UNL     1      -7.324   8.978  70.129  1.00  0.00     0.000 HD 
HETATM   22  C   UNL     1      -7.743  12.249  67.674  1.00  0.00    -0.144 C  
HETATM   23  C   UNL     1      -8.214  10.800  69.681  1.00  0.00     0.162 C  
HETATM   24  N   UNL     1      -6.607  12.690  66.847  1.00  0.00    -0.461 NA 
HETATM   25  C   UNL     1      -8.915  11.630  66.849  1.00  0.00    -0.191 C  
HETATM   26  H   UNL     1     -11.170  10.631  66.278  1.00  0.00     0.000 HD 
HETATM   27  H1  UNL     1      -6.992  13.359  66.180  1.00  0.00     0.000 HD 
HETATM   28  C   UNL     1      -9.984  10.994  67.789  1.00  0.00    -0.173 C  
HETATM   29  H2  UNL     1      -6.100  11.921  66.407  1.00  0.00     0.000 HD 
HETATM   30  O   UNL     1     -10.832  10.121  67.005  1.00  0.00    -0.230 OA 
BRANCH  25  31
HETATM   31  O   UNL     1      -9.620  12.616  66.031  1.00  0.00    -0.247 OA 
BRANCH  31  32
HETATM   32  C   UNL     1     -10.660  13.337  66.704  1.00  0.00    -0.281 C  
HETATM   33  O   UNL     1     -10.233  14.631  67.151  1.00  0.00    -0.252 OA 
HETATM   34  C   UNL     1      -9.973  15.541  66.069  1.00  0.00    -0.330 C  
HETATM   35  C   UNL     1     -11.247  15.768  65.240  1.00  0.00    -0.190 C  
HETATM   36  H   UNL     1     -13.107  12.191  64.815  1.00  0.00     0.000 HD 
HETATM   37  C   UNL     1     -11.755  14.428  64.674  1.00  0.00    -0.430 C  
HETATM   38  H1  UNL     1     -13.340  13.743  63.526  1.00  0.00     0.000 HD 
HETATM   39  O   UNL     1     -11.042  16.705  64.179  1.00  0.00    -1.338 OA 
HETATM   40  H   UNL     1     -11.829  16.845  63.666  1.00  0.00     0.000 HD 
HETATM   41  H2  UNL     1     -12.888  15.332  63.169  1.00  0.00     0.000 HD 
HETATM   42  C   UNL     1     -11.938  13.429  65.829  1.00  0.00    -0.407 C  
HETATM   43  N   UNL     1     -13.004  14.631  63.901  1.00  0.00    -0.247 NA 
HETATM   44  O   UNL     1     -12.325  12.135  65.351  1.00  0.00    -0.533 OA 
BRANCH  34  45
HETATM   45  C   UNL     1      -9.485  16.869  66.663  1.00  0.00    -0.265 C  
HETATM   46  O   UNL     1      -8.495  17.465  65.825  1.00  0.00    -0.532 OA 
HETATM   47  H   UNL     1      -8.193  18.287  66.192  1.00  0.00     0.000 HD 
ENDBRANCH  34  45
ENDBRANCH  31  32
ENDBRANCH  25  31
ENDBRANCH  16  17
ENDBRANCH   7  16
ENDBRANCH   2   5
TORSDOF 6
ENDMDL
MODEL       38
REMARK 921   NORMALIZED FREE ENERGY PREDICTED BY IDOCK:   -7.07 KCAL/MOL
REMARK 922        TOTAL FREE ENERGY PREDICTED BY IDOCK:  -10.60 KCAL/MOL
REMARK 923 INTER-LIGAND FREE ENERGY PREDICTED BY IDOCK:   -9.17 KCAL/MOL
REMARK 924 INTRA-LIGAND FREE ENERGY PREDICTED BY IDOCK:   -1.44 KCAL/MOL
REMARK 927      BINDING AFFINITY PREDICTED BY RF-SCORE:    0.00 PKD
ROOT
HETATM    1  N   UNL     1      -9.824   3.527  71.396  1.00  0.00    -0.171 NA 
HETATM    2  C   UNL     1     -10.079   4.809  70.724  1.00  0.00    -0.216 C  
HETATM    3  H2  UNL     1     -10.419   3.415  72.216  1.00  0.00     0.000 HD 
HETATM    4  H1  UNL     1      -9.918   2.734  70.762  1.00  0.00     0.000 HD 
ENDROOT
BRANCH   2   5
HETATM    5  C   UNL     1      -9.936   6.015  71.687  1.00  0.00    -0.179 C  
HETATM    6  O   UNL     1      -9.327   7.151  71.054  1.00  0.00    -0.158 OA 
HETATM    7  C   UNL     1     -10.119   7.783  70.061  1.00  0.00    -0.201 C  
HETATM    8  C   UNL     1     -11.438   8.327  70.700  1.00  0.00    -0.225 C  
HETATM    9  C   UNL     1     -11.271   6.396  72.358  1.00  0.00    -0.277 C  
HETATM   10  N   UNL     1     -11.197   9.424  71.663  1.00  0.00    -0.382 NA 
HETATM   11  C   UNL     1     -12.182   7.177  71.404  1.00  0.00    -0.399 C  
HETATM   12  H   UNL     1     -11.801   7.424  73.929  1.00  0.00     0.000 HD 
HETATM   13  H1  UNL     1     -12.058   9.779  72.080  1.00  0.00     0.000 HD 
HETATM   14  H2  UNL     1     -10.661  10.177  71.233  1.00  0.00     0.000 HD 
HETATM   15  O   UNL     1     -10.978   7.189  73.515  1.00  0.00    -0.328 OA 
BRANCH   7  16
HETATM   16  O   UNL     1      -9.391   8.868  69.462  1.00  0.00    -0.151 OA 
BRANCH  16  17
HETATM   17  C   UNL     1      -9.948   9.436  68.241  1.00  0.00    -0.174 C  
HETATM   18  N   UNL     1      -9.318   7.508  66.805  1.00  0.00    -0.157 NA 
HETATM   19  C   UNL     1      -9.814   9.612  65.722  1.00  0.00    -0.373 C  
HETATM   20  H1  UNL     1      -8.837   7.198  65.961  1.00  0.00     0.000 HD 
HETATM   21  H2  UNL     1     -10.288   7.193  66.822  1.00  0.00     0.000 HD 
HETATM   22  C   UNL     1      -9.748  11.138  65.797  1.00  0.00    -0.225 C  
HETATM   23  C   UNL     1      -9.220   8.968  66.964  1.00  0.00    -0.136 C  
HETATM   24  N   UNL     1     -10.234  11.625  64.494  1.00  0.00    -0.274 NA 
HETATM   25  C   UNL     1     -10.558  11.689  67.012  1.00  0.00    -0.237 C  
HETATM   26  H   UNL     1     -11.260  12.170  69.397  1.00  0.00     0.000 HD 
HETATM   27  H1  UNL     1     -10.190  12.643  64.544  1.00  0.00     0.000 HD 
HETATM   28  C   UNL     1     -10.137  10.976  68.333  1.00  0.00    -0.184 C  
HETATM   29  H2  UNL     1     -11.156  11.268  64.243  1.00  0.00     0.000 HD 
HETATM   30  O   UNL     1     -11.145  11.229  69.340  1.00  0.00    -0.243 OA 
BRANCH  25  31
HETATM   31  O   UNL     1     -10.352  13.120  67.233  1.00  0.00    -0.240 OA 
BRANCH  31  32
HETATM   32  C   UNL     1     -11.517  13.938  67.066  1.00  0.00    -0.346 C  
HETATM   33  O   UNL     1     -12.086  14.349  68.316  1.00  0.00    -0.309 OA 
HETATM   34  C   UNL     1     -11.249  15.268  69.038  1.00  0.00    -0.280 C  
HETATM   35  C   UNL     1     -11.031  16.551  68.220  1.00  0.00    -0.346 C  
HETATM   36  H   UNL     1     -10.434  15.474  64.357  1.00  0.00     0.000 HD 
HETATM   37  C   UNL     1     -10.373  16.210  66.869  1.00  0.00    -0.297 C  
HETATM   38  H1  UNL     1      -9.754  17.211  65.162  1.00  0.00     0.000 HD 
HETATM   39  O   UNL     1     -10.239  17.513  68.924  1.00  0.00    -0.344 OA 
HETATM   40  H   UNL     1     -10.104  18.305  68.418  1.00  0.00     0.000 HD 
HETATM   41  H2  UNL     1      -9.667  18.152  66.562  1.00  0.00     0.000 HD 
HETATM   42  C   UNL     1     -11.225  15.152  66.146  1.00  0.00    -0.271 C  
HETATM   43  N   UNL     1     -10.189  17.437  66.056  1.00  0.00    -0.494 NA 
HETATM   44  O   UNL     1     -10.613  14.730  64.920  1.00  0.00    -0.414 OA 
BRANCH  34  45
HETATM   45  C   UNL     1     -11.936  15.601  70.370  1.00  0.00    -0.376 C  
HETATM   46  O   UNL     1     -13.352  15.663  70.208  1.00  0.00    -0.761 OA 
HETATM   47  H   UNL     1     -13.777  15.869  71.033  1.00  0.00     0.000 HD 
ENDBRANCH  34  45
ENDBRANCH  31  32
ENDBRANCH  25  31
ENDBRANCH  16  17
ENDBRANCH   7  16
ENDBRANCH   2   5
TORSDOF 6
ENDMDL
MODEL       39
REMARK 921   NORMALIZED FREE ENERGY PREDICTED BY IDOCK:   -7.00 KCAL/MOL
REMARK 922        TOTAL FREE ENERGY PREDICTED BY IDOCK:  -10.51 KCAL/MOL
REMARK 923 INTER-LIGAND FREE ENERGY PREDICTED BY IDOCK:   -9.64 KCAL/MOL
REMARK 924 INTRA-LIGAND FREE ENERGY PREDICTED BY IDOCK:   -0.87 KCAL/MOL
REMARK 927      BINDING AFFINITY PREDICTED BY RF-SCORE:    0.00 PKD
ROOT
HETATM    1  N   UNL     1      -5.551  17.633  66.933  1.00  0.00    -0.138 NA 
HETATM    2  C   UNL     1      -6.807  16.980  66.536  1.00  0.00    -0.246 C  
HETATM    3  H2  UNL     1      -5.714  18.339  67.651  1.00  0.00     0.000 HD 
HETATM    4  H1  UNL     1      -4.844  16.962  67.231  1.00  0.00     0.000 HD 
ENDROOT
BRANCH   2   5
HETATM    5  C   UNL     1      -7.882  18.000  66.085  1.00  0.00    -0.210 C  
HETATM    6  O   UNL     1      -9.173  17.393  65.915  1.00  0.00    -0.513 OA 
HETATM    7  C   UNL     1      -9.798  16.963  67.113  1.00  0.00    -0.270 C  
HETATM    8  C   UNL     1     -10.040  18.187  68.056  1.00  0.00    -0.367 C  
HETATM    9  C   UNL     1      -7.958  19.227  67.014  1.00  0.00    -0.257 C  
HETATM   10  N   UNL     1     -11.024  19.145  67.508  1.00  0.00    -0.411 NA 
HETATM   11  C   UNL     1      -8.705  18.910  68.314  1.00  0.00    -0.367 C  
HETATM   12  H   UNL     1      -8.674  21.037  66.881  1.00  0.00     0.000 HD 
HETATM   13  H1  UNL     1     -11.182  19.944  68.123  1.00  0.00     0.000 HD 
HETATM   14  H2  UNL     1     -11.902  18.679  67.282  1.00  0.00     0.000 HD 
HETATM   15  O   UNL     1      -8.627  20.280  66.308  1.00  0.00    -0.238 OA 
BRANCH   7  16
HETATM   16  O   UNL     1     -11.054  16.328  66.818  1.00  0.00    -0.114 OA 
BRANCH  16  17
HETATM   17  C   UNL     1     -11.002  15.123  65.998  1.00  0.00    -0.332 C  
HETATM   18  N   UNL     1     -11.612  16.281  63.885  1.00  0.00    -1.573 NA 
HETATM   19  C   UNL     1     -11.893  13.881  63.984  1.00  0.00    -0.372 C  
HETATM   20  H1  UNL     1     -12.243  16.312  63.084  1.00  0.00     0.000 HD 
HETATM   21  H2  UNL     1     -10.636  16.238  63.593  1.00  0.00     0.000 HD 
HETATM   22  C   UNL     1     -12.244  12.667  64.844  1.00  0.00    -0.471 C  
HETATM   23  C   UNL     1     -11.957  15.170  64.787  1.00  0.00    -0.250 C  
HETATM   24  N   UNL     1     -12.267  11.516  63.925  1.00  0.00    -0.325 NA 
HETATM   25  C   UNL     1     -11.248  12.497  66.034  1.00  0.00    -0.315 C  
HETATM   26  H   UNL     1     -10.000  12.950  68.190  1.00  0.00     0.000 HD 
HETATM   27  H1  UNL     1     -12.502  10.707  64.499  1.00  0.00     0.000 HD 
HETATM   28  C   UNL     1     -11.114  13.824  66.843  1.00  0.00    -0.302 C  
HETATM   29  H2  UNL     1     -11.404  11.403  63.391  1.00  0.00     0.000 HD 
HETATM   30  O   UNL     1      -9.932  13.744  67.674  1.00  0.00    -0.230 OA 
BRANCH  25  31
HETATM   31  O   UNL     1     -11.669  11.474  66.989  1.00  0.00    -0.556 OA 
BRANCH  31  32
HETATM   32  C   UNL     1     -11.031  10.199  66.840  1.00  0.00    -0.036 C  
HETATM   33  O   UNL     1     -10.219  10.124  65.661  1.00  0.00    -0.275 OA 
HETATM   34  C   UNL     1      -9.057  10.967  65.726  1.00  0.00    -0.196 C  
HETATM   35  C   UNL     1      -8.156  10.550  66.898  1.00  0.00    -0.120 C  
HETATM   36  H   UNL     1     -10.546   9.713  70.064  1.00  0.00     0.000 HD 
HETATM   37  C   UNL     1      -8.935  10.647  68.224  1.00  0.00    -0.143 C  
HETATM   38  H1  UNL     1      -8.602  10.278  70.237  1.00  0.00     0.000 HD 
HETATM   39  O   UNL     1      -6.963  11.336  66.970  1.00  0.00    -0.108 OA 
HETATM   40  H   UNL     1      -6.406  11.079  67.695  1.00  0.00     0.000 HD 
HETATM   41  H2  UNL     1      -7.209  10.732  69.396  1.00  0.00     0.000 HD 
HETATM   42  C   UNL     1     -10.227   9.819  68.111  1.00  0.00    -0.186 C  
HETATM   43  N   UNL     1      -8.086  10.213  69.359  1.00  0.00    -0.147 NA 
HETATM   44  O   UNL     1     -11.038   9.945  69.286  1.00  0.00    -0.229 OA 
BRANCH  34  45
HETATM   45  C   UNL     1      -8.293  10.838  64.400  1.00  0.00     0.052 C  
HETATM   46  O   UNL     1      -9.106  11.258  63.304  1.00  0.00    -0.393 OA 
HETATM   47  H   UNL     1      -8.633  11.178  62.484  1.00  0.00     0.000 HD 
ENDBRANCH  34  45
ENDBRANCH  31  32
ENDBRANCH  25  31
ENDBRANCH  16  17
ENDBRANCH   7  16
ENDBRANCH   2   5
TORSDOF 6
ENDMDL
MODEL       40
REMARK 921   NORMALIZED FREE ENERGY PREDICTED BY IDOCK:   -6.95 KCAL/MOL
REMARK 922        TOTAL FREE ENERGY PREDICTED BY IDOCK:  -10.44 KCAL/MOL
REMARK 923 INTER-LIGAND FREE ENERGY PREDICTED BY IDOCK:   -9.21 KCAL/MOL
REMARK 924 INTRA-LIGAND FREE ENERGY PREDICTED BY IDOCK:   -1.23 KCAL/MOL
REMARK 927      BINDING AFFINITY PREDICTED BY RF-SCORE:    0.00 PKD
ROOT
HETATM    1  N   UNL     1      -6.314  10.522  68.779  1.00  0.00    -0.047 NA 
HETATM    2  C   UNL     1      -6.528   9.281  69.537  1.00  0.00    -0.043 C  
HETATM    3  H2  UNL     1      -6.117  11.305  69.401  1.00  0.00     0.000 HD 
HETATM    4  H1  UNL     1      -5.588  10.422  68.071  1.00  0.00     0.000 HD 
ENDROOT
BRANCH   2   5
HETATM    5  C   UNL     1      -7.632   9.433  70.613  1.00  0.00    -0.144 C  
HETATM    6  O   UNL     1      -8.947   9.508  70.040  1.00  0.00    -0.188 OA 
HETATM    7  C   UNL     1      -9.413   8.307  69.446  1.00  0.00    -0.159 C  
HETATM    8  C   UNL     1      -9.498   7.177  70.524  1.00  0.00    -0.162 C  
HETATM    9  C   UNL     1      -7.554   8.340  71.697  1.00  0.00    -0.096 C  
HETATM   10  N   UNL     1     -10.527   7.445  71.553  1.00  0.00    -0.202 NA 
HETATM   11  C   UNL     1      -8.125   7.006  71.200  1.00  0.00    -0.105 C  
HETATM   12  H   UNL     1      -8.243   8.118  73.509  1.00  0.00     0.000 HD 
HETATM   13  H1  UNL     1     -10.582   6.708  72.256  1.00  0.00     0.000 HD 
HETATM   14  H2  UNL     1     -11.437   7.612  71.124  1.00  0.00     0.000 HD 
HETATM   15  O   UNL     1      -8.290   8.792  72.841  1.00  0.00    -0.414 OA 
BRANCH   7  16
HETATM   16  O   UNL     1     -10.710   8.513  68.861  1.00  0.00    -0.182 OA 
BRANCH  16  17
HETATM   17  C   UNL     1     -10.758   9.287  67.627  1.00  0.00    -0.209 C  
HETATM   18  N   UNL     1      -9.848   7.466  66.201  1.00  0.00    -0.435 NA 
HETATM   19  C   UNL     1      -9.747   9.728  65.351  1.00  0.00    -0.383 C  
HETATM   20  H1  UNL     1      -9.135   7.191  65.526  1.00  0.00     0.000 HD 
HETATM   21  H2  UNL     1     -10.788   7.287  65.849  1.00  0.00     0.000 HD 
HETATM   22  C   UNL     1      -9.574  11.211  65.677  1.00  0.00    -0.224 C  
HETATM   23  C   UNL     1      -9.679   8.871  66.605  1.00  0.00    -0.237 C  
HETATM   24  N   UNL     1      -9.534  11.906  64.378  1.00  0.00    -0.445 NA 
HETATM   25  C   UNL     1     -10.701  11.727  66.627  1.00  0.00    -0.263 C  
HETATM   26  H   UNL     1     -12.137  12.026  68.691  1.00  0.00     0.000 HD 
HETATM   27  H1  UNL     1      -9.419  12.896  64.596  1.00  0.00     0.000 HD 
HETATM   28  C   UNL     1     -10.827  10.818  67.887  1.00  0.00    -0.264 C  
HETATM   29  H2  UNL     1     -10.341  11.709  63.785  1.00  0.00     0.000 HD 
HETATM   30  O   UNL     1     -12.094  11.090  68.532  1.00  0.00    -0.573 OA 
BRANCH  25  31
HETATM   31  O   UNL     1     -10.456  13.082  67.120  1.00  0.00    -0.241 OA 
BRANCH  31  32
HETATM   32  C   UNL     1     -11.537  14.004  66.935  1.00  0.00    -0.386 C  
HETATM   33  O   UNL     1     -12.086  14.466  68.177  1.00  0.00    -0.310 OA 
HETATM   34  C   UNL     1     -11.179  15.304  68.913  1.00  0.00    -0.285 C  
HETATM   35  C   UNL     1     -10.829  16.561  68.101  1.00  0.00    -0.345 C  
HETATM   36  H   UNL     1     -10.272  15.433  64.247  1.00  0.00     0.000 HD 
HETATM   37  C   UNL     1     -10.185  16.160  66.760  1.00  0.00    -0.281 C  
HETATM   38  H1  UNL     1      -9.447  17.100  65.065  1.00  0.00     0.000 HD 
HETATM   39  O   UNL     1      -9.964  17.445  68.819  1.00  0.00    -0.300 OA 
HETATM   40  H   UNL     1      -9.747  18.222  68.317  1.00  0.00     0.000 HD 
HETATM   41  H2  UNL     1      -9.296  18.028  66.468  1.00  0.00     0.000 HD 
HETATM   42  C   UNL     1     -11.119  15.186  66.021  1.00  0.00    -0.312 C  
HETATM   43  N   UNL     1      -9.874  17.365  65.953  1.00  0.00    -0.537 NA 
HETATM   44  O   UNL     1     -10.529  14.709  64.806  1.00  0.00    -0.418 OA 
BRANCH  34  45
HETATM   45  C   UNL     1     -11.853  15.699  70.234  1.00  0.00    -0.365 C  
HETATM   46  O   UNL     1     -13.258  15.452  70.180  1.00  0.00    -0.659 OA 
HETATM   47  H   UNL     1     -13.675  15.696  70.998  1.00  0.00     0.000 HD 
ENDBRANCH  34  45
ENDBRANCH  31  32
ENDBRANCH  25  31
ENDBRANCH  16  17
ENDBRANCH   7  16
ENDBRANCH   2   5
TORSDOF 6
ENDMDL
MODEL       41
REMARK 921   NORMALIZED FREE ENERGY PREDICTED BY IDOCK:   -6.95 KCAL/MOL
REMARK 922        TOTAL FREE ENERGY PREDICTED BY IDOCK:  -10.43 KCAL/MOL
REMARK 923 INTER-LIGAND FREE ENERGY PREDICTED BY IDOCK:   -8.94 KCAL/MOL
REMARK 924 INTRA-LIGAND FREE ENERGY PREDICTED BY IDOCK:   -1.49 KCAL/MOL
REMARK 927      BINDING AFFINITY PREDICTED BY RF-SCORE:    0.00 PKD
ROOT
HETATM    1  N   UNL     1      -9.862   2.205  73.359  1.00  0.00    -0.090 NA 
HETATM    2  C   UNL     1     -10.001   3.545  72.771  1.00  0.00    -0.154 C  
HETATM    3  H2  UNL     1      -8.908   1.856  73.261  1.00  0.00     0.000 HD 
HETATM    4  H1  UNL     1     -10.165   2.177  74.332  1.00  0.00     0.000 HD 
ENDROOT
BRANCH   2   5
HETATM    5  C   UNL     1      -9.540   3.587  71.292  1.00  0.00    -0.172 C  
HETATM    6  O   UNL     1     -10.331   4.487  70.500  1.00  0.00    -0.152 OA 
HETATM    7  C   UNL     1     -10.159   5.863  70.801  1.00  0.00    -0.199 C  
HETATM    8  C   UNL     1      -8.675   6.283  70.543  1.00  0.00    -0.143 C  
HETATM    9  C   UNL     1      -8.036   3.890  71.152  1.00  0.00    -0.063 C  
HETATM   10  N   UNL     1      -8.303   6.220  69.113  1.00  0.00    -0.119 NA 
HETATM   11  C   UNL     1      -7.734   5.379  71.361  1.00  0.00    -0.108 C  
HETATM   12  H   UNL     1      -6.691   3.673  69.755  1.00  0.00     0.000 HD 
HETATM   13  H1  UNL     1      -7.334   6.495  68.945  1.00  0.00     0.000 HD 
HETATM   14  H2  UNL     1      -8.943   6.773  68.544  1.00  0.00     0.000 HD 
HETATM   15  O   UNL     1      -7.619   3.486  69.842  1.00  0.00    -0.045 OA 
BRANCH   7  16
HETATM   16  O   UNL     1     -11.034   6.662  69.986  1.00  0.00    -0.260 OA 
BRANCH  16  17
HETATM   17  C   UNL     1     -10.956   8.107  70.163  1.00  0.00    -0.223 C  
HETATM   18  N   UNL     1     -11.666   8.067  72.544  1.00  0.00    -0.439 NA 
HETATM   19  C   UNL     1     -11.849  10.157  71.344  1.00  0.00    -0.414 C  
HETATM   20  H1  UNL     1     -12.319   8.423  73.243  1.00  0.00     0.000 HD 
HETATM   21  H2  UNL     1     -10.697   8.216  72.824  1.00  0.00     0.000 HD 
HETATM   22  C   UNL     1     -12.129  10.847  70.008  1.00  0.00    -0.355 C  
HETATM   23  C   UNL     1     -11.943   8.645  71.220  1.00  0.00    -0.293 C  
HETATM   24  N   UNL     1     -12.130  12.292  70.294  1.00  0.00    -0.380 NA 
HETATM   25  C   UNL     1     -11.096  10.427  68.915  1.00  0.00    -0.247 C  
HETATM   26  H   UNL     1      -9.811   9.005  67.262  1.00  0.00     0.000 HD 
HETATM   27  H1  UNL     1     -12.318  12.752  69.403  1.00  0.00     0.000 HD 
HETATM   28  C   UNL     1     -10.994   8.874  68.812  1.00  0.00     0.100 C  
HETATM   29  H2  UNL     1     -11.278  12.618  70.751  1.00  0.00     0.000 HD 
HETATM   30  O   UNL     1      -9.788   8.535  68.087  1.00  0.00    -0.155 OA 
BRANCH  25  31
HETATM   31  O   UNL     1     -11.451  10.906  67.580  1.00  0.00    -0.468 OA 
BRANCH  31  32
HETATM   32  C   UNL     1     -10.607  11.939  67.057  1.00  0.00    -0.227 C  
HETATM   33  O   UNL     1      -9.788  11.484  65.972  1.00  0.00    -0.210 OA 
HETATM   34  C   UNL     1     -10.545  11.172  64.790  1.00  0.00    -0.303 C  
HETATM   35  C   UNL     1     -11.284  12.419  64.281  1.00  0.00    -0.353 C  
HETATM   36  H   UNL     1     -12.783  14.376  67.500  1.00  0.00     0.000 HD 
HETATM   37  C   UNL     1     -12.232  12.954  65.372  1.00  0.00    -0.478 C  
HETATM   38  H1  UNL     1     -13.552  14.533  65.626  1.00  0.00     0.000 HD 
HETATM   39  O   UNL     1     -12.015  12.162  63.078  1.00  0.00    -0.699 OA 
HETATM   40  H   UNL     1     -12.472  12.933  62.763  1.00  0.00     0.000 HD 
HETATM   41  H2  UNL     1     -13.412  14.025  64.021  1.00  0.00     0.000 HD 
HETATM   42  C   UNL     1     -11.430  13.194  66.663  1.00  0.00    -0.348 C  
HETATM   43  N   UNL     1     -12.925  14.179  64.904  1.00  0.00    -0.683 NA 
HETATM   44  O   UNL     1     -12.279  13.607  67.741  1.00  0.00    -0.321 OA 
BRANCH  34  45
HETATM   45  C   UNL     1      -9.575  10.658  63.717  1.00  0.00    -0.306 C  
HETATM   46  O   UNL     1      -8.929  11.745  63.056  1.00  0.00    -0.637 OA 
HETATM   47  H   UNL     1      -8.329  11.427  62.392  1.00  0.00     0.000 HD 
ENDBRANCH  34  45
ENDBRANCH  31  32
ENDBRANCH  25  31
ENDBRANCH  16  17
ENDBRANCH   7  16
ENDBRANCH   2   5
TORSDOF 6
ENDMDL
MODEL       42
REMARK 921   NORMALIZED FREE ENERGY PREDICTED BY IDOCK:   -6.93 KCAL/MOL
REMARK 922        TOTAL FREE ENERGY PREDICTED BY IDOCK:  -10.41 KCAL/MOL
REMARK 923 INTER-LIGAND FREE ENERGY PREDICTED BY IDOCK:   -9.61 KCAL/MOL
REMARK 924 INTRA-LIGAND FREE ENERGY PREDICTED BY IDOCK:   -0.80 KCAL/MOL
REMARK 927      BINDING AFFINITY PREDICTED BY RF-SCORE:    0.00 PKD
ROOT
HETATM    1  N   UNL     1     -11.163  11.377  70.000  1.00  0.00    -0.482 NA 
HETATM    2  C   UNL     1     -10.419  10.161  69.642  1.00  0.00    -0.252 C  
HETATM    3  H2  UNL     1     -12.169  11.226  69.936  1.00  0.00     0.000 HD 
HETATM    4  H1  UNL     1     -10.902  11.733  70.918  1.00  0.00     0.000 HD 
ENDROOT
BRANCH   2   5
HETATM    5  C   UNL     1     -10.816   9.620  68.245  1.00  0.00    -0.182 C  
HETATM    6  O   UNL     1     -10.501  10.544  67.192  1.00  0.00    -0.222 OA 
HETATM    7  C   UNL     1      -9.116  10.728  66.947  1.00  0.00    -0.149 C  
HETATM    8  C   UNL     1      -8.467   9.373  66.512  1.00  0.00    -0.133 C  
HETATM    9  C   UNL     1     -10.224   8.225  67.963  1.00  0.00    -0.214 C  
HETATM   10  N   UNL     1      -8.963   8.896  65.203  1.00  0.00    -0.356 NA 
HETATM   11  C   UNL     1      -8.739   8.304  67.587  1.00  0.00    -0.133 C  
HETATM   12  H   UNL     1     -10.604   6.772  66.717  1.00  0.00     0.000 HD 
HETATM   13  H1  UNL     1      -8.540   8.011  64.919  1.00  0.00     0.000 HD 
HETATM   14  H2  UNL     1      -8.839   9.608  64.484  1.00  0.00     0.000 HD 
HETATM   15  O   UNL     1     -10.969   7.632  66.892  1.00  0.00    -0.253 OA 
BRANCH   7  16
HETATM   16  O   UNL     1      -8.920  11.708  65.913  1.00  0.00    -0.192 OA 
BRANCH  16  17
HETATM   17  C   UNL     1     -10.026  12.622  65.659  1.00  0.00    -0.242 C  
HETATM   18  N   UNL     1     -11.161  11.129  64.028  1.00  0.00    -0.390 NA 
HETATM   19  C   UNL     1     -11.745  13.476  64.012  1.00  0.00    -0.440 C  
HETATM   20  H1  UNL     1     -11.553  11.036  63.091  1.00  0.00     0.000 HD 
HETATM   21  H2  UNL     1     -11.841  10.880  64.746  1.00  0.00     0.000 HD 
HETATM   22  C   UNL     1     -11.268  14.915  64.207  1.00  0.00    -0.010 C  
HETATM   23  C   UNL     1     -10.619  12.481  64.241  1.00  0.00    -0.369 C  
HETATM   24  N   UNL     1     -12.409  15.770  63.836  1.00  0.00    -0.999 NA 
HETATM   25  C   UNL     1     -10.752  15.158  65.660  1.00  0.00    -0.363 C  
HETATM   26  H   UNL     1      -9.328  15.006  67.748  1.00  0.00     0.000 HD 
HETATM   27  H1  UNL     1     -12.091  16.730  63.966  1.00  0.00     0.000 HD 
HETATM   28  C   UNL     1      -9.694  14.086  66.063  1.00  0.00    -0.258 C  
HETATM   29  H2  UNL     1     -13.266  15.551  64.345  1.00  0.00     0.000 HD 
HETATM   30  O   UNL     1      -9.530  14.111  67.501  1.00  0.00    -0.201 OA 
BRANCH  25  31
HETATM   31  O   UNL     1     -10.103  16.458  65.826  1.00  0.00    -0.373 OA 
BRANCH  31  32
HETATM   32  C   UNL     1      -9.169  16.542  66.910  1.00  0.00    -0.226 C  
HETATM   33  O   UNL     1      -7.870  16.974  66.484  1.00  0.00    -0.236 OA 
HETATM   34  C   UNL     1      -7.850  18.342  66.046  1.00  0.00    -0.140 C  
HETATM   35  C   UNL     1      -8.265  19.280  67.190  1.00  0.00    -0.268 C  
HETATM   36  H   UNL     1     -11.371  17.556  69.143  1.00  0.00     0.000 HD 
HETATM   37  C   UNL     1      -9.679  18.919  67.682  1.00  0.00    -0.314 C  
HETATM   38  H1  UNL     1     -11.013  19.556  69.136  1.00  0.00     0.000 HD 
HETATM   39  O   UNL     1      -8.214  20.657  66.807  1.00  0.00    -0.529 OA 
HETATM   40  H   UNL     1      -8.470  21.237  67.514  1.00  0.00     0.000 HD 
HETATM   41  H2  UNL     1     -10.000  20.783  68.569  1.00  0.00     0.000 HD 
HETATM   42  C   UNL     1      -9.717  17.428  68.059  1.00  0.00    -0.281 C  
HETATM   43  N   UNL     1     -10.077  19.795  68.811  1.00  0.00    -0.457 NA 
HETATM   44  O   UNL     1     -11.035  17.014  68.440  1.00  0.00    -0.352 OA 
BRANCH  34  45
HETATM   45  C   UNL     1      -6.427  18.678  65.577  1.00  0.00    -0.286 C  
HETATM   46  O   UNL     1      -6.441  19.773  64.660  1.00  0.00    -0.311 OA 
HETATM   47  H   UNL     1      -5.561  19.981  64.370  1.00  0.00     0.000 HD 
ENDBRANCH  34  45
ENDBRANCH  31  32
ENDBRANCH  25  31
ENDBRANCH  16  17
ENDBRANCH   7  16
ENDBRANCH   2   5
TORSDOF 6
ENDMDL
MODEL       43
REMARK 921   NORMALIZED FREE ENERGY PREDICTED BY IDOCK:   -6.92 KCAL/MOL
REMARK 922        TOTAL FREE ENERGY PREDICTED BY IDOCK:  -10.40 KCAL/MOL
REMARK 923 INTER-LIGAND FREE ENERGY PREDICTED BY IDOCK:   -9.20 KCAL/MOL
REMARK 924 INTRA-LIGAND FREE ENERGY PREDICTED BY IDOCK:   -1.20 KCAL/MOL
REMARK 927      BINDING AFFINITY PREDICTED BY RF-SCORE:    0.00 PKD
ROOT
HETATM    1  N   UNL     1      -8.954   4.366  70.137  1.00  0.00    -0.083 NA 
HETATM    2  C   UNL     1     -10.212   5.092  70.361  1.00  0.00    -0.264 C  
HETATM    3  H2  UNL     1      -8.554   4.041  71.017  1.00  0.00     0.000 HD 
HETATM    4  H1  UNL     1      -9.064   3.597  69.477  1.00  0.00     0.000 HD 
ENDROOT
BRANCH   2   5
HETATM    5  C   UNL     1     -10.043   6.261  71.365  1.00  0.00    -0.191 C  
HETATM    6  O   UNL     1      -9.410   7.405  70.770  1.00  0.00    -0.159 OA 
HETATM    7  C   UNL     1     -10.189   8.087  69.800  1.00  0.00    -0.206 C  
HETATM    8  C   UNL     1     -11.497   8.637  70.458  1.00  0.00    -0.188 C  
HETATM    9  C   UNL     1     -11.370   6.647  72.049  1.00  0.00    -0.280 C  
HETATM   10  N   UNL     1     -11.233   9.694  71.457  1.00  0.00    -0.362 NA 
HETATM   11  C   UNL     1     -12.265   7.479  71.123  1.00  0.00    -0.330 C  
HETATM   12  H   UNL     1     -11.879   7.632  73.654  1.00  0.00     0.000 HD 
HETATM   13  H1  UNL     1     -12.086  10.053  71.887  1.00  0.00     0.000 HD 
HETATM   14  H2  UNL     1     -10.681  10.450  71.053  1.00  0.00     0.000 HD 
HETATM   15  O   UNL     1     -11.061   7.394  73.232  1.00  0.00    -0.365 OA 
BRANCH   7  16
HETATM   16  O   UNL     1      -9.438   9.176  69.238  1.00  0.00    -0.153 OA 
BRANCH  16  17
HETATM   17  C   UNL     1      -9.914   9.714  67.969  1.00  0.00    -0.160 C  
HETATM   18  N   UNL     1      -9.385   7.668  66.661  1.00  0.00    -0.181 NA 
HETATM   19  C   UNL     1      -9.689   9.739  65.450  1.00  0.00    -0.383 C  
HETATM   20  H1  UNL     1      -8.902   7.277  65.852  1.00  0.00     0.000 HD 
HETATM   21  H2  UNL     1     -10.376   7.426  66.661  1.00  0.00     0.000 HD 
HETATM   22  C   UNL     1      -9.513  11.258  65.446  1.00  0.00    -0.225 C  
HETATM   23  C   UNL     1      -9.183   9.123  66.745  1.00  0.00    -0.155 C  
HETATM   24  N   UNL     1      -9.920  11.706  64.103  1.00  0.00    -0.268 NA 
HETATM   25  C   UNL     1     -10.316  11.933  66.601  1.00  0.00    -0.211 C  
HETATM   26  H   UNL     1     -11.054  12.597  68.930  1.00  0.00     0.000 HD 
HETATM   27  H1  UNL     1      -9.802  12.719  64.100  1.00  0.00     0.000 HD 
HETATM   28  C   UNL     1      -9.990  11.267  67.972  1.00  0.00    -0.179 C  
HETATM   29  H2  UNL     1     -10.858  11.403  63.839  1.00  0.00     0.000 HD 
HETATM   30  O   UNL     1     -11.007  11.648  68.929  1.00  0.00    -0.211 OA 
BRANCH  25  31
HETATM   31  O   UNL     1     -10.012  13.356  66.752  1.00  0.00    -0.251 OA 
BRANCH  31  32
HETATM   32  C   UNL     1     -11.140  14.198  67.020  1.00  0.00    -0.307 C  
HETATM   33  O   UNL     1     -10.846  15.225  67.975  1.00  0.00    -0.270 OA 
HETATM   34  C   UNL     1      -9.927  16.210  67.473  1.00  0.00    -0.243 C  
HETATM   35  C   UNL     1     -10.516  16.918  66.243  1.00  0.00    -0.262 C  
HETATM   36  H   UNL     1     -12.330  14.113  63.947  1.00  0.00     0.000 HD 
HETATM   37  C   UNL     1     -10.821  15.889  65.138  1.00  0.00    -0.421 C  
HETATM   38  H1  UNL     1     -11.624  15.876  63.226  1.00  0.00     0.000 HD 
HETATM   39  O   UNL     1      -9.650  17.939  65.740  1.00  0.00    -0.514 OA 
HETATM   40  H   UNL     1     -10.014  18.377  64.980  1.00  0.00     0.000 HD 
HETATM   41  H2  UNL     1     -10.839  17.320  63.616  1.00  0.00     0.000 HD 
HETATM   42  C   UNL     1     -11.728  14.786  65.710  1.00  0.00    -0.252 C  
HETATM   43  N   UNL     1     -11.422  16.557  63.958  1.00  0.00    -1.122 NA 
HETATM   44  O   UNL     1     -11.971  13.752  64.749  1.00  0.00    -0.368 OA 
BRANCH  34  45
HETATM   45  C   UNL     1      -9.655  17.229  68.589  1.00  0.00    -0.284 C  
HETATM   46  O   UNL     1     -10.426  18.414  68.392  1.00  0.00    -0.347 OA 
HETATM   47  H   UNL     1     -10.257  19.044  69.083  1.00  0.00     0.000 HD 
ENDBRANCH  34  45
ENDBRANCH  31  32
ENDBRANCH  25  31
ENDBRANCH  16  17
ENDBRANCH   7  16
ENDBRANCH   2   5
TORSDOF 6
ENDMDL
MODEL       44
REMARK 921   NORMALIZED FREE ENERGY PREDICTED BY IDOCK:   -6.90 KCAL/MOL
REMARK 922        TOTAL FREE ENERGY PREDICTED BY IDOCK:  -10.38 KCAL/MOL
REMARK 923 INTER-LIGAND FREE ENERGY PREDICTED BY IDOCK:   -8.84 KCAL/MOL
REMARK 924 INTRA-LIGAND FREE ENERGY PREDICTED BY IDOCK:   -1.54 KCAL/MOL
REMARK 927      BINDING AFFINITY PREDICTED BY RF-SCORE:    0.00 PKD
ROOT
HETATM    1  N   UNL     1     -10.934  14.782  68.541  1.00  0.00    -0.249 NA 
HETATM    2  C   UNL     1     -11.932  14.308  67.572  1.00  0.00    -0.376 C  
HETATM    3  H2  UNL     1     -10.749  15.778  68.423  1.00  0.00     0.000 HD 
HETATM    4  H1  UNL     1     -11.197  14.567  69.502  1.00  0.00     0.000 HD 
ENDROOT
BRANCH   2   5
HETATM    5  C   UNL     1     -11.532  14.634  66.111  1.00  0.00    -0.339 C  
HETATM    6  O   UNL     1     -10.266  14.060  65.750  1.00  0.00    -0.304 OA 
HETATM    7  C   UNL     1     -10.254  12.645  65.648  1.00  0.00    -0.273 C  
HETATM    8  C   UNL     1     -11.247  12.183  64.533  1.00  0.00    -0.331 C  
HETATM    9  C   UNL     1     -12.630  14.250  65.099  1.00  0.00    -0.372 C  
HETATM   10  N   UNL     1     -10.823  12.605  63.180  1.00  0.00    -0.601 NA 
HETATM   11  C   UNL     1     -12.652  12.741  64.830  1.00  0.00    -0.518 C  
HETATM   12  H   UNL     1     -13.059  14.725  63.256  1.00  0.00     0.000 HD 
HETATM   13  H1  UNL     1     -11.472  12.303  62.451  1.00  0.00     0.000 HD 
HETATM   14  H2  UNL     1      -9.875  12.289  62.979  1.00  0.00     0.000 HD 
HETATM   15  O   UNL     1     -12.382  14.961  63.880  1.00  0.00    -0.711 OA 
BRANCH   7  16
HETATM   16  O   UNL     1      -8.929  12.181  65.336  1.00  0.00     0.166 OA 
BRANCH  16  17
HETATM   17  C   UNL     1      -8.335  11.223  66.259  1.00  0.00    -0.142 C  
HETATM   18  N   UNL     1      -7.273   9.849  64.481  1.00  0.00    -0.133 NA 
HETATM   19  C   UNL     1      -7.576   8.844  66.660  1.00  0.00    -0.089 C  
HETATM   20  H1  UNL     1      -7.161   8.918  64.079  1.00  0.00     0.000 HD 
HETATM   21  H2  UNL     1      -6.372  10.270  64.709  1.00  0.00     0.000 HD 
HETATM   22  C   UNL     1      -8.447   8.741  67.912  1.00  0.00    -0.126 C  
HETATM   23  C   UNL     1      -8.167   9.815  65.650  1.00  0.00    -0.130 C  
HETATM   24  N   UNL     1      -7.835   7.687  68.741  1.00  0.00    -0.118 NA 
HETATM   25  C   UNL     1      -8.572  10.115  68.641  1.00  0.00    -0.123 C  
HETATM   26  H   UNL     1      -9.187  12.527  69.107  1.00  0.00     0.000 HD 
HETATM   27  H1  UNL     1      -8.416   7.618  69.576  1.00  0.00     0.000 HD 
HETATM   28  C   UNL     1      -9.025  11.232  67.652  1.00  0.00    -0.142 C  
HETATM   29  H2  UNL     1      -6.847   7.848  68.943  1.00  0.00     0.000 HD 
HETATM   30  O   UNL     1      -8.765  12.521  68.255  1.00  0.00    -0.183 OA 
BRANCH  25  31
HETATM   31  O   UNL     1      -9.556  10.100  69.723  1.00  0.00    -0.222 OA 
BRANCH  31  32
HETATM   32  C   UNL     1     -10.833   9.545  69.380  1.00  0.00    -0.206 C  
HETATM   33  O   UNL     1     -10.946   8.162  69.737  1.00  0.00    -0.225 OA 
HETATM   34  C   UNL     1     -10.967   7.949  71.158  1.00  0.00    -0.239 C  
HETATM   35  C   UNL     1     -12.174   8.658  71.790  1.00  0.00    -0.343 C  
HETATM   36  H   UNL     1     -12.547  12.287  70.022  1.00  0.00     0.000 HD 
HETATM   37  C   UNL     1     -12.111  10.170  71.498  1.00  0.00    -0.351 C  
HETATM   38  H1  UNL     1     -13.248  11.861  71.880  1.00  0.00     0.000 HD 
HETATM   39  O   UNL     1     -12.257   8.433  73.200  1.00  0.00    -0.526 OA 
HETATM   40  H   UNL     1     -13.003   8.872  73.591  1.00  0.00     0.000 HD 
HETATM   41  H2  UNL     1     -13.391  10.671  73.070  1.00  0.00     0.000 HD 
HETATM   42  C   UNL     1     -11.991  10.386  69.979  1.00  0.00    -0.247 C  
HETATM   43  N   UNL     1     -13.290  10.860  72.074  1.00  0.00    -0.398 NA 
HETATM   44  O   UNL     1     -11.838  11.773  69.654  1.00  0.00    -0.300 OA 
BRANCH  34  45
HETATM   45  C   UNL     1     -11.045   6.438  71.418  1.00  0.00    -0.277 C  
HETATM   46  O   UNL     1     -12.261   6.102  72.088  1.00  0.00    -0.407 OA 
HETATM   47  H   UNL     1     -12.310   5.167  72.249  1.00  0.00     0.000 HD 
ENDBRANCH  34  45
ENDBRANCH  31  32
ENDBRANCH  25  31
ENDBRANCH  16  17
ENDBRANCH   7  16
ENDBRANCH   2   5
TORSDOF 6
ENDMDL
MODEL       45
REMARK 921   NORMALIZED FREE ENERGY PREDICTED BY IDOCK:   -6.89 KCAL/MOL
REMARK 922        TOTAL FREE ENERGY PREDICTED BY IDOCK:  -10.36 KCAL/MOL
REMARK 923 INTER-LIGAND FREE ENERGY PREDICTED BY IDOCK:   -8.80 KCAL/MOL
REMARK 924 INTRA-LIGAND FREE ENERGY PREDICTED BY IDOCK:   -1.56 KCAL/MOL
REMARK 927      BINDING AFFINITY PREDICTED BY RF-SCORE:    0.00 PKD
ROOT
HETATM    1  N   UNL     1     -10.770  19.508  65.524  1.00  0.00    -0.433 NA 
HETATM    2  C   UNL     1     -10.341  18.895  66.790  1.00  0.00    -0.414 C  
HETATM    3  H2  UNL     1      -9.979  19.645  64.895  1.00  0.00     0.000 HD 
HETATM    4  H1  UNL     1     -11.513  18.978  65.071  1.00  0.00     0.000 HD 
ENDROOT
BRANCH   2   5
HETATM    5  C   UNL     1      -9.211  19.701  67.479  1.00  0.00    -0.324 C  
HETATM    6  O   UNL     1      -8.638  18.997  68.592  1.00  0.00    -0.347 OA 
HETATM    7  C   UNL     1      -7.882  17.846  68.251  1.00  0.00    -0.285 C  
HETATM    8  C   UNL     1      -6.668  18.253  67.353  1.00  0.00    -0.196 C  
HETATM    9  C   UNL     1      -8.124  20.159  66.486  1.00  0.00    -0.274 C  
HETATM   10  N   UNL     1      -5.678  19.084  68.073  1.00  0.00    -0.194 NA 
HETATM   11  C   UNL     1      -7.176  19.014  66.114  1.00  0.00    -0.283 C  
HETATM   12  H   UNL     1      -6.717  21.510  66.482  1.00  0.00     0.000 HD 
HETATM   13  H1  UNL     1      -4.886  19.350  67.487  1.00  0.00     0.000 HD 
HETATM   14  H2  UNL     1      -5.364  18.622  68.926  1.00  0.00     0.000 HD 
HETATM   15  O   UNL     1      -7.387  21.228  67.094  1.00  0.00    -0.454 OA 
BRANCH   7  16
HETATM   16  O   UNL     1      -7.404  17.195  69.440  1.00  0.00    -0.164 OA 
BRANCH  16  17
HETATM   17  C   UNL     1      -7.336  15.739  69.409  1.00  0.00    -0.217 C  
HETATM   18  N   UNL     1      -5.167  15.605  70.617  1.00  0.00    -0.156 NA 
HETATM   19  C   UNL     1      -5.871  13.679  69.335  1.00  0.00    -0.093 C  
HETATM   20  H1  UNL     1      -4.212  15.247  70.611  1.00  0.00     0.000 HD 
HETATM   21  H2  UNL     1      -5.667  15.329  71.462  1.00  0.00     0.000 HD 
HETATM   22  C   UNL     1      -6.600  13.164  68.093  1.00  0.00    -0.107 C  
HETATM   23  C   UNL     1      -5.891  15.198  69.401  1.00  0.00    -0.104 C  
HETATM   24  N   UNL     1      -6.399  11.705  68.086  1.00  0.00    -0.049 NA 
HETATM   25  C   UNL     1      -8.102  13.588  68.090  1.00  0.00    -0.154 C  
HETATM   26  H   UNL     1     -10.177  15.036  68.008  1.00  0.00     0.000 HD 
HETATM   27  H1  UNL     1      -6.884  11.361  67.258  1.00  0.00     0.000 HD 
HETATM   28  C   UNL     1      -8.249  15.124  68.313  1.00  0.00    -0.144 C  
HETATM   29  H2  UNL     1      -6.691  11.248  68.950  1.00  0.00     0.000 HD 
HETATM   30  O   UNL     1      -9.619  15.412  68.678  1.00  0.00    -0.191 OA 
BRANCH  25  31
HETATM   31  O   UNL     1      -8.777  13.288  66.828  1.00  0.00    -0.182 OA 
BRANCH  31  32
HETATM   32  C   UNL     1      -9.909  12.416  66.932  1.00  0.00    -0.215 C  
HETATM   33  O   UNL     1     -11.147  13.083  66.652  1.00  0.00    -0.278 OA 
HETATM   34  C   UNL     1     -11.273  13.475  65.274  1.00  0.00    -0.292 C  
HETATM   35  C   UNL     1     -11.229  12.242  64.359  1.00  0.00    -0.334 C  
HETATM   36  H   UNL     1      -8.358   9.750  65.768  1.00  0.00     0.000 HD 
HETATM   37  C   UNL     1      -9.903  11.483  64.558  1.00  0.00    -0.241 C  
HETATM   38  H1  UNL     1      -8.986   9.769  63.836  1.00  0.00     0.000 HD 
HETATM   39  O   UNL     1     -11.397  12.585  62.980  1.00  0.00    -0.720 OA 
HETATM   40  H   UNL     1     -11.370  11.823  62.414  1.00  0.00     0.000 HD 
HETATM   41  H2  UNL     1     -10.030  10.493  62.723  1.00  0.00     0.000 HD 
HETATM   42  C   UNL     1      -9.729  11.152  66.050  1.00  0.00    -0.226 C  
HETATM   43  N   UNL     1      -9.864  10.271  63.704  1.00  0.00    -0.222 NA 
HETATM   44  O   UNL     1      -8.468  10.524  66.308  1.00  0.00    -0.139 OA 
BRANCH  34  45
HETATM   45  C   UNL     1     -12.608  14.213  65.103  1.00  0.00    -0.408 C  
HETATM   46  O   UNL     1     -12.590  15.026  63.929  1.00  0.00    -0.958 OA 
HETATM   47  H   UNL     1     -13.416  15.482  63.823  1.00  0.00     0.000 HD 
ENDBRANCH  34  45
ENDBRANCH  31  32
ENDBRANCH  25  31
ENDBRANCH  16  17
ENDBRANCH   7  16
ENDBRANCH   2   5
TORSDOF 6
ENDMDL
MODEL       46
REMARK 921   NORMALIZED FREE ENERGY PREDICTED BY IDOCK:   -6.88 KCAL/MOL
REMARK 922        TOTAL FREE ENERGY PREDICTED BY IDOCK:  -10.34 KCAL/MOL
REMARK 923 INTER-LIGAND FREE ENERGY PREDICTED BY IDOCK:   -8.46 KCAL/MOL
REMARK 924 INTRA-LIGAND FREE ENERGY PREDICTED BY IDOCK:   -1.89 KCAL/MOL
REMARK 927      BINDING AFFINITY PREDICTED BY RF-SCORE:    0.00 PKD
ROOT
HETATM    1  N   UNL     1      -6.803  10.569  70.510  1.00  0.00    -0.435 NA 
HETATM    2  C   UNL     1      -7.023   9.272  69.853  1.00  0.00    -0.061 C  
HETATM    3  H2  UNL     1      -7.383  10.664  71.343  1.00  0.00     0.000 HD 
HETATM    4  H1  UNL     1      -5.819  10.731  70.725  1.00  0.00     0.000 HD 
ENDROOT
BRANCH   2   5
HETATM    5  C   UNL     1      -8.518   9.028  69.526  1.00  0.00    -0.125 C  
HETATM    6  O   UNL     1      -9.082  10.080  68.728  1.00  0.00    -0.136 OA 
HETATM    7  C   UNL     1      -8.596  10.152  67.397  1.00  0.00    -0.122 C  
HETATM    8  C   UNL     1      -8.936   8.831  66.634  1.00  0.00    -0.139 C  
HETATM    9  C   UNL     1      -8.763   7.647  68.886  1.00  0.00    -0.135 C  
HETATM   10  N   UNL     1     -10.390   8.644  66.434  1.00  0.00    -0.358 NA 
HETATM   11  C   UNL     1      -8.363   7.628  67.406  1.00  0.00    -0.116 C  
HETATM   12  H   UNL     1     -10.306   6.481  68.627  1.00  0.00     0.000 HD 
HETATM   13  H1  UNL     1     -10.612   7.781  65.935  1.00  0.00     0.000 HD 
HETATM   14  H2  UNL     1     -10.801   9.452  65.967  1.00  0.00     0.000 HD 
HETATM   15  O   UNL     1     -10.155   7.332  69.022  1.00  0.00    -0.176 OA 
BRANCH   7  16
HETATM   16  O   UNL     1      -9.188  11.270  66.712  1.00  0.00    -0.168 OA 
BRANCH  16  17
HETATM   17  C   UNL     1      -9.811  12.292  67.543  1.00  0.00    -0.193 C  
HETATM   18  N   UNL     1     -11.844  10.951  68.037  1.00  0.00    -0.759 NA 
HETATM   19  C   UNL     1     -11.956  13.343  68.372  1.00  0.00    -0.359 C  
HETATM   20  H1  UNL     1     -12.863  10.915  68.023  1.00  0.00     0.000 HD 
HETATM   21  H2  UNL     1     -11.474  10.754  68.968  1.00  0.00     0.000 HD 
HETATM   22  C   UNL     1     -11.502  14.725  67.901  1.00  0.00    -0.342 C  
HETATM   23  C   UNL     1     -11.353  12.238  67.520  1.00  0.00    -0.325 C  
HETATM   24  N   UNL     1     -12.250  15.695  68.720  1.00  0.00    -0.554 NA 
HETATM   25  C   UNL     1      -9.953  14.886  67.999  1.00  0.00    -0.220 C  
HETATM   26  H   UNL     1      -7.482  14.553  67.559  1.00  0.00     0.000 HD 
HETATM   27  H1  UNL     1     -11.947  16.616  68.405  1.00  0.00     0.000 HD 
HETATM   28  C   UNL     1      -9.223  13.708  67.285  1.00  0.00    -0.232 C  
HETATM   29  H2  UNL     1     -12.141  15.550  69.725  1.00  0.00     0.000 HD 
HETATM   30  O   UNL     1      -7.841  13.687  67.716  1.00  0.00    -0.140 OA 
BRANCH  25  31
HETATM   31  O   UNL     1      -9.466  16.113  67.370  1.00  0.00    -0.224 OA 
BRANCH  31  32
HETATM   32  C   UNL     1      -8.610  16.922  68.187  1.00  0.00    -0.221 C  
HETATM   33  O   UNL     1      -7.343  17.182  67.569  1.00  0.00    -0.155 OA 
HETATM   34  C   UNL     1      -7.446  18.034  66.416  1.00  0.00    -0.262 C  
HETATM   35  C   UNL     1      -8.025  19.402  66.808  1.00  0.00    -0.273 C  
HETATM   36  H   UNL     1     -11.034  18.765  69.450  1.00  0.00     0.000 HD 
HETATM   37  C   UNL     1      -9.419  19.223  67.442  1.00  0.00    -0.308 C  
HETATM   38  H1  UNL     1     -10.895  20.417  68.275  1.00  0.00     0.000 HD 
HETATM   39  O   UNL     1      -8.102  20.297  65.695  1.00  0.00    -0.517 OA 
HETATM   40  H   UNL     1      -8.460  21.142  65.937  1.00  0.00     0.000 HD 
HETATM   41  H2  UNL     1      -9.990  21.201  67.084  1.00  0.00     0.000 HD 
HETATM   42  C   UNL     1      -9.317  18.235  68.616  1.00  0.00    -0.303 C  
HETATM   43  N   UNL     1      -9.973  20.535  67.856  1.00  0.00    -0.300 NA 
HETATM   44  O   UNL     1     -10.602  17.961  69.188  1.00  0.00    -0.168 OA 
BRANCH  34  45
HETATM   45  C   UNL     1      -6.044  18.206  65.816  1.00  0.00    -0.239 C  
HETATM   46  O   UNL     1      -6.123  18.634  64.457  1.00  0.00    -0.391 OA 
HETATM   47  H   UNL     1      -5.256  18.741  64.085  1.00  0.00     0.000 HD 
ENDBRANCH  34  45
ENDBRANCH  31  32
ENDBRANCH  25  31
ENDBRANCH  16  17
ENDBRANCH   7  16
ENDBRANCH   2   5
TORSDOF 6
ENDMDL
MODEL       47
REMARK 921   NORMALIZED FREE ENERGY PREDICTED BY IDOCK:   -6.82 KCAL/MOL
REMARK 922        TOTAL FREE ENERGY PREDICTED BY IDOCK:  -10.27 KCAL/MOL
REMARK 923 INTER-LIGAND FREE ENERGY PREDICTED BY IDOCK:   -8.97 KCAL/MOL
REMARK 924 INTRA-LIGAND FREE ENERGY PREDICTED BY IDOCK:   -1.30 KCAL/MOL
REMARK 927      BINDING AFFINITY PREDICTED BY RF-SCORE:    0.00 PKD
ROOT
HETATM    1  N   UNL     1      -7.559  13.886  69.390  1.00  0.00    -0.337 NA 
HETATM    2  C   UNL     1      -7.480  15.332  69.132  1.00  0.00    -0.179 C  
HETATM    3  H2  UNL     1      -6.939  13.367  68.768  1.00  0.00     0.000 HD 
HETATM    4  H1  UNL     1      -7.377  13.657  70.366  1.00  0.00     0.000 HD 
ENDROOT
BRANCH   2   5
HETATM    5  C   UNL     1      -7.756  15.680  67.648  1.00  0.00    -0.156 C  
HETATM    6  O   UNL     1      -9.011  15.154  67.188  1.00  0.00    -0.191 OA 
HETATM    7  C   UNL     1     -10.161  15.764  67.753  1.00  0.00    -0.251 C  
HETATM    8  C   UNL     1     -10.193  17.283  67.385  1.00  0.00    -0.325 C  
HETATM    9  C   UNL     1      -7.644  17.191  67.366  1.00  0.00    -0.167 C  
HETATM   10  N   UNL     1     -10.384  17.518  65.938  1.00  0.00    -0.549 NA 
HETATM   11  C   UNL     1      -8.885  17.952  67.848  1.00  0.00    -0.260 C  
HETATM   12  H   UNL     1      -7.408  18.302  65.779  1.00  0.00     0.000 HD 
HETATM   13  H1  UNL     1     -10.405  18.510  65.698  1.00  0.00     0.000 HD 
HETATM   14  H2  UNL     1     -11.219  17.042  65.598  1.00  0.00     0.000 HD 
HETATM   15  O   UNL     1      -7.477  17.370  65.954  1.00  0.00    -0.432 OA 
BRANCH   7  16
HETATM   16  O   UNL     1     -11.352  15.125  67.262  1.00  0.00    -0.338 OA 
BRANCH  16  17
HETATM   17  C   UNL     1     -11.996  14.166  68.151  1.00  0.00    -0.332 C  
HETATM   18  N   UNL     1     -12.712  15.868  69.814  1.00  0.00    -0.557 NA 
HETATM   19  C   UNL     1     -12.634  13.557  70.521  1.00  0.00    -0.311 C  
HETATM   20  H1  UNL     1     -12.704  16.157  70.792  1.00  0.00     0.000 HD 
HETATM   21  H2  UNL     1     -13.663  15.810  69.448  1.00  0.00     0.000 HD 
HETATM   22  C   UNL     1     -11.933  12.203  70.399  1.00  0.00    -0.272 C  
HETATM   23  C   UNL     1     -11.983  14.603  69.631  1.00  0.00    -0.323 C  
HETATM   24  N   UNL     1     -12.574  11.327  71.394  1.00  0.00    -0.373 NA 
HETATM   25  C   UNL     1     -12.002  11.649  68.941  1.00  0.00    -0.292 C  
HETATM   26  H   UNL     1     -11.626  11.428  66.447  1.00  0.00     0.000 HD 
HETATM   27  H1  UNL     1     -12.106  10.425  71.313  1.00  0.00     0.000 HD 
HETATM   28  C   UNL     1     -11.500  12.711  67.916  1.00  0.00    -0.309 C  
HETATM   29  H2  UNL     1     -13.589  11.272  71.296  1.00  0.00     0.000 HD 
HETATM   30  O   UNL     1     -11.928  12.317  66.591  1.00  0.00    -0.598 OA 
BRANCH  25  31
HETATM   31  O   UNL     1     -11.172  10.462  68.742  1.00  0.00    -0.246 OA 
BRANCH  31  32
HETATM   32  C   UNL     1     -10.425  10.038  69.889  1.00  0.00    -0.274 C  
HETATM   33  O   UNL     1     -10.963   8.853  70.490  1.00  0.00    -0.229 OA 
HETATM   34  C   UNL     1     -10.812   7.687  69.663  1.00  0.00    -0.191 C  
HETATM   35  C   UNL     1      -9.325   7.403  69.401  1.00  0.00    -0.155 C  
HETATM   36  H   UNL     1      -7.487  10.949  68.703  1.00  0.00     0.000 HD 
HETATM   37  C   UNL     1      -8.670   8.613  68.708  1.00  0.00    -0.135 C  
HETATM   38  H1  UNL     1      -6.792   9.165  68.023  1.00  0.00     0.000 HD 
HETATM   39  O   UNL     1      -9.129   6.222  68.618  1.00  0.00    -0.127 OA 
HETATM   40  H   UNL     1      -8.210   6.046  68.456  1.00  0.00     0.000 HD 
HETATM   41  H2  UNL     1      -7.066   7.499  67.965  1.00  0.00     0.000 HD 
HETATM   42  C   UNL     1      -8.920   9.875  69.552  1.00  0.00    -0.211 C  
HETATM   43  N   UNL     1      -7.226   8.364  68.482  1.00  0.00    -0.080 NA 
HETATM   44  O   UNL     1      -8.409  11.049  68.909  1.00  0.00    -0.150 OA 
BRANCH  34  45
HETATM   45  C   UNL     1     -11.459   6.496  70.385  1.00  0.00    -0.404 C  
HETATM   46  O   UNL     1     -10.509   5.834  71.220  1.00  0.00    -0.217 OA 
HETATM   47  H   UNL     1     -10.909   5.097  71.666  1.00  0.00     0.000 HD 
ENDBRANCH  34  45
ENDBRANCH  31  32
ENDBRANCH  25  31
ENDBRANCH  16  17
ENDBRANCH   7  16
ENDBRANCH   2   5
TORSDOF 6
ENDMDL
MODEL       48
REMARK 921   NORMALIZED FREE ENERGY PREDICTED BY IDOCK:   -6.81 KCAL/MOL
REMARK 922        TOTAL FREE ENERGY PREDICTED BY IDOCK:  -10.25 KCAL/MOL
REMARK 923 INTER-LIGAND FREE ENERGY PREDICTED BY IDOCK:   -9.48 KCAL/MOL
REMARK 924 INTRA-LIGAND FREE ENERGY PREDICTED BY IDOCK:   -0.78 KCAL/MOL
REMARK 927      BINDING AFFINITY PREDICTED BY RF-SCORE:    0.00 PKD
ROOT
HETATM    1  N   UNL     1      -9.466  20.491  65.080  1.00  0.00    -0.030 NA 
HETATM    2  C   UNL     1     -10.667  19.884  65.673  1.00  0.00    -0.272 C  
HETATM    3  H2  UNL     1      -8.674  19.850  65.114  1.00  0.00     0.000 HD 
HETATM    4  H1  UNL     1      -9.631  20.824  64.131  1.00  0.00     0.000 HD 
ENDROOT
BRANCH   2   5
HETATM    5  C   UNL     1     -10.417  19.378  67.116  1.00  0.00    -0.466 C  
HETATM    6  O   UNL     1     -10.965  18.070  67.339  1.00  0.00    -0.293 OA 
HETATM    7  C   UNL     1     -10.314  17.018  66.644  1.00  0.00    -0.299 C  
HETATM    8  C   UNL     1      -8.822  16.921  67.102  1.00  0.00    -0.206 C  
HETATM    9  C   UNL     1      -8.928  19.436  67.512  1.00  0.00    -0.303 C  
HETATM   10  N   UNL     1      -8.683  16.505  68.514  1.00  0.00    -0.218 NA 
HETATM   11  C   UNL     1      -8.130  18.282  66.894  1.00  0.00    -0.259 C  
HETATM   12  H   UNL     1      -7.926  19.416  69.186  1.00  0.00     0.000 HD 
HETATM   13  H1  UNL     1      -7.709  16.442  68.813  1.00  0.00     0.000 HD 
HETATM   14  H2  UNL     1      -9.176  15.630  68.688  1.00  0.00     0.000 HD 
HETATM   15  O   UNL     1      -8.843  19.380  68.942  1.00  0.00    -0.364 OA 
BRANCH   7  16
HETATM   16  O   UNL     1     -10.978  15.768  66.900  1.00  0.00    -0.300 OA 
BRANCH  16  17
HETATM   17  C   UNL     1     -10.543  14.622  66.112  1.00  0.00    -0.312 C  
HETATM   18  N   UNL     1     -11.698  15.345  64.033  1.00  0.00    -0.894 NA 
HETATM   19  C   UNL     1     -11.056  13.021  64.222  1.00  0.00    -0.418 C  
HETATM   20  H1  UNL     1     -12.353  15.093  63.293  1.00  0.00     0.000 HD 
HETATM   21  H2  UNL     1     -10.801  15.648  63.654  1.00  0.00     0.000 HD 
HETATM   22  C   UNL     1     -10.863  11.817  65.144  1.00  0.00    -0.297 C  
HETATM   23  C   UNL     1     -11.535  14.241  64.993  1.00  0.00    -0.364 C  
HETATM   24  N   UNL     1     -10.524  10.686  64.263  1.00  0.00    -0.397 NA 
HETATM   25  C   UNL     1      -9.789  12.098  66.242  1.00  0.00    -0.234 C  
HETATM   26  H   UNL     1      -8.641  13.106  68.260  1.00  0.00     0.000 HD 
HETATM   27  H1  UNL     1     -10.397   9.883  64.878  1.00  0.00     0.000 HD 
HETATM   28  C   UNL     1     -10.099  13.425  66.998  1.00  0.00    -0.247 C  
HETATM   29  H2  UNL     1      -9.724  10.867  63.656  1.00  0.00     0.000 HD 
HETATM   30  O   UNL     1      -8.913  13.837  67.719  1.00  0.00    -0.175 OA 
BRANCH  25  31
HETATM   31  O   UNL     1      -9.725  11.049  67.259  1.00  0.00    -0.164 OA 
BRANCH  31  32
HETATM   32  C   UNL     1     -10.966  10.388  67.535  1.00  0.00    -0.295 C  
HETATM   33  O   UNL     1     -10.981   9.031  67.076  1.00  0.00    -0.091 OA 
HETATM   34  C   UNL     1     -10.088   8.179  67.814  1.00  0.00    -0.204 C  
HETATM   35  C   UNL     1     -10.487   8.139  69.297  1.00  0.00    -0.214 C  
HETATM   36  H   UNL     1     -11.493  11.904  70.415  1.00  0.00     0.000 HD 
HETATM   37  C   UNL     1     -10.452   9.560  69.892  1.00  0.00    -0.240 C  
HETATM   38  H1  UNL     1     -10.845  10.478  71.709  1.00  0.00     0.000 HD 
HETATM   39  O   UNL     1      -9.649   7.265  70.059  1.00  0.00    -0.167 OA 
HETATM   40  H   UNL     1      -9.896   7.240  70.976  1.00  0.00     0.000 HD 
HETATM   41  H2  UNL     1     -10.311   8.883  71.863  1.00  0.00     0.000 HD 
HETATM   42  C   UNL     1     -11.335  10.487  69.039  1.00  0.00    -0.257 C  
HETATM   43  N   UNL     1     -10.869   9.537  71.315  1.00  0.00    -0.353 NA 
HETATM   44  O   UNL     1     -11.268  11.844  69.494  1.00  0.00    -0.231 OA 
BRANCH  34  45
HETATM   45  C   UNL     1     -10.156   6.770  67.209  1.00  0.00    -0.182 C  
HETATM   46  O   UNL     1     -11.445   6.521  66.648  1.00  0.00    -0.727 OA 
HETATM   47  H   UNL     1     -11.487   5.649  66.274  1.00  0.00     0.000 HD 
ENDBRANCH  34  45
ENDBRANCH  31  32
ENDBRANCH  25  31
ENDBRANCH  16  17
ENDBRANCH   7  16
ENDBRANCH   2   5
TORSDOF 6
ENDMDL
MODEL       49
REMARK 921   NORMALIZED FREE ENERGY PREDICTED BY IDOCK:   -6.80 KCAL/MOL
REMARK 922        TOTAL FREE ENERGY PREDICTED BY IDOCK:  -10.23 KCAL/MOL
REMARK 923 INTER-LIGAND FREE ENERGY PREDICTED BY IDOCK:   -8.50 KCAL/MOL
REMARK 924 INTRA-LIGAND FREE ENERGY PREDICTED BY IDOCK:   -1.73 KCAL/MOL
REMARK 927      BINDING AFFINITY PREDICTED BY RF-SCORE:    0.00 PKD
ROOT
HETATM    1  N   UNL     1     -12.025  16.003  63.931  1.00  0.00    -1.309 NA 
HETATM    2  C   UNL     1     -10.791  16.464  64.582  1.00  0.00    -0.047 C  
HETATM    3  H2  UNL     1     -12.698  16.763  63.837  1.00  0.00     0.000 HD 
HETATM    4  H1  UNL     1     -11.845  15.557  63.032  1.00  0.00     0.000 HD 
ENDROOT
BRANCH   2   5
HETATM    5  C   UNL     1     -11.066  17.141  65.949  1.00  0.00     0.354 C  
HETATM    6  O   UNL     1     -10.842  16.251  67.054  1.00  0.00    -0.283 OA 
HETATM    7  C   UNL     1      -9.486  15.898  67.277  1.00  0.00    -0.212 C  
HETATM    8  C   UNL     1      -8.649  17.177  67.603  1.00  0.00    -0.212 C  
HETATM    9  C   UNL     1     -10.284  18.458  66.122  1.00  0.00    -0.389 C  
HETATM   10  N   UNL     1      -9.033  17.799  68.889  1.00  0.00    -0.186 NA 
HETATM   11  C   UNL     1      -8.811  18.203  66.466  1.00  0.00    -0.286 C  
HETATM   12  H   UNL     1     -10.425  20.025  67.276  1.00  0.00     0.000 HD 
HETATM   13  H1  UNL     1      -8.486  18.634  69.102  1.00  0.00     0.000 HD 
HETATM   14  H2  UNL     1      -8.981  17.123  69.651  1.00  0.00     0.000 HD 
HETATM   15  O   UNL     1     -10.907  19.213  67.169  1.00  0.00    -0.464 OA 
BRANCH   7  16
HETATM   16  O   UNL     1      -9.389  14.967  68.368  1.00  0.00    -0.182 OA 
BRANCH  16  17
HETATM   17  C   UNL     1     -10.639  14.411  68.870  1.00  0.00    -0.247 C  
HETATM   18  N   UNL     1     -11.084  16.282  70.445  1.00  0.00    -0.353 NA 
HETATM   19  C   UNL     1     -12.242  14.192  70.814  1.00  0.00    -0.435 C  
HETATM   20  H1  UNL     1     -11.288  16.553  71.406  1.00  0.00     0.000 HD 
HETATM   21  H2  UNL     1     -11.780  16.648  69.795  1.00  0.00     0.000 HD 
HETATM   22  C   UNL     1     -12.188  12.666  70.731  1.00  0.00    -0.240 C  
HETATM   23  C   UNL     1     -10.948  14.822  70.325  1.00  0.00    -0.097 C  
HETATM   24  N   UNL     1     -13.438  12.185  71.344  1.00  0.00     0.103 NA 
HETATM   25  C   UNL     1     -11.984  12.176  69.262  1.00  0.00    -0.262 C  
HETATM   26  H   UNL     1     -10.911  11.768  67.006  1.00  0.00     0.000 HD 
HETATM   27  H1  UNL     1     -13.402  11.168  71.289  1.00  0.00     0.000 HD 
HETATM   28  C   UNL     1     -10.762  12.885  68.603  1.00  0.00    -0.247 C  
HETATM   29  H2  UNL     1     -14.278  12.587  70.927  1.00  0.00     0.000 HD 
HETATM   30  O   UNL     1     -10.836  12.701  67.169  1.00  0.00    -0.244 OA 
BRANCH  25  31
HETATM   31  O   UNL     1     -11.725  10.740  69.170  1.00  0.00    -0.292 OA 
BRANCH  31  32
HETATM   32  C   UNL     1     -10.614  10.268  69.942  1.00  0.00    -0.276 C  
HETATM   33  O   UNL     1     -11.019   9.647  71.169  1.00  0.00    -0.336 OA 
HETATM   34  C   UNL     1     -11.713   8.405  70.966  1.00  0.00    -0.267 C  
HETATM   35  C   UNL     1     -10.806   7.394  70.248  1.00  0.00    -0.245 C  
HETATM   36  H   UNL     1      -8.786   9.378  67.347  1.00  0.00     0.000 HD 
HETATM   37  C   UNL     1     -10.357   7.960  68.887  1.00  0.00    -0.213 C  
HETATM   38  H1  UNL     1      -9.156   7.381  67.299  1.00  0.00     0.000 HD 
HETATM   39  O   UNL     1     -11.445   6.127  70.067  1.00  0.00    -0.406 OA 
HETATM   40  H   UNL     1     -10.885   5.501  69.623  1.00  0.00     0.000 HD 
HETATM   41  H2  UNL     1      -9.876   6.083  68.106  1.00  0.00     0.000 HD 
HETATM   42  C   UNL     1      -9.701   9.335  69.104  1.00  0.00    -0.164 C  
HETATM   43  N   UNL     1      -9.453   7.006  68.200  1.00  0.00    -0.125 NA 
HETATM   44  O   UNL     1      -9.344   9.950  67.860  1.00  0.00    -0.137 OA 
BRANCH  34  45
HETATM   45  C   UNL     1     -12.134   7.857  72.337  1.00  0.00    -0.286 C  
HETATM   46  O   UNL     1     -13.334   7.092  72.230  1.00  0.00    -0.519 OA 
HETATM   47  H   UNL     1     -13.594   6.753  73.078  1.00  0.00     0.000 HD 
ENDBRANCH  34  45
ENDBRANCH  31  32
ENDBRANCH  25  31
ENDBRANCH  16  17
ENDBRANCH   7  16
ENDBRANCH   2   5
TORSDOF 6
ENDMDL
MODEL       50
REMARK 921   NORMALIZED FREE ENERGY PREDICTED BY IDOCK:   -6.79 KCAL/MOL
REMARK 922        TOTAL FREE ENERGY PREDICTED BY IDOCK:  -10.22 KCAL/MOL
REMARK 923 INTER-LIGAND FREE ENERGY PREDICTED BY IDOCK:   -8.99 KCAL/MOL
REMARK 924 INTRA-LIGAND FREE ENERGY PREDICTED BY IDOCK:   -1.23 KCAL/MOL
REMARK 927      BINDING AFFINITY PREDICTED BY RF-SCORE:    0.00 PKD
ROOT
HETATM    1  N   UNL     1     -12.429  14.507  63.600  1.00  0.00    -1.078 NA 
HETATM    2  C   UNL     1     -11.963  13.377  64.416  1.00  0.00    -0.411 C  
HETATM    3  H2  UNL     1     -11.979  15.377  63.885  1.00  0.00     0.000 HD 
HETATM    4  H1  UNL     1     -12.305  14.340  62.602  1.00  0.00     0.000 HD 
ENDROOT
BRANCH   2   5
HETATM    5  C   UNL     1     -12.151  13.632  65.933  1.00  0.00    -0.439 C  
HETATM    6  O   UNL     1     -12.260  12.412  66.682  1.00  0.00    -0.562 OA 
HETATM    7  C   UNL     1     -11.071  11.642  66.756  1.00  0.00    -0.309 C  
HETATM    8  C   UNL     1      -9.948  12.463  67.470  1.00  0.00    -0.196 C  
HETATM    9  C   UNL     1     -11.059  14.551  66.515  1.00  0.00    -0.332 C  
HETATM   10  N   UNL     1     -10.249  12.724  68.895  1.00  0.00    -0.429 NA 
HETATM   11  C   UNL     1      -9.741  13.800  66.734  1.00  0.00    -0.277 C  
HETATM   12  H   UNL     1     -10.863  15.643  68.120  1.00  0.00     0.000 HD 
HETATM   13  H1  UNL     1      -9.516  13.260  69.361  1.00  0.00     0.000 HD 
HETATM   14  H2  UNL     1     -10.440  11.855  69.393  1.00  0.00     0.000 HD 
HETATM   15  O   UNL     1     -11.536  15.076  67.761  1.00  0.00    -0.332 OA 
BRANCH   7  16
HETATM   16  O   UNL     1     -11.312  10.424  67.482  1.00  0.00    -0.374 OA 
BRANCH  16  17
HETATM   17  C   UNL     1     -10.178   9.523  67.645  1.00  0.00    -0.220 C  
HETATM   18  N   UNL     1      -9.846   9.158  65.209  1.00  0.00    -0.391 NA 
HETATM   19  C   UNL     1      -8.877   7.554  66.737  1.00  0.00    -0.153 C  
HETATM   20  H1  UNL     1      -9.761   8.476  64.456  1.00  0.00     0.000 HD 
HETATM   21  H2  UNL     1      -9.046   9.791  65.235  1.00  0.00     0.000 HD 
HETATM   22  C   UNL     1      -9.009   6.809  68.066  1.00  0.00    -0.117 C  
HETATM   23  C   UNL     1     -10.051   8.491  66.505  1.00  0.00    -0.258 C  
HETATM   24  N   UNL     1      -7.887   5.856  68.106  1.00  0.00    -0.103 NA 
HETATM   25  C   UNL     1      -9.036   7.794  69.277  1.00  0.00    -0.145 C  
HETATM   26  H   UNL     1      -9.808   9.605  70.869  1.00  0.00     0.000 HD 
HETATM   27  H1  UNL     1      -7.976   5.359  68.992  1.00  0.00     0.000 HD 
HETATM   28  C   UNL     1     -10.111   8.904  69.070  1.00  0.00    -0.197 C  
HETATM   29  H2  UNL     1      -6.974   6.293  67.972  1.00  0.00     0.000 HD 
HETATM   30  O   UNL     1      -9.850   9.983  69.998  1.00  0.00    -0.241 OA 
BRANCH  25  31
HETATM   31  O   UNL     1      -9.364   7.135  70.541  1.00  0.00    -0.159 OA 
BRANCH  31  32
HETATM   32  C   UNL     1     -10.584   6.383  70.540  1.00  0.00    -0.239 C  
HETATM   33  O   UNL     1     -10.431   5.086  69.949  1.00  0.00    -0.280 OA 
HETATM   34  C   UNL     1      -9.609   4.206  70.734  1.00  0.00    -0.190 C  
HETATM   35  C   UNL     1     -10.234   3.980  72.119  1.00  0.00    -0.140 C  
HETATM   36  H   UNL     1     -11.667   7.538  73.432  1.00  0.00     0.000 HD 
HETATM   37  C   UNL     1     -10.393   5.325  72.853  1.00  0.00    -0.196 C  
HETATM   38  H1  UNL     1     -11.133   6.013  74.664  1.00  0.00     0.000 HD 
HETATM   39  O   UNL     1      -9.468   3.072  72.917  1.00  0.00    -0.090 OA 
HETATM   40  H   UNL     1      -9.855   2.932  73.773  1.00  0.00     0.000 HD 
HETATM   41  H2  UNL     1     -10.520   4.441  74.741  1.00  0.00     0.000 HD 
HETATM   42  C   UNL     1     -11.192   6.293  71.964  1.00  0.00    -0.281 C  
HETATM   43  N   UNL     1     -11.028   5.122  74.178  1.00  0.00    -0.242 NA 
HETATM   44  O   UNL     1     -11.295   7.593  72.559  1.00  0.00    -0.307 OA 
BRANCH  34  45
HETATM   45  C   UNL     1      -9.481   2.871  69.987  1.00  0.00    -0.113 C  
HETATM   46  O   UNL     1      -9.528   3.074  68.575  1.00  0.00    -0.188 OA 
HETATM   47  H   UNL     1      -9.448   2.248  68.113  1.00  0.00     0.000 HD 
ENDBRANCH  34  45
ENDBRANCH  31  32
ENDBRANCH  25  31
ENDBRANCH  16  17
ENDBRANCH   7  16
ENDBRANCH   2   5
TORSDOF 6
ENDMDL
MODEL       51
REMARK 921   NORMALIZED FREE ENERGY PREDICTED BY IDOCK:   -6.78 KCAL/MOL
REMARK 922        TOTAL FREE ENERGY PREDICTED BY IDOCK:  -10.21 KCAL/MOL
REMARK 923 INTER-LIGAND FREE ENERGY PREDICTED BY IDOCK:   -9.16 KCAL/MOL
REMARK 924 INTRA-LIGAND FREE ENERGY PREDICTED BY IDOCK:   -1.04 KCAL/MOL
REMARK 927      BINDING AFFINITY PREDICTED BY RF-SCORE:    0.00 PKD
ROOT
HETATM    1  N   UNL     1     -10.477  11.038  62.767  1.00  0.00    -0.786 NA 
HETATM    2  C   UNL     1     -10.312  11.574  64.126  1.00  0.00    -0.334 C  
HETATM    3  H2  UNL     1     -10.609  11.787  62.089  1.00  0.00     0.000 HD 
HETATM    4  H1  UNL     1      -9.706  10.428  62.497  1.00  0.00     0.000 HD 
ENDROOT
BRANCH   2   5
HETATM    5  C   UNL     1     -11.483  12.502  64.537  1.00  0.00    -0.337 C  
HETATM    6  O   UNL     1     -12.192  12.010  65.685  1.00  0.00    -0.503 OA 
HETATM    7  C   UNL     1     -11.468  12.053  66.904  1.00  0.00    -0.337 C  
HETATM    8  C   UNL     1     -11.099  13.532  67.252  1.00  0.00    -0.286 C  
HETATM    9  C   UNL     1     -11.036  13.963  64.739  1.00  0.00    -0.383 C  
HETATM   10  N   UNL     1     -12.286  14.361  67.556  1.00  0.00    -0.619 NA 
HETATM   11  C   UNL     1     -10.320  14.158  66.080  1.00  0.00    -0.316 C  
HETATM   12  H   UNL     1     -11.924  15.699  64.803  1.00  0.00     0.000 HD 
HETATM   13  H1  UNL     1     -12.045  15.327  67.782  1.00  0.00     0.000 HD 
HETATM   14  H2  UNL     1     -12.846  13.940  68.296  1.00  0.00     0.000 HD 
HETATM   15  O   UNL     1     -12.200  14.798  64.679  1.00  0.00    -0.442 OA 
BRANCH   7  16
HETATM   16  O   UNL     1     -12.253  11.490  67.969  1.00  0.00    -0.582 OA 
BRANCH  16  17
HETATM   17  C   UNL     1     -11.635  10.422  68.745  1.00  0.00    -0.119 C  
HETATM   18  N   UNL     1     -12.560  11.184  70.923  1.00  0.00    -0.381 NA 
HETATM   19  C   UNL     1     -10.654   9.696  70.960  1.00  0.00    -0.362 C  
HETATM   20  H1  UNL     1     -12.357  11.452  71.886  1.00  0.00     0.000 HD 
HETATM   21  H2  UNL     1     -13.250  10.434  70.880  1.00  0.00     0.000 HD 
HETATM   22  C   UNL     1      -9.354   9.263  70.282  1.00  0.00    -0.239 C  
HETATM   23  C   UNL     1     -11.327  10.829  70.202  1.00  0.00    -0.309 C  
HETATM   24  N   UNL     1      -8.749   8.261  71.176  1.00  0.00    -0.136 NA 
HETATM   25  C   UNL     1      -9.608   8.737  68.834  1.00  0.00    -0.158 C  
HETATM   26  H   UNL     1     -10.234   8.695  66.381  1.00  0.00     0.000 HD 
HETATM   27  H1  UNL     1      -7.881   7.973  70.724  1.00  0.00     0.000 HD 
HETATM   28  C   UNL     1     -10.437   9.764  68.005  1.00  0.00    -0.226 C  
HETATM   29  H2  UNL     1      -9.371   7.484  71.399  1.00  0.00     0.000 HD 
HETATM   30  O   UNL     1     -10.966   9.098  66.834  1.00  0.00    -0.063 OA 
BRANCH  25  31
HETATM   31  O   UNL     1      -8.373   8.506  68.086  1.00  0.00    -0.124 OA 
BRANCH  31  32
HETATM   32  C   UNL     1      -7.848   7.175  68.167  1.00  0.00    -0.118 C  
HETATM   33  O   UNL     1      -8.865   6.174  68.032  1.00  0.00    -0.114 OA 
HETATM   34  C   UNL     1      -9.434   6.127  66.712  1.00  0.00    -0.146 C  
HETATM   35  C   UNL     1      -8.353   5.790  65.673  1.00  0.00    -0.138 C  
HETATM   36  H   UNL     1      -5.007   7.864  66.643  1.00  0.00     0.000 HD 
HETATM   37  C   UNL     1      -7.233   6.848  65.713  1.00  0.00    -0.073 C  
HETATM   38  H1  UNL     1      -5.426   7.214  64.765  1.00  0.00     0.000 HD 
HETATM   39  O   UNL     1      -8.887   5.688  64.350  1.00  0.00    -0.350 OA 
HETATM   40  H   UNL     1      -8.219   5.480  63.708  1.00  0.00     0.000 HD 
HETATM   41  H2  UNL     1      -6.539   6.391  63.797  1.00  0.00     0.000 HD 
HETATM   42  C   UNL     1      -6.696   6.960  67.151  1.00  0.00    -0.063 C  
HETATM   43  N   UNL     1      -6.167   6.513  64.738  1.00  0.00    -0.037 NA 
HETATM   44  O   UNL     1      -5.712   7.996  67.266  1.00  0.00    -0.036 OA 
BRANCH  34  45
HETATM   45  C   UNL     1     -10.533   5.055  66.698  1.00  0.00    -0.250 C  
HETATM   46  O   UNL     1     -11.295   5.128  65.493  1.00  0.00    -0.798 OA 
HETATM   47  H   UNL     1     -11.976   4.465  65.484  1.00  0.00     0.000 HD 
ENDBRANCH  34  45
ENDBRANCH  31  32
ENDBRANCH  25  31
ENDBRANCH  16  17
ENDBRANCH   7  16
ENDBRANCH   2   5
TORSDOF 6
ENDMDL
MODEL       52
REMARK 921   NORMALIZED FREE ENERGY PREDICTED BY IDOCK:   -6.76 KCAL/MOL
REMARK 922        TOTAL FREE ENERGY PREDICTED BY IDOCK:  -10.19 KCAL/MOL
REMARK 923 INTER-LIGAND FREE ENERGY PREDICTED BY IDOCK:   -8.44 KCAL/MOL
REMARK 924 INTRA-LIGAND FREE ENERGY PREDICTED BY IDOCK:   -1.75 KCAL/MOL
REMARK 927      BINDING AFFINITY PREDICTED BY RF-SCORE:    0.00 PKD
ROOT
HETATM    1  N   UNL     1     -10.192   6.326  66.096  1.00  0.00    -0.410 NA 
HETATM    2  C   UNL     1     -10.341   5.688  67.412  1.00  0.00    -0.230 C  
HETATM    3  H2  UNL     1      -9.659   5.734  65.459  1.00  0.00     0.000 HD 
HETATM    4  H1  UNL     1     -11.089   6.590  65.691  1.00  0.00     0.000 HD 
ENDROOT
BRANCH   2   5
HETATM    5  C   UNL     1      -8.977   5.288  68.028  1.00  0.00    -0.109 C  
HETATM    6  O   UNL     1      -8.492   6.264  68.964  1.00  0.00    -0.118 OA 
HETATM    7  C   UNL     1      -9.234   6.361  70.170  1.00  0.00    -0.158 C  
HETATM    8  C   UNL     1      -9.186   4.998  70.935  1.00  0.00    -0.146 C  
HETATM    9  C   UNL     1      -9.002   3.878  68.651  1.00  0.00    -0.121 C  
HETATM   10  N   UNL     1      -7.830   4.662  71.420  1.00  0.00    -0.085 NA 
HETATM   11  C   UNL     1      -9.699   3.873  70.017  1.00  0.00    -0.242 C  
HETATM   12  H   UNL     1      -7.664   2.558  69.175  1.00  0.00     0.000 HD 
HETATM   13  H1  UNL     1      -7.799   3.773  71.920  1.00  0.00     0.000 HD 
HETATM   14  H2  UNL     1      -7.448   5.416  71.991  1.00  0.00     0.000 HD 
HETATM   15  O   UNL     1      -7.649   3.427  68.790  1.00  0.00    -0.052 OA 
BRANCH   7  16
HETATM   16  O   UNL     1      -8.692   7.400  71.003  1.00  0.00    -0.136 OA 
BRANCH  16  17
HETATM   17  C   UNL     1      -9.396   8.677  70.999  1.00  0.00    -0.202 C  
HETATM   18  N   UNL     1     -11.056   8.007  72.723  1.00  0.00    -0.392 NA 
HETATM   19  C   UNL     1     -11.586   9.900  71.315  1.00  0.00    -0.456 C  
HETATM   20  H1  UNL     1     -12.044   7.923  72.965  1.00  0.00     0.000 HD 
HETATM   21  H2  UNL     1     -10.546   8.558  73.413  1.00  0.00     0.000 HD 
HETATM   22  C   UNL     1     -11.468  10.540  69.931  1.00  0.00    -0.310 C  
HETATM   23  C   UNL     1     -10.889   8.550  71.365  1.00  0.00    -0.260 C  
HETATM   24  N   UNL     1     -12.283  11.766  69.985  1.00  0.00    -0.271 NA 
HETATM   25  C   UNL     1      -9.979  10.796  69.541  1.00  0.00    -0.054 C  
HETATM   26  H   UNL     1      -7.562  10.365  68.921  1.00  0.00     0.000 HD 
HETATM   27  H1  UNL     1     -12.205  12.192  69.061  1.00  0.00     0.000 HD 
HETATM   28  C   UNL     1      -9.127   9.500  69.709  1.00  0.00    -0.205 C  
HETATM   29  H2  UNL     1     -12.027  12.393  70.748  1.00  0.00     0.000 HD 
HETATM   30  O   UNL     1      -7.726   9.862  69.709  1.00  0.00    -0.119 OA 
BRANCH  25  31
HETATM   31  O   UNL     1      -9.817  11.216  68.150  1.00  0.00    -0.169 OA 
BRANCH  31  32
HETATM   32  C   UNL     1     -10.849  10.779  67.255  1.00  0.00    -0.288 C  
HETATM   33  O   UNL     1     -11.788  11.818  66.948  1.00  0.00    -0.591 OA 
HETATM   34  C   UNL     1     -11.217  12.874  66.157  1.00  0.00    -0.292 C  
HETATM   35  C   UNL     1     -10.720  12.327  64.810  1.00  0.00    -0.300 C  
HETATM   36  H   UNL     1      -8.913   8.766  65.505  1.00  0.00     0.000 HD 
HETATM   37  C   UNL     1      -9.664  11.230  65.042  1.00  0.00    -0.251 C  
HETATM   38  H1  UNL     1      -8.502   9.945  63.902  1.00  0.00     0.000 HD 
HETATM   39  O   UNL     1     -10.186  13.357  63.972  1.00  0.00    -0.718 OA 
HETATM   40  H   UNL     1      -9.878  13.019  63.139  1.00  0.00     0.000 HD 
HETATM   41  H2  UNL     1      -8.861  11.399  63.121  1.00  0.00     0.000 HD 
HETATM   42  C   UNL     1     -10.251  10.152  65.969  1.00  0.00    -0.218 C  
HETATM   43  N   UNL     1      -9.202  10.671  63.748  1.00  0.00    -0.233 NA 
HETATM   44  O   UNL     1      -9.279   9.149  66.293  1.00  0.00    -0.165 OA 
BRANCH  34  45
HETATM   45  C   UNL     1     -12.295  13.943  65.929  1.00  0.00    -0.483 C  
HETATM   46  O   UNL     1     -12.975  13.721  64.694  1.00  0.00    -0.656 OA 
HETATM   47  H   UNL     1     -13.642  14.382  64.553  1.00  0.00     0.000 HD 
ENDBRANCH  34  45
ENDBRANCH  31  32
ENDBRANCH  25  31
ENDBRANCH  16  17
ENDBRANCH   7  16
ENDBRANCH   2   5
TORSDOF 6
ENDMDL
MODEL       53
REMARK 921   NORMALIZED FREE ENERGY PREDICTED BY IDOCK:   -6.73 KCAL/MOL
REMARK 922        TOTAL FREE ENERGY PREDICTED BY IDOCK:  -10.14 KCAL/MOL
REMARK 923 INTER-LIGAND FREE ENERGY PREDICTED BY IDOCK:   -8.92 KCAL/MOL
REMARK 924 INTRA-LIGAND FREE ENERGY PREDICTED BY IDOCK:   -1.22 KCAL/MOL
REMARK 927      BINDING AFFINITY PREDICTED BY RF-SCORE:    0.00 PKD
ROOT
HETATM    1  N   UNL     1     -11.193  16.485  71.003  1.00  0.00    -0.359 NA 
HETATM    2  C   UNL     1     -11.243  16.937  69.605  1.00  0.00     0.259 C  
HETATM    3  H2  UNL     1     -10.931  17.248  71.627  1.00  0.00     0.000 HD 
HETATM    4  H1  UNL     1     -12.066  16.050  71.299  1.00  0.00     0.000 HD 
ENDROOT
BRANCH   2   5
HETATM    5  C   UNL     1      -9.916  17.599  69.154  1.00  0.00    -0.192 C  
HETATM    6  O   UNL     1      -9.384  16.999  67.963  1.00  0.00    -0.235 OA 
HETATM    7  C   UNL     1     -10.135  17.236  66.783  1.00  0.00    -0.302 C  
HETATM    8  C   UNL     1     -10.186  18.770  66.483  1.00  0.00    -0.413 C  
HETATM    9  C   UNL     1     -10.042  19.128  69.004  1.00  0.00    -0.298 C  
HETATM   10  N   UNL     1      -8.861  19.329  66.137  1.00  0.00    -0.437 NA 
HETATM   11  C   UNL     1     -10.757  19.514  67.704  1.00  0.00    -0.527 C  
HETATM   12  H   UNL     1      -8.799  20.630  68.930  1.00  0.00     0.000 HD 
HETATM   13  H1  UNL     1      -8.895  20.330  65.941  1.00  0.00     0.000 HD 
HETATM   14  H2  UNL     1      -8.440  18.819  65.361  1.00  0.00     0.000 HD 
HETATM   15  O   UNL     1      -8.722  19.687  69.022  1.00  0.00    -0.297 OA 
BRANCH   7  16
HETATM   16  O   UNL     1      -9.540  16.547  65.669  1.00  0.00    -0.511 OA 
BRANCH  16  17
HETATM   17  C   UNL     1     -10.198  15.324  65.227  1.00  0.00    -0.364 C  
HETATM   18  N   UNL     1     -11.553  16.439  63.466  1.00  0.00    -0.840 NA 
HETATM   19  C   UNL     1     -12.267  14.261  64.235  1.00  0.00    -0.451 C  
HETATM   20  H1  UNL     1     -12.485  16.599  63.085  1.00  0.00     0.000 HD 
HETATM   21  H2  UNL     1     -10.915  16.073  62.759  1.00  0.00     0.000 HD 
HETATM   22  C   UNL     1     -12.373  13.289  65.410  1.00  0.00    -0.479 C  
HETATM   23  C   UNL     1     -11.609  15.566  64.650  1.00  0.00    -0.281 C  
HETATM   24  N   UNL     1     -13.132  12.131  64.907  1.00  0.00    -0.334 NA 
HETATM   25  C   UNL     1     -10.967  12.915  65.977  1.00  0.00    -0.276 C  
HETATM   26  H   UNL     1      -8.707  13.131  67.098  1.00  0.00     0.000 HD 
HETATM   27  H1  UNL     1     -13.203  11.483  65.691  1.00  0.00     0.000 HD 
HETATM   28  C   UNL     1     -10.135  14.196  66.293  1.00  0.00    -0.300 C  
HETATM   29  H2  UNL     1     -12.731  11.713  64.067  1.00  0.00     0.000 HD 
HETATM   30  O   UNL     1      -8.746  13.822  66.446  1.00  0.00     0.006 OA 
BRANCH  25  31
HETATM   31  O   UNL     1     -11.038  12.153  67.222  1.00  0.00    -0.255 OA 
BRANCH  31  32
HETATM   32  C   UNL     1     -10.976  10.729  67.072  1.00  0.00    -0.227 C  
HETATM   33  O   UNL     1      -9.751  10.292  66.468  1.00  0.00    -0.177 OA 
HETATM   34  C   UNL     1      -8.606  10.493  67.313  1.00  0.00    -0.122 C  
HETATM   35  C   UNL     1      -8.753   9.695  68.617  1.00  0.00    -0.124 C  
HETATM   36  H   UNL     1     -12.596  10.048  69.861  1.00  0.00     0.000 HD 
HETATM   37  C   UNL     1     -10.027  10.135  69.364  1.00  0.00    -0.228 C  
HETATM   38  H1  UNL     1     -11.041   9.638  71.103  1.00  0.00     0.000 HD 
HETATM   39  O   UNL     1      -7.612   9.832  69.468  1.00  0.00    -0.089 OA 
HETATM   40  H   UNL     1      -7.703   9.339  70.274  1.00  0.00     0.000 HD 
HETATM   41  H2  UNL     1      -9.373   9.395  71.205  1.00  0.00     0.000 HD 
HETATM   42  C   UNL     1     -11.235  10.008  68.421  1.00  0.00    -0.127 C  
HETATM   43  N   UNL     1     -10.198   9.346  70.609  1.00  0.00    -0.267 NA 
HETATM   44  O   UNL     1     -12.437  10.489  69.035  1.00  0.00    -0.217 OA 
BRANCH  34  45
HETATM   45  C   UNL     1      -7.356  10.032  66.549  1.00  0.00    -0.101 C  
HETATM   46  O   UNL     1      -6.780  11.115  65.819  1.00  0.00    -0.355 OA 
HETATM   47  H   UNL     1      -6.007  10.830  65.347  1.00  0.00     0.000 HD 
ENDBRANCH  34  45
ENDBRANCH  31  32
ENDBRANCH  25  31
ENDBRANCH  16  17
ENDBRANCH   7  16
ENDBRANCH   2   5
TORSDOF 6
ENDMDL
MODEL       54
REMARK 921   NORMALIZED FREE ENERGY PREDICTED BY IDOCK:   -6.72 KCAL/MOL
REMARK 922        TOTAL FREE ENERGY PREDICTED BY IDOCK:  -10.13 KCAL/MOL
REMARK 923 INTER-LIGAND FREE ENERGY PREDICTED BY IDOCK:   -8.96 KCAL/MOL
REMARK 924 INTRA-LIGAND FREE ENERGY PREDICTED BY IDOCK:   -1.17 KCAL/MOL
REMARK 927      BINDING AFFINITY PREDICTED BY RF-SCORE:    0.00 PKD
ROOT
HETATM    1  N   UNL     1      -9.964  20.661  65.756  1.00  0.00    -0.438 NA 
HETATM    2  C   UNL     1     -10.267  19.229  65.891  1.00  0.00    -0.362 C  
HETATM    3  H2  UNL     1      -9.206  20.938  66.380  1.00  0.00     0.000 HD 
HETATM    4  H1  UNL     1      -9.761  20.924  64.792  1.00  0.00     0.000 HD 
ENDROOT
BRANCH   2   5
HETATM    5  C   UNL     1     -10.576  18.830  67.356  1.00  0.00    -0.443 C  
HETATM    6  O   UNL     1     -11.273  17.578  67.446  1.00  0.00    -0.027 OA 
HETATM    7  C   UNL     1     -10.511  16.437  67.086  1.00  0.00    -0.297 C  
HETATM    8  C   UNL     1      -9.284  16.293  68.043  1.00  0.00    -0.196 C  
HETATM    9  C   UNL     1      -9.317  18.835  68.246  1.00  0.00    -0.337 C  
HETATM   10  N   UNL     1      -9.678  15.988  69.436  1.00  0.00    -0.256 NA 
HETATM   11  C   UNL     1      -8.453  17.590  68.015  1.00  0.00    -0.242 C  
HETATM   12  H   UNL     1      -8.963  18.896  70.163  1.00  0.00     0.000 HD 
HETATM   13  H1  UNL     1      -8.877  15.894  70.061  1.00  0.00     0.000 HD 
HETATM   14  H2  UNL     1     -10.271  15.160  69.475  1.00  0.00     0.000 HD 
HETATM   15  O   UNL     1      -9.739  18.893  69.615  1.00  0.00     0.068 OA 
BRANCH   7  16
HETATM   16  O   UNL     1     -11.323  15.253  67.162  1.00  0.00    -0.323 OA 
BRANCH  16  17
HETATM   17  C   UNL     1     -10.656  13.983  66.907  1.00  0.00    -0.280 C  
HETATM   18  N   UNL     1     -10.071  14.522  64.553  1.00  0.00    -0.586 NA 
HETATM   19  C   UNL     1     -10.052  12.198  65.221  1.00  0.00    -0.291 C  
HETATM   20  H1  UNL     1     -10.119  14.230  63.577  1.00  0.00     0.000 HD 
HETATM   21  H2  UNL     1      -9.109  14.699  64.844  1.00  0.00     0.000 HD 
HETATM   22  C   UNL     1     -10.680  11.111  66.094  1.00  0.00    -0.225 C  
HETATM   23  C   UNL     1     -10.731  13.542  65.430  1.00  0.00    -0.304 C  
HETATM   24  N   UNL     1     -10.021   9.852  65.704  1.00  0.00    -0.295 NA 
HETATM   25  C   UNL     1     -10.544  11.444  67.613  1.00  0.00    -0.202 C  
HETATM   26  H   UNL     1     -10.843  12.608  69.841  1.00  0.00     0.000 HD 
HETATM   27  H1  UNL     1     -10.441   9.127  66.286  1.00  0.00     0.000 HD 
HETATM   28  C   UNL     1     -11.071  12.879  67.919  1.00  0.00    -0.252 C  
HETATM   29  H2  UNL     1      -9.003   9.888  65.766  1.00  0.00     0.000 HD 
HETATM   30  O   UNL     1     -10.589  13.283  69.223  1.00  0.00    -0.054 OA 
BRANCH  25  31
HETATM   31  O   UNL     1     -11.307  10.534  68.467  1.00  0.00    -0.272 OA 
BRANCH  31  32
HETATM   32  C   UNL     1     -10.622  10.076  69.639  1.00  0.00    -0.252 C  
HETATM   33  O   UNL     1     -11.342  10.363  70.845  1.00  0.00    -0.335 OA 
HETATM   34  C   UNL     1     -12.556   9.604  70.967  1.00  0.00    -0.283 C  
HETATM   35  C   UNL     1     -12.249   8.099  70.993  1.00  0.00    -0.177 C  
HETATM   36  H   UNL     1      -9.372   7.369  68.232  1.00  0.00     0.000 HD 
HETATM   37  C   UNL     1     -11.513   7.687  69.704  1.00  0.00     0.243 C  
HETATM   38  H1  UNL     1     -10.694   5.969  68.880  1.00  0.00     0.000 HD 
HETATM   39  O   UNL     1     -13.430   7.308  71.160  1.00  0.00    -0.560 OA 
HETATM   40  H   UNL     1     -13.240   6.378  71.176  1.00  0.00     0.000 HD 
HETATM   41  H2  UNL     1     -12.006   5.666  69.900  1.00  0.00     0.000 HD 
HETATM   42  C   UNL     1     -10.266   8.570  69.531  1.00  0.00    -0.206 C  
HETATM   43  N   UNL     1     -11.181   6.242  69.734  1.00  0.00    -0.403 NA 
HETATM   44  O   UNL     1      -9.589   8.291  68.299  1.00  0.00    -0.144 OA 
BRANCH  34  45
HETATM   45  C   UNL     1     -13.259  10.023  72.266  1.00  0.00    -0.305 C  
HETATM   46  O   UNL     1     -13.313   8.934  73.187  1.00  0.00    -0.926 OA 
HETATM   47  H   UNL     1     -13.747   9.194  73.991  1.00  0.00     0.000 HD 
ENDBRANCH  34  45
ENDBRANCH  31  32
ENDBRANCH  25  31
ENDBRANCH  16  17
ENDBRANCH   7  16
ENDBRANCH   2   5
TORSDOF 6
ENDMDL
MODEL       55
REMARK 921   NORMALIZED FREE ENERGY PREDICTED BY IDOCK:   -6.71 KCAL/MOL
REMARK 922        TOTAL FREE ENERGY PREDICTED BY IDOCK:  -10.12 KCAL/MOL
REMARK 923 INTER-LIGAND FREE ENERGY PREDICTED BY IDOCK:   -8.31 KCAL/MOL
REMARK 924 INTRA-LIGAND FREE ENERGY PREDICTED BY IDOCK:   -1.81 KCAL/MOL
REMARK 927      BINDING AFFINITY PREDICTED BY RF-SCORE:    0.00 PKD
ROOT
HETATM    1  N   UNL     1      -7.298  10.219  70.388  1.00  0.00    -0.426 NA 
HETATM    2  C   UNL     1      -7.398   9.047  69.506  1.00  0.00    -0.071 C  
HETATM    3  H2  UNL     1      -8.058  10.234  71.068  1.00  0.00     0.000 HD 
HETATM    4  H1  UNL     1      -6.391  10.279  70.849  1.00  0.00     0.000 HD 
ENDROOT
BRANCH   2   5
HETATM    5  C   UNL     1      -8.777   8.955  68.806  1.00  0.00    -0.137 C  
HETATM    6  O   UNL     1      -9.120  10.167  68.114  1.00  0.00    -0.127 OA 
HETATM    7  C   UNL     1      -8.333  10.448  66.968  1.00  0.00    -0.127 C  
HETATM    8  C   UNL     1      -8.505   9.309  65.911  1.00  0.00    -0.132 C  
HETATM    9  C   UNL     1      -8.886   7.730  67.877  1.00  0.00    -0.123 C  
HETATM   10  N   UNL     1      -9.873   9.249  65.353  1.00  0.00    -0.444 NA 
HETATM   11  C   UNL     1      -8.150   7.954  66.551  1.00  0.00    -0.107 C  
HETATM   12  H   UNL     1     -10.343   6.725  67.057  1.00  0.00     0.000 HD 
HETATM   13  H1  UNL     1      -9.986   8.506  64.663  1.00  0.00     0.000 HD 
HETATM   14  H2  UNL     1     -10.151  10.151  64.967  1.00  0.00     0.000 HD 
HETATM   15  O   UNL     1     -10.276   7.480  67.629  1.00  0.00    -0.182 OA 
BRANCH   7  16
HETATM   16  O   UNL     1      -8.729  11.704  66.391  1.00  0.00    -0.192 OA 
BRANCH  16  17
HETATM   17  C   UNL     1      -9.403  12.648  67.273  1.00  0.00    -0.195 C  
HETATM   18  N   UNL     1     -11.633  11.572  67.069  1.00  0.00    -0.535 NA 
HETATM   19  C   UNL     1     -11.546  13.855  67.859  1.00  0.00    -0.377 C  
HETATM   20  H1  UNL     1     -12.620  11.697  66.845  1.00  0.00     0.000 HD 
HETATM   21  H2  UNL     1     -11.507  11.159  67.993  1.00  0.00     0.000 HD 
HETATM   22  C   UNL     1     -10.845  15.211  67.781  1.00  0.00    -0.292 C  
HETATM   23  C   UNL     1     -10.896  12.838  66.935  1.00  0.00    -0.253 C  
HETATM   24  N   UNL     1     -11.642  16.125  68.618  1.00  0.00    -0.348 NA 
HETATM   25  C   UNL     1      -9.349  15.111  68.216  1.00  0.00    -0.193 C  
HETATM   26  H   UNL     1      -6.896  14.483  68.216  1.00  0.00     0.000 HD 
HETATM   27  H1  UNL     1     -11.174  17.030  68.566  1.00  0.00     0.000 HD 
HETATM   28  C   UNL     1      -8.615  13.979  67.435  1.00  0.00    -0.203 C  
HETATM   29  H2  UNL     1     -11.779  15.790  69.573  1.00  0.00     0.000 HD 
HETATM   30  O   UNL     1      -7.377  13.669  68.117  1.00  0.00    -0.094 OA 
BRANCH  25  31
HETATM   31  O   UNL     1      -8.597  16.340  67.962  1.00  0.00    -0.172 OA 
BRANCH  31  32
HETATM   32  C   UNL     1      -8.473  16.706  66.582  1.00  0.00    -0.259 C  
HETATM   33  O   UNL     1      -9.522  17.582  66.149  1.00  0.00    -0.424 OA 
HETATM   34  C   UNL     1      -9.449  18.886  66.750  1.00  0.00    -0.326 C  
HETATM   35  C   UNL     1      -8.127  19.576  66.377  1.00  0.00    -0.320 C  
HETATM   36  H   UNL     1      -5.178  16.801  66.578  1.00  0.00     0.000 HD 
HETATM   37  C   UNL     1      -6.934  18.723  66.850  1.00  0.00    -0.200 C  
HETATM   38  H1  UNL     1      -4.864  18.798  66.779  1.00  0.00     0.000 HD 
HETATM   39  O   UNL     1      -8.035  20.896  66.918  1.00  0.00    -0.562 OA 
HETATM   40  H   UNL     1      -7.218  21.323  66.688  1.00  0.00     0.000 HD 
HETATM   41  H2  UNL     1      -5.592  20.322  66.803  1.00  0.00     0.000 HD 
HETATM   42  C   UNL     1      -7.073  17.301  66.280  1.00  0.00    -0.276 C  
HETATM   43  N   UNL     1      -5.653  19.363  66.465  1.00  0.00    -0.162 NA 
HETATM   44  O   UNL     1      -6.036  16.437  66.762  1.00  0.00    -0.326 OA 
BRANCH  34  45
HETATM   45  C   UNL     1     -10.639  19.716  66.248  1.00  0.00    -0.482 C  
HETATM   46  O   UNL     1     -10.262  20.516  65.128  1.00  0.00    -0.246 OA 
HETATM   47  H   UNL     1     -10.998  21.030  64.817  1.00  0.00     0.000 HD 
ENDBRANCH  34  45
ENDBRANCH  31  32
ENDBRANCH  25  31
ENDBRANCH  16  17
ENDBRANCH   7  16
ENDBRANCH   2   5
TORSDOF 6
ENDMDL
MODEL       56
REMARK 921   NORMALIZED FREE ENERGY PREDICTED BY IDOCK:   -6.71 KCAL/MOL
REMARK 922        TOTAL FREE ENERGY PREDICTED BY IDOCK:  -10.12 KCAL/MOL
REMARK 923 INTER-LIGAND FREE ENERGY PREDICTED BY IDOCK:   -8.20 KCAL/MOL
REMARK 924 INTRA-LIGAND FREE ENERGY PREDICTED BY IDOCK:   -1.91 KCAL/MOL
REMARK 927      BINDING AFFINITY PREDICTED BY RF-SCORE:    0.00 PKD
ROOT
HETATM    1  N   UNL     1      -7.105   7.563  70.321  1.00  0.00    -0.059 NA 
HETATM    2  C   UNL     1      -7.684   6.445  71.082  1.00  0.00    -0.098 C  
HETATM    3  H2  UNL     1      -6.744   8.284  70.945  1.00  0.00     0.000 HD 
HETATM    4  H1  UNL     1      -6.391   7.253  69.663  1.00  0.00     0.000 HD 
ENDROOT
BRANCH   2   5
HETATM    5  C   UNL     1      -8.769   6.916  72.083  1.00  0.00    -0.127 C  
HETATM    6  O   UNL     1      -9.828   7.642  71.438  1.00  0.00    -0.173 OA 
HETATM    7  C   UNL     1     -10.661   6.867  70.592  1.00  0.00    -0.222 C  
HETATM    8  C   UNL     1     -11.375   5.752  71.423  1.00  0.00    -0.105 C  
HETATM    9  C   UNL     1      -9.323   5.760  72.938  1.00  0.00    -0.144 C  
HETATM   10  N   UNL     1     -12.337   6.298  72.405  1.00  0.00    -0.550 NA 
HETATM   11  C   UNL     1     -10.321   4.899  72.154  1.00  0.00    -0.263 C  
HETATM   12  H   UNL     1     -10.305   5.612  74.618  1.00  0.00     0.000 HD 
HETATM   13  H1  UNL     1     -12.803   5.570  72.948  1.00  0.00     0.000 HD 
HETATM   14  H2  UNL     1     -13.016   6.908  71.951  1.00  0.00     0.000 HD 
HETATM   15  O   UNL     1      -9.963   6.324  74.090  1.00  0.00    -0.221 OA 
BRANCH   7  16
HETATM   16  O   UNL     1     -11.646   7.704  69.963  1.00  0.00    -0.086 OA 
BRANCH  16  17
HETATM   17  C   UNL     1     -11.481   9.144  70.121  1.00  0.00    -0.087 C  
HETATM   18  N   UNL     1     -12.398   9.209  72.430  1.00  0.00    -0.295 NA 
HETATM   19  C   UNL     1     -12.324  11.278  71.183  1.00  0.00    -0.429 C  
HETATM   20  H1  UNL     1     -13.082   9.625  73.062  1.00  0.00     0.000 HD 
HETATM   21  H2  UNL     1     -11.449   9.297  72.793  1.00  0.00     0.000 HD 
HETATM   22  C   UNL     1     -12.437  11.955  69.816  1.00  0.00     0.052 C  
HETATM   23  C   UNL     1     -12.516   9.774  71.077  1.00  0.00    -0.323 C  
HETATM   24  N   UNL     1     -12.359  13.402  70.077  1.00  0.00    -0.269 NA 
HETATM   25  C   UNL     1     -11.345  11.438  68.827  1.00  0.00    -0.271 C  
HETATM   26  H   UNL     1     -10.025   9.891  67.318  1.00  0.00     0.000 HD 
HETATM   27  H1  UNL     1     -12.435  13.853  69.165  1.00  0.00     0.000 HD 
HETATM   28  C   UNL     1     -11.346   9.880  68.759  1.00  0.00     0.007 C  
HETATM   29  H2  UNL     1     -11.529  13.679  70.602  1.00  0.00     0.000 HD 
HETATM   30  O   UNL     1     -10.109   9.441  68.151  1.00  0.00    -0.166 OA 
BRANCH  25  31
HETATM   31  O   UNL     1     -11.547  11.909  67.458  1.00  0.00    -0.387 OA 
BRANCH  31  32
HETATM   32  C   UNL     1     -10.460  12.663  66.904  1.00  0.00    -0.233 C  
HETATM   33  O   UNL     1      -9.757  11.946  65.882  1.00  0.00    -0.231 OA 
HETATM   34  C   UNL     1     -10.541  11.749  64.694  1.00  0.00    -0.308 C  
HETATM   35  C   UNL     1     -10.935  13.102  64.080  1.00  0.00    -0.346 C  
HETATM   36  H   UNL     1     -11.971  15.586  67.112  1.00  0.00     0.000 HD 
HETATM   37  C   UNL     1     -11.744  13.928  65.099  1.00  0.00    -0.350 C  
HETATM   38  H1  UNL     1     -12.635  15.798  65.203  1.00  0.00     0.000 HD 
HETATM   39  O   UNL     1     -11.679  12.950  62.868  1.00  0.00    -0.776 OA 
HETATM   40  H   UNL     1     -11.923  13.786  62.489  1.00  0.00     0.000 HD 
HETATM   41  H2  UNL     1     -12.590  15.160  63.639  1.00  0.00     0.000 HD 
HETATM   42  C   UNL     1     -10.937  14.052  66.402  1.00  0.00    -0.308 C  
HETATM   43  N   UNL     1     -12.100  15.250  64.529  1.00  0.00    -0.326 NA 
HETATM   44  O   UNL     1     -11.680  14.736  67.419  1.00  0.00    -0.373 OA 
BRANCH  34  45
HETATM   45  C   UNL     1      -9.706  10.938  63.693  1.00  0.00    -0.329 C  
HETATM   46  O   UNL     1      -9.493   9.610  64.170  1.00  0.00    -0.409 OA 
HETATM   47  H   UNL     1      -8.977   9.108  63.551  1.00  0.00     0.000 HD 
ENDBRANCH  34  45
ENDBRANCH  31  32
ENDBRANCH  25  31
ENDBRANCH  16  17
ENDBRANCH   7  16
ENDBRANCH   2   5
TORSDOF 6
ENDMDL
MODEL       57
REMARK 921   NORMALIZED FREE ENERGY PREDICTED BY IDOCK:   -6.67 KCAL/MOL
REMARK 922        TOTAL FREE ENERGY PREDICTED BY IDOCK:  -10.07 KCAL/MOL
REMARK 923 INTER-LIGAND FREE ENERGY PREDICTED BY IDOCK:   -8.95 KCAL/MOL
REMARK 924 INTRA-LIGAND FREE ENERGY PREDICTED BY IDOCK:   -1.12 KCAL/MOL
REMARK 927      BINDING AFFINITY PREDICTED BY RF-SCORE:    0.00 PKD
ROOT
HETATM    1  N   UNL     1      -5.311  17.869  66.947  1.00  0.00    -0.134 NA 
HETATM    2  C   UNL     1      -6.501  17.119  66.519  1.00  0.00    -0.233 C  
HETATM    3  H2  UNL     1      -5.547  18.563  67.656  1.00  0.00     0.000 HD 
HETATM    4  H1  UNL     1      -4.562  17.256  67.267  1.00  0.00     0.000 HD 
ENDROOT
BRANCH   2   5
HETATM    5  C   UNL     1      -7.638  18.052  66.032  1.00  0.00    -0.205 C  
HETATM    6  O   UNL     1      -8.878  17.351  65.847  1.00  0.00    -0.526 OA 
HETATM    7  C   UNL     1      -9.494  16.893  67.041  1.00  0.00    -0.244 C  
HETATM    8  C   UNL     1      -9.842  18.109  67.960  1.00  0.00    -0.325 C  
HETATM    9  C   UNL     1      -7.821  19.284  66.941  1.00  0.00    -0.257 C  
HETATM   10  N   UNL     1     -10.883  18.985  67.380  1.00  0.00    -0.466 NA 
HETATM   11  C   UNL     1      -8.569  18.931  68.232  1.00  0.00    -0.364 C  
HETATM   12  H   UNL     1      -8.664  21.035  66.768  1.00  0.00     0.000 HD 
HETATM   13  H1  UNL     1     -11.110  19.779  67.980  1.00  0.00     0.000 HD 
HETATM   14  H2  UNL     1     -11.720  18.453  67.145  1.00  0.00     0.000 HD 
HETATM   15  O   UNL     1      -8.551  20.275  66.208  1.00  0.00    -0.238 OA 
BRANCH   7  16
HETATM   16  O   UNL     1     -10.694  16.164  66.732  1.00  0.00    -0.310 OA 
BRANCH  16  17
HETATM   17  C   UNL     1     -10.544  14.975  65.901  1.00  0.00    -0.329 C  
HETATM   18  N   UNL     1     -11.852  15.885  63.994  1.00  0.00    -1.155 NA 
HETATM   19  C   UNL     1     -11.538  13.491  64.112  1.00  0.00    -0.415 C  
HETATM   20  H1  UNL     1     -12.632  15.741  63.353  1.00  0.00     0.000 HD 
HETATM   21  H2  UNL     1     -10.981  16.058  63.493  1.00  0.00     0.000 HD 
HETATM   22  C   UNL     1     -11.401  12.260  65.009  1.00  0.00    -0.328 C  
HETATM   23  C   UNL     1     -11.724  14.758  64.931  1.00  0.00    -0.390 C  
HETATM   24  N   UNL     1     -11.355  11.103  64.098  1.00  0.00    -0.274 NA 
HETATM   25  C   UNL     1     -10.157  12.367  65.947  1.00  0.00    -0.253 C  
HETATM   26  H   UNL     1      -8.609  13.171  67.781  1.00  0.00     0.000 HD 
HETATM   27  H1  UNL     1     -11.264  10.281  64.696  1.00  0.00     0.000 HD 
HETATM   28  C   UNL     1     -10.163  13.716  66.728  1.00  0.00    -0.268 C  
HETATM   29  H2  UNL     1     -10.627  11.172  63.386  1.00  0.00     0.000 HD 
HETATM   30  O   UNL     1      -8.842  13.941  67.276  1.00  0.00    -0.200 OA 
BRANCH  25  31
HETATM   31  O   UNL     1     -10.110  11.308  66.954  1.00  0.00    -0.203 OA 
BRANCH  31  32
HETATM   32  C   UNL     1      -9.023  10.383  66.818  1.00  0.00    -0.140 C  
HETATM   33  O   UNL     1      -7.863  10.784  67.558  1.00  0.00    -0.107 OA 
HETATM   34  C   UNL     1      -8.055  10.719  68.981  1.00  0.00    -0.140 C  
HETATM   35  C   UNL     1      -8.370   9.279  69.416  1.00  0.00    -0.127 C  
HETATM   36  H   UNL     1     -10.919   7.689  66.694  1.00  0.00     0.000 HD 
HETATM   37  C   UNL     1      -9.639   8.777  68.702  1.00  0.00    -0.154 C  
HETATM   38  H1  UNL     1     -10.774   7.043  68.615  1.00  0.00     0.000 HD 
HETATM   39  O   UNL     1      -8.523   9.163  70.833  1.00  0.00    -0.192 OA 
HETATM   40  H   UNL     1      -8.718   8.273  71.102  1.00  0.00     0.000 HD 
HETATM   41  H2  UNL     1      -9.998   7.267  70.099  1.00  0.00     0.000 HD 
HETATM   42  C   UNL     1      -9.462   8.940  67.183  1.00  0.00    -0.157 C  
HETATM   43  N   UNL     1      -9.933   7.376  69.088  1.00  0.00    -0.169 NA 
HETATM   44  O   UNL     1     -10.650   8.572  66.471  1.00  0.00    -0.200 OA 
BRANCH  34  45
HETATM   45  C   UNL     1      -6.771  11.209  69.665  1.00  0.00    -0.134 C  
HETATM   46  O   UNL     1      -6.694  12.634  69.635  1.00  0.00    -0.312 OA 
HETATM   47  H   UNL     1      -5.899  12.938  70.058  1.00  0.00     0.000 HD 
ENDBRANCH  34  45
ENDBRANCH  31  32
ENDBRANCH  25  31
ENDBRANCH  16  17
ENDBRANCH   7  16
ENDBRANCH   2   5
TORSDOF 6
ENDMDL
MODEL       58
REMARK 921   NORMALIZED FREE ENERGY PREDICTED BY IDOCK:   -6.66 KCAL/MOL
REMARK 922        TOTAL FREE ENERGY PREDICTED BY IDOCK:  -10.04 KCAL/MOL
REMARK 923 INTER-LIGAND FREE ENERGY PREDICTED BY IDOCK:   -9.22 KCAL/MOL
REMARK 924 INTRA-LIGAND FREE ENERGY PREDICTED BY IDOCK:   -0.82 KCAL/MOL
REMARK 927      BINDING AFFINITY PREDICTED BY RF-SCORE:    0.00 PKD
ROOT
HETATM    1  N   UNL     1      -6.715  17.390  69.183  1.00  0.00    -0.242 NA 
HETATM    2  C   UNL     1      -7.626  16.666  68.284  1.00  0.00    -0.181 C  
HETATM    3  H2  UNL     1      -7.035  18.346  69.339  1.00  0.00     0.000 HD 
HETATM    4  H1  UNL     1      -6.574  16.900  70.066  1.00  0.00     0.000 HD 
ENDROOT
BRANCH   2   5
HETATM    5  C   UNL     1      -7.840  17.411  66.942  1.00  0.00    -0.226 C  
HETATM    6  O   UNL     1      -8.813  16.763  66.108  1.00  0.00    -0.361 OA 
HETATM    7  C   UNL     1     -10.149  16.821  66.583  1.00  0.00    -0.300 C  
HETATM    8  C   UNL     1     -10.615  18.310  66.678  1.00  0.00    -0.298 C  
HETATM    9  C   UNL     1      -8.178  18.902  67.143  1.00  0.00    -0.269 C  
HETATM   10  N   UNL     1     -10.719  18.963  65.355  1.00  0.00    -0.497 NA 
HETATM   11  C   UNL     1      -9.638  19.101  67.568  1.00  0.00    -0.373 C  
HETATM   12  H   UNL     1      -8.138  20.505  66.032  1.00  0.00     0.000 HD 
HETATM   13  H1  UNL     1     -11.024  19.935  65.417  1.00  0.00     0.000 HD 
HETATM   14  H2  UNL     1     -11.323  18.429  64.730  1.00  0.00     0.000 HD 
HETATM   15  O   UNL     1      -7.930  19.586  65.908  1.00  0.00    -0.373 OA 
BRANCH   7  16
HETATM   16  O   UNL     1     -11.022  16.098  65.700  1.00  0.00    -0.253 OA 
BRANCH  16  17
HETATM   17  C   UNL     1     -11.628  14.881  66.226  1.00  0.00    -0.233 C  
HETATM   18  N   UNL     1     -12.049  15.819  68.489  1.00  0.00    -0.472 NA 
HETATM   19  C   UNL     1     -12.045  13.413  68.242  1.00  0.00    -0.271 C  
HETATM   20  H1  UNL     1     -11.917  15.706  69.494  1.00  0.00     0.000 HD 
HETATM   21  H2  UNL     1     -13.035  15.925  68.249  1.00  0.00     0.000 HD 
HETATM   22  C   UNL     1     -11.451  12.200  67.526  1.00  0.00    -0.340 C  
HETATM   23  C   UNL     1     -11.427  14.711  67.747  1.00  0.00    -0.340 C  
HETATM   24  N   UNL     1     -12.038  11.019  68.181  1.00  0.00    -0.780 NA 
HETATM   25  C   UNL     1     -11.712  12.256  65.988  1.00  0.00    -0.388 C  
HETATM   26  H   UNL     1     -11.621  13.012  63.573  1.00  0.00     0.000 HD 
HETATM   27  H1  UNL     1     -11.641  10.210  67.704  1.00  0.00     0.000 HD 
HETATM   28  C   UNL     1     -11.256  13.623  65.393  1.00  0.00    -0.298 C  
HETATM   29  H2  UNL     1     -13.058  11.025  68.196  1.00  0.00     0.000 HD 
HETATM   30  O   UNL     1     -11.848  13.781  64.082  1.00  0.00    -0.414 OA 
BRANCH  25  31
HETATM   31  O   UNL     1     -10.988  11.223  65.248  1.00  0.00    -0.234 OA 
BRANCH  31  32
HETATM   32  C   UNL     1      -9.559  11.313  65.314  1.00  0.00    -0.232 C  
HETATM   33  O   UNL     1      -9.002  10.487  66.345  1.00  0.00    -0.153 OA 
HETATM   34  C   UNL     1      -9.141   9.082  66.075  1.00  0.00    -0.208 C  
HETATM   35  C   UNL     1      -8.406   8.709  64.778  1.00  0.00    -0.157 C  
HETATM   36  H   UNL     1      -9.115  11.636  62.063  1.00  0.00     0.000 HD 
HETATM   37  C   UNL     1      -8.975   9.519  63.597  1.00  0.00    -0.173 C  
HETATM   38  H1  UNL     1      -8.627   9.728  61.563  1.00  0.00     0.000 HD 
HETATM   39  O   UNL     1      -8.482   7.309  64.496  1.00  0.00    -0.353 OA 
HETATM   40  H   UNL     1      -8.028   7.078  63.694  1.00  0.00     0.000 HD 
HETATM   41  H2  UNL     1      -8.254   8.191  62.155  1.00  0.00     0.000 HD 
HETATM   42  C   UNL     1      -8.912  11.018  63.935  1.00  0.00    -0.051 C  
HETATM   43  N   UNL     1      -8.250   9.192  62.345  1.00  0.00    -0.148 NA 
HETATM   44  O   UNL     1      -9.512  11.817  62.908  1.00  0.00    -0.364 OA 
BRANCH  34  45
HETATM   45  C   UNL     1      -8.553   8.302  67.259  1.00  0.00    -0.124 C  
HETATM   46  O   UNL     1      -9.019   6.953  67.258  1.00  0.00    -0.117 OA 
HETATM   47  H   UNL     1      -8.654   6.470  67.991  1.00  0.00     0.000 HD 
ENDBRANCH  34  45
ENDBRANCH  31  32
ENDBRANCH  25  31
ENDBRANCH  16  17
ENDBRANCH   7  16
ENDBRANCH   2   5
TORSDOF 6
ENDMDL
MODEL       59
REMARK 921   NORMALIZED FREE ENERGY PREDICTED BY IDOCK:   -6.64 KCAL/MOL
REMARK 922        TOTAL FREE ENERGY PREDICTED BY IDOCK:  -10.02 KCAL/MOL
REMARK 923 INTER-LIGAND FREE ENERGY PREDICTED BY IDOCK:   -8.55 KCAL/MOL
REMARK 924 INTRA-LIGAND FREE ENERGY PREDICTED BY IDOCK:   -1.47 KCAL/MOL
REMARK 927      BINDING AFFINITY PREDICTED BY RF-SCORE:    0.00 PKD
ROOT
HETATM    1  N   UNL     1     -13.280   7.694  71.001  1.00  0.00    -0.577 NA 
HETATM    2  C   UNL     1     -12.239   6.776  71.485  1.00  0.00    -0.366 C  
HETATM    3  H2  UNL     1     -13.851   7.256  70.279  1.00  0.00     0.000 HD 
HETATM    4  H1  UNL     1     -13.859   8.055  71.759  1.00  0.00     0.000 HD 
ENDROOT
BRANCH   2   5
HETATM    5  C   UNL     1     -11.360   6.227  70.333  1.00  0.00    -0.372 C  
HETATM    6  O   UNL     1     -10.661   7.270  69.635  1.00  0.00    -0.231 OA 
HETATM    7  C   UNL     1      -9.637   7.911  70.379  1.00  0.00    -0.171 C  
HETATM    8  C   UNL     1      -8.537   6.873  70.773  1.00  0.00    -0.144 C  
HETATM    9  C   UNL     1     -10.392   5.123  70.804  1.00  0.00    -0.224 C  
HETATM   10  N   UNL     1      -7.801   6.347  69.603  1.00  0.00    -0.106 NA 
HETATM   11  C   UNL     1      -9.182   5.705  71.543  1.00  0.00    -0.158 C  
HETATM   12  H   UNL     1      -9.360   3.710  69.941  1.00  0.00     0.000 HD 
HETATM   13  H1  UNL     1      -7.082   5.669  69.861  1.00  0.00     0.000 HD 
HETATM   14  H2  UNL     1      -7.405   7.106  69.049  1.00  0.00     0.000 HD 
HETATM   15  O   UNL     1      -9.956   4.391  69.651  1.00  0.00    -0.222 OA 
BRANCH   7  16
HETATM   16  O   UNL     1      -9.046   8.967  69.602  1.00  0.00    -0.144 OA 
BRANCH  16  17
HETATM   17  C   UNL     1      -9.768   9.385  68.407  1.00  0.00    -0.149 C  
HETATM   18  N   UNL     1      -9.068   7.429  67.043  1.00  0.00    -0.131 NA 
HETATM   19  C   UNL     1      -9.880   9.388  65.881  1.00  0.00    -0.362 C  
HETATM   20  H1  UNL     1      -8.635   7.108  66.177  1.00  0.00     0.000 HD 
HETATM   21  H2  UNL     1      -9.994   7.021  67.174  1.00  0.00     0.000 HD 
HETATM   22  C   UNL     1      -9.971  10.914  65.852  1.00  0.00    -0.243 C  
HETATM   23  C   UNL     1      -9.112   8.899  67.098  1.00  0.00    -0.138 C  
HETATM   24  N   UNL     1     -10.621  11.254  64.574  1.00  0.00    -0.331 NA 
HETATM   25  C   UNL     1     -10.723  11.470  67.102  1.00  0.00    -0.254 C  
HETATM   26  H   UNL     1     -11.255  12.052  69.508  1.00  0.00     0.000 HD 
HETATM   27  H1  UNL     1     -10.681  12.272  64.555  1.00  0.00     0.000 HD 
HETATM   28  C   UNL     1     -10.110  10.901  68.419  1.00  0.00    -0.183 C  
HETATM   29  H2  UNL     1     -11.519  10.789  64.436  1.00  0.00     0.000 HD 
HETATM   30  O   UNL     1     -11.045  11.126  69.501  1.00  0.00    -0.243 OA 
BRANCH  25  31
HETATM   31  O   UNL     1     -10.651  12.926  67.211  1.00  0.00    -0.232 OA 
BRANCH  31  32
HETATM   32  C   UNL     1      -9.645  13.551  66.404  1.00  0.00    -0.259 C  
HETATM   33  O   UNL     1     -10.195  14.252  65.282  1.00  0.00    -0.353 OA 
HETATM   34  C   UNL     1     -10.951  15.414  65.663  1.00  0.00    -0.326 C  
HETATM   35  C   UNL     1     -10.055  16.419  66.404  1.00  0.00    -0.316 C  
HETATM   36  H   UNL     1      -7.663  14.327  68.922  1.00  0.00     0.000 HD 
HETATM   37  C   UNL     1      -9.453  15.762  67.661  1.00  0.00    -0.218 C  
HETATM   38  H1  UNL     1      -8.160  16.277  69.199  1.00  0.00     0.000 HD 
HETATM   39  O   UNL     1     -10.759  17.612  66.761  1.00  0.00    -0.262 OA 
HETATM   40  H   UNL     1     -10.206  18.232  67.220  1.00  0.00     0.000 HD 
HETATM   41  H2  UNL     1      -9.033  17.587  68.586  1.00  0.00     0.000 HD 
HETATM   42  C   UNL     1      -8.728  14.467  67.256  1.00  0.00    -0.215 C  
HETATM   43  N   UNL     1      -8.558  16.712  68.366  1.00  0.00    -0.212 NA 
HETATM   44  O   UNL     1      -8.224  13.765  68.400  1.00  0.00    -0.148 OA 
BRANCH  34  45
HETATM   45  C   UNL     1     -11.524  16.056  64.391  1.00  0.00    -0.242 C  
HETATM   46  O   UNL     1     -12.486  15.196  63.780  1.00  0.00    -1.020 OA 
HETATM   47  H   UNL     1     -12.841  15.593  62.994  1.00  0.00     0.000 HD 
ENDBRANCH  34  45
ENDBRANCH  31  32
ENDBRANCH  25  31
ENDBRANCH  16  17
ENDBRANCH   7  16
ENDBRANCH   2   5
TORSDOF 6
ENDMDL
MODEL       60
REMARK 921   NORMALIZED FREE ENERGY PREDICTED BY IDOCK:   -6.62 KCAL/MOL
REMARK 922        TOTAL FREE ENERGY PREDICTED BY IDOCK:   -9.99 KCAL/MOL
REMARK 923 INTER-LIGAND FREE ENERGY PREDICTED BY IDOCK:   -8.86 KCAL/MOL
REMARK 924 INTRA-LIGAND FREE ENERGY PREDICTED BY IDOCK:   -1.13 KCAL/MOL
REMARK 927      BINDING AFFINITY PREDICTED BY RF-SCORE:    0.00 PKD
ROOT
HETATM    1  N   UNL     1      -6.500  11.532  70.465  1.00  0.00    -0.512 NA 
HETATM    2  C   UNL     1      -6.807  10.153  70.058  1.00  0.00    -0.137 C  
HETATM    3  H2  UNL     1      -6.208  11.572  71.441  1.00  0.00     0.000 HD 
HETATM    4  H1  UNL     1      -5.808  11.969  69.856  1.00  0.00     0.000 HD 
ENDROOT
BRANCH   2   5
HETATM    5  C   UNL     1      -7.858   9.489  70.984  1.00  0.00     0.146 C  
HETATM    6  O   UNL     1      -9.157   9.420  70.373  1.00  0.00    -0.223 OA 
HETATM    7  C   UNL     1      -9.260   8.522  69.279  1.00  0.00    -0.153 C  
HETATM    8  C   UNL     1      -8.951   7.065  69.755  1.00  0.00    -0.141 C  
HETATM    9  C   UNL     1      -7.405   8.108  71.495  1.00  0.00    -0.080 C  
HETATM   10  N   UNL     1      -9.967   6.543  70.694  1.00  0.00    -0.184 NA 
HETATM   11  C   UNL     1      -7.563   7.024  70.422  1.00  0.00    -0.090 C  
HETATM   12  H   UNL     1      -7.915   6.925  72.961  1.00  0.00     0.000 HD 
HETATM   13  H1  UNL     1      -9.765   5.592  71.005  1.00  0.00     0.000 HD 
HETATM   14  H2  UNL     1     -10.902   6.606  70.293  1.00  0.00     0.000 HD 
HETATM   15  O   UNL     1      -8.194   7.777  72.645  1.00  0.00    -0.111 OA 
BRANCH   7  16
HETATM   16  O   UNL     1     -10.582   8.575  68.717  1.00  0.00    -0.208 OA 
BRANCH  16  17
HETATM   17  C   UNL     1     -10.735   9.308  67.467  1.00  0.00    -0.203 C  
HETATM   18  N   UNL     1      -9.718   7.531  66.056  1.00  0.00    -0.425 NA 
HETATM   19  C   UNL     1      -9.838   9.769  65.148  1.00  0.00    -0.294 C  
HETATM   20  H1  UNL     1      -9.006   7.299  65.364  1.00  0.00     0.000 HD 
HETATM   21  H2  UNL     1     -10.650   7.264  65.741  1.00  0.00     0.000 HD 
HETATM   22  C   UNL     1      -9.782  11.270  65.430  1.00  0.00    -0.231 C  
HETATM   23  C   UNL     1      -9.657   8.956  66.420  1.00  0.00    -0.238 C  
HETATM   24  N   UNL     1      -9.842  11.929  64.114  1.00  0.00    -0.438 NA 
HETATM   25  C   UNL     1     -10.918  11.715  66.405  1.00  0.00    -0.295 C  
HETATM   26  H   UNL     1     -12.308  11.949  68.508  1.00  0.00     0.000 HD 
HETATM   27  H1  UNL     1      -9.805  12.931  64.303  1.00  0.00     0.000 HD 
HETATM   28  C   UNL     1     -10.927  10.834  67.691  1.00  0.00    -0.306 C  
HETATM   29  H2  UNL     1     -10.648  11.649  63.554  1.00  0.00     0.000 HD 
HETATM   30  O   UNL     1     -12.191  11.016  68.371  1.00  0.00    -0.586 OA 
BRANCH  25  31
HETATM   31  O   UNL     1     -10.774  13.099  66.855  1.00  0.00    -0.261 OA 
BRANCH  31  32
HETATM   32  C   UNL     1      -9.621  13.788  66.355  1.00  0.00    -0.272 C  
HETATM   33  O   UNL     1      -9.959  14.814  65.412  1.00  0.00    -0.357 OA 
HETATM   34  C   UNL     1     -10.657  15.918  66.011  1.00  0.00    -0.323 C  
HETATM   35  C   UNL     1      -9.783  16.587  67.084  1.00  0.00    -0.245 C  
HETATM   36  H   UNL     1      -7.927  13.656  69.180  1.00  0.00     0.000 HD 
HETATM   37  C   UNL     1      -9.409  15.564  68.174  1.00  0.00    -0.197 C  
HETATM   38  H1  UNL     1      -8.289  15.513  69.918  1.00  0.00     0.000 HD 
HETATM   39  O   UNL     1     -10.425  17.722  67.673  1.00  0.00    -0.363 OA 
HETATM   40  H   UNL     1      -9.885  18.136  68.337  1.00  0.00     0.000 HD 
HETATM   41  H2  UNL     1      -8.960  17.029  69.593  1.00  0.00     0.000 HD 
HETATM   42  C   UNL     1      -8.750  14.342  67.513  1.00  0.00    -0.199 C  
HETATM   43  N   UNL     1      -8.537  16.191  69.197  1.00  0.00    -0.249 NA 
HETATM   44  O   UNL     1      -8.461  13.316  68.471  1.00  0.00    -0.148 OA 
BRANCH  34  45
HETATM   45  C   UNL     1     -11.002  16.927  64.906  1.00  0.00    -0.001 C  
HETATM   46  O   UNL     1     -11.654  16.278  63.814  1.00  0.00    -1.539 OA 
HETATM   47  H   UNL     1     -11.868  16.902  63.131  1.00  0.00     0.000 HD 
ENDBRANCH  34  45
ENDBRANCH  31  32
ENDBRANCH  25  31
ENDBRANCH  16  17
ENDBRANCH   7  16
ENDBRANCH   2   5
TORSDOF 6
ENDMDL
MODEL       61
REMARK 921   NORMALIZED FREE ENERGY PREDICTED BY IDOCK:   -6.59 KCAL/MOL
REMARK 922        TOTAL FREE ENERGY PREDICTED BY IDOCK:   -9.95 KCAL/MOL
REMARK 923 INTER-LIGAND FREE ENERGY PREDICTED BY IDOCK:   -8.40 KCAL/MOL
REMARK 924 INTRA-LIGAND FREE ENERGY PREDICTED BY IDOCK:   -1.55 KCAL/MOL
REMARK 927      BINDING AFFINITY PREDICTED BY RF-SCORE:    0.00 PKD
ROOT
HETATM    1  N   UNL     1     -11.856  11.324  62.855  1.00  0.00    -0.650 NA 
HETATM    2  C   UNL     1     -11.205  11.915  64.034  1.00  0.00    -0.396 C  
HETATM    3  H2  UNL     1     -12.453  12.004  62.385  1.00  0.00     0.000 HD 
HETATM    4  H1  UNL     1     -11.183  10.915  62.208  1.00  0.00     0.000 HD 
ENDROOT
BRANCH   2   5
HETATM    5  C   UNL     1     -12.228  12.537  65.018  1.00  0.00    -0.456 C  
HETATM    6  O   UNL     1     -11.921  12.235  66.389  1.00  0.00    -0.589 OA 
HETATM    7  C   UNL     1     -10.752  12.859  66.895  1.00  0.00    -0.257 C  
HETATM    8  C   UNL     1     -10.913  14.414  66.844  1.00  0.00    -0.308 C  
HETATM    9  C   UNL     1     -12.403  14.054  64.805  1.00  0.00    -0.413 C  
HETATM   10  N   UNL     1     -11.963  14.910  67.759  1.00  0.00    -0.517 NA 
HETATM   11  C   UNL     1     -11.237  14.850  65.403  1.00  0.00    -0.359 C  
HETATM   12  H   UNL     1     -13.743  15.387  65.289  1.00  0.00     0.000 HD 
HETATM   13  H1  UNL     1     -12.068  15.925  67.726  1.00  0.00     0.000 HD 
HETATM   14  H2  UNL     1     -11.797  14.591  68.713  1.00  0.00     0.000 HD 
HETATM   15  O   UNL     1     -13.634  14.452  65.420  1.00  0.00    -0.428 OA 
BRANCH   7  16
HETATM   16  O   UNL     1     -10.516  12.444  68.252  1.00  0.00    -0.212 OA 
BRANCH  16  17
HETATM   17  C   UNL     1      -9.293  11.692  68.504  1.00  0.00    -0.167 C  
HETATM   18  N   UNL     1      -7.963  13.675  69.191  1.00  0.00    -0.329 NA 
HETATM   19  C   UNL     1      -6.765  11.684  68.523  1.00  0.00    -0.069 C  
HETATM   20  H1  UNL     1      -7.115  14.223  69.044  1.00  0.00     0.000 HD 
HETATM   21  H2  UNL     1      -8.061  13.390  70.165  1.00  0.00     0.000 HD 
HETATM   22  C   UNL     1      -6.727  10.458  67.610  1.00  0.00    -0.074 C  
HETATM   23  C   UNL     1      -8.011  12.520  68.280  1.00  0.00    -0.153 C  
HETATM   24  N   UNL     1      -5.425   9.814  67.856  1.00  0.00    -0.040 NA 
HETATM   25  C   UNL     1      -7.947   9.517  67.861  1.00  0.00    -0.098 C  
HETATM   26  H   UNL     1     -10.329   8.665  67.956  1.00  0.00     0.000 HD 
HETATM   27  H1  UNL     1      -5.400   8.997  67.247  1.00  0.00     0.000 HD 
HETATM   28  C   UNL     1      -9.287  10.310  67.792  1.00  0.00    -0.144 C  
HETATM   29  H2  UNL     1      -5.256   9.597  68.839  1.00  0.00     0.000 HD 
HETATM   30  O   UNL     1     -10.333   9.510  68.391  1.00  0.00    -0.190 OA 
BRANCH  25  31
HETATM   31  O   UNL     1      -8.053   8.444  66.872  1.00  0.00    -0.098 OA 
BRANCH  31  32
HETATM   32  C   UNL     1      -7.748   7.131  67.360  1.00  0.00    -0.110 C  
HETATM   33  O   UNL     1      -8.736   6.641  68.275  1.00  0.00    -0.119 OA 
HETATM   34  C   UNL     1     -10.001   6.374  67.645  1.00  0.00    -0.126 C  
HETATM   35  C   UNL     1      -9.844   5.298  66.559  1.00  0.00    -0.185 C  
HETATM   36  H   UNL     1      -6.408   6.056  64.546  1.00  0.00     0.000 HD 
HETATM   37  C   UNL     1      -8.829   5.763  65.497  1.00  0.00    -0.113 C  
HETATM   38  H1  UNL     1      -7.972   5.025  63.759  1.00  0.00     0.000 HD 
HETATM   39  O   UNL     1     -11.091   4.971  65.938  1.00  0.00    -0.750 OA 
HETATM   40  H   UNL     1     -10.994   4.306  65.267  1.00  0.00     0.000 HD 
HETATM   41  H2  UNL     1      -9.530   4.438  64.043  1.00  0.00     0.000 HD 
HETATM   42  C   UNL     1      -7.508   6.139  66.192  1.00  0.00    -0.085 C  
HETATM   43  N   UNL     1      -8.644   4.717  64.463  1.00  0.00    -0.140 NA 
HETATM   44  O   UNL     1      -6.554   6.664  65.261  1.00  0.00    -0.047 OA 
BRANCH  34  45
HETATM   45  C   UNL     1     -10.986   5.899  68.722  1.00  0.00    -0.241 C  
HETATM   46  O   UNL     1     -11.576   7.011  69.395  1.00  0.00    -0.536 OA 
HETATM   47  H   UNL     1     -12.186   6.717  70.061  1.00  0.00     0.000 HD 
ENDBRANCH  34  45
ENDBRANCH  31  32
ENDBRANCH  25  31
ENDBRANCH  16  17
ENDBRANCH   7  16
ENDBRANCH   2   5
TORSDOF 6
ENDMDL
MODEL       62
REMARK 921   NORMALIZED FREE ENERGY PREDICTED BY IDOCK:   -6.58 KCAL/MOL
REMARK 922        TOTAL FREE ENERGY PREDICTED BY IDOCK:   -9.94 KCAL/MOL
REMARK 923 INTER-LIGAND FREE ENERGY PREDICTED BY IDOCK:   -9.63 KCAL/MOL
REMARK 924 INTRA-LIGAND FREE ENERGY PREDICTED BY IDOCK:   -0.31 KCAL/MOL
REMARK 927      BINDING AFFINITY PREDICTED BY RF-SCORE:    0.00 PKD
ROOT
HETATM    1  N   UNL     1     -11.033  16.350  69.236  1.00  0.00    -0.322 NA 
HETATM    2  C   UNL     1     -11.224  16.070  70.667  1.00  0.00    -0.372 C  
HETATM    3  H2  UNL     1     -11.675  17.073  68.913  1.00  0.00     0.000 HD 
HETATM    4  H1  UNL     1     -10.067  16.589  69.015  1.00  0.00     0.000 HD 
ENDROOT
BRANCH   2   5
HETATM    5  C   UNL     1     -12.693  15.706  71.002  1.00  0.00    -0.460 C  
HETATM    6  O   UNL     1     -13.079  14.437  70.453  1.00  0.00    -0.275 OA 
HETATM    7  C   UNL     1     -12.455  13.309  71.046  1.00  0.00    -0.336 C  
HETATM    8  C   UNL     1     -12.827  13.232  72.563  1.00  0.00    -0.029 C  
HETATM    9  C   UNL     1     -12.988  15.777  72.513  1.00  0.00    -0.470 C  
HETATM   10  N   UNL     1     -14.263  12.956  72.786  1.00  0.00    -0.519 NA 
HETATM   11  C   UNL     1     -12.441  14.552  73.256  1.00  0.00    -0.368 C  
HETATM   12  H   UNL     1     -14.590  15.905  73.619  1.00  0.00     0.000 HD 
HETATM   13  H1  UNL     1     -14.505  12.905  73.776  1.00  0.00     0.000 HD 
HETATM   14  H2  UNL     1     -14.553  12.112  72.295  1.00  0.00     0.000 HD 
HETATM   15  O   UNL     1     -14.408  15.862  72.687  1.00  0.00    -0.476 OA 
BRANCH   7  16
HETATM   16  O   UNL     1     -12.875  12.104  70.385  1.00  0.00     0.039 OA 
BRANCH  16  17
HETATM   17  C   UNL     1     -12.075  11.666  69.248  1.00  0.00    -0.259 C  
HETATM   18  N   UNL     1     -11.936   9.297  69.988  1.00  0.00    -0.402 NA 
HETATM   19  C   UNL     1     -10.316  10.076  68.371  1.00  0.00    -0.218 C  
HETATM   20  H1  UNL     1     -11.326   8.509  70.205  1.00  0.00     0.000 HD 
HETATM   21  H2  UNL     1     -12.637   9.050  69.291  1.00  0.00     0.000 HD 
HETATM   22  C   UNL     1      -9.460  11.242  67.874  1.00  0.00    -0.178 C  
HETATM   23  C   UNL     1     -11.153  10.473  69.576  1.00  0.00    -0.268 C  
HETATM   24  N   UNL     1      -8.617  10.692  66.798  1.00  0.00    -0.127 NA 
HETATM   25  C   UNL     1     -10.340  12.450  67.423  1.00  0.00    -0.207 C  
HETATM   26  H   UNL     1     -11.940  14.409  67.519  1.00  0.00     0.000 HD 
HETATM   27  H1  UNL     1      -8.046  11.469  66.468  1.00  0.00     0.000 HD 
HETATM   28  C   UNL     1     -11.357  12.846  68.537  1.00  0.00    -0.289 C  
HETATM   29  H2  UNL     1      -9.148  10.231  66.059  1.00  0.00     0.000 HD 
HETATM   30  O   UNL     1     -12.379  13.688  67.954  1.00  0.00    -0.238 OA 
BRANCH  25  31
HETATM   31  O   UNL     1      -9.556  13.650  67.135  1.00  0.00    -0.226 OA 
BRANCH  31  32
HETATM   32  C   UNL     1      -9.261  13.870  65.750  1.00  0.00     0.300 C  
HETATM   33  O   UNL     1      -9.991  12.991  64.885  1.00  0.00    -0.230 OA 
HETATM   34  C   UNL     1     -11.403  13.260  64.874  1.00  0.00    -0.316 C  
HETATM   35  C   UNL     1     -11.674  14.687  64.370  1.00  0.00    -0.346 C  
HETATM   36  H   UNL     1      -8.897  17.135  66.022  1.00  0.00     0.000 HD 
HETATM   37  C   UNL     1     -10.962  15.711  65.275  1.00  0.00    -0.364 C  
HETATM   38  H1  UNL     1     -10.718  17.767  65.378  1.00  0.00     0.000 HD 
HETATM   39  O   UNL     1     -13.073  14.980  64.300  1.00  0.00    -0.302 OA 
HETATM   40  H   UNL     1     -13.240  15.861  63.989  1.00  0.00     0.000 HD 
HETATM   41  H2  UNL     1     -12.182  17.298  64.678  1.00  0.00     0.000 HD 
HETATM   42  C   UNL     1      -9.468  15.357  65.359  1.00  0.00     0.002 C  
HETATM   43  N   UNL     1     -11.189  17.089  64.778  1.00  0.00    -0.840 NA 
HETATM   44  O   UNL     1      -8.771  16.225  66.262  1.00  0.00    -0.288 OA 
BRANCH  34  45
HETATM   45  C   UNL     1     -12.083  12.237  63.953  1.00  0.00    -0.506 C  
HETATM   46  O   UNL     1     -11.112  11.411  63.311  1.00  0.00    -0.739 OA 
HETATM   47  H   UNL     1     -11.533  10.777  62.741  1.00  0.00     0.000 HD 
ENDBRANCH  34  45
ENDBRANCH  31  32
ENDBRANCH  25  31
ENDBRANCH  16  17
ENDBRANCH   7  16
ENDBRANCH   2   5
TORSDOF 6
ENDMDL
MODEL       63
REMARK 921   NORMALIZED FREE ENERGY PREDICTED BY IDOCK:   -6.55 KCAL/MOL
REMARK 922        TOTAL FREE ENERGY PREDICTED BY IDOCK:   -9.90 KCAL/MOL
REMARK 923 INTER-LIGAND FREE ENERGY PREDICTED BY IDOCK:   -8.44 KCAL/MOL
REMARK 924 INTRA-LIGAND FREE ENERGY PREDICTED BY IDOCK:   -1.47 KCAL/MOL
REMARK 927      BINDING AFFINITY PREDICTED BY RF-SCORE:    0.00 PKD
ROOT
HETATM    1  N   UNL     1      -7.473  14.632  68.751  1.00  0.00    -0.128 NA 
HETATM    2  C   UNL     1      -7.409  16.096  68.630  1.00  0.00    -0.175 C  
HETATM    3  H2  UNL     1      -6.835  14.180  68.096  1.00  0.00     0.000 HD 
HETATM    4  H1  UNL     1      -7.306  14.316  69.705  1.00  0.00     0.000 HD 
ENDROOT
BRANCH   2   5
HETATM    5  C   UNL     1      -7.663  16.576  67.178  1.00  0.00    -0.180 C  
HETATM    6  O   UNL     1      -8.917  16.107  66.660  1.00  0.00    -0.209 OA 
HETATM    7  C   UNL     1     -10.068  16.677  67.262  1.00  0.00    -0.279 C  
HETATM    8  C   UNL     1     -10.080  18.224  67.030  1.00  0.00    -0.360 C  
HETATM    9  C   UNL     1      -7.532  18.105  67.032  1.00  0.00    -0.208 C  
HETATM   10  N   UNL     1     -10.251  18.587  65.606  1.00  0.00    -0.522 NA 
HETATM   11  C   UNL     1      -8.771  18.834  67.564  1.00  0.00    -0.292 C  
HETATM   12  H   UNL     1      -7.265  19.348  65.552  1.00  0.00     0.000 HD 
HETATM   13  H1  UNL     1     -10.258  19.596  65.455  1.00  0.00     0.000 HD 
HETATM   14  H2  UNL     1     -11.086  18.152  65.216  1.00  0.00     0.000 HD 
HETATM   15  O   UNL     1      -7.346  18.406  65.643  1.00  0.00    -0.510 OA 
BRANCH   7  16
HETATM   16  O   UNL     1     -11.260  16.098  66.703  1.00  0.00    -0.036 OA 
BRANCH  16  17
HETATM   17  C   UNL     1     -11.699  14.828  67.269  1.00  0.00    -0.347 C  
HETATM   18  N   UNL     1     -12.626  15.832  69.345  1.00  0.00    -0.459 NA 
HETATM   19  C   UNL     1     -12.134  13.464  69.353  1.00  0.00    -0.321 C  
HETATM   20  H1  UNL     1     -12.629  15.825  70.365  1.00  0.00     0.000 HD 
HETATM   21  H2  UNL     1     -13.566  15.720  68.966  1.00  0.00     0.000 HD 
HETATM   22  C   UNL     1     -11.222  12.344  68.853  1.00  0.00    -0.280 C  
HETATM   23  C   UNL     1     -11.702  14.817  68.812  1.00  0.00    -0.323 C  
HETATM   24  N   UNL     1     -11.669  11.123  69.544  1.00  0.00    -0.303 NA 
HETATM   25  C   UNL     1     -11.253  12.228  67.296  1.00  0.00    -0.300 C  
HETATM   26  H   UNL     1     -10.941  12.801  64.850  1.00  0.00     0.000 HD 
HETATM   27  H1  UNL     1     -11.060  10.376  69.211  1.00  0.00     0.000 HD 
HETATM   28  C   UNL     1     -10.976  13.610  66.629  1.00  0.00    -0.292 C  
HETATM   29  H2  UNL     1     -12.663  10.925  69.422  1.00  0.00     0.000 HD 
HETATM   30  O   UNL     1     -11.382  13.546  65.241  1.00  0.00    -0.287 OA 
BRANCH  25  31
HETATM   31  O   UNL     1     -10.245  11.309  66.772  1.00  0.00    -0.212 OA 
BRANCH  31  32
HETATM   32  C   UNL     1     -10.753  10.238  65.966  1.00  0.00     0.053 C  
HETATM   33  O   UNL     1     -10.573  10.471  64.564  1.00  0.00    -0.246 OA 
HETATM   34  C   UNL     1      -9.193  10.437  64.162  1.00  0.00    -0.259 C  
HETATM   35  C   UNL     1      -8.582   9.057  64.454  1.00  0.00    -0.150 C  
HETATM   36  H   UNL     1      -9.935   7.842  68.077  1.00  0.00     0.000 HD 
HETATM   37  C   UNL     1      -8.688   8.740  65.958  1.00  0.00    -0.167 C  
HETATM   38  H1  UNL     1      -8.203   7.186  67.242  1.00  0.00     0.000 HD 
HETATM   39  O   UNL     1      -7.220   8.967  64.027  1.00  0.00    -0.094 OA 
HETATM   40  H   UNL     1      -6.842   8.115  64.207  1.00  0.00     0.000 HD 
HETATM   41  H2  UNL     1      -7.177   7.299  65.905  1.00  0.00     0.000 HD 
HETATM   42  C   UNL     1     -10.156   8.874  66.400  1.00  0.00    -0.263 C  
HETATM   43  N   UNL     1      -8.133   7.396  66.246  1.00  0.00    -0.112 NA 
HETATM   44  O   UNL     1     -10.301   8.677  67.812  1.00  0.00    -0.222 OA 
BRANCH  34  45
HETATM   45  C   UNL     1      -9.120  10.740  62.659  1.00  0.00    -0.318 C  
HETATM   46  O   UNL     1      -8.013  11.594  62.368  1.00  0.00    -0.635 OA 
HETATM   47  H   UNL     1      -7.968  11.782  61.438  1.00  0.00     0.000 HD 
ENDBRANCH  34  45
ENDBRANCH  31  32
ENDBRANCH  25  31
ENDBRANCH  16  17
ENDBRANCH   7  16
ENDBRANCH   2   5
TORSDOF 6
ENDMDL
MODEL       64
REMARK 921   NORMALIZED FREE ENERGY PREDICTED BY IDOCK:   -6.55 KCAL/MOL
REMARK 922        TOTAL FREE ENERGY PREDICTED BY IDOCK:   -9.90 KCAL/MOL
REMARK 923 INTER-LIGAND FREE ENERGY PREDICTED BY IDOCK:   -8.90 KCAL/MOL
REMARK 924 INTRA-LIGAND FREE ENERGY PREDICTED BY IDOCK:   -0.99 KCAL/MOL
REMARK 927      BINDING AFFINITY PREDICTED BY RF-SCORE:    0.00 PKD
ROOT
HETATM    1  N   UNL     1      -6.716  16.877  69.345  1.00  0.00    -0.238 NA 
HETATM    2  C   UNL     1      -7.635  15.887  68.764  1.00  0.00    -0.178 C  
HETATM    3  H2  UNL     1      -7.030  17.828  69.152  1.00  0.00     0.000 HD 
HETATM    4  H1  UNL     1      -6.573  16.731  70.343  1.00  0.00     0.000 HD 
ENDROOT
BRANCH   2   5
HETATM    5  C   UNL     1      -7.853  16.108  67.246  1.00  0.00    -0.177 C  
HETATM    6  O   UNL     1      -8.988  15.385  66.746  1.00  0.00    -0.219 OA 
HETATM    7  C   UNL     1     -10.248  15.855  67.198  1.00  0.00    -0.278 C  
HETATM    8  C   UNL     1     -10.464  17.332  66.732  1.00  0.00    -0.261 C  
HETATM    9  C   UNL     1      -7.932  17.602  66.873  1.00  0.00    -0.226 C  
HETATM   10  N   UNL     1     -10.585  17.456  65.263  1.00  0.00    -0.640 NA 
HETATM   11  C   UNL     1      -9.296  18.205  67.228  1.00  0.00    -0.252 C  
HETATM   12  H   UNL     1      -7.742  18.645  65.235  1.00  0.00     0.000 HD 
HETATM   13  H1  UNL     1     -10.726  18.420  64.958  1.00  0.00     0.000 HD 
HETATM   14  H2  UNL     1     -11.321  16.848  64.904  1.00  0.00     0.000 HD 
HETATM   15  O   UNL     1      -7.694  17.724  65.465  1.00  0.00    -0.486 OA 
BRANCH   7  16
HETATM   16  O   UNL     1     -11.303  15.027  66.679  1.00  0.00    -0.344 OA 
BRANCH  16  17
HETATM   17  C   UNL     1     -11.853  14.023  67.581  1.00  0.00    -0.395 C  
HETATM   18  N   UNL     1     -12.254  15.615  69.447  1.00  0.00    -0.551 NA 
HETATM   19  C   UNL     1     -12.173  13.255  69.969  1.00  0.00    -0.345 C  
HETATM   20  H1  UNL     1     -12.095  15.828  70.432  1.00  0.00     0.000 HD 
HETATM   21  H2  UNL     1     -13.248  15.615  69.219  1.00  0.00     0.000 HD 
HETATM   22  C   UNL     1     -11.554  11.894  69.650  1.00  0.00    -0.317 C  
HETATM   23  C   UNL     1     -11.612  14.346  69.070  1.00  0.00    -0.296 C  
HETATM   24  N   UNL     1     -12.085  10.965  70.663  1.00  0.00    -0.342 NA 
HETATM   25  C   UNL     1     -11.853  11.455  68.182  1.00  0.00    -0.218 C  
HETATM   26  H   UNL     1     -11.845  11.414  65.650  1.00  0.00     0.000 HD 
HETATM   27  H1  UNL     1     -11.671  10.057  70.451  1.00  0.00     0.000 HD 
HETATM   28  C   UNL     1     -11.458  12.577  67.173  1.00  0.00    -0.351 C  
HETATM   29  H2  UNL     1     -13.104  10.949  70.709  1.00  0.00     0.000 HD 
HETATM   30  O   UNL     1     -12.086  12.299  65.899  1.00  0.00    -0.609 OA 
BRANCH  25  31
HETATM   31  O   UNL     1     -11.111  10.261  67.781  1.00  0.00    -0.299 OA 
BRANCH  31  32
HETATM   32  C   UNL     1      -9.685  10.402  67.770  1.00  0.00    -0.160 C  
HETATM   33  O   UNL     1      -9.082   9.996  69.005  1.00  0.00    -0.151 OA 
HETATM   34  C   UNL     1      -9.179   8.581  69.238  1.00  0.00    -0.153 C  
HETATM   35  C   UNL     1      -8.458   7.802  68.127  1.00  0.00    -0.124 C  
HETATM   36  H   UNL     1      -9.316   9.597  64.594  1.00  0.00     0.000 HD 
HETATM   37  C   UNL     1      -9.076   8.141  66.757  1.00  0.00    -0.157 C  
HETATM   38  H1  UNL     1      -8.775   7.646  64.766  1.00  0.00     0.000 HD 
HETATM   39  O   UNL     1      -8.493   6.389  68.346  1.00  0.00    -0.115 OA 
HETATM   40  H   UNL     1      -8.048   5.907  67.659  1.00  0.00     0.000 HD 
HETATM   41  H2  UNL     1      -8.340   6.416  65.838  1.00  0.00     0.000 HD 
HETATM   42  C   UNL     1      -9.055   9.667  66.557  1.00  0.00    -0.154 C  
HETATM   43  N   UNL     1      -8.365   7.422  65.673  1.00  0.00    -0.137 NA 
HETATM   44  O   UNL     1      -9.701  10.048  65.336  1.00  0.00    -0.260 OA 
BRANCH  34  45
HETATM   45  C   UNL     1      -8.543   8.270  70.600  1.00  0.00    -0.136 C  
HETATM   46  O   UNL     1      -9.099   9.100  71.619  1.00  0.00    -0.334 OA 
HETATM   47  H   UNL     1      -8.705   8.908  72.462  1.00  0.00     0.000 HD 
ENDBRANCH  34  45
ENDBRANCH  31  32
ENDBRANCH  25  31
ENDBRANCH  16  17
ENDBRANCH   7  16
ENDBRANCH   2   5
TORSDOF 6
ENDMDL
MODEL       65
REMARK 921   NORMALIZED FREE ENERGY PREDICTED BY IDOCK:   -6.51 KCAL/MOL
REMARK 922        TOTAL FREE ENERGY PREDICTED BY IDOCK:   -9.84 KCAL/MOL
REMARK 923 INTER-LIGAND FREE ENERGY PREDICTED BY IDOCK:   -8.90 KCAL/MOL
REMARK 924 INTRA-LIGAND FREE ENERGY PREDICTED BY IDOCK:   -0.94 KCAL/MOL
REMARK 927      BINDING AFFINITY PREDICTED BY RF-SCORE:    0.00 PKD
ROOT
HETATM    1  N   UNL     1     -10.476  20.413  65.733  1.00  0.00    -0.350 NA 
HETATM    2  C   UNL     1     -10.693  19.350  66.724  1.00  0.00    -0.448 C  
HETATM    3  H2  UNL     1      -9.515  20.408  65.391  1.00  0.00     0.000 HD 
HETATM    4  H1  UNL     1     -11.141  20.365  64.962  1.00  0.00     0.000 HD 
ENDROOT
BRANCH   2   5
HETATM    5  C   UNL     1      -9.681  19.424  67.895  1.00  0.00    -0.352 C  
HETATM    6  O   UNL     1      -9.746  18.270  68.748  1.00  0.00    -0.338 OA 
HETATM    7  C   UNL     1      -9.284  17.063  68.163  1.00  0.00    -0.244 C  
HETATM    8  C   UNL     1      -7.776  17.203  67.775  1.00  0.00    -0.177 C  
HETATM    9  C   UNL     1      -8.240  19.684  67.414  1.00  0.00    -0.298 C  
HETATM   10  N   UNL     1      -6.894  17.345  68.954  1.00  0.00    -0.231 NA 
HETATM   11  C   UNL     1      -7.593  18.416  66.845  1.00  0.00    -0.234 C  
HETATM   12  H   UNL     1      -6.589  20.325  68.233  1.00  0.00     0.000 HD 
HETATM   13  H1  UNL     1      -5.909  17.436  68.701  1.00  0.00     0.000 HD 
HETATM   14  H2  UNL     1      -7.033  16.577  69.610  1.00  0.00     0.000 HD 
HETATM   15  O   UNL     1      -7.477  20.165  68.529  1.00  0.00    -0.240 OA 
BRANCH   7  16
HETATM   16  O   UNL     1      -9.446  15.971  69.084  1.00  0.00    -0.228 OA 
BRANCH  16  17
HETATM   17  C   UNL     1     -10.290  14.865  68.650  1.00  0.00    -0.237 C  
HETATM   18  N   UNL     1     -12.321  15.675  69.832  1.00  0.00    -0.494 NA 
HETATM   19  C   UNL     1     -12.247  13.351  69.171  1.00  0.00    -0.207 C  
HETATM   20  H1  UNL     1     -13.065  15.453  70.493  1.00  0.00     0.000 HD 
HETATM   21  H2  UNL     1     -12.695  16.003  68.941  1.00  0.00     0.000 HD 
HETATM   22  C   UNL     1     -11.384  12.106  68.960  1.00  0.00    -0.276 C  
HETATM   23  C   UNL     1     -11.416  14.529  69.651  1.00  0.00    -0.288 C  
HETATM   24  N   UNL     1     -12.321  11.020  68.622  1.00  0.00    -0.737 NA 
HETATM   25  C   UNL     1     -10.286  12.344  67.876  1.00  0.00    -0.210 C  
HETATM   26  H   UNL     1      -8.235  13.266  66.713  1.00  0.00     0.000 HD 
HETATM   27  H1  UNL     1     -11.746  10.190  68.482  1.00  0.00     0.000 HD 
HETATM   28  C   UNL     1      -9.465  13.632  68.187  1.00  0.00    -0.217 C  
HETATM   29  H2  UNL     1     -12.928  11.236  67.830  1.00  0.00     0.000 HD 
HETATM   30  O   UNL     1      -8.739  14.019  66.997  1.00  0.00    -0.219 OA 
BRANCH  25  31
HETATM   31  O   UNL     1      -9.320  11.250  67.793  1.00  0.00    -0.157 OA 
BRANCH  31  32
HETATM   32  C   UNL     1      -9.738  10.121  67.015  1.00  0.00    -0.180 C  
HETATM   33  O   UNL     1     -10.510  10.500  65.868  1.00  0.00    -0.228 OA 
HETATM   34  C   UNL     1      -9.738  11.200  64.878  1.00  0.00    -0.251 C  
HETATM   35  C   UNL     1      -8.598  10.310  64.358  1.00  0.00    -0.187 C  
HETATM   36  H   UNL     1      -7.003   8.354  67.531  1.00  0.00     0.000 HD 
HETATM   37  C   UNL     1      -7.681   9.891  65.524  1.00  0.00    -0.124 C  
HETATM   38  H1  UNL     1      -5.990   8.727  65.810  1.00  0.00     0.000 HD 
HETATM   39  O   UNL     1      -7.832  10.954  63.336  1.00  0.00    -0.360 OA 
HETATM   40  H   UNL     1      -7.127  10.405  63.015  1.00  0.00     0.000 HD 
HETATM   41  H2  UNL     1      -6.070   9.430  64.276  1.00  0.00     0.000 HD 
HETATM   42  C   UNL     1      -8.531   9.230  66.622  1.00  0.00    -0.126 C  
HETATM   43  N   UNL     1      -6.597   9.004  65.039  1.00  0.00    -0.068 NA 
HETATM   44  O   UNL     1      -7.743   8.900  67.772  1.00  0.00    -0.099 OA 
BRANCH  34  45
HETATM   45  C   UNL     1     -10.673  11.590  63.724  1.00  0.00    -0.408 C  
HETATM   46  O   UNL     1     -10.592  10.638  62.663  1.00  0.00    -0.684 OA 
HETATM   47  H   UNL     1     -11.170  10.879  61.949  1.00  0.00     0.000 HD 
ENDBRANCH  34  45
ENDBRANCH  31  32
ENDBRANCH  25  31
ENDBRANCH  16  17
ENDBRANCH   7  16
ENDBRANCH   2   5
TORSDOF 6
ENDMDL
MODEL       66
REMARK 921   NORMALIZED FREE ENERGY PREDICTED BY IDOCK:   -6.48 KCAL/MOL
REMARK 922        TOTAL FREE ENERGY PREDICTED BY IDOCK:   -9.81 KCAL/MOL
REMARK 923 INTER-LIGAND FREE ENERGY PREDICTED BY IDOCK:   -8.77 KCAL/MOL
REMARK 924 INTRA-LIGAND FREE ENERGY PREDICTED BY IDOCK:   -1.04 KCAL/MOL
REMARK 927      BINDING AFFINITY PREDICTED BY RF-SCORE:    0.00 PKD
ROOT
HETATM    1  N   UNL     1     -13.251   9.434  72.476  1.00  0.00    -0.548 NA 
HETATM    2  C   UNL     1     -12.429   8.909  71.376  1.00  0.00    -0.304 C  
HETATM    3  H2  UNL     1     -12.766   9.354  73.369  1.00  0.00     0.000 HD 
HETATM    4  H1  UNL     1     -13.556  10.392  72.307  1.00  0.00     0.000 HD 
ENDROOT
BRANCH   2   5
HETATM    5  C   UNL     1     -11.965   7.453  71.633  1.00  0.00    -0.307 C  
HETATM    6  O   UNL     1     -11.241   6.906  70.519  1.00  0.00    -0.272 OA 
HETATM    7  C   UNL     1      -9.965   7.483  70.289  1.00  0.00    -0.192 C  
HETATM    8  C   UNL     1      -9.045   7.252  71.532  1.00  0.00    -0.140 C  
HETATM    9  C   UNL     1     -11.168   7.311  72.944  1.00  0.00    -0.292 C  
HETATM   10  N   UNL     1      -8.717   5.825  71.743  1.00  0.00    -0.135 NA 
HETATM   11  C   UNL     1      -9.728   7.816  72.791  1.00  0.00    -0.292 C  
HETATM   12  H   UNL     1     -10.673   5.839  74.125  1.00  0.00     0.000 HD 
HETATM   13  H1  UNL     1      -8.116   5.674  72.554  1.00  0.00     0.000 HD 
HETATM   14  H2  UNL     1      -8.308   5.416  70.903  1.00  0.00     0.000 HD 
HETATM   15  O   UNL     1     -11.164   5.927  73.316  1.00  0.00    -0.227 OA 
BRANCH   7  16
HETATM   16  O   UNL     1      -9.359   6.898  69.125  1.00  0.00    -0.141 OA 
BRANCH  16  17
HETATM   17  C   UNL     1      -8.719   7.813  68.188  1.00  0.00    -0.126 C  
HETATM   18  N   UNL     1      -6.402   7.227  68.870  1.00  0.00    -0.037 NA 
HETATM   19  C   UNL     1      -6.742   9.309  67.689  1.00  0.00    -0.068 C  
HETATM   20  H1  UNL     1      -5.499   7.571  69.197  1.00  0.00     0.000 HD 
HETATM   21  H2  UNL     1      -6.306   6.666  68.024  1.00  0.00     0.000 HD 
HETATM   22  C   UNL     1      -7.665  10.502  67.436  1.00  0.00    -0.102 C  
HETATM   23  C   UNL     1      -7.353   8.334  68.682  1.00  0.00    -0.089 C  
HETATM   24  N   UNL     1      -6.908  11.418  66.565  1.00  0.00    -0.308 NA 
HETATM   25  C   UNL     1      -9.033  10.053  66.831  1.00  0.00    -0.135 C  
HETATM   26  H   UNL     1     -11.312   8.972  66.617  1.00  0.00     0.000 HD 
HETATM   27  H1  UNL     1      -7.523  12.214  66.397  1.00  0.00     0.000 HD 
HETATM   28  C   UNL     1      -9.682   8.929  67.695  1.00  0.00    -0.161 C  
HETATM   29  H2  UNL     1      -6.564  10.979  65.711  1.00  0.00     0.000 HD 
HETATM   30  O   UNL     1     -10.724   8.290  66.919  1.00  0.00    -0.299 OA 
BRANCH  25  31
HETATM   31  O   UNL     1     -10.011  11.138  66.766  1.00  0.00    -0.198 OA 
BRANCH  31  32
HETATM   32  C   UNL     1      -9.654  12.232  65.911  1.00  0.00    -0.198 C  
HETATM   33  O   UNL     1     -10.376  12.221  64.673  1.00  0.00    -0.281 OA 
HETATM   34  C   UNL     1     -11.777  12.493  64.837  1.00  0.00    -0.359 C  
HETATM   35  C   UNL     1     -11.986  13.888  65.447  1.00  0.00    -0.381 C  
HETATM   36  H   UNL     1      -9.205  14.402  68.352  1.00  0.00     0.000 HD 
HETATM   37  C   UNL     1     -11.280  13.978  66.814  1.00  0.00    -0.315 C  
HETATM   38  H1  UNL     1     -10.979  15.392  68.301  1.00  0.00     0.000 HD 
HETATM   39  O   UNL     1     -13.371  14.217  65.585  1.00  0.00    -0.659 OA 
HETATM   40  H   UNL     1     -13.500  15.079  65.962  1.00  0.00     0.000 HD 
HETATM   41  H2  UNL     1     -12.427  15.601  67.457  1.00  0.00     0.000 HD 
HETATM   42  C   UNL     1      -9.801  13.591  66.645  1.00  0.00    -0.279 C  
HETATM   43  N   UNL     1     -11.446  15.332  67.395  1.00  0.00    -0.292 NA 
HETATM   44  O   UNL     1      -9.115  13.570  67.903  1.00  0.00    -0.186 OA 
BRANCH  34  45
HETATM   45  C   UNL     1     -12.450  12.412  63.460  1.00  0.00    -0.500 C  
HETATM   46  O   UNL     1     -12.655  13.717  62.919  1.00  0.00    -0.944 OA 
HETATM   47  H   UNL     1     -13.071  13.667  62.066  1.00  0.00     0.000 HD 
ENDBRANCH  34  45
ENDBRANCH  31  32
ENDBRANCH  25  31
ENDBRANCH  16  17
ENDBRANCH   7  16
ENDBRANCH   2   5
TORSDOF 6
ENDMDL
MODEL       67
REMARK 921   NORMALIZED FREE ENERGY PREDICTED BY IDOCK:   -6.47 KCAL/MOL
REMARK 922        TOTAL FREE ENERGY PREDICTED BY IDOCK:   -9.79 KCAL/MOL
REMARK 923 INTER-LIGAND FREE ENERGY PREDICTED BY IDOCK:   -8.26 KCAL/MOL
REMARK 924 INTRA-LIGAND FREE ENERGY PREDICTED BY IDOCK:   -1.53 KCAL/MOL
REMARK 927      BINDING AFFINITY PREDICTED BY RF-SCORE:    0.00 PKD
ROOT
HETATM    1  N   UNL     1     -10.363  20.078  70.228  1.00  0.00    -0.394 NA 
HETATM    2  C   UNL     1     -10.590  20.209  68.781  1.00  0.00     0.179 C  
HETATM    3  H2  UNL     1      -9.512  20.562  70.512  1.00  0.00     0.000 HD 
HETATM    4  H1  UNL     1     -11.165  20.392  70.775  1.00  0.00     0.000 HD 
ENDROOT
BRANCH   2   5
HETATM    5  C   UNL     1      -9.372  19.733  67.951  1.00  0.00    -0.344 C  
HETATM    6  O   UNL     1      -8.988  18.386  68.268  1.00  0.00    -0.296 OA 
HETATM    7  C   UNL     1      -9.909  17.386  67.862  1.00  0.00    -0.287 C  
HETATM    8  C   UNL     1     -10.071  17.411  66.307  1.00  0.00    -0.322 C  
HETATM    9  C   UNL     1      -9.586  19.912  66.435  1.00  0.00    -0.431 C  
HETATM   10  N   UNL     1      -8.835  17.015  65.597  1.00  0.00    -0.361 NA 
HETATM   11  C   UNL     1     -10.495  18.821  65.856  1.00  0.00    -0.424 C  
HETATM   12  H   UNL     1      -8.435  19.981  64.861  1.00  0.00     0.000 HD 
HETATM   13  H1  UNL     1      -8.941  17.032  64.582  1.00  0.00     0.000 HD 
HETATM   14  H2  UNL     1      -8.506  16.104  65.915  1.00  0.00     0.000 HD 
HETATM   15  O   UNL     1      -8.304  19.871  65.796  1.00  0.00    -0.346 OA 
BRANCH   7  16
HETATM   16  O   UNL     1      -9.448  16.088  68.277  1.00  0.00    -0.202 OA 
BRANCH  16  17
HETATM   17  C   UNL     1     -10.399  14.989  68.169  1.00  0.00    -0.239 C  
HETATM   18  N   UNL     1     -11.892  15.825  69.971  1.00  0.00    -0.357 NA 
HETATM   19  C   UNL     1     -12.068  13.496  69.344  1.00  0.00    -0.340 C  
HETATM   20  H1  UNL     1     -12.365  15.614  70.849  1.00  0.00     0.000 HD 
HETATM   21  H2  UNL     1     -12.548  16.152  69.261  1.00  0.00     0.000 HD 
HETATM   22  C   UNL     1     -11.340  12.242  68.859  1.00  0.00    -0.287 C  
HETATM   23  C   UNL     1     -11.113  14.669  69.498  1.00  0.00    -0.266 C  
HETATM   24  N   UNL     1     -12.344  11.164  68.873  1.00  0.00    -0.628 NA 
HETATM   25  C   UNL     1     -10.680  12.464  67.461  1.00  0.00    -0.228 C  
HETATM   26  H   UNL     1      -9.147  13.359  65.656  1.00  0.00     0.000 HD 
HETATM   27  H1  UNL     1     -11.858  10.327  68.551  1.00  0.00     0.000 HD 
HETATM   28  C   UNL     1      -9.793  13.746  67.460  1.00  0.00    -0.230 C  
HETATM   29  H2  UNL     1     -13.184  11.381  68.337  1.00  0.00     0.000 HD 
HETATM   30  O   UNL     1      -9.517  14.119  66.090  1.00  0.00    -0.272 OA 
BRANCH  25  31
HETATM   31  O   UNL     1      -9.809  11.360  67.060  1.00  0.00    -0.188 OA 
BRANCH  31  32
HETATM   32  C   UNL     1     -10.421  10.371  66.222  1.00  0.00    -0.159 C  
HETATM   33  O   UNL     1     -10.047  10.509  64.845  1.00  0.00    -0.309 OA 
HETATM   34  C   UNL     1      -8.663  10.200  64.607  1.00  0.00    -0.189 C  
HETATM   35  C   UNL     1      -8.363   8.744  64.994  1.00  0.00    -0.170 C  
HETATM   36  H   UNL     1     -10.312   7.952  68.459  1.00  0.00     0.000 HD 
HETATM   37  C   UNL     1      -8.692   8.514  66.482  1.00  0.00    -0.132 C  
HETATM   38  H1  UNL     1      -8.656   6.950  67.843  1.00  0.00     0.000 HD 
HETATM   39  O   UNL     1      -7.004   8.383  64.729  1.00  0.00    -0.070 OA 
HETATM   40  H   UNL     1      -6.819   7.482  64.968  1.00  0.00     0.000 HD 
HETATM   41  H2  UNL     1      -7.487   6.814  66.631  1.00  0.00     0.000 HD 
HETATM   42  C   UNL     1     -10.147   8.938  66.748  1.00  0.00    -0.280 C  
HETATM   43  N   UNL     1      -8.439   7.102  66.858  1.00  0.00    -0.120 NA 
HETATM   44  O   UNL     1     -10.481   8.830  68.137  1.00  0.00    -0.216 OA 
BRANCH  34  45
HETATM   45  C   UNL     1      -8.368  10.423  63.117  1.00  0.00    -0.167 C  
HETATM   46  O   UNL     1      -8.657   9.246  62.362  1.00  0.00    -0.187 OA 
HETATM   47  H   UNL     1      -8.475   9.384  61.440  1.00  0.00     0.000 HD 
ENDBRANCH  34  45
ENDBRANCH  31  32
ENDBRANCH  25  31
ENDBRANCH  16  17
ENDBRANCH   7  16
ENDBRANCH   2   5
TORSDOF 6
ENDMDL
MODEL       68
REMARK 921   NORMALIZED FREE ENERGY PREDICTED BY IDOCK:   -6.46 KCAL/MOL
REMARK 922        TOTAL FREE ENERGY PREDICTED BY IDOCK:   -9.78 KCAL/MOL
REMARK 923 INTER-LIGAND FREE ENERGY PREDICTED BY IDOCK:   -8.33 KCAL/MOL
REMARK 924 INTRA-LIGAND FREE ENERGY PREDICTED BY IDOCK:   -1.46 KCAL/MOL
REMARK 927      BINDING AFFINITY PREDICTED BY RF-SCORE:    0.00 PKD
ROOT
HETATM    1  N   UNL     1     -11.966  15.785  63.862  1.00  0.00    -1.139 NA 
HETATM    2  C   UNL     1     -11.982  14.403  64.363  1.00  0.00    -0.452 C  
HETATM    3  H2  UNL     1     -11.315  16.362  64.393  1.00  0.00     0.000 HD 
HETATM    4  H1  UNL     1     -11.768  15.831  62.863  1.00  0.00     0.000 HD 
ENDROOT
BRANCH   2   5
HETATM    5  C   UNL     1     -12.283  14.333  65.882  1.00  0.00    -0.407 C  
HETATM    6  O   UNL     1     -12.361  12.981  66.361  1.00  0.00    -0.417 OA 
HETATM    7  C   UNL     1     -11.131  12.274  66.370  1.00  0.00    -0.303 C  
HETATM    8  C   UNL     1     -10.113  12.988  67.317  1.00  0.00    -0.235 C  
HETATM    9  C   UNL     1     -11.293  15.168  66.718  1.00  0.00    -0.248 C  
HETATM   10  N   UNL     1     -10.521  12.936  68.738  1.00  0.00    -0.386 NA 
HETATM   11  C   UNL     1      -9.946  14.455  66.882  1.00  0.00    -0.261 C  
HETATM   12  H   UNL     1     -11.273  15.917  68.519  1.00  0.00     0.000 HD 
HETATM   13  H1  UNL     1      -9.857  13.402  69.356  1.00  0.00     0.000 HD 
HETATM   14  H2  UNL     1     -10.687  11.976  69.036  1.00  0.00     0.000 HD 
HETATM   15  O   UNL     1     -11.883  15.402  68.003  1.00  0.00    -0.294 OA 
BRANCH   7  16
HETATM   16  O   UNL     1     -11.339  10.923  66.816  1.00  0.00    -0.288 OA 
BRANCH  16  17
HETATM   17  C   UNL     1     -10.176  10.045  66.812  1.00  0.00    -0.232 C  
HETATM   18  N   UNL     1      -9.631  10.429  64.418  1.00  0.00    -0.291 NA 
HETATM   19  C   UNL     1      -8.704   8.470  65.490  1.00  0.00    -0.208 C  
HETATM   20  H1  UNL     1      -9.451  10.004  63.508  1.00  0.00     0.000 HD 
HETATM   21  H2  UNL     1      -8.870  11.046  64.701  1.00  0.00     0.000 HD 
HETATM   22  C   UNL     1      -8.902   7.361  66.523  1.00  0.00    -0.148 C  
HETATM   23  C   UNL     1      -9.903   9.402  65.436  1.00  0.00    -0.089 C  
HETATM   24  N   UNL     1      -7.738   6.469  66.385  1.00  0.00    -0.097 NA 
HETATM   25  C   UNL     1      -9.078   7.940  67.962  1.00  0.00    -0.132 C  
HETATM   26  H   UNL     1     -10.069   9.176  69.937  1.00  0.00     0.000 HD 
HETATM   27  H1  UNL     1      -7.870   5.729  67.074  1.00  0.00     0.000 HD 
HETATM   28  C   UNL     1     -10.190   9.033  67.992  1.00  0.00    -0.212 C  
HETATM   29  H2  UNL     1      -6.842   6.951  66.470  1.00  0.00     0.000 HD 
HETATM   30  O   UNL     1     -10.061   9.794  69.216  1.00  0.00    -0.177 OA 
BRANCH  25  31
HETATM   31  O   UNL     1      -9.470   6.927  68.941  1.00  0.00    -0.138 OA 
BRANCH  31  32
HETATM   32  C   UNL     1      -8.500   6.652  69.959  1.00  0.00    -0.139 C  
HETATM   33  O   UNL     1      -8.795   7.314  71.196  1.00  0.00    -0.138 OA 
HETATM   34  C   UNL     1      -9.971   6.798  71.841  1.00  0.00    -0.176 C  
HETATM   35  C   UNL     1      -9.789   5.310  72.180  1.00  0.00    -0.171 C  
HETATM   36  H   UNL     1      -7.950   3.536  69.032  1.00  0.00     0.000 HD 
HETATM   37  C   UNL     1      -9.513   4.506  70.895  1.00  0.00    -0.166 C  
HETATM   38  H1  UNL     1      -9.119   2.541  70.363  1.00  0.00     0.000 HD 
HETATM   39  O   UNL     1     -10.922   4.769  72.866  1.00  0.00    -0.232 OA 
HETATM   40  H   UNL     1     -10.810   3.849  73.075  1.00  0.00     0.000 HD 
HETATM   41  H2  UNL     1     -10.080   2.684  71.745  1.00  0.00     0.000 HD 
HETATM   42  C   UNL     1      -8.312   5.125  70.160  1.00  0.00    -0.093 C  
HETATM   43  N   UNL     1      -9.301   3.073  71.214  1.00  0.00    -0.125 NA 
HETATM   44  O   UNL     1      -8.065   4.471  68.909  1.00  0.00    -0.076 OA 
BRANCH  34  45
HETATM   45  C   UNL     1     -10.212   7.607  73.124  1.00  0.00    -0.342 C  
HETATM   46  O   UNL     1     -11.524   7.369  73.634  1.00  0.00    -0.514 OA 
HETATM   47  H   UNL     1     -11.673   7.869  74.427  1.00  0.00     0.000 HD 
ENDBRANCH  34  45
ENDBRANCH  31  32
ENDBRANCH  25  31
ENDBRANCH  16  17
ENDBRANCH   7  16
ENDBRANCH   2   5
TORSDOF 6
ENDMDL
MODEL       69
REMARK 921   NORMALIZED FREE ENERGY PREDICTED BY IDOCK:   -6.46 KCAL/MOL
REMARK 922        TOTAL FREE ENERGY PREDICTED BY IDOCK:   -9.78 KCAL/MOL
REMARK 923 INTER-LIGAND FREE ENERGY PREDICTED BY IDOCK:   -8.74 KCAL/MOL
REMARK 924 INTRA-LIGAND FREE ENERGY PREDICTED BY IDOCK:   -1.04 KCAL/MOL
REMARK 927      BINDING AFFINITY PREDICTED BY RF-SCORE:    0.00 PKD
ROOT
HETATM    1  N   UNL     1     -13.140  10.342  70.171  1.00  0.00    -0.511 NA 
HETATM    2  C   UNL     1     -11.963   9.971  70.970  1.00  0.00    -0.376 C  
HETATM    3  H2  UNL     1     -13.932   9.733  70.376  1.00  0.00     0.000 HD 
HETATM    4  H1  UNL     1     -13.390  11.324  70.284  1.00  0.00     0.000 HD 
ENDROOT
BRANCH   2   5
HETATM    5  C   UNL     1     -11.583   8.479  70.797  1.00  0.00    -0.231 C  
HETATM    6  O   UNL     1     -10.515   8.294  69.854  1.00  0.00    -0.214 OA 
HETATM    7  C   UNL     1      -9.249   8.774  70.276  1.00  0.00    -0.174 C  
HETATM    8  C   UNL     1      -8.795   8.015  71.566  1.00  0.00    -0.143 C  
HETATM    9  C   UNL     1     -11.270   7.791  72.140  1.00  0.00    -0.297 C  
HETATM   10  N   UNL     1      -8.527   6.581  71.321  1.00  0.00    -0.126 NA 
HETATM   11  C   UNL     1      -9.873   8.159  72.656  1.00  0.00    -0.364 C  
HETATM   12  H   UNL     1     -11.169   5.949  72.776  1.00  0.00     0.000 HD 
HETATM   13  H1  UNL     1      -8.231   6.085  72.162  1.00  0.00     0.000 HD 
HETATM   14  H2  UNL     1      -7.851   6.459  70.567  1.00  0.00     0.000 HD 
HETATM   15  O   UNL     1     -11.362   6.373  71.948  1.00  0.00    -0.263 OA 
BRANCH   7  16
HETATM   16  O   UNL     1      -8.274   8.584  69.237  1.00  0.00    -0.111 OA 
BRANCH  16  17
HETATM   17  C   UNL     1      -7.633   9.783  68.711  1.00  0.00    -0.076 C  
HETATM   18  N   UNL     1      -6.069  10.042  70.625  1.00  0.00    -0.092 NA 
HETATM   19  C   UNL     1      -6.466  11.968  69.218  1.00  0.00    -0.111 C  
HETATM   20  H1  UNL     1      -5.712  10.660  71.353  1.00  0.00     0.000 HD 
HETATM   21  H2  UNL     1      -5.316   9.670  70.045  1.00  0.00     0.000 HD 
HETATM   22  C   UNL     1      -7.467  12.742  68.359  1.00  0.00    -0.124 C  
HETATM   23  C   UNL     1      -7.094  10.718  69.813  1.00  0.00    -0.124 C  
HETATM   24  N   UNL     1      -6.776  13.978  67.952  1.00  0.00    -0.147 NA 
HETATM   25  C   UNL     1      -7.975  11.886  67.156  1.00  0.00    -0.172 C  
HETATM   26  H   UNL     1      -9.132  10.055  65.845  1.00  0.00     0.000 HD 
HETATM   27  H1  UNL     1      -7.444  14.494  67.380  1.00  0.00     0.000 HD 
HETATM   28  C   UNL     1      -8.502  10.500  67.641  1.00  0.00    -0.115 C  
HETATM   29  H2  UNL     1      -5.882  13.813  67.489  1.00  0.00     0.000 HD 
HETATM   30  O   UNL     1      -8.602   9.616  66.500  1.00  0.00    -0.125 OA 
BRANCH  25  31
HETATM   31  O   UNL     1      -9.079  12.516  66.433  1.00  0.00    -0.208 OA 
BRANCH  31  32
HETATM   32  C   UNL     1      -9.903  13.389  67.216  1.00  0.00    -0.233 C  
HETATM   33  O   UNL     1      -9.417  14.738  67.232  1.00  0.00    -0.206 OA 
HETATM   34  C   UNL     1      -9.526  15.388  65.954  1.00  0.00    -0.334 C  
HETATM   35  C   UNL     1     -10.996  15.462  65.513  1.00  0.00    -0.343 C  
HETATM   36  H   UNL     1     -12.749  11.923  66.428  1.00  0.00     0.000 HD 
HETATM   37  C   UNL     1     -11.593  14.045  65.421  1.00  0.00    -0.328 C  
HETATM   38  H1  UNL     1     -13.417  13.168  64.968  1.00  0.00     0.000 HD 
HETATM   39  O   UNL     1     -11.153  16.144  64.266  1.00  0.00    -1.042 OA 
HETATM   40  H   UNL     1     -12.062  16.190  63.993  1.00  0.00     0.000 HD 
HETATM   41  H2  UNL     1     -13.156  14.631  64.166  1.00  0.00     0.000 HD 
HETATM   42  C   UNL     1     -11.385  13.321  66.763  1.00  0.00    -0.327 C  
HETATM   43  N   UNL     1     -13.022  14.107  65.030  1.00  0.00    -0.713 NA 
HETATM   44  O   UNL     1     -11.842  11.964  66.706  1.00  0.00    -0.598 OA 
BRANCH  34  45
HETATM   45  C   UNL     1      -8.940  16.801  66.080  1.00  0.00    -0.260 C  
HETATM   46  O   UNL     1      -9.632  17.549  67.079  1.00  0.00    -0.253 OA 
HETATM   47  H   UNL     1      -9.269  18.424  67.157  1.00  0.00     0.000 HD 
ENDBRANCH  34  45
ENDBRANCH  31  32
ENDBRANCH  25  31
ENDBRANCH  16  17
ENDBRANCH   7  16
ENDBRANCH   2   5
TORSDOF 6
ENDMDL
MODEL       70
REMARK 921   NORMALIZED FREE ENERGY PREDICTED BY IDOCK:   -6.44 KCAL/MOL
REMARK 922        TOTAL FREE ENERGY PREDICTED BY IDOCK:   -9.76 KCAL/MOL
REMARK 923 INTER-LIGAND FREE ENERGY PREDICTED BY IDOCK:   -9.71 KCAL/MOL
REMARK 924 INTRA-LIGAND FREE ENERGY PREDICTED BY IDOCK:   -0.05 KCAL/MOL
REMARK 927      BINDING AFFINITY PREDICTED BY RF-SCORE:    0.00 PKD
ROOT
HETATM    1  N   UNL     1      -8.753  10.989  63.465  1.00  0.00    -0.389 NA 
HETATM    2  C   UNL     1      -8.631  10.279  64.746  1.00  0.00    -0.184 C  
HETATM    3  H2  UNL     1      -7.949  11.594  63.300  1.00  0.00     0.000 HD 
HETATM    4  H1  UNL     1      -8.901  10.352  62.683  1.00  0.00     0.000 HD 
ENDROOT
BRANCH   2   5
HETATM    5  C   UNL     1      -8.406  11.247  65.935  1.00  0.00    -0.023 C  
HETATM    6  O   UNL     1      -9.616  11.908  66.337  1.00  0.00    -0.213 OA 
HETATM    7  C   UNL     1     -10.587  11.070  66.944  1.00  0.00    -0.258 C  
HETATM    8  C   UNL     1     -10.005  10.445  68.254  1.00  0.00    -0.151 C  
HETATM    9  C   UNL     1      -7.718  10.562  67.132  1.00  0.00    -0.101 C  
HETATM   10  N   UNL     1      -9.751  11.454  69.305  1.00  0.00    -0.404 NA 
HETATM   11  C   UNL     1      -8.698   9.697  67.932  1.00  0.00    -0.119 C  
HETATM   12  H   UNL     1      -6.742  11.161  68.711  1.00  0.00     0.000 HD 
HETATM   13  H1  UNL     1      -9.372  11.046  70.160  1.00  0.00     0.000 HD 
HETATM   14  H2  UNL     1     -10.592  11.997  69.501  1.00  0.00     0.000 HD 
HETATM   15  O   UNL     1      -7.166  11.583  67.973  1.00  0.00    -0.078 OA 
BRANCH   7  16
HETATM   16  O   UNL     1     -11.770  11.825  67.255  1.00  0.00    -0.546 OA 
BRANCH  16  17
HETATM   17  C   UNL     1     -11.855  13.170  66.700  1.00  0.00    -0.391 C  
HETATM   18  N   UNL     1     -13.267  12.509  64.764  1.00  0.00    -0.740 NA 
HETATM   19  C   UNL     1     -12.073  14.607  64.631  1.00  0.00    -0.466 C  
HETATM   20  H1  UNL     1     -13.379  12.520  63.751  1.00  0.00     0.000 HD 
HETATM   21  H2  UNL     1     -14.080  12.906  65.236  1.00  0.00     0.000 HD 
HETATM   22  C   UNL     1     -10.811  15.388  64.998  1.00  0.00    -0.444 C  
HETATM   23  C   UNL     1     -12.023  13.186  65.166  1.00  0.00    -0.394 C  
HETATM   24  N   UNL     1     -10.932  16.690  64.320  1.00  0.00    -1.120 NA 
HETATM   25  C   UNL     1     -10.635  15.503  66.545  1.00  0.00    -0.307 C  
HETATM   26  H   UNL     1     -10.250  14.854  68.962  1.00  0.00     0.000 HD 
HETATM   27  H1  UNL     1     -10.090  17.211  64.565  1.00  0.00     0.000 HD 
HETATM   28  C   UNL     1     -10.727  14.102  67.223  1.00  0.00    -0.279 C  
HETATM   29  H2  UNL     1     -11.797  17.186  64.540  1.00  0.00     0.000 HD 
HETATM   30  O   UNL     1     -10.939  14.284  68.643  1.00  0.00    -0.235 OA 
BRANCH  25  31
HETATM   31  O   UNL     1      -9.341  16.063  66.933  1.00  0.00    -0.214 OA 
BRANCH  31  32
HETATM   32  C   UNL     1      -9.332  16.780  68.174  1.00  0.00    -0.234 C  
HETATM   33  O   UNL     1      -8.022  16.866  68.750  1.00  0.00    -0.242 OA 
HETATM   34  C   UNL     1      -7.128  17.695  67.989  1.00  0.00    -0.200 C  
HETATM   35  C   UNL     1      -7.663  19.134  67.912  1.00  0.00    -0.275 C  
HETATM   36  H   UNL     1     -11.666  18.940  67.305  1.00  0.00     0.000 HD 
HETATM   37  C   UNL     1      -9.057  19.145  67.257  1.00  0.00    -0.295 C  
HETATM   38  H1  UNL     1     -10.521  20.532  66.775  1.00  0.00     0.000 HD 
HETATM   39  O   UNL     1      -6.777  20.003  67.200  1.00  0.00    -0.204 OA 
HETATM   40  H   UNL     1      -7.108  20.892  67.153  1.00  0.00     0.000 HD 
HETATM   41  H2  UNL     1      -8.956  21.168  66.746  1.00  0.00     0.000 HD 
HETATM   42  C   UNL     1      -9.981  18.181  68.020  1.00  0.00    -0.345 C  
HETATM   43  N   UNL     1      -9.598  20.525  67.209  1.00  0.00    -0.444 NA 
HETATM   44  O   UNL     1     -11.269  18.082  67.399  1.00  0.00    -0.052 OA 
BRANCH  34  45
HETATM   45  C   UNL     1      -5.754  17.678  68.673  1.00  0.00    -0.164 C  
HETATM   46  O   UNL     1      -5.553  18.866  69.437  1.00  0.00    -0.200 OA 
HETATM   47  H   UNL     1      -4.703  18.856  69.861  1.00  0.00     0.000 HD 
ENDBRANCH  34  45
ENDBRANCH  31  32
ENDBRANCH  25  31
ENDBRANCH  16  17
ENDBRANCH   7  16
ENDBRANCH   2   5
TORSDOF 6
ENDMDL
MODEL       71
REMARK 921   NORMALIZED FREE ENERGY PREDICTED BY IDOCK:   -6.44 KCAL/MOL
REMARK 922        TOTAL FREE ENERGY PREDICTED BY IDOCK:   -9.76 KCAL/MOL
REMARK 923 INTER-LIGAND FREE ENERGY PREDICTED BY IDOCK:   -9.13 KCAL/MOL
REMARK 924 INTRA-LIGAND FREE ENERGY PREDICTED BY IDOCK:   -0.63 KCAL/MOL
REMARK 927      BINDING AFFINITY PREDICTED BY RF-SCORE:    0.00 PKD
ROOT
HETATM    1  N   UNL     1     -11.448  16.475  70.953  1.00  0.00    -0.532 NA 
HETATM    2  C   UNL     1     -11.354  16.747  69.512  1.00  0.00     0.208 C  
HETATM    3  H2  UNL     1     -11.269  17.317  71.499  1.00  0.00     0.000 HD 
HETATM    4  H1  UNL     1     -12.339  16.052  71.210  1.00  0.00     0.000 HD 
ENDROOT
BRANCH   2   5
HETATM    5  C   UNL     1      -9.999  17.389  69.122  1.00  0.00    -0.200 C  
HETATM    6  O   UNL     1      -9.402  16.754  67.980  1.00  0.00    -0.222 OA 
HETATM    7  C   UNL     1     -10.080  16.963  66.752  1.00  0.00    -0.294 C  
HETATM    8  C   UNL     1     -10.103  18.488  66.409  1.00  0.00    -0.405 C  
HETATM    9  C   UNL     1     -10.104  18.914  68.924  1.00  0.00    -0.311 C  
HETATM   10  N   UNL     1      -8.757  19.031  66.126  1.00  0.00    -0.458 NA 
HETATM   11  C   UNL     1     -10.739  19.269  67.574  1.00  0.00    -0.571 C  
HETATM   12  H   UNL     1      -8.849  20.407  68.882  1.00  0.00     0.000 HD 
HETATM   13  H1  UNL     1      -8.771  20.026  65.902  1.00  0.00     0.000 HD 
HETATM   14  H2  UNL     1      -8.295  18.497  65.391  1.00  0.00     0.000 HD 
HETATM   15  O   UNL     1      -8.784  19.467  69.004  1.00  0.00    -0.347 OA 
BRANCH   7  16
HETATM   16  O   UNL     1      -9.426  16.241  65.695  1.00  0.00    -0.463 OA 
BRANCH  16  17
HETATM   17  C   UNL     1     -10.098  15.044  65.205  1.00  0.00    -0.315 C  
HETATM   18  N   UNL     1     -11.543  16.260  63.589  1.00  0.00    -1.280 NA 
HETATM   19  C   UNL     1     -12.206  14.029  64.244  1.00  0.00    -0.453 C  
HETATM   20  H1  UNL     1     -12.493  16.436  63.264  1.00  0.00     0.000 HD 
HETATM   21  H2  UNL     1     -10.938  15.947  62.829  1.00  0.00     0.000 HD 
HETATM   22  C   UNL     1     -12.249  12.981  65.357  1.00  0.00    -0.471 C  
HETATM   23  C   UNL     1     -11.536  15.310  64.713  1.00  0.00    -0.322 C  
HETATM   24  N   UNL     1     -13.025  11.852  64.815  1.00  0.00    -0.094 NA 
HETATM   25  C   UNL     1     -10.815  12.584  65.830  1.00  0.00    -0.276 C  
HETATM   26  H   UNL     1      -8.505  12.746  66.853  1.00  0.00     0.000 HD 
HETATM   27  H1  UNL     1     -13.054  11.153  65.557  1.00  0.00     0.000 HD 
HETATM   28  C   UNL     1      -9.977  13.848  66.190  1.00  0.00    -0.310 C  
HETATM   29  H2  UNL     1     -12.662  11.494  63.931  1.00  0.00     0.000 HD 
HETATM   30  O   UNL     1      -8.579  13.477  66.251  1.00  0.00     0.225 OA 
BRANCH  25  31
HETATM   31  O   UNL     1     -10.821  11.740  67.024  1.00  0.00    -0.237 OA 
BRANCH  31  32
HETATM   32  C   UNL     1     -10.651  10.337  66.783  1.00  0.00    -0.185 C  
HETATM   33  O   UNL     1     -10.663  10.013  65.387  1.00  0.00     0.099 OA 
HETATM   34  C   UNL     1      -9.515  10.518  64.684  1.00  0.00    -0.263 C  
HETATM   35  C   UNL     1      -8.225   9.913  65.257  1.00  0.00    -0.145 C  
HETATM   36  H   UNL     1      -8.575   9.839  69.295  1.00  0.00     0.000 HD 
HETATM   37  C   UNL     1      -8.101  10.254  66.755  1.00  0.00    -0.121 C  
HETATM   38  H1  UNL     1      -6.794   9.871  68.318  1.00  0.00     0.000 HD 
HETATM   39  O   UNL     1      -7.060  10.355  64.554  1.00  0.00    -0.283 OA 
HETATM   40  H   UNL     1      -6.262   9.981  64.908  1.00  0.00     0.000 HD 
HETATM   41  H2  UNL     1      -6.041   9.913  66.807  1.00  0.00     0.000 HD 
HETATM   42  C   UNL     1      -9.376   9.797  67.483  1.00  0.00    -0.133 C  
HETATM   43  N   UNL     1      -6.876   9.645  67.327  1.00  0.00    -0.082 NA 
HETATM   44  O   UNL     1      -9.356  10.170  68.867  1.00  0.00    -0.160 OA 
BRANCH  34  45
HETATM   45  C   UNL     1      -9.658  10.150  63.200  1.00  0.00    -0.173 C  
HETATM   46  O   UNL     1      -9.832  11.321  62.402  1.00  0.00    -0.555 OA 
HETATM   47  H   UNL     1      -9.920  11.094  61.484  1.00  0.00     0.000 HD 
ENDBRANCH  34  45
ENDBRANCH  31  32
ENDBRANCH  25  31
ENDBRANCH  16  17
ENDBRANCH   7  16
ENDBRANCH   2   5
TORSDOF 6
ENDMDL
MODEL       72
REMARK 921   NORMALIZED FREE ENERGY PREDICTED BY IDOCK:   -6.44 KCAL/MOL
REMARK 922        TOTAL FREE ENERGY PREDICTED BY IDOCK:   -9.75 KCAL/MOL
REMARK 923 INTER-LIGAND FREE ENERGY PREDICTED BY IDOCK:   -9.74 KCAL/MOL
REMARK 924 INTRA-LIGAND FREE ENERGY PREDICTED BY IDOCK:   -0.01 KCAL/MOL
REMARK 927      BINDING AFFINITY PREDICTED BY RF-SCORE:    0.00 PKD
ROOT
HETATM    1  N   UNL     1      -5.424  18.315  66.198  1.00  0.00    -0.152 NA 
HETATM    2  C   UNL     1      -6.761  17.941  65.716  1.00  0.00    -0.227 C  
HETATM    3  H2  UNL     1      -5.427  18.478  67.205  1.00  0.00     0.000 HD 
HETATM    4  H1  UNL     1      -4.715  17.630  65.939  1.00  0.00     0.000 HD 
ENDROOT
BRANCH   2   5
HETATM    5  C   UNL     1      -7.839  18.982  66.110  1.00  0.00    -0.264 C  
HETATM    6  O   UNL     1      -9.171  18.454  66.011  1.00  0.00    -0.505 OA 
HETATM    7  C   UNL     1      -9.496  17.459  66.969  1.00  0.00    -0.266 C  
HETATM    8  C   UNL     1      -9.397  18.055  68.411  1.00  0.00    -0.300 C  
HETATM    9  C   UNL     1      -7.583  19.599  67.500  1.00  0.00    -0.264 C  
HETATM   10  N   UNL     1     -10.416  19.094  68.671  1.00  0.00    -0.455 NA 
HETATM   11  C   UNL     1      -7.991  18.645  68.628  1.00  0.00    -0.356 C  
HETATM   12  H   UNL     1      -8.175  21.197  68.449  1.00  0.00     0.000 HD 
HETATM   13  H1  UNL     1     -10.352  19.484  69.612  1.00  0.00     0.000 HD 
HETATM   14  H2  UNL     1     -11.355  18.741  68.485  1.00  0.00     0.000 HD 
HETATM   15  O   UNL     1      -8.333  20.817  67.592  1.00  0.00    -0.201 OA 
BRANCH   7  16
HETATM   16  O   UNL     1     -10.828  16.968  66.741  1.00  0.00    -0.157 OA 
BRANCH  16  17
HETATM   17  C   UNL     1     -10.946  15.640  66.152  1.00  0.00    -0.206 C  
HETATM   18  N   UNL     1     -11.469  16.468  63.868  1.00  0.00    -1.599 NA 
HETATM   19  C   UNL     1     -12.036  14.179  64.400  1.00  0.00    -0.486 C  
HETATM   20  H1  UNL     1     -12.113  16.434  63.078  1.00  0.00     0.000 HD 
HETATM   21  H2  UNL     1     -10.513  16.253  63.583  1.00  0.00     0.000 HD 
HETATM   22  C   UNL     1     -12.509  13.191  65.467  1.00  0.00    -0.458 C  
HETATM   23  C   UNL     1     -11.921  15.588  64.957  1.00  0.00     0.161 C  
HETATM   24  N   UNL     1     -12.697  11.906  64.771  1.00  0.00    -0.193 NA 
HETATM   25  C   UNL     1     -11.509  13.114  66.663  1.00  0.00    -0.348 C  
HETATM   26  H   UNL     1     -10.156  13.784  68.695  1.00  0.00     0.000 HD 
HETATM   27  H1  UNL     1     -13.013  11.248  65.483  1.00  0.00     0.000 HD 
HETATM   28  C   UNL     1     -11.192  14.536  67.218  1.00  0.00    -0.332 C  
HETATM   29  H2  UNL     1     -11.869  11.593  64.262  1.00  0.00     0.000 HD 
HETATM   30  O   UNL     1     -10.006  14.459  68.044  1.00  0.00    -0.216 OA 
BRANCH  25  31
HETATM   31  O   UNL     1     -12.025  12.337  67.789  1.00  0.00    -0.474 OA 
BRANCH  31  32
HETATM   32  C   UNL     1     -11.196  12.331  68.958  1.00  0.00    -0.265 C  
HETATM   33  O   UNL     1     -11.788  13.035  70.057  1.00  0.00    -0.322 OA 
HETATM   34  C   UNL     1     -12.950  12.375  70.585  1.00  0.00     0.214 C  
HETATM   35  C   UNL     1     -12.583  10.980  71.113  1.00  0.00    -0.418 C  
HETATM   36  H   UNL     1     -10.003   9.295  68.479  1.00  0.00     0.000 HD 
HETATM   37  C   UNL     1     -11.979  10.128  69.980  1.00  0.00    -0.136 C  
HETATM   38  H1  UNL     1     -11.188   8.227  69.736  1.00  0.00     0.000 HD 
HETATM   39  O   UNL     1     -13.706  10.306  71.690  1.00  0.00    -0.185 OA 
HETATM   40  H   UNL     1     -13.478   9.443  72.016  1.00  0.00     0.000 HD 
HETATM   41  H2  UNL     1     -12.366   8.316  70.944  1.00  0.00     0.000 HD 
HETATM   42  C   UNL     1     -10.794  10.886  69.356  1.00  0.00    -0.240 C  
HETATM   43  N   UNL     1     -11.588   8.790  70.487  1.00  0.00    -0.204 NA 
HETATM   44  O   UNL     1     -10.248  10.180  68.235  1.00  0.00    -0.154 OA 
BRANCH  34  45
HETATM   45  C   UNL     1     -13.521  13.237  71.721  1.00  0.00    -0.354 C  
HETATM   46  O   UNL     1     -13.634  14.600  71.314  1.00  0.00    -0.374 OA 
HETATM   47  H   UNL     1     -13.987  15.133  72.017  1.00  0.00     0.000 HD 
ENDBRANCH  34  45
ENDBRANCH  31  32
ENDBRANCH  25  31
ENDBRANCH  16  17
ENDBRANCH   7  16
ENDBRANCH   2   5
TORSDOF 6
ENDMDL
MODEL       73
REMARK 921   NORMALIZED FREE ENERGY PREDICTED BY IDOCK:   -6.42 KCAL/MOL
REMARK 922        TOTAL FREE ENERGY PREDICTED BY IDOCK:   -9.73 KCAL/MOL
REMARK 923 INTER-LIGAND FREE ENERGY PREDICTED BY IDOCK:   -8.46 KCAL/MOL
REMARK 924 INTRA-LIGAND FREE ENERGY PREDICTED BY IDOCK:   -1.27 KCAL/MOL
REMARK 927      BINDING AFFINITY PREDICTED BY RF-SCORE:    0.00 PKD
ROOT
HETATM    1  N   UNL     1      -7.029  21.318  66.761  1.00  0.00    -0.742 NA 
HETATM    2  C   UNL     1      -8.207  20.573  67.229  1.00  0.00    -0.300 C  
HETATM    3  H2  UNL     1      -7.260  21.908  65.962  1.00  0.00     0.000 HD 
HETATM    4  H1  UNL     1      -6.595  21.862  67.507  1.00  0.00     0.000 HD 
ENDROOT
BRANCH   2   5
HETATM    5  C   UNL     1      -8.866  19.747  66.096  1.00  0.00    -0.336 C  
HETATM    6  O   UNL     1      -8.238  18.468  65.916  1.00  0.00    -0.497 OA 
HETATM    7  C   UNL     1      -8.437  17.546  66.975  1.00  0.00    -0.234 C  
HETATM    8  C   UNL     1      -9.961  17.236  67.133  1.00  0.00    -0.282 C  
HETATM    9  C   UNL     1     -10.390  19.602  66.282  1.00  0.00    -0.518 C  
HETATM   10  N   UNL     1     -10.522  16.513  65.971  1.00  0.00    -0.328 NA 
HETATM   11  C   UNL     1     -10.735  18.551  67.344  1.00  0.00    -0.424 C  
HETATM   12  H   UNL     1     -11.899  19.140  65.136  1.00  0.00     0.000 HD 
HETATM   13  H1  UNL     1     -11.516  16.311  66.074  1.00  0.00     0.000 HD 
HETATM   14  H2  UNL     1      -9.993  15.662  65.780  1.00  0.00     0.000 HD 
HETATM   15  O   UNL     1     -10.960  19.230  65.021  1.00  0.00    -0.370 OA 
BRANCH   7  16
HETATM   16  O   UNL     1      -7.723  16.326  66.711  1.00  0.00    -0.215 OA 
BRANCH  16  17
HETATM   17  C   UNL     1      -7.729  15.321  67.767  1.00  0.00    -0.149 C  
HETATM   18  N   UNL     1      -6.535  16.743  69.418  1.00  0.00    -0.222 NA 
HETATM   19  C   UNL     1      -6.562  14.355  69.791  1.00  0.00    -0.142 C  
HETATM   20  H1  UNL     1      -5.742  16.824  70.055  1.00  0.00     0.000 HD 
HETATM   21  H2  UNL     1      -7.420  16.912  69.897  1.00  0.00     0.000 HD 
HETATM   22  C   UNL     1      -6.553  12.960  69.164  1.00  0.00    -0.104 C  
HETATM   23  C   UNL     1      -6.529  15.442  68.730  1.00  0.00    -0.105 C  
HETATM   24  N   UNL     1      -6.459  12.014  70.289  1.00  0.00    -0.474 NA 
HETATM   25  C   UNL     1      -7.802  12.730  68.256  1.00  0.00    -0.141 C  
HETATM   26  H   UNL     1      -9.438  12.961  66.338  1.00  0.00     0.000 HD 
HETATM   27  H1  UNL     1      -6.453  11.084  69.870  1.00  0.00     0.000 HD 
HETATM   28  C   UNL     1      -7.959  13.884  67.220  1.00  0.00    -0.129 C  
HETATM   29  H2  UNL     1      -7.188  12.141  70.991  1.00  0.00     0.000 HD 
HETATM   30  O   UNL     1      -9.297  13.839  66.672  1.00  0.00    -0.269 OA 
BRANCH  25  31
HETATM   31  O   UNL     1      -7.725  11.491  67.483  1.00  0.00    -0.118 OA 
BRANCH  31  32
HETATM   32  C   UNL     1      -8.861  10.625  67.601  1.00  0.00    -0.131 C  
HETATM   33  O   UNL     1      -9.886  10.929  66.645  1.00  0.00    -0.188 OA 
HETATM   34  C   UNL     1      -9.497  10.631  65.293  1.00  0.00    -0.221 C  
HETATM   35  C   UNL     1      -9.192   9.133  65.139  1.00  0.00    -0.153 C  
HETATM   36  H   UNL     1      -7.128   7.944  68.420  1.00  0.00     0.000 HD 
HETATM   37  C   UNL     1      -8.060   8.723  66.101  1.00  0.00    -0.107 C  
HETATM   38  H1  UNL     1      -7.030   7.001  66.623  1.00  0.00     0.000 HD 
HETATM   39  O   UNL     1      -8.845   8.787  63.795  1.00  0.00    -0.430 OA 
HETATM   40  H   UNL     1      -8.656   7.861  63.700  1.00  0.00     0.000 HD 
HETATM   41  H2  UNL     1      -7.577   7.000  65.024  1.00  0.00     0.000 HD 
HETATM   42  C   UNL     1      -8.442   9.133  67.534  1.00  0.00    -0.116 C  
HETATM   43  N   UNL     1      -7.780   7.272  65.986  1.00  0.00    -0.092 NA 
HETATM   44  O   UNL     1      -7.384   8.857  68.461  1.00  0.00    -0.078 OA 
BRANCH  34  45
HETATM   45  C   UNL     1     -10.648  11.034  64.361  1.00  0.00    -0.325 C  
HETATM   46  O   UNL     1     -10.159  11.342  63.056  1.00  0.00    -0.522 OA 
HETATM   47  H   UNL     1     -10.871  11.592  62.479  1.00  0.00     0.000 HD 
ENDBRANCH  34  45
ENDBRANCH  31  32
ENDBRANCH  25  31
ENDBRANCH  16  17
ENDBRANCH   7  16
ENDBRANCH   2   5
TORSDOF 6
ENDMDL
MODEL       74
REMARK 921   NORMALIZED FREE ENERGY PREDICTED BY IDOCK:   -6.42 KCAL/MOL
REMARK 922        TOTAL FREE ENERGY PREDICTED BY IDOCK:   -9.72 KCAL/MOL
REMARK 923 INTER-LIGAND FREE ENERGY PREDICTED BY IDOCK:   -8.22 KCAL/MOL
REMARK 924 INTRA-LIGAND FREE ENERGY PREDICTED BY IDOCK:   -1.50 KCAL/MOL
REMARK 927      BINDING AFFINITY PREDICTED BY RF-SCORE:    0.00 PKD
ROOT
HETATM    1  N   UNL     1      -7.474   3.343  64.986  1.00  0.00    -0.072 NA 
HETATM    2  C   UNL     1      -8.365   4.498  65.172  1.00  0.00    -0.122 C  
HETATM    3  H2  UNL     1      -7.666   2.615  65.673  1.00  0.00     0.000 HD 
HETATM    4  H1  UNL     1      -7.514   2.974  64.036  1.00  0.00     0.000 HD 
ENDROOT
BRANCH   2   5
HETATM    5  C   UNL     1      -8.304   5.059  66.615  1.00  0.00    -0.107 C  
HETATM    6  O   UNL     1      -8.040   6.471  66.641  1.00  0.00    -0.107 OA 
HETATM    7  C   UNL     1      -9.092   7.289  66.153  1.00  0.00    -0.122 C  
HETATM    8  C   UNL     1     -10.369   7.093  67.033  1.00  0.00    -0.298 C  
HETATM    9  C   UNL     1      -9.560   4.709  67.437  1.00  0.00    -0.167 C  
HETATM   10  N   UNL     1     -10.193   7.589  68.416  1.00  0.00    -0.181 NA 
HETATM   11  C   UNL     1     -10.750   5.601  67.065  1.00  0.00    -0.332 C  
HETATM   12  H   UNL     1     -10.016   4.653  69.333  1.00  0.00     0.000 HD 
HETATM   13  H1  UNL     1     -11.027   7.462  68.990  1.00  0.00     0.000 HD 
HETATM   14  H2  UNL     1      -9.892   8.563  68.419  1.00  0.00     0.000 HD 
HETATM   15  O   UNL     1      -9.242   4.868  68.826  1.00  0.00    -0.108 OA 
BRANCH   7  16
HETATM   16  O   UNL     1      -8.697   8.671  66.178  1.00  0.00    -0.138 OA 
BRANCH  16  17
HETATM   17  C   UNL     1      -9.564   9.613  65.480  1.00  0.00    -0.283 C  
HETATM   18  N   UNL     1      -9.159   8.644  63.228  1.00  0.00    -0.165 NA 
HETATM   19  C   UNL     1     -10.040  10.892  63.352  1.00  0.00    -0.398 C  
HETATM   20  H1  UNL     1      -8.870   8.821  62.266  1.00  0.00     0.000 HD 
HETATM   21  H2  UNL     1     -10.074   8.194  63.269  1.00  0.00     0.000 HD 
HETATM   22  C   UNL     1     -10.064  12.218  64.113  1.00  0.00    -0.302 C  
HETATM   23  C   UNL     1      -9.127   9.881  64.025  1.00  0.00    -0.259 C  
HETATM   24  N   UNL     1     -10.876  13.136  63.295  1.00  0.00    -0.326 NA 
HETATM   25  C   UNL     1     -10.601  12.037  65.568  1.00  0.00    -0.273 C  
HETATM   26  H   UNL     1     -10.753  11.300  67.985  1.00  0.00     0.000 HD 
HETATM   27  H1  UNL     1     -10.891  14.021  63.803  1.00  0.00     0.000 HD 
HETATM   28  C   UNL     1      -9.832  10.901  66.309  1.00  0.00    -0.216 C  
HETATM   29  H2  UNL     1     -11.804  12.775  63.075  1.00  0.00     0.000 HD 
HETATM   30  O   UNL     1     -10.589  10.513  67.479  1.00  0.00    -0.221 OA 
BRANCH  25  31
HETATM   31  O   UNL     1     -10.449  13.239  66.386  1.00  0.00    -0.276 OA 
BRANCH  31  32
HETATM   32  C   UNL     1     -11.617  14.062  66.487  1.00  0.00    -0.374 C  
HETATM   33  O   UNL     1     -12.331  13.857  67.713  1.00  0.00    -0.252 OA 
HETATM   34  C   UNL     1     -11.611  14.322  68.867  1.00  0.00    -0.305 C  
HETATM   35  C   UNL     1     -11.351  15.833  68.765  1.00  0.00    -0.362 C  
HETATM   36  H   UNL     1     -10.305  16.658  64.936  1.00  0.00     0.000 HD 
HETATM   37  C   UNL     1     -10.541  16.145  67.492  1.00  0.00    -0.314 C  
HETATM   38  H1  UNL     1      -9.778  17.812  66.523  1.00  0.00     0.000 HD 
HETATM   39  O   UNL     1     -10.675  16.345  69.917  1.00  0.00    -0.330 OA 
HETATM   40  H   UNL     1     -10.515  17.279  69.854  1.00  0.00     0.000 HD 
HETATM   41  H2  UNL     1      -9.876  17.995  68.199  1.00  0.00     0.000 HD 
HETATM   42  C   UNL     1     -11.272  15.559  66.272  1.00  0.00    -0.096 C  
HETATM   43  N   UNL     1     -10.315  17.605  67.365  1.00  0.00    -0.349 NA 
HETATM   44  O   UNL     1     -10.517  15.742  65.068  1.00  0.00    -0.462 OA 
BRANCH  34  45
HETATM   45  C   UNL     1     -12.448  14.012  70.116  1.00  0.00    -0.319 C  
HETATM   46  O   UNL     1     -13.134  15.179  70.568  1.00  0.00    -0.590 OA 
HETATM   47  H   UNL     1     -13.652  14.988  71.341  1.00  0.00     0.000 HD 
ENDBRANCH  34  45
ENDBRANCH  31  32
ENDBRANCH  25  31
ENDBRANCH  16  17
ENDBRANCH   7  16
ENDBRANCH   2   5
TORSDOF 6
ENDMDL
MODEL       75
REMARK 921   NORMALIZED FREE ENERGY PREDICTED BY IDOCK:   -6.41 KCAL/MOL
REMARK 922        TOTAL FREE ENERGY PREDICTED BY IDOCK:   -9.72 KCAL/MOL
REMARK 923 INTER-LIGAND FREE ENERGY PREDICTED BY IDOCK:   -8.17 KCAL/MOL
REMARK 924 INTRA-LIGAND FREE ENERGY PREDICTED BY IDOCK:   -1.55 KCAL/MOL
REMARK 927      BINDING AFFINITY PREDICTED BY RF-SCORE:    0.00 PKD
ROOT
HETATM    1  N   UNL     1     -12.296  13.168  63.782  1.00  0.00    -0.680 NA 
HETATM    2  C   UNL     1     -12.048  12.202  64.862  1.00  0.00    -0.272 C  
HETATM    3  H2  UNL     1     -11.659  13.962  63.845  1.00  0.00     0.000 HD 
HETATM    4  H1  UNL     1     -12.255  12.736  62.860  1.00  0.00     0.000 HD 
ENDROOT
BRANCH   2   5
HETATM    5  C   UNL     1     -12.110  12.860  66.263  1.00  0.00    -0.365 C  
HETATM    6  O   UNL     1     -11.633  11.985  67.298  1.00  0.00    -0.388 OA 
HETATM    7  C   UNL     1     -10.241  11.718  67.266  1.00  0.00    -0.203 C  
HETATM    8  C   UNL     1      -9.439  13.048  67.449  1.00  0.00    -0.210 C  
HETATM    9  C   UNL     1     -11.393  14.223  66.307  1.00  0.00    -0.346 C  
HETATM   10  N   UNL     1      -9.619  13.644  68.791  1.00  0.00    -0.408 NA 
HETATM   11  C   UNL     1      -9.870  14.062  66.373  1.00  0.00    -0.306 C  
HETATM   12  H   UNL     1     -11.418  15.778  67.486  1.00  0.00     0.000 HD 
HETATM   13  H1  UNL     1      -9.096  14.511  68.911  1.00  0.00     0.000 HD 
HETATM   14  H2  UNL     1      -9.387  12.973  69.523  1.00  0.00     0.000 HD 
HETATM   15  O   UNL     1     -11.861  14.937  67.459  1.00  0.00    -0.350 OA 
BRANCH   7  16
HETATM   16  O   UNL     1      -9.888  10.795  68.310  1.00  0.00    -0.157 OA 
BRANCH  16  17
HETATM   17  C   UNL     1     -10.988  10.140  69.006  1.00  0.00    -0.226 C  
HETATM   18  N   UNL     1     -11.761  12.200  70.164  1.00  0.00    -0.525 NA 
HETATM   19  C   UNL     1     -12.465  10.067  71.058  1.00  0.00    -0.460 C  
HETATM   20  H1  UNL     1     -11.991  12.638  71.055  1.00  0.00     0.000 HD 
HETATM   21  H2  UNL     1     -12.532  12.270  69.500  1.00  0.00     0.000 HD 
HETATM   22  C   UNL     1     -12.107   8.601  71.305  1.00  0.00    -0.290 C  
HETATM   23  C   UNL     1     -11.336  10.804  70.355  1.00  0.00    -0.255 C  
HETATM   24  N   UNL     1     -13.220   8.043  72.093  1.00  0.00    -0.498 NA 
HETATM   25  C   UNL     1     -11.846   7.839  69.968  1.00  0.00     0.349 C  
HETATM   26  H   UNL     1     -10.770   7.141  67.784  1.00  0.00     0.000 HD 
HETATM   27  H1  UNL     1     -12.981   7.065  72.259  1.00  0.00     0.000 HD 
HETATM   28  C   UNL     1     -10.808   8.599  69.086  1.00  0.00    -0.039 C  
HETATM   29  H2  UNL     1     -14.134   8.173  71.658  1.00  0.00     0.000 HD 
HETATM   30  O   UNL     1     -10.879   8.084  67.736  1.00  0.00    -0.146 OA 
BRANCH  25  31
HETATM   31  O   UNL     1     -11.307   6.495  70.172  1.00  0.00    -0.341 OA 
BRANCH  31  32
HETATM   32  C   UNL     1      -9.944   6.444  70.614  1.00  0.00    -0.185 C  
HETATM   33  O   UNL     1      -9.826   6.489  72.042  1.00  0.00    -0.161 OA 
HETATM   34  C   UNL     1     -10.329   5.306  72.683  1.00  0.00    -0.202 C  
HETATM   35  C   UNL     1      -9.543   4.068  72.223  1.00  0.00    -0.144 C  
HETATM   36  H   UNL     1      -8.920   4.408  68.231  1.00  0.00     0.000 HD 
HETATM   37  C   UNL     1      -9.654   3.911  70.694  1.00  0.00    -0.189 C  
HETATM   38  H1  UNL     1      -8.944   2.635  69.222  1.00  0.00     0.000 HD 
HETATM   39  O   UNL     1      -9.984   2.874  72.874  1.00  0.00    -0.119 OA 
HETATM   40  H   UNL     1      -9.498   2.109  72.589  1.00  0.00     0.000 HD 
HETATM   41  H2  UNL     1      -9.140   1.887  70.724  1.00  0.00     0.000 HD 
HETATM   42  C   UNL     1      -9.204   5.217  70.018  1.00  0.00    -0.138 C  
HETATM   43  N   UNL     1      -8.870   2.739  70.234  1.00  0.00    -0.076 NA 
HETATM   44  O   UNL     1      -9.372   5.160  68.596  1.00  0.00    -0.115 OA 
BRANCH  34  45
HETATM   45  C   UNL     1     -10.191   5.484  74.202  1.00  0.00    -0.265 C  
HETATM   46  O   UNL     1     -10.279   6.864  74.560  1.00  0.00    -0.457 OA 
HETATM   47  H   UNL     1     -10.194   6.974  75.499  1.00  0.00     0.000 HD 
ENDBRANCH  34  45
ENDBRANCH  31  32
ENDBRANCH  25  31
ENDBRANCH  16  17
ENDBRANCH   7  16
ENDBRANCH   2   5
TORSDOF 6
ENDMDL
MODEL       76
REMARK 921   NORMALIZED FREE ENERGY PREDICTED BY IDOCK:   -6.38 KCAL/MOL
REMARK 922        TOTAL FREE ENERGY PREDICTED BY IDOCK:   -9.67 KCAL/MOL
REMARK 923 INTER-LIGAND FREE ENERGY PREDICTED BY IDOCK:   -8.39 KCAL/MOL
REMARK 924 INTRA-LIGAND FREE ENERGY PREDICTED BY IDOCK:   -1.28 KCAL/MOL
REMARK 927      BINDING AFFINITY PREDICTED BY RF-SCORE:    0.00 PKD
ROOT
HETATM    1  N   UNL     1      -9.796  10.499  62.359  1.00  0.00    -0.725 NA 
HETATM    2  C   UNL     1      -9.748  11.429  63.497  1.00  0.00    -0.339 C  
HETATM    3  H2  UNL     1     -10.566  10.726  61.730  1.00  0.00     0.000 HD 
HETATM    4  H1  UNL     1      -8.910  10.457  61.857  1.00  0.00     0.000 HD 
ENDROOT
BRANCH   2   5
HETATM    5  C   UNL     1     -11.095  11.492  64.260  1.00  0.00    -0.315 C  
HETATM    6  O   UNL     1     -10.959  12.088  65.560  1.00  0.00    -0.282 OA 
HETATM    7  C   UNL     1     -10.666  13.476  65.558  1.00  0.00    -0.290 C  
HETATM    8  C   UNL     1     -11.825  14.264  64.864  1.00  0.00    -0.410 C  
HETATM    9  C   UNL     1     -12.205  12.181  63.441  1.00  0.00    -0.530 C  
HETATM   10  N   UNL     1     -13.092  14.205  65.626  1.00  0.00    -0.621 NA 
HETATM   11  C   UNL     1     -12.050  13.707  63.446  1.00  0.00    -0.246 C  
HETATM   12  H   UNL     1     -14.154  12.240  63.503  1.00  0.00     0.000 HD 
HETATM   13  H1  UNL     1     -13.848  14.719  65.173  1.00  0.00     0.000 HD 
HETATM   14  H2  UNL     1     -12.957  14.523  66.585  1.00  0.00     0.000 HD 
HETATM   15  O   UNL     1     -13.470  11.815  64.008  1.00  0.00    -0.493 OA 
BRANCH   7  16
HETATM   16  O   UNL     1     -10.500  13.951  66.905  1.00  0.00    -0.272 OA 
BRANCH  16  17
HETATM   17  C   UNL     1      -9.427  13.348  67.686  1.00  0.00    -0.216 C  
HETATM   18  N   UNL     1      -7.629  14.740  66.683  1.00  0.00    -0.195 NA 
HETATM   19  C   UNL     1      -6.988  12.693  67.799  1.00  0.00    -0.125 C  
HETATM   20  H1  UNL     1      -6.729  14.749  66.204  1.00  0.00     0.000 HD 
HETATM   21  H2  UNL     1      -7.610  15.306  67.531  1.00  0.00     0.000 HD 
HETATM   22  C   UNL     1      -7.355  11.247  68.133  1.00  0.00    -0.088 C  
HETATM   23  C   UNL     1      -8.065  13.362  66.961  1.00  0.00    -0.001 C  
HETATM   24  N   UNL     1      -6.185  10.686  68.830  1.00  0.00    -0.043 NA 
HETATM   25  C   UNL     1      -8.675  11.166  68.963  1.00  0.00    -0.017 C  
HETATM   26  H   UNL     1     -11.125  11.331  69.579  1.00  0.00     0.000 HD 
HETATM   27  H1  UNL     1      -6.430   9.721  69.052  1.00  0.00     0.000 HD 
HETATM   28  C   UNL     1      -9.821  11.961  68.266  1.00  0.00    -0.199 C  
HETATM   29  H2  UNL     1      -5.893  11.231  69.642  1.00  0.00     0.000 HD 
HETATM   30  O   UNL     1     -10.884  12.179  69.224  1.00  0.00    -0.169 OA 
BRANCH  25  31
HETATM   31  O   UNL     1      -9.163   9.797  69.125  1.00  0.00    -0.157 OA 
BRANCH  31  32
HETATM   32  C   UNL     1      -9.016   9.248  70.441  1.00  0.00    -0.239 C  
HETATM   33  O   UNL     1     -10.225   9.322  71.207  1.00  0.00    -0.303 OA 
HETATM   34  C   UNL     1     -11.261   8.462  70.704  1.00  0.00    -0.255 C  
HETATM   35  C   UNL     1     -10.810   6.994  70.748  1.00  0.00    -0.246 C  
HETATM   36  H   UNL     1      -6.941   6.847  69.546  1.00  0.00     0.000 HD 
HETATM   37  C   UNL     1      -9.534   6.808  69.905  1.00  0.00    -0.156 C  
HETATM   38  H1  UNL     1      -8.224   5.278  69.410  1.00  0.00     0.000 HD 
HETATM   39  O   UNL     1     -11.832   6.100  70.297  1.00  0.00    -0.244 OA 
HETATM   40  H   UNL     1     -11.553   5.192  70.324  1.00  0.00     0.000 HD 
HETATM   41  H2  UNL     1      -9.802   4.747  69.695  1.00  0.00     0.000 HD 
HETATM   42  C   UNL     1      -8.461   7.800  70.388  1.00  0.00    -0.132 C  
HETATM   43  N   UNL     1      -9.069   5.401  69.968  1.00  0.00    -0.128 NA 
HETATM   44  O   UNL     1      -7.280   7.734  69.579  1.00  0.00    -0.075 OA 
BRANCH  34  45
HETATM   45  C   UNL     1     -12.513   8.656  71.571  1.00  0.00    -0.323 C  
HETATM   46  O   UNL     1     -13.645   8.020  70.977  1.00  0.00    -0.556 OA 
HETATM   47  H   UNL     1     -14.419   8.140  71.513  1.00  0.00     0.000 HD 
ENDBRANCH  34  45
ENDBRANCH  31  32
ENDBRANCH  25  31
ENDBRANCH  16  17
ENDBRANCH   7  16
ENDBRANCH   2   5
TORSDOF 6
ENDMDL
MODEL       77
REMARK 921   NORMALIZED FREE ENERGY PREDICTED BY IDOCK:   -6.37 KCAL/MOL
REMARK 922        TOTAL FREE ENERGY PREDICTED BY IDOCK:   -9.65 KCAL/MOL
REMARK 923 INTER-LIGAND FREE ENERGY PREDICTED BY IDOCK:   -9.18 KCAL/MOL
REMARK 924 INTRA-LIGAND FREE ENERGY PREDICTED BY IDOCK:   -0.48 KCAL/MOL
REMARK 927      BINDING AFFINITY PREDICTED BY RF-SCORE:    0.00 PKD
ROOT
HETATM    1  N   UNL     1     -12.068   5.637  72.837  1.00  0.00    -0.521 NA 
HETATM    2  C   UNL     1     -10.766   5.800  72.173  1.00  0.00    -0.231 C  
HETATM    3  H2  UNL     1     -12.416   4.684  72.735  1.00  0.00     0.000 HD 
HETATM    4  H1  UNL     1     -12.039   5.916  73.817  1.00  0.00     0.000 HD 
ENDROOT
BRANCH   2   5
HETATM    5  C   UNL     1     -10.810   5.376  70.683  1.00  0.00    -0.123 C  
HETATM    6  O   UNL     1     -11.243   6.443  69.825  1.00  0.00    -0.352 OA 
HETATM    7  C   UNL     1     -10.330   7.521  69.697  1.00  0.00    -0.225 C  
HETATM    8  C   UNL     1      -8.989   7.013  69.076  1.00  0.00    -0.133 C  
HETATM    9  C   UNL     1      -9.474   4.776  70.202  1.00  0.00    -0.175 C  
HETATM   10  N   UNL     1      -9.143   6.558  67.677  1.00  0.00    -0.113 NA 
HETATM   11  C   UNL     1      -8.427   5.863  69.933  1.00  0.00    -0.129 C  
HETATM   12  H   UNL     1      -8.903   3.662  68.705  1.00  0.00     0.000 HD 
HETATM   13  H1  UNL     1      -8.267   6.226  67.272  1.00  0.00     0.000 HD 
HETATM   14  H2  UNL     1      -9.560   7.287  67.099  1.00  0.00     0.000 HD 
HETATM   15  O   UNL     1      -9.726   4.032  69.002  1.00  0.00    -0.169 OA 
BRANCH   7  16
HETATM   16  O   UNL     1     -10.889   8.549  68.861  1.00  0.00    -0.123 OA 
BRANCH  16  17
HETATM   17  C   UNL     1     -10.888   9.904  69.397  1.00  0.00    -0.237 C  
HETATM   18  N   UNL     1     -12.234   9.337  71.408  1.00  0.00    -0.329 NA 
HETATM   19  C   UNL     1     -12.108  11.659  70.748  1.00  0.00    -0.383 C  
HETATM   20  H1  UNL     1     -13.061   9.550  71.965  1.00  0.00     0.000 HD 
HETATM   21  H2  UNL     1     -11.384   9.364  71.971  1.00  0.00     0.000 HD 
HETATM   22  C   UNL     1     -12.016  12.660  69.595  1.00  0.00    -0.286 C  
HETATM   23  C   UNL     1     -12.139  10.227  70.240  1.00  0.00    -0.249 C  
HETATM   24  N   UNL     1     -12.120  13.994  70.212  1.00  0.00    -0.334 NA 
HETATM   25  C   UNL     1     -10.712  12.458  68.761  1.00  0.00    -0.209 C  
HETATM   26  H   UNL     1      -8.993  11.403  67.230  1.00  0.00     0.000 HD 
HETATM   27  H1  UNL     1     -12.059  14.661  69.443  1.00  0.00     0.000 HD 
HETATM   28  C   UNL     1     -10.560  10.971  68.316  1.00  0.00    -0.187 C  
HETATM   29  H2  UNL     1     -11.435  14.157  70.950  1.00  0.00     0.000 HD 
HETATM   30  O   UNL     1      -9.194  10.751  67.890  1.00  0.00    -0.146 OA 
BRANCH  25  31
HETATM   31  O   UNL     1     -10.688  13.258  67.537  1.00  0.00    -0.246 OA 
BRANCH  31  32
HETATM   32  C   UNL     1     -11.840  14.085  67.324  1.00  0.00    -0.411 C  
HETATM   33  O   UNL     1     -11.547  15.481  67.459  1.00  0.00    -0.253 OA 
HETATM   34  C   UNL     1     -10.698  15.980  66.411  1.00  0.00    -0.232 C  
HETATM   35  C   UNL     1     -11.377  15.810  65.043  1.00  0.00    -0.220 C  
HETATM   36  H   UNL     1     -13.170  12.174  64.990  1.00  0.00     0.000 HD 
HETATM   37  C   UNL     1     -11.687  14.322  64.789  1.00  0.00    -0.415 C  
HETATM   38  H1  UNL     1     -12.579  13.164  63.318  1.00  0.00     0.000 HD 
HETATM   39  O   UNL     1     -10.583  16.336  63.976  1.00  0.00    -0.342 OA 
HETATM   40  H   UNL     1     -11.002  16.230  63.130  1.00  0.00     0.000 HD 
HETATM   41  H2  UNL     1     -11.842  14.562  62.720  1.00  0.00     0.000 HD 
HETATM   42  C   UNL     1     -12.515  13.771  65.963  1.00  0.00    -0.445 C  
HETATM   43  N   UNL     1     -12.374  14.149  63.486  1.00  0.00    -0.717 NA 
HETATM   44  O   UNL     1     -12.757  12.366  65.824  1.00  0.00    -0.392 OA 
BRANCH  34  45
HETATM   45  C   UNL     1     -10.420  17.465  66.682  1.00  0.00    -0.253 C  
HETATM   46  O   UNL     1     -10.742  18.257  65.539  1.00  0.00    -0.596 OA 
HETATM   47  H   UNL     1     -10.569  19.176  65.706  1.00  0.00     0.000 HD 
ENDBRANCH  34  45
ENDBRANCH  31  32
ENDBRANCH  25  31
ENDBRANCH  16  17
ENDBRANCH   7  16
ENDBRANCH   2   5
TORSDOF 6
ENDMDL
MODEL       78
REMARK 921   NORMALIZED FREE ENERGY PREDICTED BY IDOCK:   -6.37 KCAL/MOL
REMARK 922        TOTAL FREE ENERGY PREDICTED BY IDOCK:   -9.65 KCAL/MOL
REMARK 923 INTER-LIGAND FREE ENERGY PREDICTED BY IDOCK:   -7.94 KCAL/MOL
REMARK 924 INTRA-LIGAND FREE ENERGY PREDICTED BY IDOCK:   -1.71 KCAL/MOL
REMARK 927      BINDING AFFINITY PREDICTED BY RF-SCORE:    0.00 PKD
ROOT
HETATM    1  N   UNL     1      -7.715  12.301  67.768  1.00  0.00    -0.127 NA 
HETATM    2  C   UNL     1      -6.776  11.595  66.884  1.00  0.00    -0.124 C  
HETATM    3  H2  UNL     1      -7.888  11.770  68.621  1.00  0.00     0.000 HD 
HETATM    4  H1  UNL     1      -7.406  13.249  67.981  1.00  0.00     0.000 HD 
ENDROOT
BRANCH   2   5
HETATM    5  C   UNL     1      -7.245  10.155  66.560  1.00  0.00    -0.104 C  
HETATM    6  O   UNL     1      -8.661  10.080  66.333  1.00  0.00    -0.127 OA 
HETATM    7  C   UNL     1      -9.114  10.708  65.144  1.00  0.00    -0.201 C  
HETATM    8  C   UNL     1      -8.461  10.024  63.899  1.00  0.00    -0.178 C  
HETATM    9  C   UNL     1      -6.456   9.526  65.395  1.00  0.00    -0.073 C  
HETATM   10  N   UNL     1      -8.910   8.627  63.713  1.00  0.00    -0.399 NA 
HETATM   11  C   UNL     1      -6.928  10.059  64.037  1.00  0.00    -0.124 C  
HETATM   12  H   UNL     1      -6.148   7.717  64.733  1.00  0.00     0.000 HD 
HETATM   13  H1  UNL     1      -8.484   8.181  62.900  1.00  0.00     0.000 HD 
HETATM   14  H2  UNL     1      -9.927   8.572  63.669  1.00  0.00     0.000 HD 
HETATM   15  O   UNL     1      -6.634   8.105  65.451  1.00  0.00    -0.051 OA 
BRANCH   7  16
HETATM   16  O   UNL     1     -10.546  10.616  65.049  1.00  0.00    -0.255 OA 
BRANCH  16  17
HETATM   17  C   UNL     1     -11.276  11.871  64.923  1.00  0.00    -0.292 C  
HETATM   18  N   UNL     1     -12.450  11.221  62.831  1.00  0.00    -0.682 NA 
HETATM   19  C   UNL     1     -12.330  13.573  63.378  1.00  0.00    -0.264 C  
HETATM   20  H1  UNL     1     -12.664  11.467  61.864  1.00  0.00     0.000 HD 
HETATM   21  H2  UNL     1     -13.298  11.053  63.372  1.00  0.00     0.000 HD 
HETATM   22  C   UNL     1     -11.512  14.701  64.007  1.00  0.00     0.155 C  
HETATM   23  C   UNL     1     -11.599  12.243  63.460  1.00  0.00    -0.486 C  
HETATM   24  N   UNL     1     -12.270  15.938  63.750  1.00  0.00    -1.141 NA 
HETATM   25  C   UNL     1     -11.240  14.439  65.522  1.00  0.00    -0.330 C  
HETATM   26  H   UNL     1     -10.349  13.381  67.642  1.00  0.00     0.000 HD 
HETATM   27  H1  UNL     1     -11.724  16.691  64.169  1.00  0.00     0.000 HD 
HETATM   28  C   UNL     1     -10.628  13.022  65.741  1.00  0.00    -0.277 C  
HETATM   29  H2  UNL     1     -13.235  15.902  64.078  1.00  0.00     0.000 HD 
HETATM   30  O   UNL     1     -10.745  12.677  67.142  1.00  0.00    -0.237 OA 
BRANCH  25  31
HETATM   31  O   UNL     1     -10.294  15.390  66.104  1.00  0.00    -0.283 OA 
BRANCH  31  32
HETATM   32  C   UNL     1     -10.870  16.367  66.981  1.00  0.00    -0.145 C  
HETATM   33  O   UNL     1     -10.664  16.055  68.364  1.00  0.00    -0.262 OA 
HETATM   34  C   UNL     1      -9.287  16.159  68.764  1.00  0.00    -0.229 C  
HETATM   35  C   UNL     1      -8.776  17.594  68.563  1.00  0.00    -0.285 C  
HETATM   36  H   UNL     1     -10.236  18.949  65.032  1.00  0.00     0.000 HD 
HETATM   37  C   UNL     1      -8.915  18.002  67.083  1.00  0.00    -0.255 C  
HETATM   38  H1  UNL     1      -8.548  19.668  65.905  1.00  0.00     0.000 HD 
HETATM   39  O   UNL     1      -7.421  17.751  68.992  1.00  0.00    -0.251 OA 
HETATM   40  H   UNL     1      -7.105  18.638  68.868  1.00  0.00     0.000 HD 
HETATM   41  H2  UNL     1      -7.508  19.538  67.229  1.00  0.00     0.000 HD 
HETATM   42  C   UNL     1     -10.373  17.795  66.637  1.00  0.00    -0.345 C  
HETATM   43  N   UNL     1      -8.457  19.398  66.884  1.00  0.00    -0.281 NA 
HETATM   44  O   UNL     1     -10.541  18.075  65.242  1.00  0.00    -0.615 OA 
BRANCH  34  45
HETATM   45  C   UNL     1      -9.182  15.762  70.243  1.00  0.00     0.832 C  
HETATM   46  O   UNL     1     -10.393  15.153  70.691  1.00  0.00    -0.505 OA 
HETATM   47  H   UNL     1     -10.328  14.908  71.607  1.00  0.00     0.000 HD 
ENDBRANCH  34  45
ENDBRANCH  31  32
ENDBRANCH  25  31
ENDBRANCH  16  17
ENDBRANCH   7  16
ENDBRANCH   2   5
TORSDOF 6
ENDMDL
MODEL       79
REMARK 921   NORMALIZED FREE ENERGY PREDICTED BY IDOCK:   -6.36 KCAL/MOL
REMARK 922        TOTAL FREE ENERGY PREDICTED BY IDOCK:   -9.64 KCAL/MOL
REMARK 923 INTER-LIGAND FREE ENERGY PREDICTED BY IDOCK:   -8.92 KCAL/MOL
REMARK 924 INTRA-LIGAND FREE ENERGY PREDICTED BY IDOCK:   -0.72 KCAL/MOL
REMARK 927      BINDING AFFINITY PREDICTED BY RF-SCORE:    0.00 PKD
ROOT
HETATM    1  N   UNL     1     -11.933   6.818  70.054  1.00  0.00    -0.656 NA 
HETATM    2  C   UNL     1     -10.858   7.558  69.377  1.00  0.00    -0.150 C  
HETATM    3  H2  UNL     1     -11.776   5.812  70.003  1.00  0.00     0.000 HD 
HETATM    4  H1  UNL     1     -12.063   7.123  71.018  1.00  0.00     0.000 HD 
ENDROOT
BRANCH   2   5
HETATM    5  C   UNL     1     -10.660   7.096  67.911  1.00  0.00    -0.208 C  
HETATM    6  O   UNL     1      -9.540   7.738  67.282  1.00  0.00    -0.146 OA 
HETATM    7  C   UNL     1      -8.269   7.357  67.784  1.00  0.00    -0.119 C  
HETATM    8  C   UNL     1      -8.044   5.826  67.559  1.00  0.00    -0.102 C  
HETATM    9  C   UNL     1     -10.571   5.562  67.784  1.00  0.00    -0.154 C  
HETATM   10  N   UNL     1      -7.943   5.467  66.128  1.00  0.00    -0.104 NA 
HETATM   11  C   UNL     1      -9.195   5.036  68.210  1.00  0.00    -0.147 C  
HETATM   12  H   UNL     1     -10.773   4.266  66.340  1.00  0.00     0.000 HD 
HETATM   13  H1  UNL     1      -7.796   4.468  65.982  1.00  0.00     0.000 HD 
HETATM   14  H2  UNL     1      -7.219   6.015  65.664  1.00  0.00     0.000 HD 
HETATM   15  O   UNL     1     -10.828   5.211  66.418  1.00  0.00    -0.283 OA 
BRANCH   7  16
HETATM   16  O   UNL     1      -7.231   8.099  67.120  1.00  0.00    -0.081 OA 
BRANCH  16  17
HETATM   17  C   UNL     1      -7.151   9.524  67.415  1.00  0.00    -0.086 C  
HETATM   18  N   UNL     1      -6.403   9.211  69.765  1.00  0.00    -0.038 NA 
HETATM   19  C   UNL     1      -7.347  11.351  69.152  1.00  0.00    -0.081 C  
HETATM   20  H1  UNL     1      -6.572   9.429  70.747  1.00  0.00     0.000 HD 
HETATM   21  H2  UNL     1      -5.454   9.455  69.483  1.00  0.00     0.000 HD 
HETATM   22  C   UNL     1      -8.366  12.103  68.296  1.00  0.00    -0.172 C  
HETATM   23  C   UNL     1      -7.407   9.853  68.901  1.00  0.00    -0.078 C  
HETATM   24  N   UNL     1      -8.290  13.511  68.725  1.00  0.00    -0.347 NA 
HETATM   25  C   UNL     1      -8.100  11.900  66.772  1.00  0.00    -0.108 C  
HETATM   26  H   UNL     1      -7.880  10.778  64.512  1.00  0.00     0.000 HD 
HETATM   27  H1  UNL     1      -8.971  14.012  68.154  1.00  0.00     0.000 HD 
HETATM   28  C   UNL     1      -7.983  10.384  66.424  1.00  0.00    -0.130 C  
HETATM   29  H2  UNL     1      -7.349  13.902  68.677  1.00  0.00     0.000 HD 
HETATM   30  O   UNL     1      -7.372  10.252  65.118  1.00  0.00    -0.139 OA 
BRANCH  25  31
HETATM   31  O   UNL     1      -9.168  12.434  65.929  1.00  0.00    -0.132 OA 
BRANCH  31  32
HETATM   32  C   UNL     1     -10.324  12.905  66.633  1.00  0.00    -0.251 C  
HETATM   33  O   UNL     1     -10.475  14.329  66.553  1.00  0.00    -0.280 OA 
HETATM   34  C   UNL     1     -10.799  14.785  65.229  1.00  0.00    -0.383 C  
HETATM   35  C   UNL     1     -12.134  14.181  64.764  1.00  0.00    -0.441 C  
HETATM   36  H   UNL     1     -12.209  10.296  65.919  1.00  0.00     0.000 HD 
HETATM   37  C   UNL     1     -12.048  12.643  64.771  1.00  0.00    -0.436 C  
HETATM   38  H1  UNL     1     -13.286  11.030  64.361  1.00  0.00     0.000 HD 
HETATM   39  O   UNL     1     -12.516  14.648  63.467  1.00  0.00    -1.069 OA 
HETATM   40  H   UNL     1     -13.340  14.274  63.179  1.00  0.00     0.000 HD 
HETATM   41  H2  UNL     1     -13.653  12.407  63.454  1.00  0.00     0.000 HD 
HETATM   42  C   UNL     1     -11.607  12.168  66.166  1.00  0.00    -0.354 C  
HETATM   43  N   UNL     1     -13.343  12.049  64.357  1.00  0.00    -0.485 NA 
HETATM   44  O   UNL     1     -11.424  10.747  66.205  1.00  0.00     0.022 OA 
BRANCH  34  45
HETATM   45  C   UNL     1     -10.893  16.317  65.256  1.00  0.00    -0.297 C  
HETATM   46  O   UNL     1     -11.426  16.814  64.029  1.00  0.00    -1.481 OA 
HETATM   47  H   UNL     1     -11.485  17.762  64.046  1.00  0.00     0.000 HD 
ENDBRANCH  34  45
ENDBRANCH  31  32
ENDBRANCH  25  31
ENDBRANCH  16  17
ENDBRANCH   7  16
ENDBRANCH   2   5
TORSDOF 6
ENDMDL
MODEL       80
REMARK 921   NORMALIZED FREE ENERGY PREDICTED BY IDOCK:   -6.35 KCAL/MOL
REMARK 922        TOTAL FREE ENERGY PREDICTED BY IDOCK:   -9.63 KCAL/MOL
REMARK 923 INTER-LIGAND FREE ENERGY PREDICTED BY IDOCK:   -8.10 KCAL/MOL
REMARK 924 INTRA-LIGAND FREE ENERGY PREDICTED BY IDOCK:   -1.53 KCAL/MOL
REMARK 927      BINDING AFFINITY PREDICTED BY RF-SCORE:    0.00 PKD
ROOT
HETATM    1  N   UNL     1      -7.921  12.061  66.519  1.00  0.00    -0.389 NA 
HETATM    2  C   UNL     1      -7.812  10.708  67.083  1.00  0.00    -0.117 C  
HETATM    3  H2  UNL     1      -7.526  12.757  67.151  1.00  0.00     0.000 HD 
HETATM    4  H1  UNL     1      -7.504  12.127  65.591  1.00  0.00     0.000 HD 
ENDROOT
BRANCH   2   5
HETATM    5  C   UNL     1      -8.447  10.607  68.493  1.00  0.00    -0.136 C  
HETATM    6  O   UNL     1      -9.513  11.550  68.681  1.00  0.00    -0.188 OA 
HETATM    7  C   UNL     1     -10.682  11.296  67.919  1.00  0.00    -0.207 C  
HETATM    8  C   UNL     1     -11.286   9.909  68.316  1.00  0.00    -0.074 C  
HETATM    9  C   UNL     1      -8.899   9.174  68.835  1.00  0.00    -0.139 C  
HETATM   10  N   UNL     1     -11.797   9.885  69.704  1.00  0.00    -0.462 NA 
HETATM   11  C   UNL     1     -10.218   8.814  68.141  1.00  0.00    -0.250 C  
HETATM   12  H   UNL     1      -9.334   8.199  70.469  1.00  0.00     0.000 HD 
HETATM   13  H1  UNL     1     -12.191   8.980  69.963  1.00  0.00     0.000 HD 
HETATM   14  H2  UNL     1     -12.471  10.635  69.858  1.00  0.00     0.000 HD 
HETATM   15  O   UNL     1      -9.054   9.082  70.257  1.00  0.00    -0.169 OA 
BRANCH   7  16
HETATM   16  O   UNL     1     -11.657  12.328  68.146  1.00  0.00    -0.297 OA 
BRANCH  16  17
HETATM   17  C   UNL     1     -11.320  13.343  69.137  1.00  0.00    -0.280 C  
HETATM   18  N   UNL     1     -12.622  12.286  70.971  1.00  0.00    -0.326 NA 
HETATM   19  C   UNL     1     -12.029  14.618  71.202  1.00  0.00    -0.405 C  
HETATM   20  H1  UNL     1     -13.342  12.409  71.683  1.00  0.00     0.000 HD 
HETATM   21  H2  UNL     1     -11.751  11.939  71.374  1.00  0.00     0.000 HD 
HETATM   22  C   UNL     1     -11.794  15.956  70.498  1.00  0.00    -0.350 C  
HETATM   23  C   UNL     1     -12.410  13.529  70.213  1.00  0.00    -0.300 C  
HETATM   24  N   UNL     1     -11.559  16.938  71.571  1.00  0.00    -0.303 NA 
HETATM   25  C   UNL     1     -10.626  15.866  69.466  1.00  0.00    -0.282 C  
HETATM   26  H   UNL     1      -9.289  15.204  67.421  1.00  0.00     0.000 HD 
HETATM   27  H1  UNL     1     -11.403  17.830  71.101  1.00  0.00     0.000 HD 
HETATM   28  C   UNL     1     -10.836  14.670  68.488  1.00  0.00    -0.250 C  
HETATM   29  H2  UNL     1     -10.807  16.675  72.208  1.00  0.00     0.000 HD 
HETATM   30  O   UNL     1      -9.585  14.393  67.817  1.00  0.00    -0.209 OA 
BRANCH  25  31
HETATM   31  O   UNL     1     -10.507  17.062  68.634  1.00  0.00    -0.320 OA 
BRANCH  31  32
HETATM   32  C   UNL     1      -9.417  17.932  68.966  1.00  0.00    -0.092 C  
HETATM   33  O   UNL     1      -8.141  17.293  68.831  1.00  0.00    -0.257 OA 
HETATM   34  C   UNL     1      -7.803  16.999  67.465  1.00  0.00    -0.170 C  
HETATM   35  C   UNL     1      -7.730  18.292  66.639  1.00  0.00    -0.236 C  
HETATM   36  H   UNL     1     -10.821  20.663  67.764  1.00  0.00     0.000 HD 
HETATM   37  C   UNL     1      -9.083  19.027  66.687  1.00  0.00    -0.329 C  
HETATM   38  H1  UNL     1      -9.909  20.782  65.952  1.00  0.00     0.000 HD 
HETATM   39  O   UNL     1      -7.351  18.047  65.282  1.00  0.00    -0.357 OA 
HETATM   40  H   UNL     1      -7.306  18.846  64.771  1.00  0.00     0.000 HD 
HETATM   41  H2  UNL     1      -8.698  20.143  64.963  1.00  0.00     0.000 HD 
HETATM   42  C   UNL     1      -9.484  19.253  68.155  1.00  0.00    -0.346 C  
HETATM   43  N   UNL     1      -9.013  20.295  65.921  1.00  0.00    -0.094 NA 
HETATM   44  O   UNL     1     -10.780  19.854  68.261  1.00  0.00    -0.284 OA 
BRANCH  34  45
HETATM   45  C   UNL     1      -6.446  16.282  67.448  1.00  0.00    -0.180 C  
HETATM   46  O   UNL     1      -6.604  14.906  67.104  1.00  0.00    -0.298 OA 
HETATM   47  H   UNL     1      -5.764  14.462  67.093  1.00  0.00     0.000 HD 
ENDBRANCH  34  45
ENDBRANCH  31  32
ENDBRANCH  25  31
ENDBRANCH  16  17
ENDBRANCH   7  16
ENDBRANCH   2   5
TORSDOF 6
ENDMDL
MODEL       81
REMARK 921   NORMALIZED FREE ENERGY PREDICTED BY IDOCK:   -6.35 KCAL/MOL
REMARK 922        TOTAL FREE ENERGY PREDICTED BY IDOCK:   -9.63 KCAL/MOL
REMARK 923 INTER-LIGAND FREE ENERGY PREDICTED BY IDOCK:   -8.08 KCAL/MOL
REMARK 924 INTRA-LIGAND FREE ENERGY PREDICTED BY IDOCK:   -1.55 KCAL/MOL
REMARK 927      BINDING AFFINITY PREDICTED BY RF-SCORE:    0.00 PKD
ROOT
HETATM    1  N   UNL     1     -11.726  14.540  71.238  1.00  0.00    -0.487 NA 
HETATM    2  C   UNL     1     -11.442  14.302  69.815  1.00  0.00    -0.261 C  
HETATM    3  H2  UNL     1     -11.853  15.534  71.427  1.00  0.00     0.000 HD 
HETATM    4  H1  UNL     1     -12.522  13.997  71.569  1.00  0.00     0.000 HD 
ENDROOT
BRANCH   2   5
HETATM    5  C   UNL     1     -10.232  15.127  69.312  1.00  0.00    -0.251 C  
HETATM    6  O   UNL     1      -9.185  14.296  68.786  1.00  0.00    -0.185 OA 
HETATM    7  C   UNL     1      -9.494  13.635  67.570  1.00  0.00    -0.222 C  
HETATM    8  C   UNL     1      -9.784  14.689  66.451  1.00  0.00    -0.295 C  
HETATM    9  C   UNL     1     -10.640  16.219  68.303  1.00  0.00    -0.300 C  
HETATM   10  N   UNL     1      -8.588  15.481  66.089  1.00  0.00    -0.401 NA 
HETATM   11  C   UNL     1     -10.909  15.634  66.911  1.00  0.00    -0.282 C  
HETATM   12  H   UNL     1      -9.832  17.854  67.611  1.00  0.00     0.000 HD 
HETATM   13  H1  UNL     1      -8.777  16.169  65.358  1.00  0.00     0.000 HD 
HETATM   14  H2  UNL     1      -7.812  14.874  65.828  1.00  0.00     0.000 HD 
HETATM   15  O   UNL     1      -9.581  17.181  68.233  1.00  0.00    -0.261 OA 
BRANCH   7  16
HETATM   16  O   UNL     1      -8.399  12.795  67.168  1.00  0.00    -0.183 OA 
BRANCH  16  17
HETATM   17  C   UNL     1      -8.695  11.382  66.970  1.00  0.00    -0.160 C  
HETATM   18  N   UNL     1      -9.476  11.657  64.626  1.00  0.00    -0.414 NA 
HETATM   19  C   UNL     1     -10.126   9.650  65.808  1.00  0.00    -0.274 C  
HETATM   20  H1  UNL     1     -10.227  11.493  63.956  1.00  0.00     0.000 HD 
HETATM   21  H2  UNL     1      -8.589  11.276  64.298  1.00  0.00     0.000 HD 
HETATM   22  C   UNL     1     -10.512   9.020  67.147  1.00  0.00    -0.263 C  
HETATM   23  C   UNL     1      -9.831  11.134  65.955  1.00  0.00    -0.228 C  
HETATM   24  N   UNL     1     -10.889   7.629  66.843  1.00  0.00    -0.518 NA 
HETATM   25  C   UNL     1      -9.359   9.141  68.193  1.00  0.00    -0.138 C  
HETATM   26  H   UNL     1      -7.687  10.155  69.801  1.00  0.00     0.000 HD 
HETATM   27  H1  UNL     1     -11.147   7.209  67.736  1.00  0.00     0.000 HD 
HETATM   28  C   UNL     1      -8.866  10.616  68.311  1.00  0.00    -0.139 C  
HETATM   29  H2  UNL     1     -10.167   7.111  66.341  1.00  0.00     0.000 HD 
HETATM   30  O   UNL     1      -7.583  10.624  68.981  1.00  0.00    -0.101 OA 
BRANCH  25  31
HETATM   31  O   UNL     1      -9.765   8.734  69.538  1.00  0.00    -0.168 OA 
BRANCH  31  32
HETATM   32  C   UNL     1      -9.234   7.480  69.983  1.00  0.00    -0.151 C  
HETATM   33  O   UNL     1      -8.273   7.631  71.036  1.00  0.00    -0.104 OA 
HETATM   34  C   UNL     1      -8.856   8.093  72.266  1.00  0.00    -0.186 C  
HETATM   35  C   UNL     1      -9.902   7.089  72.775  1.00  0.00    -0.174 C  
HETATM   36  H   UNL     1     -12.038   5.793  69.583  1.00  0.00     0.000 HD 
HETATM   37  C   UNL     1     -11.009   6.899  71.721  1.00  0.00    -0.230 C  
HETATM   38  H1  UNL     1     -12.739   5.780  71.490  1.00  0.00     0.000 HD 
HETATM   39  O   UNL     1     -10.474   7.491  74.023  1.00  0.00    -0.403 OA 
HETATM   40  H   UNL     1     -11.121   6.871  74.338  1.00  0.00     0.000 HD 
HETATM   41  H2  UNL     1     -12.389   6.153  73.100  1.00  0.00     0.000 HD 
HETATM   42  C   UNL     1     -10.367   6.498  70.382  1.00  0.00    -0.198 C  
HETATM   43  N   UNL     1     -12.006   5.905  72.188  1.00  0.00    -0.224 NA 
HETATM   44  O   UNL     1     -11.344   6.394  69.339  1.00  0.00    -0.394 OA 
BRANCH  34  45
HETATM   45  C   UNL     1      -7.734   8.259  73.300  1.00  0.00    -0.126 C  
HETATM   46  O   UNL     1      -8.214   8.929  74.465  1.00  0.00    -0.356 OA 
HETATM   47  H   UNL     1      -7.519   9.031  75.105  1.00  0.00     0.000 HD 
ENDBRANCH  34  45
ENDBRANCH  31  32
ENDBRANCH  25  31
ENDBRANCH  16  17
ENDBRANCH   7  16
ENDBRANCH   2   5
TORSDOF 6
ENDMDL
MODEL       82
REMARK 921   NORMALIZED FREE ENERGY PREDICTED BY IDOCK:   -6.34 KCAL/MOL
REMARK 922        TOTAL FREE ENERGY PREDICTED BY IDOCK:   -9.62 KCAL/MOL
REMARK 923 INTER-LIGAND FREE ENERGY PREDICTED BY IDOCK:   -8.40 KCAL/MOL
REMARK 924 INTRA-LIGAND FREE ENERGY PREDICTED BY IDOCK:   -1.22 KCAL/MOL
REMARK 927      BINDING AFFINITY PREDICTED BY RF-SCORE:    0.00 PKD
ROOT
HETATM    1  N   UNL     1     -10.916   7.543  68.905  1.00  0.00    -0.424 NA 
HETATM    2  C   UNL     1     -10.703   8.629  67.937  1.00  0.00    -0.093 C  
HETATM    3  H2  UNL     1     -10.029   7.187  69.261  1.00  0.00     0.000 HD 
HETATM    4  H1  UNL     1     -11.534   7.821  69.667  1.00  0.00     0.000 HD 
ENDROOT
BRANCH   2   5
HETATM    5  C   UNL     1      -9.765   8.207  66.779  1.00  0.00    -0.235 C  
HETATM    6  O   UNL     1      -9.770   9.154  65.699  1.00  0.00    -0.270 OA 
HETATM    7  C   UNL     1      -9.171  10.406  65.994  1.00  0.00    -0.167 C  
HETATM    8  C   UNL     1      -7.663  10.203  66.355  1.00  0.00    -0.111 C  
HETATM    9  C   UNL     1      -8.330   7.913  67.260  1.00  0.00    -0.122 C  
HETATM   10  N   UNL     1      -6.859   9.726  65.209  1.00  0.00    -0.097 NA 
HETATM   11  C   UNL     1      -7.543   9.203  67.520  1.00  0.00    -0.088 C  
HETATM   12  H   UNL     1      -6.788   6.952  66.549  1.00  0.00     0.000 HD 
HETATM   13  H1  UNL     1      -5.875   9.593  65.444  1.00  0.00     0.000 HD 
HETATM   14  H2  UNL     1      -6.963  10.347  64.406  1.00  0.00     0.000 HD 
HETATM   15  O   UNL     1      -7.673   7.133  66.253  1.00  0.00    -0.095 OA 
BRANCH   7  16
HETATM   16  O   UNL     1      -9.280  11.287  64.863  1.00  0.00    -0.197 OA 
BRANCH  16  17
HETATM   17  C   UNL     1     -10.298  12.328  64.939  1.00  0.00    -0.290 C  
HETATM   18  N   UNL     1     -11.791  11.286  63.247  1.00  0.00    -0.710 NA 
HETATM   19  C   UNL     1     -12.100  13.633  63.737  1.00  0.00    -0.435 C  
HETATM   20  H1  UNL     1     -12.305  11.410  62.375  1.00  0.00     0.000 HD 
HETATM   21  H2  UNL     1     -12.400  10.963  63.999  1.00  0.00     0.000 HD 
HETATM   22  C   UNL     1     -11.441  14.959  64.117  1.00  0.00     0.017 C  
HETATM   23  C   UNL     1     -11.075  12.517  63.619  1.00  0.00    -0.467 C  
HETATM   24  N   UNL     1     -12.514  15.968  64.074  1.00  0.00    -0.784 NA 
HETATM   25  C   UNL     1     -10.723  14.869  65.501  1.00  0.00    -0.356 C  
HETATM   26  H   UNL     1      -9.076  14.190  67.300  1.00  0.00     0.000 HD 
HETATM   27  H1  UNL     1     -12.074  16.853  64.327  1.00  0.00     0.000 HD 
HETATM   28  C   UNL     1      -9.753  13.650  65.548  1.00  0.00    -0.059 C  
HETATM   29  H2  UNL     1     -13.320  15.732  64.653  1.00  0.00     0.000 HD 
HETATM   30  O   UNL     1      -9.409  13.382  66.927  1.00  0.00    -0.237 OA 
BRANCH  25  31
HETATM   31  O   UNL     1      -9.914  16.050  65.802  1.00  0.00    -0.321 OA 
BRANCH  31  32
HETATM   32  C   UNL     1     -10.277  16.750  66.999  1.00  0.00    -0.292 C  
HETATM   33  O   UNL     1      -9.567  16.275  68.151  1.00  0.00    -0.214 OA 
HETATM   34  C   UNL     1      -8.163  16.581  68.110  1.00  0.00    -0.181 C  
HETATM   35  C   UNL     1      -7.946  18.101  68.065  1.00  0.00    -0.264 C  
HETATM   36  H   UNL     1     -10.697  19.675  65.537  1.00  0.00     0.000 HD 
HETATM   37  C   UNL     1      -8.638  18.697  66.824  1.00  0.00    -0.288 C  
HETATM   38  H1  UNL     1      -8.921  20.563  65.967  1.00  0.00     0.000 HD 
HETATM   39  O   UNL     1      -6.558  18.450  68.070  1.00  0.00    -0.204 OA 
HETATM   40  H   UNL     1      -6.424  19.389  68.042  1.00  0.00     0.000 HD 
HETATM   41  H2  UNL     1      -7.481  20.436  66.840  1.00  0.00     0.000 HD 
HETATM   42  C   UNL     1     -10.119  18.283  66.825  1.00  0.00    -0.364 C  
HETATM   43  N   UNL     1      -8.463  20.169  66.789  1.00  0.00    -0.316 NA 
HETATM   44  O   UNL     1     -10.793  18.736  65.644  1.00  0.00    -0.424 OA 
BRANCH  34  45
HETATM   45  C   UNL     1      -7.504  15.989  69.365  1.00  0.00    -0.201 C  
HETATM   46  O   UNL     1      -6.103  15.806  69.162  1.00  0.00    -0.113 OA 
HETATM   47  H   UNL     1      -5.696  15.440  69.938  1.00  0.00     0.000 HD 
ENDBRANCH  34  45
ENDBRANCH  31  32
ENDBRANCH  25  31
ENDBRANCH  16  17
ENDBRANCH   7  16
ENDBRANCH   2   5
TORSDOF 6
ENDMDL
MODEL       83
REMARK 921   NORMALIZED FREE ENERGY PREDICTED BY IDOCK:   -6.33 KCAL/MOL
REMARK 922        TOTAL FREE ENERGY PREDICTED BY IDOCK:   -9.60 KCAL/MOL
REMARK 923 INTER-LIGAND FREE ENERGY PREDICTED BY IDOCK:   -8.79 KCAL/MOL
REMARK 924 INTRA-LIGAND FREE ENERGY PREDICTED BY IDOCK:   -0.81 KCAL/MOL
REMARK 927      BINDING AFFINITY PREDICTED BY RF-SCORE:    0.00 PKD
ROOT
HETATM    1  N   UNL     1     -12.225  12.699  70.966  1.00  0.00    -0.398 NA 
HETATM    2  C   UNL     1     -12.620  11.568  71.818  1.00  0.00    -0.119 C  
HETATM    3  H2  UNL     1     -12.978  12.962  70.331  1.00  0.00     0.000 HD 
HETATM    4  H1  UNL     1     -11.905  13.499  71.510  1.00  0.00     0.000 HD 
ENDROOT
BRANCH   2   5
HETATM    5  C   UNL     1     -13.106  10.351  70.990  1.00  0.00    -0.362 C  
HETATM    6  O   UNL     1     -12.166   9.972  69.973  1.00  0.00    -0.121 OA 
HETATM    7  C   UNL     1     -10.953   9.415  70.452  1.00  0.00    -0.266 C  
HETATM    8  C   UNL     1     -11.248   8.102  71.248  1.00  0.00    -0.260 C  
HETATM    9  C   UNL     1     -13.487   9.149  71.877  1.00  0.00    -0.430 C  
HETATM   10  N   UNL     1     -11.780   7.020  70.390  1.00  0.00    -0.493 NA 
HETATM   11  C   UNL     1     -12.247   8.400  72.381  1.00  0.00    -0.430 C  
HETATM   12  H   UNL     1     -14.546   7.527  71.651  1.00  0.00     0.000 HD 
HETATM   13  H1  UNL     1     -11.973   6.163  70.909  1.00  0.00     0.000 HD 
HETATM   14  H2  UNL     1     -11.158   6.839  69.603  1.00  0.00     0.000 HD 
HETATM   15  O   UNL     1     -14.311   8.268  71.104  1.00  0.00    -0.292 OA 
BRANCH   7  16
HETATM   16  O   UNL     1     -10.072   9.124  69.353  1.00  0.00    -0.185 OA 
BRANCH  16  17
HETATM   17  C   UNL     1     -10.317   9.841  68.108  1.00  0.00    -0.202 C  
HETATM   18  N   UNL     1     -11.106   7.840  66.863  1.00  0.00    -0.347 NA 
HETATM   19  C   UNL     1     -10.382   9.758  65.582  1.00  0.00    -0.036 C  
HETATM   20  H1  UNL     1     -10.995   7.257  66.034  1.00  0.00     0.000 HD 
HETATM   21  H2  UNL     1     -12.066   8.167  66.967  1.00  0.00     0.000 HD 
HETATM   22  C   UNL     1      -9.423  10.945  65.484  1.00  0.00    -0.211 C  
HETATM   23  C   UNL     1     -10.150   8.959  66.853  1.00  0.00    -0.273 C  
HETATM   24  N   UNL     1      -9.667  11.551  64.163  1.00  0.00    -0.342 NA 
HETATM   25  C   UNL     1      -9.614  11.939  66.672  1.00  0.00    -0.209 C  
HETATM   26  H   UNL     1      -9.632  12.879  69.023  1.00  0.00     0.000 HD 
HETATM   27  H1  UNL     1      -9.027  12.342  64.098  1.00  0.00     0.000 HD 
HETATM   28  C   UNL     1      -9.551  11.192  68.039  1.00  0.00    -0.176 C  
HETATM   29  H2  UNL     1     -10.643  11.801  64.003  1.00  0.00     0.000 HD 
HETATM   30  O   UNL     1     -10.100  12.053  69.065  1.00  0.00    -0.072 OA 
BRANCH  25  31
HETATM   31  O   UNL     1      -8.582  12.974  66.722  1.00  0.00    -0.162 OA 
BRANCH  31  32
HETATM   32  C   UNL     1      -9.022  14.293  66.372  1.00  0.00    -0.061 C  
HETATM   33  O   UNL     1     -10.292  14.291  65.706  1.00  0.00    -0.299 OA 
HETATM   34  C   UNL     1     -11.375  13.898  66.565  1.00  0.00    -0.331 C  
HETATM   35  C   UNL     1     -11.506  14.874  67.745  1.00  0.00    -0.338 C  
HETATM   36  H   UNL     1      -7.770  15.760  69.045  1.00  0.00     0.000 HD 
HETATM   37  C   UNL     1     -10.194  14.905  68.553  1.00  0.00    -0.235 C  
HETATM   38  H1  UNL     1      -9.429  15.890  70.210  1.00  0.00     0.000 HD 
HETATM   39  O   UNL     1     -12.604  14.544  68.601  1.00  0.00    -0.545 OA 
HETATM   40  H   UNL     1     -12.685  15.147  69.331  1.00  0.00     0.000 HD 
HETATM   41  H2  UNL     1     -11.104  15.677  70.268  1.00  0.00     0.000 HD 
HETATM   42  C   UNL     1      -9.026  15.232  67.607  1.00  0.00    -0.179 C  
HETATM   43  N   UNL     1     -10.298  15.870  69.675  1.00  0.00    -0.281 NA 
HETATM   44  O   UNL     1      -7.767  15.186  68.289  1.00  0.00    -0.111 OA 
BRANCH  34  45
HETATM   45  C   UNL     1     -12.668  13.891  65.739  1.00  0.00    -0.461 C  
HETATM   46  O   UNL     1     -12.632  12.863  64.749  1.00  0.00    -0.570 OA 
HETATM   47  H   UNL     1     -13.432  12.859  64.238  1.00  0.00     0.000 HD 
ENDBRANCH  34  45
ENDBRANCH  31  32
ENDBRANCH  25  31
ENDBRANCH  16  17
ENDBRANCH   7  16
ENDBRANCH   2   5
TORSDOF 6
ENDMDL
MODEL       84
REMARK 921   NORMALIZED FREE ENERGY PREDICTED BY IDOCK:   -6.31 KCAL/MOL
REMARK 922        TOTAL FREE ENERGY PREDICTED BY IDOCK:   -9.58 KCAL/MOL
REMARK 923 INTER-LIGAND FREE ENERGY PREDICTED BY IDOCK:   -8.28 KCAL/MOL
REMARK 924 INTRA-LIGAND FREE ENERGY PREDICTED BY IDOCK:   -1.30 KCAL/MOL
REMARK 927      BINDING AFFINITY PREDICTED BY RF-SCORE:    0.00 PKD
ROOT
HETATM    1  N   UNL     1      -9.253  16.355  65.824  1.00  0.00    -0.475 NA 
HETATM    2  C   UNL     1      -9.784  14.987  65.914  1.00  0.00    -0.342 C  
HETATM    3  H2  UNL     1      -9.994  17.025  65.617  1.00  0.00     0.000 HD 
HETATM    4  H1  UNL     1      -8.735  16.625  66.660  1.00  0.00     0.000 HD 
ENDROOT
BRANCH   2   5
HETATM    5  C   UNL     1     -10.570  14.578  64.644  1.00  0.00    -0.272 C  
HETATM    6  O   UNL     1     -10.313  13.218  64.257  1.00  0.00    -0.427 OA 
HETATM    7  C   UNL     1     -10.831  12.234  65.137  1.00  0.00    -0.301 C  
HETATM    8  C   UNL     1     -12.389  12.353  65.211  1.00  0.00    -0.287 C  
HETATM    9  C   UNL     1     -12.082  14.847  64.774  1.00  0.00    -0.331 C  
HETATM   10  N   UNL     1     -13.049  12.017  63.931  1.00  0.00    -0.658 NA 
HETATM   11  C   UNL     1     -12.777  13.783  65.631  1.00  0.00    -0.523 C  
HETATM   12  H   UNL     1     -13.580  15.026  63.537  1.00  0.00     0.000 HD 
HETATM   13  H1  UNL     1     -14.066  12.094  63.979  1.00  0.00     0.000 HD 
HETATM   14  H2  UNL     1     -12.768  11.092  63.606  1.00  0.00     0.000 HD 
HETATM   15  O   UNL     1     -12.648  14.861  63.457  1.00  0.00    -0.567 OA 
BRANCH   7  16
HETATM   16  O   UNL     1     -10.470  10.920  64.680  1.00  0.00    -0.337 OA 
BRANCH  16  17
HETATM   17  C   UNL     1      -9.262  10.336  65.250  1.00  0.00    -0.199 C  
HETATM   18  N   UNL     1      -7.834  10.841  63.279  1.00  0.00    -0.361 NA 
HETATM   19  C   UNL     1      -7.069   9.150  64.828  1.00  0.00    -0.096 C  
HETATM   20  H1  UNL     1      -7.195  10.471  62.576  1.00  0.00     0.000 HD 
HETATM   21  H2  UNL     1      -7.419  11.618  63.793  1.00  0.00     0.000 HD 
HETATM   22  C   UNL     1      -7.455   8.023  65.787  1.00  0.00    -0.081 C  
HETATM   23  C   UNL     1      -8.295   9.776  64.185  1.00  0.00    -0.168 C  
HETATM   24  N   UNL     1      -6.185   7.427  66.238  1.00  0.00    -0.040 NA 
HETATM   25  C   UNL     1      -8.350   8.543  66.956  1.00  0.00    -0.110 C  
HETATM   26  H   UNL     1     -10.331   9.510  68.201  1.00  0.00     0.000 HD 
HETATM   27  H1  UNL     1      -6.442   6.675  66.877  1.00  0.00     0.000 HD 
HETATM   28  C   UNL     1      -9.569   9.347  66.409  1.00  0.00    -0.224 C  
HETATM   29  H2  UNL     1      -5.537   8.103  66.643  1.00  0.00     0.000 HD 
HETATM   30  O   UNL     1     -10.144  10.115  67.492  1.00  0.00    -0.182 OA 
BRANCH  25  31
HETATM   31  O   UNL     1      -8.903   7.465  67.774  1.00  0.00    -0.128 OA 
BRANCH  31  32
HETATM   32  C   UNL     1      -8.358   7.360  69.096  1.00  0.00    -0.132 C  
HETATM   33  O   UNL     1      -8.983   8.257  70.022  1.00  0.00    -0.140 OA 
HETATM   34  C   UNL     1     -10.351   7.914  70.300  1.00  0.00    -0.212 C  
HETATM   35  C   UNL     1     -10.437   6.514  70.929  1.00  0.00    -0.223 C  
HETATM   36  H   UNL     1      -7.834   4.107  68.961  1.00  0.00     0.000 HD 
HETATM   37  C   UNL     1      -9.827   5.469  69.975  1.00  0.00    -0.198 C  
HETATM   38  H1  UNL     1      -9.470   3.426  69.955  1.00  0.00     0.000 HD 
HETATM   39  O   UNL     1     -11.780   6.152  71.263  1.00  0.00    -0.278 OA 
HETATM   40  H   UNL     1     -11.833   5.287  71.651  1.00  0.00     0.000 HD 
HETATM   41  H2  UNL     1     -10.818   3.864  70.874  1.00  0.00     0.000 HD 
HETATM   42  C   UNL     1      -8.396   5.895  69.606  1.00  0.00    -0.117 C  
HETATM   43  N   UNL     1      -9.873   4.118  70.587  1.00  0.00    -0.199 NA 
HETATM   44  O   UNL     1      -7.811   5.004  68.648  1.00  0.00    -0.078 OA 
BRANCH  34  45
HETATM   45  C   UNL     1     -10.926   8.962  71.263  1.00  0.00    -0.293 C  
HETATM   46  O   UNL     1     -10.893   8.486  72.608  1.00  0.00    -0.304 OA 
HETATM   47  H   UNL     1     -11.249   9.135  73.204  1.00  0.00     0.000 HD 
ENDBRANCH  34  45
ENDBRANCH  31  32
ENDBRANCH  25  31
ENDBRANCH  16  17
ENDBRANCH   7  16
ENDBRANCH   2   5
TORSDOF 6
ENDMDL
MODEL       85
REMARK 921   NORMALIZED FREE ENERGY PREDICTED BY IDOCK:   -6.30 KCAL/MOL
REMARK 922        TOTAL FREE ENERGY PREDICTED BY IDOCK:   -9.56 KCAL/MOL
REMARK 923 INTER-LIGAND FREE ENERGY PREDICTED BY IDOCK:   -8.15 KCAL/MOL
REMARK 924 INTRA-LIGAND FREE ENERGY PREDICTED BY IDOCK:   -1.42 KCAL/MOL
REMARK 927      BINDING AFFINITY PREDICTED BY RF-SCORE:    0.00 PKD
ROOT
HETATM    1  N   UNL     1      -9.608  10.377  69.599  1.00  0.00    -0.401 NA 
HETATM    2  C   UNL     1      -8.209   9.987  69.368  1.00  0.00    -0.155 C  
HETATM    3  H2  UNL     1     -10.112   9.653  70.111  1.00  0.00     0.000 HD 
HETATM    4  H1  UNL     1      -9.686  11.280  70.065  1.00  0.00     0.000 HD 
ENDROOT
BRANCH   2   5
HETATM    5  C   UNL     1      -8.092   8.615  68.659  1.00  0.00    -0.117 C  
HETATM    6  O   UNL     1      -8.851   8.562  67.441  1.00  0.00    -0.132 OA 
HETATM    7  C   UNL     1      -8.356   9.373  66.387  1.00  0.00    -0.115 C  
HETATM    8  C   UNL     1      -6.915   8.912  65.993  1.00  0.00    -0.084 C  
HETATM    9  C   UNL     1      -6.627   8.196  68.424  1.00  0.00    -0.059 C  
HETATM   10  N   UNL     1      -6.892   7.559  65.394  1.00  0.00    -0.048 NA 
HETATM   11  C   UNL     1      -6.007   8.941  67.236  1.00  0.00    -0.050 C  
HETATM   12  H   UNL     1      -5.697   6.525  68.039  1.00  0.00     0.000 HD 
HETATM   13  H1  UNL     1      -5.951   7.258  65.136  1.00  0.00     0.000 HD 
HETATM   14  H2  UNL     1      -7.525   7.501  64.597  1.00  0.00     0.000 HD 
HETATM   15  O   UNL     1      -6.600   6.783  68.184  1.00  0.00    -0.053 OA 
BRANCH   7  16
HETATM   16  O   UNL     1      -9.221   9.282  65.242  1.00  0.00    -0.224 OA 
BRANCH  16  17
HETATM   17  C   UNL     1     -10.052  10.444  64.954  1.00  0.00    -0.312 C  
HETATM   18  N   UNL     1      -9.672  10.369  62.498  1.00  0.00    -0.671 NA 
HETATM   19  C   UNL     1     -10.473  12.439  63.457  1.00  0.00    -0.430 C  
HETATM   20  H1  UNL     1      -9.374  10.881  61.668  1.00  0.00     0.000 HD 
HETATM   21  H2  UNL     1     -10.603   9.968  62.378  1.00  0.00     0.000 HD 
HETATM   22  C   UNL     1     -10.454  13.386  64.657  1.00  0.00    -0.411 C  
HETATM   23  C   UNL     1      -9.599  11.219  63.698  1.00  0.00    -0.274 C  
HETATM   24  N   UNL     1     -11.229  14.570  64.247  1.00  0.00    -0.614 NA 
HETATM   25  C   UNL     1     -11.002  12.696  65.945  1.00  0.00    -0.278 C  
HETATM   26  H   UNL     1     -11.190  11.119  67.917  1.00  0.00     0.000 HD 
HETATM   27  H1  UNL     1     -11.215  15.203  65.047  1.00  0.00     0.000 HD 
HETATM   28  C   UNL     1     -10.277  11.340  66.203  1.00  0.00    -0.245 C  
HETATM   29  H2  UNL     1     -12.169  14.349  63.917  1.00  0.00     0.000 HD 
HETATM   30  O   UNL     1     -11.052  10.571  67.153  1.00  0.00    -0.265 OA 
BRANCH  25  31
HETATM   31  O   UNL     1     -10.810  13.501  67.150  1.00  0.00    -0.279 OA 
BRANCH  31  32
HETATM   32  C   UNL     1     -11.901  14.369  67.486  1.00  0.00    -0.386 C  
HETATM   33  O   UNL     1     -12.651  13.898  68.613  1.00  0.00     0.046 OA 
HETATM   34  C   UNL     1     -11.912  13.956  69.844  1.00  0.00    -0.341 C  
HETATM   35  C   UNL     1     -11.514  15.406  70.164  1.00  0.00    -0.317 C  
HETATM   36  H   UNL     1     -10.331  17.161  66.707  1.00  0.00     0.000 HD 
HETATM   37  C   UNL     1     -10.657  15.983  69.021  1.00  0.00    -0.257 C  
HETATM   38  H1  UNL     1      -9.728  17.775  68.547  1.00  0.00     0.000 HD 
HETATM   39  O   UNL     1     -10.814  15.513  71.407  1.00  0.00    -0.332 OA 
HETATM   40  H   UNL     1     -10.568  16.409  71.605  1.00  0.00     0.000 HD 
HETATM   41  H2  UNL     1      -9.838  17.494  70.209  1.00  0.00     0.000 HD 
HETATM   42  C   UNL     1     -11.416  15.828  67.693  1.00  0.00    -0.119 C  
HETATM   43  N   UNL     1     -10.296  17.393  69.304  1.00  0.00    -0.297 NA 
HETATM   44  O   UNL     1     -10.627  16.267  66.580  1.00  0.00    -0.304 OA 
BRANCH  34  45
HETATM   45  C   UNL     1     -12.795  13.391  70.965  1.00  0.00    -0.251 C  
HETATM   46  O   UNL     1     -13.712  14.379  71.435  1.00  0.00    -0.372 OA 
HETATM   47  H   UNL     1     -14.259  14.029  72.128  1.00  0.00     0.000 HD 
ENDBRANCH  34  45
ENDBRANCH  31  32
ENDBRANCH  25  31
ENDBRANCH  16  17
ENDBRANCH   7  16
ENDBRANCH   2   5
TORSDOF 6
ENDMDL
MODEL       86
REMARK 921   NORMALIZED FREE ENERGY PREDICTED BY IDOCK:   -6.26 KCAL/MOL
REMARK 922        TOTAL FREE ENERGY PREDICTED BY IDOCK:   -9.50 KCAL/MOL
REMARK 923 INTER-LIGAND FREE ENERGY PREDICTED BY IDOCK:   -7.61 KCAL/MOL
REMARK 924 INTRA-LIGAND FREE ENERGY PREDICTED BY IDOCK:   -1.89 KCAL/MOL
REMARK 927      BINDING AFFINITY PREDICTED BY RF-SCORE:    0.00 PKD
ROOT
HETATM    1  N   UNL     1     -12.502  14.710  63.994  1.00  0.00    -0.984 NA 
HETATM    2  C   UNL     1     -11.755  13.610  64.622  1.00  0.00    -0.388 C  
HETATM    3  H2  UNL     1     -12.171  15.616  64.324  1.00  0.00     0.000 HD 
HETATM    4  H1  UNL     1     -12.481  14.659  62.976  1.00  0.00     0.000 HD 
ENDROOT
BRANCH   2   5
HETATM    5  C   UNL     1     -11.787  13.688  66.169  1.00  0.00    -0.392 C  
HETATM    6  O   UNL     1     -11.061  12.612  66.785  1.00  0.00    -0.258 OA 
HETATM    7  C   UNL     1      -9.654  12.659  66.612  1.00  0.00    -0.249 C  
HETATM    8  C   UNL     1      -9.082  13.964  67.258  1.00  0.00    -0.228 C  
HETATM    9  C   UNL     1     -11.318  15.057  66.700  1.00  0.00    -0.289 C  
HETATM   10  N   UNL     1      -9.225  13.983  68.730  1.00  0.00    -0.372 NA 
HETATM   11  C   UNL     1      -9.791  15.191  66.655  1.00  0.00    -0.265 C  
HETATM   12  H   UNL     1     -11.493  16.038  68.377  1.00  0.00     0.000 HD 
HETATM   13  H1  UNL     1      -8.851  14.834  69.152  1.00  0.00     0.000 HD 
HETATM   14  H2  UNL     1      -8.805  13.153  69.149  1.00  0.00     0.000 HD 
HETATM   15  O   UNL     1     -11.782  15.194  68.049  1.00  0.00    -0.345 OA 
BRANCH   7  16
HETATM   16  O   UNL     1      -9.040  11.511  67.222  1.00  0.00    -0.160 OA 
BRANCH  16  17
HETATM   17  C   UNL     1      -9.930  10.433  67.634  1.00  0.00    -0.174 C  
HETATM   18  N   UNL     1     -10.503  11.458  69.824  1.00  0.00    -0.379 NA 
HETATM   19  C   UNL     1     -10.905   9.091  69.542  1.00  0.00    -0.177 C  
HETATM   20  H1  UNL     1     -10.544  11.335  70.836  1.00  0.00     0.000 HD 
HETATM   21  H2  UNL     1     -11.406  11.742  69.443  1.00  0.00     0.000 HD 
HETATM   22  C   UNL     1     -10.444   7.781  68.902  1.00  0.00    -0.194 C  
HETATM   23  C   UNL     1      -9.992  10.246  69.164  1.00  0.00    -0.222 C  
HETATM   24  N   UNL     1     -11.329   6.735  69.445  1.00  0.00    -0.549 NA 
HETATM   25  C   UNL     1     -10.460   7.865  67.343  1.00  0.00    -0.290 C  
HETATM   26  H   UNL     1      -9.874   8.563  64.981  1.00  0.00     0.000 HD 
HETATM   27  H1  UNL     1     -11.021   5.862  69.018  1.00  0.00     0.000 HD 
HETATM   28  C   UNL     1      -9.677   9.118  66.845  1.00  0.00    -0.194 C  
HETATM   29  H2  UNL     1     -12.322   6.929  69.309  1.00  0.00     0.000 HD 
HETATM   30  O   UNL     1     -10.029   9.367  65.464  1.00  0.00    -0.281 OA 
BRANCH  25  31
HETATM   31  O   UNL     1      -9.836   6.708  66.703  1.00  0.00    -0.173 OA 
BRANCH  31  32
HETATM   32  C   UNL     1      -8.634   6.239  67.326  1.00  0.00    -0.107 C  
HETATM   33  O   UNL     1      -8.861   5.114  68.184  1.00  0.00    -0.102 OA 
HETATM   34  C   UNL     1      -9.237   3.927  67.465  1.00  0.00    -0.172 C  
HETATM   35  C   UNL     1      -8.121   3.511  66.494  1.00  0.00    -0.092 C  
HETATM   36  H   UNL     1      -6.678   6.875  64.749  1.00  0.00     0.000 HD 
HETATM   37  C   UNL     1      -7.840   4.650  65.495  1.00  0.00    -0.094 C  
HETATM   38  H1  UNL     1      -6.554   5.028  63.912  1.00  0.00     0.000 HD 
HETATM   39  O   UNL     1      -8.437   2.306  65.790  1.00  0.00    -0.090 OA 
HETATM   40  H   UNL     1      -7.748   2.050  65.189  1.00  0.00     0.000 HD 
HETATM   41  H2  UNL     1      -6.929   3.391  64.099  1.00  0.00     0.000 HD 
HETATM   42  C   UNL     1      -7.533   5.941  66.274  1.00  0.00    -0.086 C  
HETATM   43  N   UNL     1      -6.740   4.274  64.573  1.00  0.00    -0.043 NA 
HETATM   44  O   UNL     1      -7.352   7.057  65.394  1.00  0.00    -0.073 OA 
BRANCH  34  45
HETATM   45  C   UNL     1      -9.495   2.807  68.483  1.00  0.00    -0.134 C  
HETATM   46  O   UNL     1      -8.383   1.914  68.547  1.00  0.00    -0.055 OA 
HETATM   47  H   UNL     1      -8.543   1.222  69.177  1.00  0.00     0.000 HD 
ENDBRANCH  34  45
ENDBRANCH  31  32
ENDBRANCH  25  31
ENDBRANCH  16  17
ENDBRANCH   7  16
ENDBRANCH   2   5
TORSDOF 6
ENDMDL
MODEL       87
REMARK 921   NORMALIZED FREE ENERGY PREDICTED BY IDOCK:   -6.23 KCAL/MOL
REMARK 922        TOTAL FREE ENERGY PREDICTED BY IDOCK:   -9.47 KCAL/MOL
REMARK 923 INTER-LIGAND FREE ENERGY PREDICTED BY IDOCK:   -8.47 KCAL/MOL
REMARK 924 INTRA-LIGAND FREE ENERGY PREDICTED BY IDOCK:   -1.00 KCAL/MOL
REMARK 927      BINDING AFFINITY PREDICTED BY RF-SCORE:    0.00 PKD
ROOT
HETATM    1  N   UNL     1     -12.032   4.595  73.526  1.00  0.00    -0.272 NA 
HETATM    2  C   UNL     1     -10.719   3.965  73.727  1.00  0.00    -0.231 C  
HETATM    3  H2  UNL     1     -12.574   4.100  72.818  1.00  0.00     0.000 HD 
HETATM    4  H1  UNL     1     -12.556   4.681  74.396  1.00  0.00     0.000 HD 
ENDROOT
BRANCH   2   5
HETATM    5  C   UNL     1      -9.923   3.834  72.404  1.00  0.00    -0.164 C  
HETATM    6  O   UNL     1     -10.428   4.699  71.375  1.00  0.00    -0.134 OA 
HETATM    7  C   UNL     1     -10.218   6.085  71.597  1.00  0.00    -0.201 C  
HETATM    8  C   UNL     1      -8.686   6.386  71.671  1.00  0.00    -0.133 C  
HETATM    9  C   UNL     1      -8.407   4.030  72.607  1.00  0.00    -0.099 C  
HETATM   10  N   UNL     1      -7.995   6.160  70.383  1.00  0.00    -0.106 NA 
HETATM   11  C   UNL     1      -8.041   5.510  72.762  1.00  0.00    -0.109 C  
HETATM   12  H   UNL     1      -6.796   3.594  71.596  1.00  0.00     0.000 HD 
HETATM   13  H1  UNL     1      -6.995   6.357  70.431  1.00  0.00     0.000 HD 
HETATM   14  H2  UNL     1      -8.437   6.693  69.633  1.00  0.00     0.000 HD 
HETATM   15  O   UNL     1      -7.730   3.474  71.472  1.00  0.00    -0.054 OA 
BRANCH   7  16
HETATM   16  O   UNL     1     -10.809   6.853  70.534  1.00  0.00    -0.234 OA 
BRANCH  16  17
HETATM   17  C   UNL     1     -10.833   8.300  70.706  1.00  0.00    -0.227 C  
HETATM   18  N   UNL     1     -12.549   8.268  72.504  1.00  0.00    -0.580 NA 
HETATM   19  C   UNL     1     -12.185  10.346  71.322  1.00  0.00    -0.491 C  
HETATM   20  H1  UNL     1     -13.451   8.620  72.825  1.00  0.00     0.000 HD 
HETATM   21  H2  UNL     1     -11.815   8.435  73.192  1.00  0.00     0.000 HD 
HETATM   22  C   UNL     1     -11.834  11.020  69.996  1.00  0.00    -0.355 C  
HETATM   23  C   UNL     1     -12.198   8.832  71.191  1.00  0.00    -0.244 C  
HETATM   24  N   UNL     1     -11.978  12.468  70.230  1.00  0.00    -0.495 NA 
HETATM   25  C   UNL     1     -10.413  10.607  69.498  1.00  0.00    -0.204 C  
HETATM   26  H   UNL     1      -8.502   9.190  68.630  1.00  0.00     0.000 HD 
HETATM   27  H1  UNL     1     -11.745  12.917  69.344  1.00  0.00     0.000 HD 
HETATM   28  C   UNL     1     -10.260   9.055  69.475  1.00  0.00    -0.203 C  
HETATM   29  H2  UNL     1     -11.430  12.810  71.019  1.00  0.00     0.000 HD 
HETATM   30  O   UNL     1      -8.853   8.728  69.383  1.00  0.00    -0.139 OA 
BRANCH  25  31
HETATM   31  O   UNL     1     -10.126  11.069  68.141  1.00  0.00    -0.170 OA 
BRANCH  31  32
HETATM   32  C   UNL     1     -11.158  10.818  67.179  1.00  0.00    -0.227 C  
HETATM   33  O   UNL     1     -11.901  11.999  66.849  1.00  0.00    -0.580 OA 
HETATM   34  C   UNL     1     -11.125  12.965  66.120  1.00  0.00    -0.286 C  
HETATM   35  C   UNL     1     -10.641  12.371  64.788  1.00  0.00    -0.300 C  
HETATM   36  H   UNL     1      -9.464   8.554  65.485  1.00  0.00     0.000 HD 
HETATM   37  C   UNL     1      -9.787  11.115  65.049  1.00  0.00    -0.266 C  
HETATM   38  H1  UNL     1      -8.777   9.682  63.941  1.00  0.00     0.000 HD 
HETATM   39  O   UNL     1      -9.902  13.317  64.010  1.00  0.00    -0.741 OA 
HETATM   40  H   UNL     1      -9.603  12.949  63.187  1.00  0.00     0.000 HD 
HETATM   41  H2  UNL     1      -8.855  11.189  63.181  1.00  0.00     0.000 HD 
HETATM   42  C   UNL     1     -10.591  10.127  65.911  1.00  0.00     0.028 C  
HETATM   43  N   UNL     1      -9.343  10.513  63.768  1.00  0.00    -0.256 NA 
HETATM   44  O   UNL     1      -9.811   8.977  66.261  1.00  0.00    -0.258 OA 
BRANCH  34  45
HETATM   45  C   UNL     1     -12.005  14.196  65.861  1.00  0.00    -0.409 C  
HETATM   46  O   UNL     1     -11.203  15.337  65.558  1.00  0.00    -0.329 OA 
HETATM   47  H   UNL     1     -11.748  16.098  65.397  1.00  0.00     0.000 HD 
ENDBRANCH  34  45
ENDBRANCH  31  32
ENDBRANCH  25  31
ENDBRANCH  16  17
ENDBRANCH   7  16
ENDBRANCH   2   5
TORSDOF 6
ENDMDL
MODEL       88
REMARK 921   NORMALIZED FREE ENERGY PREDICTED BY IDOCK:   -6.20 KCAL/MOL
REMARK 922        TOTAL FREE ENERGY PREDICTED BY IDOCK:   -9.43 KCAL/MOL
REMARK 923 INTER-LIGAND FREE ENERGY PREDICTED BY IDOCK:   -8.20 KCAL/MOL
REMARK 924 INTRA-LIGAND FREE ENERGY PREDICTED BY IDOCK:   -1.23 KCAL/MOL
REMARK 927      BINDING AFFINITY PREDICTED BY RF-SCORE:    0.00 PKD
ROOT
HETATM    1  N   UNL     1     -10.832  17.074  68.979  1.00  0.00    -0.295 NA 
HETATM    2  C   UNL     1     -10.929  15.817  69.737  1.00  0.00    -0.316 C  
HETATM    3  H2  UNL     1     -11.404  17.804  69.401  1.00  0.00     0.000 HD 
HETATM    4  H1  UNL     1      -9.867  17.382  68.864  1.00  0.00     0.000 HD 
ENDROOT
BRANCH   2   5
HETATM    5  C   UNL     1     -12.396  15.349  69.911  1.00  0.00    -0.293 C  
HETATM    6  O   UNL     1     -12.570  13.963  69.579  1.00  0.00    -0.210 OA 
HETATM    7  C   UNL     1     -11.962  13.048  70.477  1.00  0.00    -0.212 C  
HETATM    8  C   UNL     1     -12.582  13.211  71.903  1.00  0.00    -0.008 C  
HETATM    9  C   UNL     1     -12.953  15.664  71.313  1.00  0.00    -0.492 C  
HETATM   10  N   UNL     1     -14.006  12.812  71.956  1.00  0.00    -0.109 NA 
HETATM   11  C   UNL     1     -12.439  14.674  72.364  1.00  0.00    -0.387 C  
HETATM   12  H   UNL     1     -14.728  15.804  72.112  1.00  0.00     0.000 HD 
HETATM   13  H1  UNL     1     -14.411  12.918  72.887  1.00  0.00     0.000 HD 
HETATM   14  H2  UNL     1     -14.132  11.862  71.608  1.00  0.00     0.000 HD 
HETATM   15  O   UNL     1     -14.384  15.610  71.247  1.00  0.00    -0.521 OA 
BRANCH   7  16
HETATM   16  O   UNL     1     -12.155  11.699  70.019  1.00  0.00    -0.316 OA 
BRANCH  16  17
HETATM   17  C   UNL     1     -11.171  11.180  69.077  1.00  0.00    -0.256 C  
HETATM   18  N   UNL     1     -11.942  12.581  67.174  1.00  0.00    -0.516 NA 
HETATM   19  C   UNL     1     -10.614  10.623  66.674  1.00  0.00    -0.276 C  
HETATM   20  H1  UNL     1     -12.263  12.598  66.207  1.00  0.00     0.000 HD 
HETATM   21  H2  UNL     1     -11.138  13.193  67.314  1.00  0.00     0.000 HD 
HETATM   22  C   UNL     1     -10.260   9.185  67.053  1.00  0.00    -0.263 C  
HETATM   23  C   UNL     1     -11.658  11.205  67.613  1.00  0.00    -0.183 C  
HETATM   24  N   UNL     1      -9.345   8.706  66.003  1.00  0.00    -0.274 NA 
HETATM   25  C   UNL     1      -9.658   9.100  68.492  1.00  0.00    -0.148 C  
HETATM   26  H   UNL     1      -9.470   9.208  71.014  1.00  0.00     0.000 HD 
HETATM   27  H1  UNL     1      -9.110   7.746  66.255  1.00  0.00     0.000 HD 
HETATM   28  C   UNL     1     -10.583   9.813  69.525  1.00  0.00    -0.233 C  
HETATM   29  H2  UNL     1      -8.530   9.304  65.867  1.00  0.00     0.000 HD 
HETATM   30  O   UNL     1      -9.831  10.043  70.740  1.00  0.00    -0.018 OA 
BRANCH  25  31
HETATM   31  O   UNL     1      -9.498   7.725  68.963  1.00  0.00    -0.150 OA 
BRANCH  31  32
HETATM   32  C   UNL     1     -10.695   6.936  68.967  1.00  0.00    -0.230 C  
HETATM   33  O   UNL     1     -10.868   6.192  67.754  1.00  0.00    -0.280 OA 
HETATM   34  C   UNL     1      -9.894   5.148  67.593  1.00  0.00    -0.160 C  
HETATM   35  C   UNL     1     -10.000   4.133  68.742  1.00  0.00     0.105 C  
HETATM   36  H   UNL     1     -10.575   6.204  72.179  1.00  0.00     0.000 HD 
HETATM   37  C   UNL     1      -9.777   4.839  70.093  1.00  0.00    -0.217 C  
HETATM   38  H1  UNL     1      -9.762   4.343  72.106  1.00  0.00     0.000 HD 
HETATM   39  O   UNL     1      -9.076   3.050  68.594  1.00  0.00    -0.123 OA 
HETATM   40  H   UNL     1      -9.141   2.423  69.304  1.00  0.00     0.000 HD 
HETATM   41  H2  UNL     1      -9.292   3.073  71.097  1.00  0.00     0.000 HD 
HETATM   42  C   UNL     1     -10.759   6.017  70.215  1.00  0.00    -0.300 C  
HETATM   43  N   UNL     1      -9.910   3.875  71.211  1.00  0.00    -0.177 NA 
HETATM   44  O   UNL     1     -10.536   6.767  71.415  1.00  0.00    -0.218 OA 
BRANCH  34  45
HETATM   45  C   UNL     1     -10.150   4.453  66.248  1.00  0.00    -0.225 C  
HETATM   46  O   UNL     1     -11.388   4.884  65.683  1.00  0.00    -0.897 OA 
HETATM   47  H   UNL     1     -11.547   4.454  64.850  1.00  0.00     0.000 HD 
ENDBRANCH  34  45
ENDBRANCH  31  32
ENDBRANCH  25  31
ENDBRANCH  16  17
ENDBRANCH   7  16
ENDBRANCH   2   5
TORSDOF 6
ENDMDL
MODEL       89
REMARK 921   NORMALIZED FREE ENERGY PREDICTED BY IDOCK:   -6.19 KCAL/MOL
REMARK 922        TOTAL FREE ENERGY PREDICTED BY IDOCK:   -9.42 KCAL/MOL
REMARK 923 INTER-LIGAND FREE ENERGY PREDICTED BY IDOCK:   -8.04 KCAL/MOL
REMARK 924 INTRA-LIGAND FREE ENERGY PREDICTED BY IDOCK:   -1.38 KCAL/MOL
REMARK 927      BINDING AFFINITY PREDICTED BY RF-SCORE:    0.00 PKD
ROOT
HETATM    1  N   UNL     1     -10.304  15.333  68.749  1.00  0.00    -0.225 NA 
HETATM    2  C   UNL     1     -10.809  15.706  70.079  1.00  0.00    -0.330 C  
HETATM    3  H2  UNL     1     -10.865  15.756  68.010  1.00  0.00     0.000 HD 
HETATM    4  H1  UNL     1      -9.316  15.556  68.635  1.00  0.00     0.000 HD 
ENDROOT
BRANCH   2   5
HETATM    5  C   UNL     1     -12.311  15.368  70.252  1.00  0.00    -0.388 C  
HETATM    6  O   UNL     1     -12.600  13.995  69.945  1.00  0.00    -0.304 OA 
HETATM    7  C   UNL     1     -12.076  13.049  70.864  1.00  0.00    -0.090 C  
HETATM    8  C   UNL     1     -12.686  13.290  72.283  1.00  0.00    -0.020 C  
HETATM    9  C   UNL     1     -12.845  15.755  71.646  1.00  0.00    -0.448 C  
HETATM   10  N   UNL     1     -14.139  13.015  72.334  1.00  0.00    -0.533 NA 
HETATM   11  C   UNL     1     -12.422  14.744  72.717  1.00  0.00    -0.417 C  
HETATM   12  H   UNL     1     -14.605  16.059  72.431  1.00  0.00     0.000 HD 
HETATM   13  H1  UNL     1     -14.537  13.172  73.261  1.00  0.00     0.000 HD 
HETATM   14  H2  UNL     1     -14.344  12.072  72.003  1.00  0.00     0.000 HD 
HETATM   15  O   UNL     1     -14.275  15.821  71.572  1.00  0.00    -0.467 OA 
BRANCH   7  16
HETATM   16  O   UNL     1     -12.380  11.713  70.429  1.00  0.00    -0.321 OA 
BRANCH  16  17
HETATM   17  C   UNL     1     -11.388  11.054  69.589  1.00  0.00    -0.292 C  
HETATM   18  N   UNL     1     -11.682  12.598  67.664  1.00  0.00    -0.355 NA 
HETATM   19  C   UNL     1     -10.640  10.456  67.249  1.00  0.00    -0.322 C  
HETATM   20  H1  UNL     1     -11.876  12.686  66.667  1.00  0.00     0.000 HD 
HETATM   21  H2  UNL     1     -10.812  13.065  67.920  1.00  0.00     0.000 HD 
HETATM   22  C   UNL     1     -10.574   8.972  67.611  1.00  0.00    -0.231 C  
HETATM   23  C   UNL     1     -11.682  11.187  68.080  1.00  0.00    -0.232 C  
HETATM   24  N   UNL     1      -9.629   8.367  66.657  1.00  0.00    -0.209 NA 
HETATM   25  C   UNL     1     -10.175   8.762  69.106  1.00  0.00    -0.207 C  
HETATM   26  H   UNL     1     -10.280   8.791  71.635  1.00  0.00     0.000 HD 
HETATM   27  H1  UNL     1      -9.586   7.377  66.899  1.00  0.00     0.000 HD 
HETATM   28  C   UNL     1     -11.089   9.600  70.051  1.00  0.00    -0.255 C  
HETATM   29  H2  UNL     1      -8.717   8.824  66.641  1.00  0.00     0.000 HD 
HETATM   30  O   UNL     1     -10.463   9.680  71.353  1.00  0.00    -0.272 OA 
BRANCH  25  31
HETATM   31  O   UNL     1     -10.299   7.372  69.540  1.00  0.00    -0.205 OA 
BRANCH  31  32
HETATM   32  C   UNL     1      -9.108   6.793  70.089  1.00  0.00    -0.155 C  
HETATM   33  O   UNL     1      -9.032   6.939  71.513  1.00  0.00    -0.140 OA 
HETATM   34  C   UNL     1     -10.018   6.160  72.210  1.00  0.00    -0.166 C  
HETATM   35  C   UNL     1      -9.827   4.663  71.916  1.00  0.00    -0.179 C  
HETATM   36  H   UNL     1      -8.980   4.270  67.971  1.00  0.00     0.000 HD 
HETATM   37  C   UNL     1      -9.943   4.403  70.402  1.00  0.00    -0.183 C  
HETATM   38  H1  UNL     1      -9.802   2.795  69.101  1.00  0.00     0.000 HD 
HETATM   39  O   UNL     1     -10.763   3.849  72.628  1.00  0.00    -0.138 OA 
HETATM   40  H   UNL     1     -10.645   2.924  72.447  1.00  0.00     0.000 HD 
HETATM   41  H2  UNL     1     -10.354   2.369  70.640  1.00  0.00     0.000 HD 
HETATM   42  C   UNL     1      -8.950   5.312  69.657  1.00  0.00    -0.107 C  
HETATM   43  N   UNL     1      -9.726   2.967  70.103  1.00  0.00    -0.069 NA 
HETATM   44  O   UNL     1      -9.077   5.177  68.236  1.00  0.00    -0.108 OA 
BRANCH  34  45
HETATM   45  C   UNL     1      -9.870   6.426  73.714  1.00  0.00    -0.212 C  
HETATM   46  O   UNL     1     -10.675   7.535  74.114  1.00  0.00    -0.458 OA 
HETATM   47  H   UNL     1     -10.583   7.700  75.045  1.00  0.00     0.000 HD 
ENDBRANCH  34  45
ENDBRANCH  31  32
ENDBRANCH  25  31
ENDBRANCH  16  17
ENDBRANCH   7  16
ENDBRANCH   2   5
TORSDOF 6
ENDMDL
MODEL       90
REMARK 921   NORMALIZED FREE ENERGY PREDICTED BY IDOCK:   -6.19 KCAL/MOL
REMARK 922        TOTAL FREE ENERGY PREDICTED BY IDOCK:   -9.42 KCAL/MOL
REMARK 923 INTER-LIGAND FREE ENERGY PREDICTED BY IDOCK:   -8.26 KCAL/MOL
REMARK 924 INTRA-LIGAND FREE ENERGY PREDICTED BY IDOCK:   -1.16 KCAL/MOL
REMARK 927      BINDING AFFINITY PREDICTED BY RF-SCORE:    0.00 PKD
ROOT
HETATM    1  N   UNL     1      -8.454  15.081  69.673  1.00  0.00    -0.443 NA 
HETATM    2  C   UNL     1      -8.239  16.390  69.039  1.00  0.00    -0.222 C  
HETATM    3  H2  UNL     1      -7.735  14.414  69.395  1.00  0.00     0.000 HD 
HETATM    4  H1  UNL     1      -8.520  15.150  70.688  1.00  0.00     0.000 HD 
ENDROOT
BRANCH   2   5
HETATM    5  C   UNL     1      -8.139  16.285  67.496  1.00  0.00    -0.146 C  
HETATM    6  O   UNL     1      -8.969  15.239  66.965  1.00  0.00    -0.204 OA 
HETATM    7  C   UNL     1     -10.365  15.473  67.058  1.00  0.00    -0.279 C  
HETATM    8  C   UNL     1     -10.746  16.754  66.245  1.00  0.00    -0.106 C  
HETATM    9  C   UNL     1      -8.414  17.629  66.795  1.00  0.00    -0.251 C  
HETATM   10  N   UNL     1     -10.546  16.586  64.789  1.00  0.00    -0.683 NA 
HETATM   11  C   UNL     1      -9.913  17.948  66.746  1.00  0.00    -0.339 C  
HETATM   12  H   UNL     1      -8.055  18.384  65.031  1.00  0.00     0.000 HD 
HETATM   13  H1  UNL     1     -10.795  17.421  64.258  1.00  0.00     0.000 HD 
HETATM   14  H2  UNL     1     -11.049  15.770  64.443  1.00  0.00     0.000 HD 
HETATM   15  O   UNL     1      -7.886  17.555  65.464  1.00  0.00    -0.386 OA 
BRANCH   7  16
HETATM   16  O   UNL     1     -11.093  14.344  66.547  1.00  0.00    -0.317 OA 
BRANCH  16  17
HETATM   17  C   UNL     1     -10.312  13.166  66.192  1.00  0.00    -0.284 C  
HETATM   18  N   UNL     1     -10.395  13.587  63.744  1.00  0.00    -0.487 NA 
HETATM   19  C   UNL     1      -9.848  11.354  64.491  1.00  0.00    -0.302 C  
HETATM   20  H1  UNL     1     -10.627  13.212  62.825  1.00  0.00     0.000 HD 
HETATM   21  H2  UNL     1      -9.433  13.925  63.781  1.00  0.00     0.000 HD 
HETATM   22  C   UNL     1     -10.069  10.264  65.540  1.00  0.00    -0.281 C  
HETATM   23  C   UNL     1     -10.663  12.598  64.801  1.00  0.00    -0.308 C  
HETATM   24  N   UNL     1      -9.330   9.085  65.057  1.00  0.00    -0.443 NA 
HETATM   25  C   UNL     1      -9.632  10.736  66.962  1.00  0.00    -0.169 C  
HETATM   26  H   UNL     1      -9.575  12.026  69.141  1.00  0.00     0.000 HD 
HETATM   27  H1  UNL     1      -9.478   8.358  65.757  1.00  0.00     0.000 HD 
HETATM   28  C   UNL     1     -10.293  12.101  67.324  1.00  0.00    -0.212 C  
HETATM   29  H2  UNL     1      -8.345   9.271  64.864  1.00  0.00     0.000 HD 
HETATM   30  O   UNL     1      -9.587  12.677  68.449  1.00  0.00    -0.217 OA 
BRANCH  25  31
HETATM   31  O   UNL     1     -10.016   9.800  68.018  1.00  0.00    -0.148 OA 
BRANCH  31  32
HETATM   32  C   UNL     1      -9.234   8.601  68.086  1.00  0.00    -0.137 C  
HETATM   33  O   UNL     1      -8.260   8.638  69.137  1.00  0.00    -0.114 OA 
HETATM   34  C   UNL     1      -8.848   8.613  70.448  1.00  0.00    -0.157 C  
HETATM   35  C   UNL     1      -9.656   7.322  70.651  1.00  0.00    -0.172 C  
HETATM   36  H   UNL     1     -11.689   6.577  67.223  1.00  0.00     0.000 HD 
HETATM   37  C   UNL     1     -10.766   7.220  69.587  1.00  0.00    -0.236 C  
HETATM   38  H1  UNL     1     -12.265   5.893  69.048  1.00  0.00     0.000 HD 
HETATM   39  O   UNL     1     -10.221   7.237  71.962  1.00  0.00    -0.188 OA 
HETATM   40  H   UNL     1     -10.721   6.439  72.087  1.00  0.00     0.000 HD 
HETATM   41  H2  UNL     1     -11.900   5.862  70.697  1.00  0.00     0.000 HD 
HETATM   42  C   UNL     1     -10.138   7.344  68.188  1.00  0.00    -0.179 C  
HETATM   43  N   UNL     1     -11.530   5.960  69.752  1.00  0.00    -0.154 NA 
HETATM   44  O   UNL     1     -11.136   7.347  67.160  1.00  0.00    -0.263 OA 
BRANCH  34  45
HETATM   45  C   UNL     1      -7.720   8.700  71.485  1.00  0.00    -0.118 C  
HETATM   46  O   UNL     1      -6.831   9.773  71.178  1.00  0.00    -0.314 OA 
HETATM   47  H   UNL     1      -6.133   9.827  71.820  1.00  0.00     0.000 HD 
ENDBRANCH  34  45
ENDBRANCH  31  32
ENDBRANCH  25  31
ENDBRANCH  16  17
ENDBRANCH   7  16
ENDBRANCH   2   5
TORSDOF 6
ENDMDL
MODEL       91
REMARK 921   NORMALIZED FREE ENERGY PREDICTED BY IDOCK:   -6.18 KCAL/MOL
REMARK 922        TOTAL FREE ENERGY PREDICTED BY IDOCK:   -9.40 KCAL/MOL
REMARK 923 INTER-LIGAND FREE ENERGY PREDICTED BY IDOCK:   -9.38 KCAL/MOL
REMARK 924 INTRA-LIGAND FREE ENERGY PREDICTED BY IDOCK:   -0.02 KCAL/MOL
REMARK 927      BINDING AFFINITY PREDICTED BY RF-SCORE:    0.00 PKD
ROOT
HETATM    1  N   UNL     1      -7.475   8.744  72.655  1.00  0.00    -0.355 NA 
HETATM    2  C   UNL     1      -8.755   8.125  73.029  1.00  0.00    -0.243 C  
HETATM    3  H2  UNL     1      -7.556   9.760  72.613  1.00  0.00     0.000 HD 
HETATM    4  H1  UNL     1      -6.715   8.460  73.271  1.00  0.00     0.000 HD 
ENDROOT
BRANCH   2   5
HETATM    5  C   UNL     1      -9.912   8.556  72.092  1.00  0.00    -0.317 C  
HETATM    6  O   UNL     1      -9.684   8.166  70.729  1.00  0.00    -0.168 OA 
HETATM    7  C   UNL     1      -9.741   6.770  70.484  1.00  0.00    -0.176 C  
HETATM    8  C   UNL     1     -11.164   6.225  70.835  1.00  0.00    -0.324 C  
HETATM    9  C   UNL     1     -11.287   8.071  72.591  1.00  0.00    -0.405 C  
HETATM   10  N   UNL     1     -12.214   6.750  69.936  1.00  0.00    -0.521 NA 
HETATM   11  C   UNL     1     -11.507   6.583  72.293  1.00  0.00    -0.326 C  
HETATM   12  H   UNL     1     -13.146   8.556  72.253  1.00  0.00     0.000 HD 
HETATM   13  H1  UNL     1     -13.143   6.394  70.165  1.00  0.00     0.000 HD 
HETATM   14  H2  UNL     1     -11.984   6.569  68.959  1.00  0.00     0.000 HD 
HETATM   15  O   UNL     1     -12.298   8.855  71.945  1.00  0.00    -0.326 OA 
BRANCH   7  16
HETATM   16  O   UNL     1      -9.447   6.495  69.104  1.00  0.00    -0.136 OA 
BRANCH  16  17
HETATM   17  C   UNL     1      -8.786   7.553  68.351  1.00  0.00    -0.123 C  
HETATM   18  N   UNL     1      -6.533   7.115  69.306  1.00  0.00    -0.035 NA 
HETATM   19  C   UNL     1      -6.926   9.265  68.271  1.00  0.00    -0.072 C  
HETATM   20  H1  UNL     1      -5.723   7.506  69.787  1.00  0.00     0.000 HD 
HETATM   21  H2  UNL     1      -6.267   6.653  68.437  1.00  0.00     0.000 HD 
HETATM   22  C   UNL     1      -7.925  10.388  67.992  1.00  0.00    -0.105 C  
HETATM   23  C   UNL     1      -7.560   8.145  69.079  1.00  0.00    -0.097 C  
HETATM   24  N   UNL     1      -7.157  11.451  67.321  1.00  0.00    -0.110 NA 
HETATM   25  C   UNL     1      -9.145   9.880  67.161  1.00  0.00    -0.138 C  
HETATM   26  H   UNL     1     -11.250   8.623  66.530  1.00  0.00     0.000 HD 
HETATM   27  H1  UNL     1      -7.823  12.201  67.135  1.00  0.00     0.000 HD 
HETATM   28  C   UNL     1      -9.784   8.621  67.822  1.00  0.00    -0.165 C  
HETATM   29  H2  UNL     1      -6.658  11.133  66.490  1.00  0.00     0.000 HD 
HETATM   30  O   UNL     1     -10.640   7.970  66.853  1.00  0.00    -0.338 OA 
BRANCH  25  31
HETATM   31  O   UNL     1     -10.213  10.872  67.049  1.00  0.00    -0.198 OA 
BRANCH  31  32
HETATM   32  C   UNL     1      -9.873  12.057  66.317  1.00  0.00    -0.231 C  
HETATM   33  O   UNL     1      -9.346  11.767  65.015  1.00  0.00    -0.130 OA 
HETATM   34  C   UNL     1     -10.326  11.208  64.125  1.00  0.00    -0.361 C  
HETATM   35  C   UNL     1     -11.484  12.196  63.913  1.00  0.00    -0.440 C  
HETATM   36  H   UNL     1     -12.354  13.878  67.498  1.00  0.00     0.000 HD 
HETATM   37  C   UNL     1     -12.147  12.531  65.263  1.00  0.00    -0.444 C  
HETATM   38  H1  UNL     1     -13.683  13.732  65.969  1.00  0.00     0.000 HD 
HETATM   39  O   UNL     1     -12.461  11.696  62.995  1.00  0.00    -0.972 OA 
HETATM   40  H   UNL     1     -13.177  12.307  62.865  1.00  0.00     0.000 HD 
HETATM   41  H2  UNL     1     -13.925  13.190  64.387  1.00  0.00     0.000 HD 
HETATM   42  C   UNL     1     -11.073  13.037  66.241  1.00  0.00    -0.289 C  
HETATM   43  N   UNL     1     -13.244  13.510  65.075  1.00  0.00    -0.590 NA 
HETATM   44  O   UNL     1     -11.619  13.278  67.544  1.00  0.00    -0.305 OA 
BRANCH  34  45
HETATM   45  C   UNL     1      -9.642  10.901  62.786  1.00  0.00    -0.308 C  
HETATM   46  O   UNL     1      -8.400  11.595  62.680  1.00  0.00    -0.627 OA 
HETATM   47  H   UNL     1      -7.976  11.405  61.851  1.00  0.00     0.000 HD 
ENDBRANCH  34  45
ENDBRANCH  31  32
ENDBRANCH  25  31
ENDBRANCH  16  17
ENDBRANCH   7  16
ENDBRANCH   2   5
TORSDOF 6
ENDMDL
MODEL       92
REMARK 921   NORMALIZED FREE ENERGY PREDICTED BY IDOCK:   -6.14 KCAL/MOL
REMARK 922        TOTAL FREE ENERGY PREDICTED BY IDOCK:   -9.35 KCAL/MOL
REMARK 923 INTER-LIGAND FREE ENERGY PREDICTED BY IDOCK:   -7.59 KCAL/MOL
REMARK 924 INTRA-LIGAND FREE ENERGY PREDICTED BY IDOCK:   -1.75 KCAL/MOL
REMARK 927      BINDING AFFINITY PREDICTED BY RF-SCORE:    0.00 PKD
ROOT
HETATM    1  N   UNL     1     -10.951  16.677  68.417  1.00  0.00    -0.357 NA 
HETATM    2  C   UNL     1     -10.969  15.207  68.445  1.00  0.00    -0.271 C  
HETATM    3  H2  UNL     1     -11.420  17.035  67.585  1.00  0.00     0.000 HD 
HETATM    4  H1  UNL     1     -11.343  17.085  69.265  1.00  0.00     0.000 HD 
ENDROOT
BRANCH   2   5
HETATM    5  C   UNL     1     -10.373  14.588  67.156  1.00  0.00    -0.265 C  
HETATM    6  O   UNL     1     -10.441  13.153  67.157  1.00  0.00    -0.245 OA 
HETATM    7  C   UNL     1     -11.749  12.613  67.051  1.00  0.00    -0.369 C  
HETATM    8  C   UNL     1     -12.399  13.054  65.699  1.00  0.00    -0.446 C  
HETATM    9  C   UNL     1     -10.997  15.177  65.876  1.00  0.00    -0.339 C  
HETATM   10  N   UNL     1     -11.717  12.475  64.521  1.00  0.00    -0.344 NA 
HETATM   11  C   UNL     1     -12.386  14.591  65.599  1.00  0.00    -0.258 C  
HETATM   12  H   UNL     1     -10.503  15.257  63.990  1.00  0.00     0.000 HD 
HETATM   13  H1  UNL     1     -12.142  12.763  63.639  1.00  0.00     0.000 HD 
HETATM   14  H2  UNL     1     -11.669  11.459  64.590  1.00  0.00     0.000 HD 
HETATM   15  O   UNL     1     -10.118  14.894  64.779  1.00  0.00    -0.285 OA 
BRANCH   7  16
HETATM   16  O   UNL     1     -11.699  11.177  67.116  1.00  0.00    -0.501 OA 
BRANCH  16  17
HETATM   17  C   UNL     1     -10.446  10.584  67.565  1.00  0.00    -0.239 C  
HETATM   18  N   UNL     1      -9.326  10.762  65.353  1.00  0.00    -0.196 NA 
HETATM   19  C   UNL     1      -8.407   9.213  66.967  1.00  0.00    -0.120 C  
HETATM   20  H1  UNL     1      -8.825  10.272  64.613  1.00  0.00     0.000 HD 
HETATM   21  H2  UNL     1      -8.797  11.563  65.698  1.00  0.00     0.000 HD 
HETATM   22  C   UNL     1      -8.690   8.232  68.105  1.00  0.00    -0.136 C  
HETATM   23  C   UNL     1      -9.688   9.842  66.444  1.00  0.00    -0.212 C  
HETATM   24  N   UNL     1      -7.395   7.609  68.429  1.00  0.00    -0.093 NA 
HETATM   25  C   UNL     1      -9.363   8.942  69.322  1.00  0.00    -0.149 C  
HETATM   26  H   UNL     1     -11.072  10.177  70.723  1.00  0.00     0.000 HD 
HETATM   27  H1  UNL     1      -7.584   6.954  69.188  1.00  0.00     0.000 HD 
HETATM   28  C   UNL     1     -10.613   9.758  68.871  1.00  0.00    -0.218 C  
HETATM   29  H2  UNL     1      -6.659   8.282  68.644  1.00  0.00     0.000 HD 
HETATM   30  O   UNL     1     -10.971  10.682  69.925  1.00  0.00    -0.270 OA 
BRANCH  25  31
HETATM   31  O   UNL     1      -9.830   8.005  70.343  1.00  0.00    -0.182 OA 
BRANCH  31  32
HETATM   32  C   UNL     1     -10.876   7.118  69.925  1.00  0.00    -0.254 C  
HETATM   33  O   UNL     1     -10.388   6.020  69.144  1.00  0.00    -0.186 OA 
HETATM   34  C   UNL     1      -9.586   5.102  69.906  1.00  0.00    -0.174 C  
HETATM   35  C   UNL     1     -10.411   4.487  71.047  1.00  0.00    -0.012 C  
HETATM   36  H   UNL     1     -12.670   7.435  72.673  1.00  0.00     0.000 HD 
HETATM   37  C   UNL     1     -10.940   5.599  71.974  1.00  0.00    -0.243 C  
HETATM   38  H1  UNL     1     -12.117   5.756  73.674  1.00  0.00     0.000 HD 
HETATM   39  O   UNL     1      -9.661   3.532  71.803  1.00  0.00    -0.147 OA 
HETATM   40  H   UNL     1     -10.171   3.152  72.509  1.00  0.00     0.000 HD 
HETATM   41  H2  UNL     1     -11.262   4.302  73.579  1.00  0.00     0.000 HD 
HETATM   42  C   UNL     1     -11.716   6.629  71.135  1.00  0.00    -0.346 C  
HETATM   43  N   UNL     1     -11.767   5.020  73.060  1.00  0.00    -0.242 NA 
HETATM   44  O   UNL     1     -12.156   7.735  71.933  1.00  0.00    -0.284 OA 
BRANCH  34  45
HETATM   45  C   UNL     1      -9.086   3.999  68.962  1.00  0.00    -0.133 C  
HETATM   46  O   UNL     1      -7.939   4.437  68.234  1.00  0.00    -0.079 OA 
HETATM   47  H   UNL     1      -7.630   3.755  67.650  1.00  0.00     0.000 HD 
ENDBRANCH  34  45
ENDBRANCH  31  32
ENDBRANCH  25  31
ENDBRANCH  16  17
ENDBRANCH   7  16
ENDBRANCH   2   5
TORSDOF 6
ENDMDL
MODEL       93
REMARK 921   NORMALIZED FREE ENERGY PREDICTED BY IDOCK:   -6.07 KCAL/MOL
REMARK 922        TOTAL FREE ENERGY PREDICTED BY IDOCK:   -9.25 KCAL/MOL
REMARK 923 INTER-LIGAND FREE ENERGY PREDICTED BY IDOCK:   -8.24 KCAL/MOL
REMARK 924 INTRA-LIGAND FREE ENERGY PREDICTED BY IDOCK:   -1.01 KCAL/MOL
REMARK 927      BINDING AFFINITY PREDICTED BY RF-SCORE:    0.00 PKD
ROOT
HETATM    1  N   UNL     1      -6.862  11.433  65.860  1.00  0.00    -0.351 NA 
HETATM    2  C   UNL     1      -7.341  10.044  65.795  1.00  0.00    -0.117 C  
HETATM    3  H2  UNL     1      -6.175  11.550  66.604  1.00  0.00     0.000 HD 
HETATM    4  H1  UNL     1      -6.496  11.757  64.966  1.00  0.00     0.000 HD 
ENDROOT
BRANCH   2   5
HETATM    5  C   UNL     1      -7.898   9.551  67.154  1.00  0.00    -0.095 C  
HETATM    6  O   UNL     1      -9.110  10.226  67.526  1.00  0.00    -0.137 OA 
HETATM    7  C   UNL     1     -10.240   9.918  66.725  1.00  0.00    -0.236 C  
HETATM    8  C   UNL     1     -10.569   8.393  66.833  1.00  0.00    -0.215 C  
HETATM    9  C   UNL     1      -8.073   8.020  67.199  1.00  0.00    -0.117 C  
HETATM   10  N   UNL     1     -11.019   8.000  68.186  1.00  0.00    -0.441 NA 
HETATM   11  C   UNL     1      -9.328   7.569  66.443  1.00  0.00    -0.211 C  
HETATM   12  H   UNL     1      -8.267   6.677  68.601  1.00  0.00     0.000 HD 
HETATM   13  H1  UNL     1     -11.234   7.005  68.257  1.00  0.00     0.000 HD 
HETATM   14  H2  UNL     1     -11.811   8.568  68.488  1.00  0.00     0.000 HD 
HETATM   15  O   UNL     1      -8.159   7.621  68.573  1.00  0.00    -0.121 OA 
BRANCH   7  16
HETATM   16  O   UNL     1     -11.376  10.688  67.154  1.00  0.00    -0.344 OA 
BRANCH  16  17
HETATM   17  C   UNL     1     -11.172  11.585  68.284  1.00  0.00    -0.261 C  
HETATM   18  N   UNL     1     -12.335  10.124  69.924  1.00  0.00    -0.509 NA 
HETATM   19  C   UNL     1     -12.042  12.456  70.493  1.00  0.00    -0.363 C  
HETATM   20  H1  UNL     1     -13.068  10.055  70.631  1.00  0.00     0.000 HD 
HETATM   21  H2  UNL     1     -11.429   9.835  70.293  1.00  0.00     0.000 HD 
HETATM   22  C   UNL     1     -11.976  13.898  69.990  1.00  0.00    -0.336 C  
HETATM   23  C   UNL     1     -12.280  11.479  69.353  1.00  0.00    -0.207 C  
HETATM   24  N   UNL     1     -11.870  14.740  71.194  1.00  0.00    -0.328 NA 
HETATM   25  C   UNL     1     -10.803  14.102  68.980  1.00  0.00    -0.251 C  
HETATM   26  H   UNL     1      -9.387  13.909  66.890  1.00  0.00     0.000 HD 
HETATM   27  H1  UNL     1     -11.826  15.702  70.859  1.00  0.00     0.000 HD 
HETATM   28  C   UNL     1     -10.858  13.041  67.839  1.00  0.00    -0.242 C  
HETATM   29  H2  UNL     1     -11.092  14.484  71.804  1.00  0.00     0.000 HD 
HETATM   30  O   UNL     1      -9.579  13.020  67.161  1.00  0.00    -0.217 OA 
BRANCH  25  31
HETATM   31  O   UNL     1     -10.833  15.410  68.327  1.00  0.00    -0.251 OA 
BRANCH  31  32
HETATM   32  C   UNL     1     -10.024  16.420  68.943  1.00  0.00    -0.257 C  
HETATM   33  O   UNL     1      -8.787  15.902  69.449  1.00  0.00    -0.251 OA 
HETATM   34  C   UNL     1      -7.889  15.479  68.410  1.00  0.00    -0.126 C  
HETATM   35  C   UNL     1      -7.523  16.662  67.500  1.00  0.00    -0.153 C  
HETATM   36  H   UNL     1     -10.891  18.827  66.863  1.00  0.00     0.000 HD 
HETATM   37  C   UNL     1      -8.797  17.257  66.869  1.00  0.00    -0.240 C  
HETATM   38  H1  UNL     1      -9.302  18.815  65.598  1.00  0.00     0.000 HD 
HETATM   39  O   UNL     1      -6.593  16.292  66.478  1.00  0.00    -0.224 OA 
HETATM   40  H   UNL     1      -6.367  17.024  65.916  1.00  0.00     0.000 HD 
HETATM   41  H2  UNL     1      -7.761  18.186  65.311  1.00  0.00     0.000 HD 
HETATM   42  C   UNL     1      -9.792  17.618  67.985  1.00  0.00    -0.310 C  
HETATM   43  N   UNL     1      -8.459  18.422  66.016  1.00  0.00    -0.509 NA 
HETATM   44  O   UNL     1     -11.034  18.093  67.450  1.00  0.00    -0.312 OA 
BRANCH  34  45
HETATM   45  C   UNL     1      -6.625  14.907  69.067  1.00  0.00    -0.109 C  
HETATM   46  O   UNL     1      -6.960  14.129  70.216  1.00  0.00    -0.395 OA 
HETATM   47  H   UNL     1      -6.178  13.774  70.623  1.00  0.00     0.000 HD 
ENDBRANCH  34  45
ENDBRANCH  31  32
ENDBRANCH  25  31
ENDBRANCH  16  17
ENDBRANCH   7  16
ENDBRANCH   2   5
TORSDOF 6
ENDMDL
MODEL       94
REMARK 921   NORMALIZED FREE ENERGY PREDICTED BY IDOCK:   -6.05 KCAL/MOL
REMARK 922        TOTAL FREE ENERGY PREDICTED BY IDOCK:   -9.22 KCAL/MOL
REMARK 923 INTER-LIGAND FREE ENERGY PREDICTED BY IDOCK:   -8.71 KCAL/MOL
REMARK 924 INTRA-LIGAND FREE ENERGY PREDICTED BY IDOCK:   -0.52 KCAL/MOL
REMARK 927      BINDING AFFINITY PREDICTED BY RF-SCORE:    0.00 PKD
ROOT
HETATM    1  N   UNL     1      -6.389   8.212  68.206  1.00  0.00    -0.050 NA 
HETATM    2  C   UNL     1      -6.184   6.757  68.261  1.00  0.00    -0.030 C  
HETATM    3  H2  UNL     1      -6.890   8.544  69.030  1.00  0.00     0.000 HD 
HETATM    4  H1  UNL     1      -5.515   8.720  68.077  1.00  0.00     0.000 HD 
ENDROOT
BRANCH   2   5
HETATM    5  C   UNL     1      -7.513   5.984  68.457  1.00  0.00    -0.087 C  
HETATM    6  O   UNL     1      -8.663   6.836  68.334  1.00  0.00    -0.124 OA 
HETATM    7  C   UNL     1      -8.911   7.328  67.027  1.00  0.00    -0.128 C  
HETATM    8  C   UNL     1      -9.176   6.136  66.051  1.00  0.00    -0.095 C  
HETATM    9  C   UNL     1      -7.623   4.757  67.531  1.00  0.00    -0.082 C  
HETATM   10  N   UNL     1     -10.427   5.410  66.362  1.00  0.00    -0.367 NA 
HETATM   11  C   UNL     1      -7.988   5.158  66.097  1.00  0.00    -0.104 C  
HETATM   12  H   UNL     1      -8.695   3.127  67.495  1.00  0.00     0.000 HD 
HETATM   13  H1  UNL     1     -10.601   4.632  65.725  1.00  0.00     0.000 HD 
HETATM   14  H2  UNL     1     -11.223   6.047  66.386  1.00  0.00     0.000 HD 
HETATM   15  O   UNL     1      -8.627   3.884  68.066  1.00  0.00    -0.092 OA 
BRANCH   7  16
HETATM   16  O   UNL     1     -10.049   8.207  67.035  1.00  0.00    -0.223 OA 
BRANCH  16  17
HETATM   17  C   UNL     1      -9.997   9.339  67.951  1.00  0.00    -0.187 C  
HETATM   18  N   UNL     1     -11.068   8.131  69.841  1.00  0.00    -0.416 NA 
HETATM   19  C   UNL     1     -11.058  10.548  69.902  1.00  0.00    -0.371 C  
HETATM   20  H1  UNL     1     -11.819   8.126  70.530  1.00  0.00     0.000 HD 
HETATM   21  H2  UNL     1     -10.153   8.033  70.282  1.00  0.00     0.000 HD 
HETATM   22  C   UNL     1     -11.127  11.850  69.103  1.00  0.00    -0.228 C  
HETATM   23  C   UNL     1     -11.135   9.332  68.993  1.00  0.00     0.052 C  
HETATM   24  N   UNL     1     -11.170  12.932  70.101  1.00  0.00    -0.331 NA 
HETATM   25  C   UNL     1      -9.938  11.972  68.099  1.00  0.00    -0.203 C  
HETATM   26  H   UNL     1      -8.415  11.510  66.130  1.00  0.00     0.000 HD 
HETATM   27  H1  UNL     1     -11.217  13.800  69.568  1.00  0.00     0.000 HD 
HETATM   28  C   UNL     1      -9.824  10.695  67.211  1.00  0.00    -0.176 C  
HETATM   29  H2  UNL     1     -10.398  12.903  70.768  1.00  0.00     0.000 HD 
HETATM   30  O   UNL     1      -8.521  10.682  66.581  1.00  0.00    -0.130 OA 
BRANCH  25  31
HETATM   31  O   UNL     1     -10.082  13.100  67.179  1.00  0.00    -0.237 OA 
BRANCH  31  32
HETATM   32  C   UNL     1     -11.318  13.818  67.280  1.00  0.00    -0.321 C  
HETATM   33  O   UNL     1     -11.125  15.219  67.509  1.00  0.00    -0.312 OA 
HETATM   34  C   UNL     1     -10.546  15.897  66.381  1.00  0.00    -0.297 C  
HETATM   35  C   UNL     1     -11.466  15.782  65.155  1.00  0.00    -0.048 C  
HETATM   36  H   UNL     1     -12.918  11.998  65.044  1.00  0.00     0.000 HD 
HETATM   37  C   UNL     1     -11.693  14.299  64.803  1.00  0.00    -0.415 C  
HETATM   38  H1  UNL     1     -12.757  13.193  63.409  1.00  0.00     0.000 HD 
HETATM   39  O   UNL     1     -10.947  16.484  64.022  1.00  0.00    -1.107 OA 
HETATM   40  H   UNL     1     -11.515  16.412  63.264  1.00  0.00     0.000 HD 
HETATM   41  H2  UNL     1     -12.275  14.709  62.839  1.00  0.00     0.000 HD 
HETATM   42  C   UNL     1     -12.221  13.560  66.045  1.00  0.00    -0.445 C  
HETATM   43  N   UNL     1     -12.607  14.175  63.642  1.00  0.00    -0.778 NA 
HETATM   44  O   UNL     1     -12.365  12.156  65.801  1.00  0.00    -0.564 OA 
BRANCH  34  45
HETATM   45  C   UNL     1     -10.347  17.373  66.755  1.00  0.00    -0.305 C  
HETATM   46  O   UNL     1      -9.564  18.044  65.768  1.00  0.00    -0.505 OA 
HETATM   47  H   UNL     1      -9.441  18.957  65.999  1.00  0.00     0.000 HD 
ENDBRANCH  34  45
ENDBRANCH  31  32
ENDBRANCH  25  31
ENDBRANCH  16  17
ENDBRANCH   7  16
ENDBRANCH   2   5
TORSDOF 6
ENDMDL
MODEL       95
REMARK 921   NORMALIZED FREE ENERGY PREDICTED BY IDOCK:   -6.04 KCAL/MOL
REMARK 922        TOTAL FREE ENERGY PREDICTED BY IDOCK:   -9.22 KCAL/MOL
REMARK 923 INTER-LIGAND FREE ENERGY PREDICTED BY IDOCK:   -9.32 KCAL/MOL
REMARK 924 INTRA-LIGAND FREE ENERGY PREDICTED BY IDOCK:    0.10 KCAL/MOL
REMARK 927      BINDING AFFINITY PREDICTED BY RF-SCORE:    0.00 PKD
ROOT
HETATM    1  N   UNL     1     -11.426   7.060  69.501  1.00  0.00    -0.543 NA 
HETATM    2  C   UNL     1     -12.274   6.637  70.626  1.00  0.00    -0.200 C  
HETATM    3  H2  UNL     1     -10.483   7.285  69.816  1.00  0.00     0.000 HD 
HETATM    4  H1  UNL     1     -11.410   6.371  68.750  1.00  0.00     0.000 HD 
ENDROOT
BRANCH   2   5
HETATM    5  C   UNL     1     -12.300   7.684  71.767  1.00  0.00    -0.319 C  
HETATM    6  O   UNL     1     -11.437   8.802  71.503  1.00  0.00    -0.264 OA 
HETATM    7  C   UNL     1     -11.857   9.650  70.446  1.00  0.00    -0.155 C  
HETATM    8  C   UNL     1     -13.248  10.277  70.788  1.00  0.00    -0.216 C  
HETATM    9  C   UNL     1     -13.730   8.149  72.109  1.00  0.00    -0.229 C  
HETATM   10  N   UNL     1     -13.190  11.204  71.939  1.00  0.00    -0.454 NA 
HETATM   11  C   UNL     1     -14.261   9.154  71.081  1.00  0.00     0.024 C  
HETATM   12  H   UNL     1     -14.586   9.034  73.623  1.00  0.00     0.000 HD 
HETATM   13  H1  UNL     1     -14.098  11.614  72.162  1.00  0.00     0.000 HD 
HETATM   14  H2  UNL     1     -12.489  11.929  71.789  1.00  0.00     0.000 HD 
HETATM   15  O   UNL     1     -13.705   8.747  73.412  1.00  0.00     0.001 OA 
BRANCH   7  16
HETATM   16  O   UNL     1     -10.895  10.698  70.238  1.00  0.00    -0.248 OA 
BRANCH  16  17
HETATM   17  C   UNL     1     -10.057  10.593  69.050  1.00  0.00    -0.213 C  
HETATM   18  N   UNL     1      -8.263   9.289  70.172  1.00  0.00    -0.147 NA 
HETATM   19  C   UNL     1      -7.719  10.418  68.104  1.00  0.00    -0.092 C  
HETATM   20  H1  UNL     1      -7.268   9.222  70.386  1.00  0.00     0.000 HD 
HETATM   21  H2  UNL     1      -8.608   8.444  69.717  1.00  0.00     0.000 HD 
HETATM   22  C   UNL     1      -7.952  11.636  67.211  1.00  0.00    -0.157 C  
HETATM   23  C   UNL     1      -8.552  10.491  69.374  1.00  0.00    -0.086 C  
HETATM   24  N   UNL     1      -7.002  11.502  66.092  1.00  0.00    -0.365 NA 
HETATM   25  C   UNL     1      -9.442  11.740  66.756  1.00  0.00    -0.193 C  
HETATM   26  H   UNL     1     -11.954  12.040  66.850  1.00  0.00     0.000 HD 
HETATM   27  H1  UNL     1      -7.157  12.315  65.496  1.00  0.00     0.000 HD 
HETATM   28  C   UNL     1     -10.404  11.665  67.981  1.00  0.00    -0.192 C  
HETATM   29  H2  UNL     1      -7.077  10.612  65.597  1.00  0.00     0.000 HD 
HETATM   30  O   UNL     1     -11.742  11.385  67.504  1.00  0.00    -0.568 OA 
BRANCH  25  31
HETATM   31  O   UNL     1      -9.743  12.997  66.072  1.00  0.00    -0.266 OA 
BRANCH  31  32
HETATM   32  C   UNL     1     -10.833  13.747  66.624  1.00  0.00    -0.288 C  
HETATM   33  O   UNL     1     -10.412  14.655  67.650  1.00  0.00    -0.241 OA 
HETATM   34  C   UNL     1      -9.608  15.735  67.148  1.00  0.00    -0.218 C  
HETATM   35  C   UNL     1     -10.402  16.570  66.131  1.00  0.00    -0.334 C  
HETATM   36  H   UNL     1     -12.499  14.008  63.791  1.00  0.00     0.000 HD 
HETATM   37  C   UNL     1     -10.858  15.680  64.958  1.00  0.00    -0.450 C  
HETATM   38  H1  UNL     1     -11.957  15.878  63.211  1.00  0.00     0.000 HD 
HETATM   39  O   UNL     1      -9.651  17.684  65.641  1.00  0.00    -0.503 OA 
HETATM   40  H   UNL     1     -10.142  18.200  65.012  1.00  0.00     0.000 HD 
HETATM   41  H2  UNL     1     -11.152  17.293  63.664  1.00  0.00     0.000 HD 
HETATM   42  C   UNL     1     -11.636  14.474  65.513  1.00  0.00    -0.350 C  
HETATM   43  N   UNL     1     -11.656  16.467  63.988  1.00  0.00    -1.124 NA 
HETATM   44  O   UNL     1     -12.007  13.563  64.471  1.00  0.00    -0.376 OA 
BRANCH  34  45
HETATM   45  C   UNL     1      -9.182  16.612  68.334  1.00  0.00    -0.225 C  
HETATM   46  O   UNL     1     -10.131  17.655  68.558  1.00  0.00    -0.333 OA 
HETATM   47  H   UNL     1      -9.868  18.198  69.292  1.00  0.00     0.000 HD 
ENDBRANCH  34  45
ENDBRANCH  31  32
ENDBRANCH  25  31
ENDBRANCH  16  17
ENDBRANCH   7  16
ENDBRANCH   2   5
TORSDOF 6
ENDMDL
MODEL       96
REMARK 921   NORMALIZED FREE ENERGY PREDICTED BY IDOCK:   -6.04 KCAL/MOL
REMARK 922        TOTAL FREE ENERGY PREDICTED BY IDOCK:   -9.22 KCAL/MOL
REMARK 923 INTER-LIGAND FREE ENERGY PREDICTED BY IDOCK:   -8.42 KCAL/MOL
REMARK 924 INTRA-LIGAND FREE ENERGY PREDICTED BY IDOCK:   -0.79 KCAL/MOL
REMARK 927      BINDING AFFINITY PREDICTED BY RF-SCORE:    0.00 PKD
ROOT
HETATM    1  N   UNL     1     -11.638  16.451  63.848  1.00  0.00    -1.602 NA 
HETATM    2  C   UNL     1     -10.692  16.034  64.894  1.00  0.00    -0.316 C  
HETATM    3  H2  UNL     1     -12.540  15.989  63.962  1.00  0.00     0.000 HD 
HETATM    4  H1  UNL     1     -11.746  17.464  63.806  1.00  0.00     0.000 HD 
ENDROOT
BRANCH   2   5
HETATM    5  C   UNL     1     -10.529  14.495  64.958  1.00  0.00    -0.429 C  
HETATM    6  O   UNL     1     -10.039  14.050  66.232  1.00  0.00    -0.282 OA 
HETATM    7  C   UNL     1     -10.948  14.198  67.311  1.00  0.00    -0.297 C  
HETATM    8  C   UNL     1     -12.233  13.347  67.045  1.00  0.00    -0.268 C  
HETATM    9  C   UNL     1     -11.818  13.748  64.561  1.00  0.00    -0.417 C  
HETATM   10  N   UNL     1     -11.967  11.892  67.049  1.00  0.00    -0.601 NA 
HETATM   11  C   UNL     1     -12.850  13.755  65.695  1.00  0.00    -0.456 C  
HETATM   12  H   UNL     1     -12.262  11.938  63.982  1.00  0.00     0.000 HD 
HETATM   13  H1  UNL     1     -12.805  11.337  66.876  1.00  0.00     0.000 HD 
HETATM   14  H2  UNL     1     -11.511  11.606  67.915  1.00  0.00     0.000 HD 
HETATM   15  O   UNL     1     -11.467  12.399  64.226  1.00  0.00    -0.323 OA 
BRANCH   7  16
HETATM   16  O   UNL     1     -10.334  13.771  68.540  1.00  0.00    -0.238 OA 
BRANCH  16  17
HETATM   17  C   UNL     1      -8.968  13.271  68.451  1.00  0.00    -0.124 C  
HETATM   18  N   UNL     1      -7.913  15.518  68.575  1.00  0.00    -0.131 NA 
HETATM   19  C   UNL     1      -6.592  13.693  67.695  1.00  0.00    -0.176 C  
HETATM   20  H1  UNL     1      -7.269  16.179  68.142  1.00  0.00     0.000 HD 
HETATM   21  H2  UNL     1      -7.666  15.336  69.548  1.00  0.00     0.000 HD 
HETATM   22  C   UNL     1      -6.580  12.392  66.891  1.00  0.00     0.154 C  
HETATM   23  C   UNL     1      -7.994  14.272  67.795  1.00  0.00    -0.168 C  
HETATM   24  N   UNL     1      -5.163  12.011  66.765  1.00  0.00    -0.314 NA 
HETATM   25  C   UNL     1      -7.466  11.294  67.560  1.00  0.00    -0.106 C  
HETATM   26  H   UNL     1      -9.503  10.070  68.432  1.00  0.00     0.000 HD 
HETATM   27  H1  UNL     1      -5.155  11.144  66.228  1.00  0.00     0.000 HD 
HETATM   28  C   UNL     1      -8.897  11.837  67.857  1.00  0.00    -0.165 C  
HETATM   29  H2  UNL     1      -4.677  11.943  67.660  1.00  0.00     0.000 HD 
HETATM   30  O   UNL     1      -9.546  10.947  68.795  1.00  0.00    -0.180 OA 
BRANCH  25  31
HETATM   31  O   UNL     1      -7.640  10.111  66.719  1.00  0.00    -0.101 OA 
BRANCH  31  32
HETATM   32  C   UNL     1      -7.132   8.889  67.270  1.00  0.00    -0.083 C  
HETATM   33  O   UNL     1      -8.170   8.042  67.780  1.00  0.00    -0.125 OA 
HETATM   34  C   UNL     1      -9.015   7.506  66.748  1.00  0.00    -0.144 C  
HETATM   35  C   UNL     1      -8.195   6.646  65.775  1.00  0.00    -0.135 C  
HETATM   36  H   UNL     1      -4.685   8.555  65.086  1.00  0.00     0.000 HD 
HETATM   37  C   UNL     1      -7.077   7.493  65.136  1.00  0.00    -0.063 C  
HETATM   38  H1  UNL     1      -5.517   7.224  63.796  1.00  0.00     0.000 HD 
HETATM   39  O   UNL     1      -9.008   6.056  64.757  1.00  0.00    -0.362 OA 
HETATM   40  H   UNL     1      -8.501   5.525  64.154  1.00  0.00     0.000 HD 
HETATM   41  H2  UNL     1      -6.828   6.197  63.516  1.00  0.00     0.000 HD 
HETATM   42  C   UNL     1      -6.236   8.141  66.248  1.00  0.00    -0.046 C  
HETATM   43  N   UNL     1      -6.256   6.664  64.220  1.00  0.00    -0.034 NA 
HETATM   44  O   UNL     1      -5.234   9.014  65.712  1.00  0.00    -0.038 OA 
BRANCH  34  45
HETATM   45  C   UNL     1     -10.108   6.657  67.412  1.00  0.00    -0.164 C  
HETATM   46  O   UNL     1     -11.294   6.647  66.618  1.00  0.00    -0.688 OA 
HETATM   47  H   UNL     1     -11.970   6.121  67.029  1.00  0.00     0.000 HD 
ENDBRANCH  34  45
ENDBRANCH  31  32
ENDBRANCH  25  31
ENDBRANCH  16  17
ENDBRANCH   7  16
ENDBRANCH   2   5
TORSDOF 6
ENDMDL
MODEL       97
REMARK 921   NORMALIZED FREE ENERGY PREDICTED BY IDOCK:   -6.03 KCAL/MOL
REMARK 922        TOTAL FREE ENERGY PREDICTED BY IDOCK:   -9.20 KCAL/MOL
REMARK 923 INTER-LIGAND FREE ENERGY PREDICTED BY IDOCK:   -7.73 KCAL/MOL
REMARK 924 INTRA-LIGAND FREE ENERGY PREDICTED BY IDOCK:   -1.47 KCAL/MOL
REMARK 927      BINDING AFFINITY PREDICTED BY RF-SCORE:    0.00 PKD
ROOT
HETATM    1  N   UNL     1     -12.295  11.612  62.905  1.00  0.00    -0.861 NA 
HETATM    2  C   UNL     1     -11.211  11.712  63.893  1.00  0.00    -0.397 C  
HETATM    3  H2  UNL     1     -12.752  12.513  62.767  1.00  0.00     0.000 HD 
HETATM    4  H1  UNL     1     -11.976  11.221  62.019  1.00  0.00     0.000 HD 
ENDROOT
BRANCH   2   5
HETATM    5  C   UNL     1     -11.697  12.306  65.239  1.00  0.00    -0.361 C  
HETATM    6  O   UNL     1     -11.100  11.654  66.371  1.00  0.00    -0.290 OA 
HETATM    7  C   UNL     1      -9.711  11.892  66.539  1.00  0.00    -0.210 C  
HETATM    8  C   UNL     1      -9.456  13.419  66.761  1.00  0.00    -0.261 C  
HETATM    9  C   UNL     1     -11.512  13.835  65.310  1.00  0.00    -0.312 C  
HETATM   10  N   UNL     1     -10.021  13.913  68.036  1.00  0.00    -0.234 NA 
HETATM   11  C   UNL     1     -10.053  14.218  65.588  1.00  0.00    -0.364 C  
HETATM   12  H   UNL     1     -12.243  15.281  66.396  1.00  0.00     0.000 HD 
HETATM   13  H1  UNL     1      -9.854  14.909  68.181  1.00  0.00     0.000 HD 
HETATM   14  H2  UNL     1      -9.677  13.366  68.825  1.00  0.00     0.000 HD 
HETATM   15  O   UNL     1     -12.357  14.339  66.352  1.00  0.00    -0.448 OA 
BRANCH   7  16
HETATM   16  O   UNL     1      -9.213  11.151  67.666  1.00  0.00    -0.148 OA 
BRANCH  16  17
HETATM   17  C   UNL     1     -10.000  10.002  68.095  1.00  0.00    -0.153 C  
HETATM   18  N   UNL     1     -11.028  11.165  70.037  1.00  0.00    -0.471 NA 
HETATM   19  C   UNL     1     -11.059   8.748  70.019  1.00  0.00    -0.169 C  
HETATM   20  H1  UNL     1     -11.203  11.150  71.041  1.00  0.00     0.000 HD 
HETATM   21  H2  UNL     1     -11.893  11.263  69.506  1.00  0.00     0.000 HD 
HETATM   22  C   UNL     1     -10.334   7.460  69.623  1.00  0.00    -0.223 C  
HETATM   23  C   UNL     1     -10.264   9.979  69.615  1.00  0.00    -0.239 C  
HETATM   24  N   UNL     1     -11.140   6.359  70.177  1.00  0.00    -0.332 NA 
HETATM   25  C   UNL     1     -10.128   7.368  68.078  1.00  0.00    -0.179 C  
HETATM   26  H   UNL     1      -9.296   7.880  65.743  1.00  0.00     0.000 HD 
HETATM   27  H1  UNL     1     -10.657   5.501  69.914  1.00  0.00     0.000 HD 
HETATM   28  C   UNL     1      -9.456   8.662  67.527  1.00  0.00    -0.149 C  
HETATM   29  H2  UNL     1     -12.118   6.383  69.887  1.00  0.00     0.000 HD 
HETATM   30  O   UNL     1      -9.628   8.700  66.090  1.00  0.00    -0.239 OA 
BRANCH  25  31
HETATM   31  O   UNL     1      -9.265   6.256  67.683  1.00  0.00    -0.115 OA 
BRANCH  31  32
HETATM   32  C   UNL     1      -9.943   5.121  67.130  1.00  0.00    -0.191 C  
HETATM   33  O   UNL     1      -9.780   5.020  65.710  1.00  0.00    -0.164 OA 
HETATM   34  C   UNL     1      -8.432   4.705  65.321  1.00  0.00    -0.128 C  
HETATM   35  C   UNL     1      -8.009   3.347  65.903  1.00  0.00    -0.092 C  
HETATM   36  H   UNL     1      -9.394   3.141  69.708  1.00  0.00     0.000 HD 
HETATM   37  C   UNL     1      -8.107   3.378  67.441  1.00  0.00    -0.082 C  
HETATM   38  H1  UNL     1      -7.798   2.082  69.029  1.00  0.00     0.000 HD 
HETATM   39  O   UNL     1      -6.687   2.975  65.502  1.00  0.00    -0.038 OA 
HETATM   40  H   UNL     1      -6.426   2.136  65.862  1.00  0.00     0.000 HD 
HETATM   41  H2  UNL     1      -6.812   1.759  67.696  1.00  0.00     0.000 HD 
HETATM   42  C   UNL     1      -9.526   3.810  67.847  1.00  0.00    -0.170 C  
HETATM   43  N   UNL     1      -7.734   2.061  68.011  1.00  0.00    -0.054 NA 
HETATM   44  O   UNL     1      -9.650   3.943  69.269  1.00  0.00    -0.183 OA 
BRANCH  34  45
HETATM   45  C   UNL     1      -8.368   4.666  63.788  1.00  0.00    -0.117 C  
HETATM   46  O   UNL     1      -9.656   4.906  63.221  1.00  0.00    -0.356 OA 
HETATM   47  H   UNL     1      -9.617   4.882  62.272  1.00  0.00     0.000 HD 
ENDBRANCH  34  45
ENDBRANCH  31  32
ENDBRANCH  25  31
ENDBRANCH  16  17
ENDBRANCH   7  16
ENDBRANCH   2   5
TORSDOF 6
ENDMDL
MODEL       98
REMARK 921   NORMALIZED FREE ENERGY PREDICTED BY IDOCK:   -6.01 KCAL/MOL
REMARK 922        TOTAL FREE ENERGY PREDICTED BY IDOCK:   -9.18 KCAL/MOL
REMARK 923 INTER-LIGAND FREE ENERGY PREDICTED BY IDOCK:   -8.05 KCAL/MOL
REMARK 924 INTRA-LIGAND FREE ENERGY PREDICTED BY IDOCK:   -1.13 KCAL/MOL
REMARK 927      BINDING AFFINITY PREDICTED BY RF-SCORE:    0.00 PKD
ROOT
HETATM    1  N   UNL     1      -9.614   3.326  72.230  1.00  0.00    -0.127 NA 
HETATM    2  C   UNL     1      -9.204   4.556  71.536  1.00  0.00    -0.135 C  
HETATM    3  H2  UNL     1     -10.574   3.396  72.568  1.00  0.00     0.000 HD 
HETATM    4  H1  UNL     1      -9.487   2.496  71.653  1.00  0.00     0.000 HD 
ENDROOT
BRANCH   2   5
HETATM    5  C   UNL     1      -9.398   5.818  72.415  1.00  0.00    -0.143 C  
HETATM    6  O   UNL     1      -8.998   7.020  71.739  1.00  0.00    -0.134 OA 
HETATM    7  C   UNL     1      -9.827   7.404  70.653  1.00  0.00    -0.179 C  
HETATM    8  C   UNL     1     -11.278   7.683  71.164  1.00  0.00    -0.261 C  
HETATM    9  C   UNL     1     -10.832   5.936  72.968  1.00  0.00    -0.267 C  
HETATM   10  N   UNL     1     -11.354   8.861  72.056  1.00  0.00    -0.368 NA 
HETATM   11  C   UNL     1     -11.812   6.442  71.902  1.00  0.00    -0.380 C  
HETATM   12  H   UNL     1     -11.692   6.914  74.421  1.00  0.00     0.000 HD 
HETATM   13  H1  UNL     1     -12.301   9.043  72.389  1.00  0.00     0.000 HD 
HETATM   14  H2  UNL     1     -10.959   9.686  71.606  1.00  0.00     0.000 HD 
HETATM   15  O   UNL     1     -10.808   6.840  74.080  1.00  0.00    -0.161 OA 
BRANCH   7  16
HETATM   16  O   UNL     1      -9.303   8.585  70.022  1.00  0.00    -0.159 OA 
BRANCH  16  17
HETATM   17  C   UNL     1      -9.920   8.986  68.764  1.00  0.00    -0.182 C  
HETATM   18  N   UNL     1      -9.126   6.999  67.499  1.00  0.00    -0.123 NA 
HETATM   19  C   UNL     1      -9.823   8.941  66.238  1.00  0.00    -0.355 C  
HETATM   20  H1  UNL     1      -8.626   6.659  66.678  1.00  0.00     0.000 HD 
HETATM   21  H2  UNL     1     -10.063   6.600  67.560  1.00  0.00     0.000 HD 
HETATM   22  C   UNL     1      -9.899  10.467  66.173  1.00  0.00    -0.222 C  
HETATM   23  C   UNL     1      -9.162   8.470  67.523  1.00  0.00    -0.133 C  
HETATM   24  N   UNL     1     -10.438  10.786  64.840  1.00  0.00    -0.294 NA 
HETATM   25  C   UNL     1     -10.747  11.051  67.347  1.00  0.00    -0.257 C  
HETATM   26  H   UNL     1     -11.471  11.683  69.689  1.00  0.00     0.000 HD 
HETATM   27  H1  UNL     1     -10.488  11.804  64.797  1.00  0.00     0.000 HD 
HETATM   28  C   UNL     1     -10.250  10.504  68.720  1.00  0.00    -0.190 C  
HETATM   29  H2  UNL     1     -11.326  10.325  64.637  1.00  0.00     0.000 HD 
HETATM   30  O   UNL     1     -11.269  10.755  69.716  1.00  0.00    -0.256 OA 
BRANCH  25  31
HETATM   31  O   UNL     1     -10.673  12.509  67.434  1.00  0.00    -0.223 OA 
BRANCH  31  32
HETATM   32  C   UNL     1      -9.778  13.132  66.503  1.00  0.00    -0.268 C  
HETATM   33  O   UNL     1     -10.468  13.835  65.462  1.00  0.00    -0.295 OA 
HETATM   34  C   UNL     1     -11.166  14.998  65.937  1.00  0.00    -0.313 C  
HETATM   35  C   UNL     1     -10.181  16.001  66.557  1.00  0.00    -0.293 C  
HETATM   36  H   UNL     1      -7.486  13.905  68.744  1.00  0.00     0.000 HD 
HETATM   37  C   UNL     1      -9.422  15.343  67.726  1.00  0.00    -0.204 C  
HETATM   38  H1  UNL     1      -7.941  15.856  69.083  1.00  0.00     0.000 HD 
HETATM   39  O   UNL     1     -10.831  17.194  67.002  1.00  0.00    -0.200 OA 
HETATM   40  H   UNL     1     -10.222  17.814  67.385  1.00  0.00     0.000 HD 
HETATM   41  H2  UNL     1      -8.884  17.167  68.588  1.00  0.00     0.000 HD 
HETATM   42  C   UNL     1      -8.757  14.047  67.230  1.00  0.00    -0.218 C  
HETATM   43  N   UNL     1      -8.443  16.291  68.309  1.00  0.00    -0.181 NA 
HETATM   44  O   UNL     1      -8.111  13.345  68.299  1.00  0.00    -0.141 OA 
BRANCH  34  45
HETATM   45  C   UNL     1     -11.898  15.640  64.751  1.00  0.00    -0.047 C  
HETATM   46  O   UNL     1     -11.080  16.628  64.125  1.00  0.00    -1.338 OA 
HETATM   47  H   UNL     1     -11.533  17.025  63.391  1.00  0.00     0.000 HD 
ENDBRANCH  34  45
ENDBRANCH  31  32
ENDBRANCH  25  31
ENDBRANCH  16  17
ENDBRANCH   7  16
ENDBRANCH   2   5
TORSDOF 6
ENDMDL
MODEL       99
REMARK 921   NORMALIZED FREE ENERGY PREDICTED BY IDOCK:   -6.01 KCAL/MOL
REMARK 922        TOTAL FREE ENERGY PREDICTED BY IDOCK:   -9.17 KCAL/MOL
REMARK 923 INTER-LIGAND FREE ENERGY PREDICTED BY IDOCK:   -8.93 KCAL/MOL
REMARK 924 INTRA-LIGAND FREE ENERGY PREDICTED BY IDOCK:   -0.24 KCAL/MOL
REMARK 927      BINDING AFFINITY PREDICTED BY RF-SCORE:    0.00 PKD
ROOT
HETATM    1  N   UNL     1      -9.325   6.126  65.440  1.00  0.00    -0.348 NA 
HETATM    2  C   UNL     1      -8.023   6.785  65.258  1.00  0.00    -0.127 C  
HETATM    3  H2  UNL     1      -9.925   6.268  64.628  1.00  0.00     0.000 HD 
HETATM    4  H1  UNL     1      -9.229   5.135  65.658  1.00  0.00     0.000 HD 
ENDROOT
BRANCH   2   5
HETATM    5  C   UNL     1      -8.169   8.291  64.925  1.00  0.00    -0.151 C  
HETATM    6  O   UNL     1      -8.063   9.121  66.093  1.00  0.00    -0.105 OA 
HETATM    7  C   UNL     1      -6.773   9.171  66.681  1.00  0.00    -0.076 C  
HETATM    8  C   UNL     1      -5.746   9.764  65.662  1.00  0.00    -0.057 C  
HETATM    9  C   UNL     1      -7.193   8.749  63.823  1.00  0.00    -0.096 C  
HETATM   10  N   UNL     1      -6.010  11.185  65.346  1.00  0.00    -0.432 NA 
HETATM   11  C   UNL     1      -5.771   8.935  64.365  1.00  0.00    -0.064 C  
HETATM   12  H   UNL     1      -7.076  10.268  62.604  1.00  0.00     0.000 HD 
HETATM   13  H1  UNL     1      -5.339  11.572  64.681  1.00  0.00     0.000 HD 
HETATM   14  H2  UNL     1      -6.048  11.747  66.196  1.00  0.00     0.000 HD 
HETATM   15  O   UNL     1      -7.677   9.985  63.284  1.00  0.00    -0.139 OA 
BRANCH   7  16
HETATM   16  O   UNL     1      -6.800   9.985  67.866  1.00  0.00    -0.073 OA 
BRANCH  16  17
HETATM   17  C   UNL     1      -8.112  10.306  68.413  1.00  0.00    -0.109 C  
HETATM   18  N   UNL     1      -8.635   7.973  69.090  1.00  0.00    -0.136 NA 
HETATM   19  C   UNL     1     -10.474   9.527  68.873  1.00  0.00    -0.235 C  
HETATM   20  H1  UNL     1      -9.296   7.198  69.031  1.00  0.00     0.000 HD 
HETATM   21  H2  UNL     1      -8.431   8.220  70.059  1.00  0.00     0.000 HD 
HETATM   22  C   UNL     1     -11.053  10.730  68.127  1.00  0.00    -0.280 C  
HETATM   23  C   UNL     1      -9.112   9.134  68.323  1.00  0.00    -0.132 C  
HETATM   24  N   UNL     1     -12.409  10.924  68.668  1.00  0.00    -0.777 NA 
HETATM   25  C   UNL     1     -10.139  11.988  68.266  1.00  0.00    -0.201 C  
HETATM   26  H   UNL     1      -8.143  13.530  68.041  1.00  0.00     0.000 HD 
HETATM   27  H1  UNL     1     -12.795  11.725  68.170  1.00  0.00     0.000 HD 
HETATM   28  C   UNL     1      -8.667  11.655  67.875  1.00  0.00    -0.154 C  
HETATM   29  H2  UNL     1     -12.434  11.023  69.683  1.00  0.00     0.000 HD 
HETATM   30  O   UNL     1      -7.804  12.706  68.369  1.00  0.00    -0.136 OA 
BRANCH  25  31
HETATM   31  O   UNL     1     -10.554  13.093  67.404  1.00  0.00    -0.240 OA 
BRANCH  31  32
HETATM   32  C   UNL     1      -9.807  13.234  66.188  1.00  0.00    -0.280 C  
HETATM   33  O   UNL     1     -10.347  12.449  65.117  1.00  0.00    -0.276 OA 
HETATM   34  C   UNL     1     -11.628  12.920  64.666  1.00  0.00    -0.346 C  
HETATM   35  C   UNL     1     -11.515  14.358  64.135  1.00  0.00    -0.088 C  
HETATM   36  H   UNL     1      -9.077  16.417  66.636  1.00  0.00     0.000 HD 
HETATM   37  C   UNL     1     -10.985  15.290  65.242  1.00  0.00    -0.393 C  
HETATM   38  H1  UNL     1     -10.488  17.291  65.463  1.00  0.00     0.000 HD 
HETATM   39  O   UNL     1     -12.762  14.849  63.634  1.00  0.00    -0.896 OA 
HETATM   40  H   UNL     1     -12.692  15.738  63.306  1.00  0.00     0.000 HD 
HETATM   41  H2  UNL     1     -11.708  17.022  64.326  1.00  0.00     0.000 HD 
HETATM   42  C   UNL     1      -9.661  14.725  65.786  1.00  0.00    -0.313 C  
HETATM   43  N   UNL     1     -10.839  16.674  64.730  1.00  0.00    -0.760 NA 
HETATM   44  O   UNL     1      -9.166  15.504  66.882  1.00  0.00    -0.212 OA 
BRANCH  34  45
HETATM   45  C   UNL     1     -12.123  11.984  63.555  1.00  0.00    -0.526 C  
HETATM   46  O   UNL     1     -11.114  11.039  63.202  1.00  0.00    -0.770 OA 
HETATM   47  H   UNL     1     -11.420  10.459  62.515  1.00  0.00     0.000 HD 
ENDBRANCH  34  45
ENDBRANCH  31  32
ENDBRANCH  25  31
ENDBRANCH  16  17
ENDBRANCH   7  16
ENDBRANCH   2   5
TORSDOF 6
ENDMDL
MODEL      100
REMARK 921   NORMALIZED FREE ENERGY PREDICTED BY IDOCK:   -5.97 KCAL/MOL
REMARK 922        TOTAL FREE ENERGY PREDICTED BY IDOCK:   -9.12 KCAL/MOL
REMARK 923 INTER-LIGAND FREE ENERGY PREDICTED BY IDOCK:   -7.70 KCAL/MOL
REMARK 924 INTRA-LIGAND FREE ENERGY PREDICTED BY IDOCK:   -1.42 KCAL/MOL
REMARK 927      BINDING AFFINITY PREDICTED BY RF-SCORE:    0.00 PKD
ROOT
HETATM    1  N   UNL     1      -9.677  20.319  66.145  1.00  0.00    -0.657 NA 
HETATM    2  C   UNL     1     -10.368  19.024  66.216  1.00  0.00    -0.459 C  
HETATM    3  H2  UNL     1      -8.751  20.267  66.569  1.00  0.00     0.000 HD 
HETATM    4  H1  UNL     1      -9.627  20.678  65.193  1.00  0.00     0.000 HD 
ENDROOT
BRANCH   2   5
HETATM    5  C   UNL     1     -10.445  18.478  67.665  1.00  0.00    -0.417 C  
HETATM    6  O   UNL     1     -11.034  17.170  67.725  1.00  0.00    -0.315 OA 
HETATM    7  C   UNL     1     -10.250  16.130  67.162  1.00  0.00    -0.281 C  
HETATM    8  C   UNL     1      -8.896  16.007  67.934  1.00  0.00    -0.180 C  
HETATM    9  C   UNL     1      -9.080  18.511  68.380  1.00  0.00    -0.322 C  
HETATM   10  N   UNL     1      -9.073  15.553  69.331  1.00  0.00    -0.273 NA 
HETATM   11  C   UNL     1      -8.170  17.365  67.922  1.00  0.00    -0.225 C  
HETATM   12  H   UNL     1      -8.472  18.438  70.233  1.00  0.00     0.000 HD 
HETATM   13  H1  UNL     1      -8.190  15.472  69.835  1.00  0.00     0.000 HD 
HETATM   14  H2  UNL     1      -9.596  14.678  69.367  1.00  0.00     0.000 HD 
HETATM   15  O   UNL     1      -9.313  18.417  69.791  1.00  0.00     0.589 OA 
BRANCH   7  16
HETATM   16  O   UNL     1     -10.958  14.881  67.230  1.00  0.00    -0.305 OA 
BRANCH  16  17
HETATM   17  C   UNL     1     -10.439  13.787  66.420  1.00  0.00    -0.284 C  
HETATM   18  N   UNL     1     -10.911  14.894  64.245  1.00  0.00    -0.569 NA 
HETATM   19  C   UNL     1     -10.571  12.500  64.247  1.00  0.00    -0.395 C  
HETATM   20  H1  UNL     1     -11.362  14.819  63.333  1.00  0.00     0.000 HD 
HETATM   21  H2  UNL     1      -9.920  15.118  64.157  1.00  0.00     0.000 HD 
HETATM   22  C   UNL     1     -10.753  11.181  64.999  1.00  0.00    -0.231 C  
HETATM   23  C   UNL     1     -11.122  13.673  65.040  1.00  0.00    -0.332 C  
HETATM   24  N   UNL     1     -10.298  10.126  64.076  1.00  0.00    -0.357 NA 
HETATM   25  C   UNL     1      -9.995  11.187  66.363  1.00  0.00    -0.217 C  
HETATM   26  H   UNL     1      -9.345  11.792  68.735  1.00  0.00     0.000 HD 
HETATM   27  H1  UNL     1     -10.420   9.247  64.578  1.00  0.00     0.000 HD 
HETATM   28  C   UNL     1     -10.369  12.446  67.204  1.00  0.00    -0.219 C  
HETATM   29  H2  UNL     1      -9.350  10.270  63.727  1.00  0.00     0.000 HD 
HETATM   30  O   UNL     1      -9.389  12.611  68.256  1.00  0.00    -0.209 OA 
BRANCH  25  31
HETATM   31  O   UNL     1     -10.310  10.028  67.197  1.00  0.00    -0.214 OA 
BRANCH  31  32
HETATM   32  C   UNL     1      -9.276   9.039  67.286  1.00  0.00    -0.134 C  
HETATM   33  O   UNL     1      -8.191   9.451  68.127  1.00  0.00    -0.116 OA 
HETATM   34  C   UNL     1      -8.559   9.538  69.514  1.00  0.00    -0.169 C  
HETATM   35  C   UNL     1      -9.014   8.167  70.036  1.00  0.00    -0.143 C  
HETATM   36  H   UNL     1     -11.311   6.448  67.172  1.00  0.00     0.000 HD 
HETATM   37  C   UNL     1     -10.218   7.663  69.216  1.00  0.00    -0.210 C  
HETATM   38  H1  UNL     1     -11.441   5.990  69.147  1.00  0.00     0.000 HD 
HETATM   39  O   UNL     1      -9.346   8.200  71.427  1.00  0.00    -0.141 OA 
HETATM   40  H   UNL     1      -9.628   7.353  71.750  1.00  0.00     0.000 HD 
HETATM   41  H2  UNL     1     -10.839   6.319  70.690  1.00  0.00     0.000 HD 
HETATM   42  C   UNL     1      -9.848   7.665  67.723  1.00  0.00    -0.158 C  
HETATM   43  N   UNL     1     -10.644   6.324  69.689  1.00  0.00    -0.234 NA 
HETATM   44  O   UNL     1     -10.961   7.289  66.904  1.00  0.00    -0.343 OA 
BRANCH  34  45
HETATM   45  C   UNL     1      -7.338  10.027  70.307  1.00  0.00    -0.141 C  
HETATM   46  O   UNL     1      -6.429   8.954  70.550  1.00  0.00    -0.039 OA 
HETATM   47  H   UNL     1      -5.674   9.256  71.040  1.00  0.00     0.000 HD 
ENDBRANCH  34  45
ENDBRANCH  31  32
ENDBRANCH  25  31
ENDBRANCH  16  17
ENDBRANCH   7  16
ENDBRANCH   2   5
TORSDOF 6
ENDMDL
MODEL      101
REMARK 921   NORMALIZED FREE ENERGY PREDICTED BY IDOCK:   -5.97 KCAL/MOL
REMARK 922        TOTAL FREE ENERGY PREDICTED BY IDOCK:   -9.12 KCAL/MOL
REMARK 923 INTER-LIGAND FREE ENERGY PREDICTED BY IDOCK:   -7.59 KCAL/MOL
REMARK 924 INTRA-LIGAND FREE ENERGY PREDICTED BY IDOCK:   -1.53 KCAL/MOL
REMARK 927      BINDING AFFINITY PREDICTED BY RF-SCORE:    0.00 PKD
ROOT
HETATM    1  N   UNL     1     -10.377  12.757  68.835  1.00  0.00    -0.425 NA 
HETATM    2  C   UNL     1     -11.034  13.888  68.162  1.00  0.00    -0.249 C  
HETATM    3  H2  UNL     1      -9.363  12.860  68.822  1.00  0.00     0.000 HD 
HETATM    4  H1  UNL     1     -10.722  12.621  69.785  1.00  0.00     0.000 HD 
ENDROOT
BRANCH   2   5
HETATM    5  C   UNL     1     -10.510  14.096  66.719  1.00  0.00    -0.277 C  
HETATM    6  O   UNL     1     -10.341  12.855  66.015  1.00  0.00    -0.271 OA 
HETATM    7  C   UNL     1     -11.545  12.177  65.694  1.00  0.00    -0.351 C  
HETATM    8  C   UNL     1     -12.423  13.066  64.754  1.00  0.00    -0.427 C  
HETATM    9  C   UNL     1     -11.378  15.083  65.914  1.00  0.00    -0.273 C  
HETATM   10  N   UNL     1     -11.808  13.273  63.425  1.00  0.00    -0.755 NA 
HETATM   11  C   UNL     1     -12.676  14.430  65.423  1.00  0.00    -0.297 C  
HETATM   12  H   UNL     1     -11.143  16.152  64.298  1.00  0.00     0.000 HD 
HETATM   13  H1  UNL     1     -12.381  13.853  62.811  1.00  0.00     0.000 HD 
HETATM   14  H2  UNL     1     -11.586  12.382  62.982  1.00  0.00     0.000 HD 
HETATM   15  O   UNL     1     -10.609  15.544  64.795  1.00  0.00    -0.390 OA 
BRANCH   7  16
HETATM   16  O   UNL     1     -11.253  10.929  65.042  1.00  0.00     0.033 OA 
BRANCH  16  17
HETATM   17  C   UNL     1      -9.878  10.453  65.122  1.00  0.00    -0.313 C  
HETATM   18  N   UNL     1      -9.207  11.374  62.913  1.00  0.00    -0.496 NA 
HETATM   19  C   UNL     1      -7.834   9.634  63.879  1.00  0.00    -0.136 C  
HETATM   20  H1  UNL     1      -8.794  11.180  62.001  1.00  0.00     0.000 HD 
HETATM   21  H2  UNL     1      -8.724  12.135  63.390  1.00  0.00     0.000 HD 
HETATM   22  C   UNL     1      -7.787   8.361  64.725  1.00  0.00    -0.128 C  
HETATM   23  C   UNL     1      -9.254  10.159  63.742  1.00  0.00    -0.281 C  
HETATM   24  N   UNL     1      -6.390   7.896  64.673  1.00  0.00    -0.048 NA 
HETATM   25  C   UNL     1      -8.307   8.615  66.175  1.00  0.00    -0.125 C  
HETATM   26  H   UNL     1      -9.867   9.151  68.095  1.00  0.00     0.000 HD 
HETATM   27  H1  UNL     1      -6.359   7.046  65.237  1.00  0.00     0.000 HD 
HETATM   28  C   UNL     1      -9.705   9.303  66.154  1.00  0.00    -0.279 C  
HETATM   29  H2  UNL     1      -5.712   8.603  64.961  1.00  0.00     0.000 HD 
HETATM   30  O   UNL     1      -9.973   9.854  67.465  1.00  0.00    -0.168 OA 
BRANCH  25  31
HETATM   31  O   UNL     1      -8.466   7.383  66.947  1.00  0.00    -0.118 OA 
BRANCH  31  32
HETATM   32  C   UNL     1      -9.772   6.794  66.895  1.00  0.00    -0.168 C  
HETATM   33  O   UNL     1      -9.898   5.828  65.843  1.00  0.00    -0.044 OA 
HETATM   34  C   UNL     1      -9.111   4.647  66.069  1.00  0.00    -0.131 C  
HETATM   35  C   UNL     1      -9.558   3.942  67.359  1.00  0.00    -0.172 C  
HETATM   36  H   UNL     1     -10.245   6.793  70.158  1.00  0.00     0.000 HD 
HETATM   37  C   UNL     1      -9.409   4.895  68.560  1.00  0.00    -0.131 C  
HETATM   38  H1  UNL     1      -9.772   4.868  70.602  1.00  0.00     0.000 HD 
HETATM   39  O   UNL     1      -8.829   2.734  67.596  1.00  0.00    -0.109 OA 
HETATM   40  H   UNL     1      -9.104   2.298  68.393  1.00  0.00     0.000 HD 
HETATM   41  H2  UNL     1      -9.393   3.349  69.965  1.00  0.00     0.000 HD 
HETATM   42  C   UNL     1     -10.176   6.197  68.269  1.00  0.00    -0.175 C  
HETATM   43  N   UNL     1      -9.871   4.236  69.806  1.00  0.00    -0.219 NA 
HETATM   44  O   UNL     1      -9.998   7.159  69.317  1.00  0.00    -0.163 OA 
BRANCH  34  45
HETATM   45  C   UNL     1      -9.291   3.710  64.865  1.00  0.00    -0.154 C  
HETATM   46  O   UNL     1      -9.959   4.381  63.797  1.00  0.00    -0.348 OA 
HETATM   47  H   UNL     1     -10.070   3.802  63.052  1.00  0.00     0.000 HD 
ENDBRANCH  34  45
ENDBRANCH  31  32
ENDBRANCH  25  31
ENDBRANCH  16  17
ENDBRANCH   7  16
ENDBRANCH   2   5
TORSDOF 6
ENDMDL
MODEL      102
REMARK 921   NORMALIZED FREE ENERGY PREDICTED BY IDOCK:   -5.96 KCAL/MOL
REMARK 922        TOTAL FREE ENERGY PREDICTED BY IDOCK:   -9.11 KCAL/MOL
REMARK 923 INTER-LIGAND FREE ENERGY PREDICTED BY IDOCK:   -8.67 KCAL/MOL
REMARK 924 INTRA-LIGAND FREE ENERGY PREDICTED BY IDOCK:   -0.44 KCAL/MOL
REMARK 927      BINDING AFFINITY PREDICTED BY RF-SCORE:    0.00 PKD
ROOT
HETATM    1  N   UNL     1     -13.077  14.459  70.331  1.00  0.00    -0.470 NA 
HETATM    2  C   UNL     1     -11.877  13.797  69.800  1.00  0.00    -0.331 C  
HETATM    3  H2  UNL     1     -13.571  14.970  69.600  1.00  0.00     0.000 HD 
HETATM    4  H1  UNL     1     -13.699  13.806  70.808  1.00  0.00     0.000 HD 
ENDROOT
BRANCH   2   5
HETATM    5  C   UNL     1     -10.932  14.789  69.076  1.00  0.00    -0.248 C  
HETATM    6  O   UNL     1      -9.746  14.149  68.579  1.00  0.00    -0.219 OA 
HETATM    7  C   UNL     1      -9.953  13.249  67.502  1.00  0.00    -0.223 C  
HETATM    8  C   UNL     1     -10.551  14.015  66.276  1.00  0.00    -0.281 C  
HETATM    9  C   UNL     1     -11.649  15.580  67.964  1.00  0.00    -0.268 C  
HETATM   10  N   UNL     1      -9.605  14.994  65.698  1.00  0.00    -0.448 NA 
HETATM   11  C   UNL     1     -11.844  14.735  66.700  1.00  0.00    -0.255 C  
HETATM   12  H   UNL     1     -11.301  17.227  66.976  1.00  0.00     0.000 HD 
HETATM   13  H1  UNL     1      -9.995  15.494  64.898  1.00  0.00     0.000 HD 
HETATM   14  H2  UNL     1      -8.721  14.549  65.455  1.00  0.00     0.000 HD 
HETATM   15  O   UNL     1     -10.860  16.738  67.662  1.00  0.00    -0.326 OA 
BRANCH   7  16
HETATM   16  O   UNL     1      -8.710  12.632  67.125  1.00  0.00    -0.189 OA 
BRANCH  16  17
HETATM   17  C   UNL     1      -8.737  11.194  66.891  1.00  0.00    -0.152 C  
HETATM   18  N   UNL     1      -9.140  11.386  64.446  1.00  0.00    -0.401 NA 
HETATM   19  C   UNL     1      -9.651   9.278  65.516  1.00  0.00    -0.291 C  
HETATM   20  H1  UNL     1      -9.729  11.117  63.658  1.00  0.00     0.000 HD 
HETATM   21  H2  UNL     1      -8.160  11.158  64.278  1.00  0.00     0.000 HD 
HETATM   22  C   UNL     1     -10.153   8.569  66.774  1.00  0.00    -0.299 C  
HETATM   23  C   UNL     1      -9.628  10.787  65.699  1.00  0.00    -0.216 C  
HETATM   24  N   UNL     1     -10.244   7.142  66.421  1.00  0.00    -0.470 NA 
HETATM   25  C   UNL     1      -9.231   8.853  68.001  1.00  0.00    -0.139 C  
HETATM   26  H   UNL     1      -8.043  10.090  69.863  1.00  0.00     0.000 HD 
HETATM   27  H1  UNL     1     -10.580   6.669  67.260  1.00  0.00     0.000 HD 
HETATM   28  C   UNL     1      -9.008  10.384  68.190  1.00  0.00    -0.132 C  
HETATM   29  H2  UNL     1      -9.373   6.755  66.055  1.00  0.00     0.000 HD 
HETATM   30  O   UNL     1      -7.877  10.585  69.069  1.00  0.00    -0.109 OA 
BRANCH  25  31
HETATM   31  O   UNL     1      -9.789   8.360  69.260  1.00  0.00    -0.178 OA 
BRANCH  31  32
HETATM   32  C   UNL     1      -9.420   9.107  70.426  1.00  0.00    -0.227 C  
HETATM   33  O   UNL     1     -10.553   9.662  71.106  1.00  0.00    -0.321 OA 
HETATM   34  C   UNL     1     -11.386   8.662  71.717  1.00  0.00    -0.323 C  
HETATM   35  C   UNL     1     -10.593   7.872  72.770  1.00  0.00    -0.353 C  
HETATM   36  H   UNL     1      -6.899   7.154  71.262  1.00  0.00     0.000 HD 
HETATM   37  C   UNL     1      -9.374   7.196  72.115  1.00  0.00    -0.132 C  
HETATM   38  H1  UNL     1      -7.774   6.010  72.695  1.00  0.00     0.000 HD 
HETATM   39  O   UNL     1     -11.400   6.896  73.435  1.00  0.00    -0.508 OA 
HETATM   40  H   UNL     1     -10.910   6.407  74.085  1.00  0.00     0.000 HD 
HETATM   41  H2  UNL     1      -9.154   5.791  73.645  1.00  0.00     0.000 HD 
HETATM   42  C   UNL     1      -8.539   8.260  71.382  1.00  0.00    -0.149 C  
HETATM   43  N   UNL     1      -8.581   6.459  73.129  1.00  0.00    -0.119 NA 
HETATM   44  O   UNL     1      -7.438   7.673  70.677  1.00  0.00    -0.070 OA 
BRANCH  34  45
HETATM   45  C   UNL     1     -12.582   9.365  72.374  1.00  0.00    -0.237 C  
HETATM   46  O   UNL     1     -13.663   8.453  72.566  1.00  0.00    -0.583 OA 
HETATM   47  H   UNL     1     -14.403   8.888  72.973  1.00  0.00     0.000 HD 
ENDBRANCH  34  45
ENDBRANCH  31  32
ENDBRANCH  25  31
ENDBRANCH  16  17
ENDBRANCH   7  16
ENDBRANCH   2   5
TORSDOF 6
ENDMDL
MODEL      103
REMARK 921   NORMALIZED FREE ENERGY PREDICTED BY IDOCK:   -5.95 KCAL/MOL
REMARK 922        TOTAL FREE ENERGY PREDICTED BY IDOCK:   -9.09 KCAL/MOL
REMARK 923 INTER-LIGAND FREE ENERGY PREDICTED BY IDOCK:   -7.96 KCAL/MOL
REMARK 924 INTRA-LIGAND FREE ENERGY PREDICTED BY IDOCK:   -1.14 KCAL/MOL
REMARK 927      BINDING AFFINITY PREDICTED BY RF-SCORE:    0.00 PKD
ROOT
HETATM    1  N   UNL     1     -12.025  16.109  63.862  1.00  0.00    -1.332 NA 
HETATM    2  C   UNL     1     -12.401  14.691  63.958  1.00  0.00    -0.132 C  
HETATM    3  H2  UNL     1     -11.151  16.292  64.353  1.00  0.00     0.000 HD 
HETATM    4  H1  UNL     1     -11.979  16.432  62.896  1.00  0.00     0.000 HD 
ENDROOT
BRANCH   2   5
HETATM    5  C   UNL     1     -12.472  14.201  65.426  1.00  0.00    -0.472 C  
HETATM    6  O   UNL     1     -12.308  12.778  65.535  1.00  0.00    -0.496 OA 
HETATM    7  C   UNL     1     -11.010  12.296  65.227  1.00  0.00    -0.307 C  
HETATM    8  C   UNL     1      -9.966  12.907  66.218  1.00  0.00    -0.270 C  
HETATM    9  C   UNL     1     -11.487  14.950  66.345  1.00  0.00    -0.280 C  
HETATM   10  N   UNL     1     -10.158  12.441  67.609  1.00  0.00    -0.196 NA 
HETATM   11  C   UNL     1     -10.050  14.444  66.172  1.00  0.00    -0.323 C  
HETATM   12  H   UNL     1     -11.306  15.224  68.269  1.00  0.00     0.000 HD 
HETATM   13  H1  UNL     1      -9.477  12.840  68.255  1.00  0.00     0.000 HD 
HETATM   14  H2  UNL     1     -10.156  11.423  67.657  1.00  0.00     0.000 HD 
HETATM   15  O   UNL     1     -11.912  14.762  67.701  1.00  0.00    -0.345 OA 
BRANCH   7  16
HETATM   16  O   UNL     1     -10.979  10.861  65.318  1.00  0.00    -0.119 OA 
BRANCH  16  17
HETATM   17  C   UNL     1      -9.687  10.219  65.107  1.00  0.00    -0.300 C  
HETATM   18  N   UNL     1      -9.390  11.096  62.801  1.00  0.00    -0.421 NA 
HETATM   19  C   UNL     1      -8.070   9.181  63.463  1.00  0.00    -0.159 C  
HETATM   20  H1  UNL     1      -9.207  10.871  61.823  1.00  0.00     0.000 HD 
HETATM   21  H2  UNL     1      -8.726  11.782  63.159  1.00  0.00     0.000 HD 
HETATM   22  C   UNL     1      -8.003   7.895  64.288  1.00  0.00    -0.130 C  
HETATM   23  C   UNL     1      -9.411   9.878  63.628  1.00  0.00    -0.191 C  
HETATM   24  N   UNL     1      -6.718   7.263  63.943  1.00  0.00    -0.047 NA 
HETATM   25  C   UNL     1      -8.170   8.181  65.814  1.00  0.00    -0.126 C  
HETATM   26  H   UNL     1      -9.209   8.866  68.018  1.00  0.00     0.000 HD 
HETATM   27  H1  UNL     1      -6.674   6.405  64.492  1.00  0.00     0.000 HD 
HETATM   28  C   UNL     1      -9.445   9.036  66.086  1.00  0.00    -0.253 C  
HETATM   29  H2  UNL     1      -5.913   7.875  64.076  1.00  0.00     0.000 HD 
HETATM   30  O   UNL     1      -9.358   9.588  67.420  1.00  0.00    -0.129 OA 
BRANCH  25  31
HETATM   31  O   UNL     1      -8.314   6.963  66.610  1.00  0.00    -0.112 OA 
BRANCH  31  32
HETATM   32  C   UNL     1      -9.571   6.289  66.474  1.00  0.00    -0.146 C  
HETATM   33  O   UNL     1      -9.494   5.147  65.610  1.00  0.00    -0.160 OA 
HETATM   34  C   UNL     1      -8.709   4.078  66.163  1.00  0.00    -0.116 C  
HETATM   35  C   UNL     1      -9.326   3.583  67.480  1.00  0.00    -0.206 C  
HETATM   36  H   UNL     1     -10.552   6.830  69.575  1.00  0.00     0.000 HD 
HETATM   37  C   UNL     1      -9.405   4.740  68.495  1.00  0.00    -0.133 C  
HETATM   38  H1  UNL     1     -10.083   5.048  70.430  1.00  0.00     0.000 HD 
HETATM   39  O   UNL     1      -8.598   2.486  68.040  1.00  0.00    -0.078 OA 
HETATM   40  H   UNL     1      -8.979   2.180  68.855  1.00  0.00     0.000 HD 
HETATM   41  H2  UNL     1      -9.552   3.470  70.146  1.00  0.00     0.000 HD 
HETATM   42  C   UNL     1     -10.164   5.918  67.859  1.00  0.00    -0.184 C  
HETATM   43  N   UNL     1     -10.031   4.282  69.758  1.00  0.00    -0.186 NA 
HETATM   44  O   UNL     1     -10.190   7.058  68.727  1.00  0.00    -0.165 OA 
BRANCH  34  45
HETATM   45  C   UNL     1      -8.661   2.935  65.139  1.00  0.00    -0.104 C  
HETATM   46  O   UNL     1      -9.645   1.946  65.438  1.00  0.00    -0.337 OA 
HETATM   47  H   UNL     1      -9.616   1.239  64.805  1.00  0.00     0.000 HD 
ENDBRANCH  34  45
ENDBRANCH  31  32
ENDBRANCH  25  31
ENDBRANCH  16  17
ENDBRANCH   7  16
ENDBRANCH   2   5
TORSDOF 6
ENDMDL
MODEL      104
REMARK 921   NORMALIZED FREE ENERGY PREDICTED BY IDOCK:   -5.94 KCAL/MOL
REMARK 922        TOTAL FREE ENERGY PREDICTED BY IDOCK:   -9.07 KCAL/MOL
REMARK 923 INTER-LIGAND FREE ENERGY PREDICTED BY IDOCK:   -8.00 KCAL/MOL
REMARK 924 INTRA-LIGAND FREE ENERGY PREDICTED BY IDOCK:   -1.08 KCAL/MOL
REMARK 927      BINDING AFFINITY PREDICTED BY RF-SCORE:    0.00 PKD
ROOT
HETATM    1  N   UNL     1     -12.414  15.291  69.023  1.00  0.00    -0.577 NA 
HETATM    2  C   UNL     1     -12.270  14.217  68.029  1.00  0.00    -0.146 C  
HETATM    3  H2  UNL     1     -12.753  16.149  68.591  1.00  0.00     0.000 HD 
HETATM    4  H1  UNL     1     -13.004  15.014  69.807  1.00  0.00     0.000 HD 
ENDROOT
BRANCH   2   5
HETATM    5  C   UNL     1     -11.373  14.637  66.837  1.00  0.00    -0.356 C  
HETATM    6  O   UNL     1     -10.150  13.886  66.783  1.00  0.00    -0.255 OA 
HETATM    7  C   UNL     1     -10.299  12.516  66.447  1.00  0.00    -0.243 C  
HETATM    8  C   UNL     1     -10.925  12.383  65.020  1.00  0.00    -0.298 C  
HETATM    9  C   UNL     1     -12.121  14.587  65.490  1.00  0.00    -0.299 C  
HETATM   10  N   UNL     1     -10.028  12.879  63.954  1.00  0.00    -0.724 NA 
HETATM   11  C   UNL     1     -12.259  13.151  64.970  1.00  0.00    -0.488 C  
HETATM   12  H   UNL     1     -11.853  15.351  63.715  1.00  0.00     0.000 HD 
HETATM   13  H1  UNL     1     -10.437  12.792  63.023  1.00  0.00     0.000 HD 
HETATM   14  H2  UNL     1      -9.119  12.419  63.998  1.00  0.00     0.000 HD 
HETATM   15  O   UNL     1     -11.392  15.381  64.545  1.00  0.00    -0.385 OA 
BRANCH   7  16
HETATM   16  O   UNL     1      -9.021  11.856  66.475  1.00  0.00    -0.200 OA 
BRANCH  16  17
HETATM   17  C   UNL     1      -8.329  11.821  67.757  1.00  0.00    -0.146 C  
HETATM   18  N   UNL     1      -6.554  13.424  67.081  1.00  0.00    -0.452 NA 
HETATM   19  C   UNL     1      -6.132  12.007  68.994  1.00  0.00    -0.073 C  
HETATM   20  H1  UNL     1      -5.552  13.600  67.003  1.00  0.00     0.000 HD 
HETATM   21  H2  UNL     1      -7.022  14.153  67.619  1.00  0.00     0.000 HD 
HETATM   22  C   UNL     1      -6.345  10.642  69.649  1.00  0.00    -0.085 C  
HETATM   23  C   UNL     1      -6.814  12.087  67.638  1.00  0.00    -0.115 C  
HETATM   24  N   UNL     1      -5.537  10.656  70.881  1.00  0.00    -0.164 NA 
HETATM   25  C   UNL     1      -7.859  10.353  69.897  1.00  0.00    -0.034 C  
HETATM   26  H   UNL     1     -10.308   9.888  69.454  1.00  0.00     0.000 HD 
HETATM   27  H1  UNL     1      -5.679   9.745  71.317  1.00  0.00     0.000 HD 
HETATM   28  C   UNL     1      -8.688  10.561  68.593  1.00  0.00    -0.143 C  
HETATM   29  H2  UNL     1      -5.747  11.442  71.497  1.00  0.00     0.000 HD 
HETATM   30  O   UNL     1     -10.089  10.658  68.943  1.00  0.00    -0.184 OA 
BRANCH  25  31
HETATM   31  O   UNL     1      -8.114   8.981  70.332  1.00  0.00    -0.109 OA 
BRANCH  31  32
HETATM   32  C   UNL     1      -9.023   8.847  71.433  1.00  0.00    -0.229 C  
HETATM   33  O   UNL     1     -10.208   8.121  71.083  1.00  0.00    -0.191 OA 
HETATM   34  C   UNL     1      -9.955   6.732  70.812  1.00  0.00    -0.187 C  
HETATM   35  C   UNL     1      -9.373   6.039  72.054  1.00  0.00    -0.149 C  
HETATM   36  H   UNL     1      -6.682   8.561  73.737  1.00  0.00     0.000 HD 
HETATM   37  C   UNL     1      -8.061   6.727  72.477  1.00  0.00    -0.104 C  
HETATM   38  H1  UNL     1      -6.640   6.544  73.976  1.00  0.00     0.000 HD 
HETATM   39  O   UNL     1      -9.150   4.642  71.840  1.00  0.00    -0.127 OA 
HETATM   40  H   UNL     1      -8.790   4.214  72.608  1.00  0.00     0.000 HD 
HETATM   41  H2  UNL     1      -7.388   5.083  73.576  1.00  0.00     0.000 HD 
HETATM   42  C   UNL     1      -8.320   8.231  72.672  1.00  0.00    -0.173 C  
HETATM   43  N   UNL     1      -7.509   6.088  73.696  1.00  0.00    -0.092 NA 
HETATM   44  O   UNL     1      -7.112   8.938  72.979  1.00  0.00    -0.336 OA 
BRANCH  34  45
HETATM   45  C   UNL     1     -11.280   6.070  70.410  1.00  0.00    -0.310 C  
HETATM   46  O   UNL     1     -11.699   6.517  69.120  1.00  0.00    -0.623 OA 
HETATM   47  H   UNL     1     -12.519   6.107  68.871  1.00  0.00     0.000 HD 
ENDBRANCH  34  45
ENDBRANCH  31  32
ENDBRANCH  25  31
ENDBRANCH  16  17
ENDBRANCH   7  16
ENDBRANCH   2   5
TORSDOF 6
ENDMDL
MODEL      105
REMARK 921   NORMALIZED FREE ENERGY PREDICTED BY IDOCK:   -5.92 KCAL/MOL
REMARK 922        TOTAL FREE ENERGY PREDICTED BY IDOCK:   -9.05 KCAL/MOL
REMARK 923 INTER-LIGAND FREE ENERGY PREDICTED BY IDOCK:   -8.59 KCAL/MOL
REMARK 924 INTRA-LIGAND FREE ENERGY PREDICTED BY IDOCK:   -0.46 KCAL/MOL
REMARK 927      BINDING AFFINITY PREDICTED BY RF-SCORE:    0.00 PKD
ROOT
HETATM    1  N   UNL     1     -11.578   6.414  68.277  1.00  0.00    -0.448 NA 
HETATM    2  C   UNL     1     -11.366   6.260  69.723  1.00  0.00    -0.436 C  
HETATM    3  H2  UNL     1     -11.072   5.700  67.752  1.00  0.00     0.000 HD 
HETATM    4  H1  UNL     1     -12.567   6.421  68.030  1.00  0.00     0.000 HD 
ENDROOT
BRANCH   2   5
HETATM    5  C   UNL     1      -9.863   6.249  70.099  1.00  0.00    -0.170 C  
HETATM    6  O   UNL     1      -9.044   6.866  69.093  1.00  0.00    -0.137 OA 
HETATM    7  C   UNL     1      -9.206   8.269  68.962  1.00  0.00    -0.147 C  
HETATM    8  C   UNL     1      -8.816   8.977  70.300  1.00  0.00    -0.189 C  
HETATM    9  C   UNL     1      -9.598   6.860  71.489  1.00  0.00    -0.162 C  
HETATM   10  N   UNL     1      -7.376   8.849  70.615  1.00  0.00    -0.068 NA 
HETATM   11  C   UNL     1      -9.650   8.392  71.455  1.00  0.00    -0.273 C  
HETATM   12  H   UNL     1      -8.142   6.800  72.786  1.00  0.00     0.000 HD 
HETATM   13  H1  UNL     1      -7.121   9.311  71.489  1.00  0.00     0.000 HD 
HETATM   14  H2  UNL     1      -6.801   9.185  69.843  1.00  0.00     0.000 HD 
HETATM   15  O   UNL     1      -8.306   6.423  71.929  1.00  0.00    -0.116 OA 
BRANCH   7  16
HETATM   16  O   UNL     1      -8.381   8.767  67.895  1.00  0.00    -0.117 OA 
BRANCH  16  17
HETATM   17  C   UNL     1      -9.055   9.107  66.648  1.00  0.00    -0.148 C  
HETATM   18  N   UNL     1      -8.200   7.133  65.403  1.00  0.00    -0.136 NA 
HETATM   19  C   UNL     1      -9.032   9.008  64.122  1.00  0.00     0.032 C  
HETATM   20  H1  UNL     1      -7.708   6.799  64.575  1.00  0.00     0.000 HD 
HETATM   21  H2  UNL     1      -9.113   6.689  65.502  1.00  0.00     0.000 HD 
HETATM   22  C   UNL     1      -9.186  10.526  64.026  1.00  0.00    -0.253 C  
HETATM   23  C   UNL     1      -8.309   8.601  65.396  1.00  0.00    -0.157 C  
HETATM   24  N   UNL     1      -9.780  10.787  62.704  1.00  0.00    -0.564 NA 
HETATM   25  C   UNL     1     -10.027  11.095  65.212  1.00  0.00    -0.260 C  
HETATM   26  H   UNL     1     -10.712  11.744  67.562  1.00  0.00     0.000 HD 
HETATM   27  H1  UNL     1      -9.883  11.800  62.640  1.00  0.00     0.000 HD 
HETATM   28  C   UNL     1      -9.462  10.605  66.581  1.00  0.00    -0.167 C  
HETATM   29  H2  UNL     1     -10.649  10.277  62.538  1.00  0.00     0.000 HD 
HETATM   30  O   UNL     1     -10.462  10.828  67.603  1.00  0.00    -0.190 OA 
BRANCH  25  31
HETATM   31  O   UNL     1     -10.024  12.556  65.265  1.00  0.00    -0.267 OA 
BRANCH  31  32
HETATM   32  C   UNL     1     -11.152  13.146  65.923  1.00  0.00    -0.278 C  
HETATM   33  O   UNL     1     -10.786  13.853  67.115  1.00  0.00    -0.279 OA 
HETATM   34  C   UNL     1     -10.016  15.038  66.851  1.00  0.00    -0.244 C  
HETATM   35  C   UNL     1     -10.825  16.024  65.995  1.00  0.00    -0.190 C  
HETATM   36  H   UNL     1     -12.775  13.891  63.152  1.00  0.00     0.000 HD 
HETATM   37  C   UNL     1     -11.223  15.363  64.661  1.00  0.00    -0.364 C  
HETATM   38  H1  UNL     1     -12.298  15.856  62.958  1.00  0.00     0.000 HD 
HETATM   39  O   UNL     1     -10.110  17.239  65.747  1.00  0.00    -0.533 OA 
HETATM   40  H   UNL     1     -10.610  17.848  65.218  1.00  0.00     0.000 HD 
HETATM   41  H2  UNL     1     -11.558  17.184  63.695  1.00  0.00     0.000 HD 
HETATM   42  C   UNL     1     -11.963  14.045  64.953  1.00  0.00    -0.404 C  
HETATM   43  N   UNL     1     -12.034  16.294  63.841  1.00  0.00    -0.870 NA 
HETATM   44  O   UNL     1     -12.279  13.340  63.746  1.00  0.00    -0.561 OA 
BRANCH  34  45
HETATM   45  C   UNL     1      -9.648  15.683  68.195  1.00  0.00    -0.196 C  
HETATM   46  O   UNL     1     -10.615  16.665  68.567  1.00  0.00    -0.298 OA 
HETATM   47  H   UNL     1     -10.387  17.064  69.399  1.00  0.00     0.000 HD 
ENDBRANCH  34  45
ENDBRANCH  31  32
ENDBRANCH  25  31
ENDBRANCH  16  17
ENDBRANCH   7  16
ENDBRANCH   2   5
TORSDOF 6
ENDMDL
MODEL      106
REMARK 921   NORMALIZED FREE ENERGY PREDICTED BY IDOCK:   -5.90 KCAL/MOL
REMARK 922        TOTAL FREE ENERGY PREDICTED BY IDOCK:   -9.03 KCAL/MOL
REMARK 923 INTER-LIGAND FREE ENERGY PREDICTED BY IDOCK:   -8.18 KCAL/MOL
REMARK 924 INTRA-LIGAND FREE ENERGY PREDICTED BY IDOCK:   -0.85 KCAL/MOL
REMARK 927      BINDING AFFINITY PREDICTED BY RF-SCORE:    0.00 PKD
ROOT
HETATM    1  N   UNL     1     -10.587  20.145  69.481  1.00  0.00    -0.361 NA 
HETATM    2  C   UNL     1     -10.086  19.141  68.531  1.00  0.00    -0.422 C  
HETATM    3  H2  UNL     1     -10.115  21.040  69.355  1.00  0.00     0.000 HD 
HETATM    4  H1  UNL     1     -11.600  20.253  69.431  1.00  0.00     0.000 HD 
ENDROOT
BRANCH   2   5
HETATM    5  C   UNL     1      -8.547  18.978  68.608  1.00  0.00    -0.354 C  
HETATM    6  O   UNL     1      -8.117  17.662  68.226  1.00  0.00    -0.258 OA 
HETATM    7  C   UNL     1      -8.282  17.351  66.851  1.00  0.00    -0.231 C  
HETATM    8  C   UNL     1      -7.431  18.331  65.979  1.00  0.00    -0.220 C  
HETATM    9  C   UNL     1      -7.798  20.065  67.813  1.00  0.00    -0.295 C  
HETATM   10  N   UNL     1      -5.975  18.154  66.175  1.00  0.00    -0.174 NA 
HETATM   11  C   UNL     1      -7.822  19.784  66.306  1.00  0.00    -0.340 C  
HETATM   12  H   UNL     1      -5.982  20.778  67.791  1.00  0.00     0.000 HD 
HETATM   13  H1  UNL     1      -5.420  18.793  65.605  1.00  0.00     0.000 HD 
HETATM   14  H2  UNL     1      -5.700  17.186  66.012  1.00  0.00     0.000 HD 
HETATM   15  O   UNL     1      -6.444  20.108  68.281  1.00  0.00    -0.266 OA 
BRANCH   7  16
HETATM   16  O   UNL     1      -7.870  15.998  66.595  1.00  0.00    -0.244 OA 
BRANCH  16  17
HETATM   17  C   UNL     1      -8.929  15.022  66.367  1.00  0.00    -0.251 C  
HETATM   18  N   UNL     1     -10.374  16.579  65.076  1.00  0.00    -0.594 NA 
HETATM   19  C   UNL     1     -11.399  14.604  66.023  1.00  0.00    -0.344 C  
HETATM   20  H1  UNL     1     -11.297  17.002  64.983  1.00  0.00     0.000 HD 
HETATM   21  H2  UNL     1     -10.084  16.117  64.215  1.00  0.00     0.000 HD 
HETATM   22  C   UNL     1     -11.426  13.605  67.180  1.00  0.00    -0.342 C  
HETATM   23  C   UNL     1     -10.326  15.662  66.226  1.00  0.00    -0.306 C  
HETATM   24  N   UNL     1     -12.578  12.723  66.922  1.00  0.00     0.042 NA 
HETATM   25  C   UNL     1     -10.071  12.841  67.313  1.00  0.00    -0.226 C  
HETATM   26  H   UNL     1      -7.615  12.383  67.725  1.00  0.00     0.000 HD 
HETATM   27  H1  UNL     1     -12.596  12.057  67.695  1.00  0.00     0.000 HD 
HETATM   28  C   UNL     1      -8.873  13.837  67.370  1.00  0.00    -0.210 C  
HETATM   29  H2  UNL     1     -12.556  12.282  66.003  1.00  0.00     0.000 HD 
HETATM   30  O   UNL     1      -7.650  13.108  67.112  1.00  0.00    -0.117 OA 
BRANCH  25  31
HETATM   31  O   UNL     1      -9.990  12.029  68.526  1.00  0.00    -0.209 OA 
BRANCH  31  32
HETATM   32  C   UNL     1     -10.238  10.629  68.343  1.00  0.00    -0.173 C  
HETATM   33  O   UNL     1      -9.055   9.836  68.498  1.00  0.00    -0.126 OA 
HETATM   34  C   UNL     1      -8.565   9.816  69.849  1.00  0.00    -0.218 C  
HETATM   35  C   UNL     1      -9.617   9.214  70.794  1.00  0.00    -0.275 C  
HETATM   36  H   UNL     1     -13.242  10.665  69.701  1.00  0.00     0.000 HD 
HETATM   37  C   UNL     1     -10.918  10.038  70.730  1.00  0.00    -0.305 C  
HETATM   38  H1  UNL     1     -12.813   9.991  71.569  1.00  0.00     0.000 HD 
HETATM   39  O   UNL     1      -9.151   9.135  72.143  1.00  0.00    -0.312 OA 
HETATM   40  H   UNL     1      -9.801   8.763  72.727  1.00  0.00     0.000 HD 
HETATM   41  H2  UNL     1     -11.618   9.338  72.569  1.00  0.00     0.000 HD 
HETATM   42  C   UNL     1     -11.383  10.135  69.266  1.00  0.00    -0.156 C  
HETATM   43  N   UNL     1     -11.952   9.445  71.611  1.00  0.00    -0.371 NA 
HETATM   44  O   UNL     1     -12.542  10.967  69.135  1.00  0.00    -0.378 OA 
BRANCH  34  45
HETATM   45  C   UNL     1      -7.280   8.977  69.885  1.00  0.00    -0.058 C  
HETATM   46  O   UNL     1      -7.552   7.656  70.351  1.00  0.00    -0.084 OA 
HETATM   47  H   UNL     1      -6.757   7.136  70.374  1.00  0.00     0.000 HD 
ENDBRANCH  34  45
ENDBRANCH  31  32
ENDBRANCH  25  31
ENDBRANCH  16  17
ENDBRANCH   7  16
ENDBRANCH   2   5
TORSDOF 6
ENDMDL
MODEL      107
REMARK 921   NORMALIZED FREE ENERGY PREDICTED BY IDOCK:   -5.89 KCAL/MOL
REMARK 922        TOTAL FREE ENERGY PREDICTED BY IDOCK:   -9.02 KCAL/MOL
REMARK 923 INTER-LIGAND FREE ENERGY PREDICTED BY IDOCK:   -7.35 KCAL/MOL
REMARK 924 INTRA-LIGAND FREE ENERGY PREDICTED BY IDOCK:   -1.66 KCAL/MOL
REMARK 927      BINDING AFFINITY PREDICTED BY RF-SCORE:    0.00 PKD
ROOT
HETATM    1  N   UNL     1      -7.135  14.199  69.633  1.00  0.00    -0.338 NA 
HETATM    2  C   UNL     1      -8.132  15.197  69.220  1.00  0.00    -0.217 C  
HETATM    3  H2  UNL     1      -6.298  14.253  69.053  1.00  0.00     0.000 HD 
HETATM    4  H1  UNL     1      -6.902  14.272  70.623  1.00  0.00     0.000 HD 
ENDROOT
BRANCH   2   5
HETATM    5  C   UNL     1      -8.485  15.086  67.715  1.00  0.00    -0.156 C  
HETATM    6  O   UNL     1      -9.189  13.872  67.408  1.00  0.00    -0.206 OA 
HETATM    7  C   UNL     1     -10.507  13.792  67.928  1.00  0.00    -0.246 C  
HETATM    8  C   UNL     1     -11.385  14.939  67.330  1.00  0.00    -0.349 C  
HETATM    9  C   UNL     1      -9.246  16.321  67.195  1.00  0.00    -0.213 C  
HETATM   10  N   UNL     1     -11.606  14.791  65.875  1.00  0.00    -0.326 NA 
HETATM   11  C   UNL     1     -10.721  16.299  67.615  1.00  0.00    -0.311 C  
HETATM   12  H   UNL     1      -9.613  17.101  65.445  1.00  0.00     0.000 HD 
HETATM   13  H1  UNL     1     -12.180  15.539  65.485  1.00  0.00     0.000 HD 
HETATM   14  H2  UNL     1     -12.000  13.876  65.656  1.00  0.00     0.000 HD 
HETATM   15  O   UNL     1      -9.144  16.340  65.766  1.00  0.00    -0.434 OA 
BRANCH   7  16
HETATM   16  O   UNL     1     -11.091  12.519  67.604  1.00  0.00    -0.235 OA 
BRANCH  16  17
HETATM   17  C   UNL     1     -10.206  11.520  67.017  1.00  0.00    -0.214 C  
HETATM   18  N   UNL     1     -10.662  12.191  64.668  1.00  0.00    -0.289 NA 
HETATM   19  C   UNL     1      -9.718   9.999  65.057  1.00  0.00    -0.386 C  
HETATM   20  H1  UNL     1     -10.955  11.888  63.739  1.00  0.00     0.000 HD 
HETATM   21  H2  UNL     1      -9.759  12.666  64.640  1.00  0.00     0.000 HD 
HETATM   22  C   UNL     1      -9.650   8.779  65.977  1.00  0.00    -0.226 C  
HETATM   23  C   UNL     1     -10.652  11.063  65.613  1.00  0.00    -0.197 C  
HETATM   24  N   UNL     1      -8.822   7.788  65.268  1.00  0.00    -0.378 NA 
HETATM   25  C   UNL     1      -9.103   9.154  67.390  1.00  0.00    -0.127 C  
HETATM   26  H   UNL     1      -8.946  10.189  69.695  1.00  0.00     0.000 HD 
HETATM   27  H1  UNL     1      -8.777   6.974  65.881  1.00  0.00     0.000 HD 
HETATM   28  C   UNL     1      -9.895  10.353  67.995  1.00  0.00    -0.150 C  
HETATM   29  H2  UNL     1      -7.906   8.143  64.992  1.00  0.00     0.000 HD 
HETATM   30  O   UNL     1      -9.136  10.903  69.098  1.00  0.00    -0.142 OA 
BRANCH  25  31
HETATM   31  O   UNL     1      -9.214   8.060  68.354  1.00  0.00    -0.136 OA 
BRANCH  31  32
HETATM   32  C   UNL     1     -10.472   7.372  68.355  1.00  0.00    -0.185 C  
HETATM   33  O   UNL     1     -10.463   6.206  67.521  1.00  0.00    -0.178 OA 
HETATM   34  C   UNL     1      -9.618   5.160  68.028  1.00  0.00    -0.136 C  
HETATM   35  C   UNL     1     -10.104   4.699  69.410  1.00  0.00    -0.124 C  
HETATM   36  H   UNL     1     -11.165   7.996  71.518  1.00  0.00     0.000 HD 
HETATM   37  C   UNL     1     -10.100   5.885  70.394  1.00  0.00    -0.201 C  
HETATM   38  H1  UNL     1     -10.598   6.243  72.375  1.00  0.00     0.000 HD 
HETATM   39  O   UNL     1      -9.316   3.625  69.931  1.00  0.00    -0.143 OA 
HETATM   40  H   UNL     1      -9.616   3.340  70.786  1.00  0.00     0.000 HD 
HETATM   41  H2  UNL     1     -10.079   4.662  72.088  1.00  0.00     0.000 HD 
HETATM   42  C   UNL     1     -10.928   7.037  69.800  1.00  0.00    -0.250 C  
HETATM   43  N   UNL     1     -10.601   5.458  71.724  1.00  0.00    -0.229 NA 
HETATM   44  O   UNL     1     -10.885   8.201  70.633  1.00  0.00    -0.225 OA 
BRANCH  34  45
HETATM   45  C   UNL     1      -9.654   3.988  67.037  1.00  0.00    -0.201 C  
HETATM   46  O   UNL     1     -10.005   4.441  65.729  1.00  0.00    -0.203 OA 
HETATM   47  H   UNL     1     -10.027   3.716  65.116  1.00  0.00     0.000 HD 
ENDBRANCH  34  45
ENDBRANCH  31  32
ENDBRANCH  25  31
ENDBRANCH  16  17
ENDBRANCH   7  16
ENDBRANCH   2   5
TORSDOF 6
ENDMDL
MODEL      108
REMARK 921   NORMALIZED FREE ENERGY PREDICTED BY IDOCK:   -5.88 KCAL/MOL
REMARK 922        TOTAL FREE ENERGY PREDICTED BY IDOCK:   -8.99 KCAL/MOL
REMARK 923 INTER-LIGAND FREE ENERGY PREDICTED BY IDOCK:   -7.49 KCAL/MOL
REMARK 924 INTRA-LIGAND FREE ENERGY PREDICTED BY IDOCK:   -1.50 KCAL/MOL
REMARK 927      BINDING AFFINITY PREDICTED BY RF-SCORE:    0.00 PKD
ROOT
HETATM    1  N   UNL     1     -13.411   8.859  73.114  1.00  0.00    -0.896 NA 
HETATM    2  C   UNL     1     -12.537   8.520  71.982  1.00  0.00    -0.364 C  
HETATM    3  H2  UNL     1     -13.078   8.431  73.978  1.00  0.00     0.000 HD 
HETATM    4  H1  UNL     1     -13.528   9.866  73.224  1.00  0.00     0.000 HD 
ENDROOT
BRANCH   2   5
HETATM    5  C   UNL     1     -12.360   6.989  71.816  1.00  0.00    -0.354 C  
HETATM    6  O   UNL     1     -12.118   6.613  70.451  1.00  0.00    -0.374 OA 
HETATM    7  C   UNL     1     -10.862   7.016  69.929  1.00  0.00    -0.251 C  
HETATM    8  C   UNL     1      -9.707   6.353  70.749  1.00  0.00    -0.180 C  
HETATM    9  C   UNL     1     -11.281   6.415  72.755  1.00  0.00    -0.227 C  
HETATM   10  N   UNL     1      -9.663   4.884  70.589  1.00  0.00    -0.185 NA 
HETATM   11  C   UNL     1      -9.866   6.705  72.240  1.00  0.00    -0.162 C  
HETATM   12  H   UNL     1     -10.820   4.646  73.435  1.00  0.00     0.000 HD 
HETATM   13  H1  UNL     1      -8.909   4.451  71.124  1.00  0.00     0.000 HD 
HETATM   14  H2  UNL     1      -9.608   4.624  69.605  1.00  0.00     0.000 HD 
HETATM   15  O   UNL     1     -11.485   5.000  72.856  1.00  0.00    -0.281 OA 
BRANCH   7  16
HETATM   16  O   UNL     1     -10.752   6.633  68.547  1.00  0.00    -0.216 OA 
BRANCH  16  17
HETATM   17  C   UNL     1      -9.795   7.373  67.735  1.00  0.00    -0.152 C  
HETATM   18  N   UNL     1      -8.406   5.387  67.185  1.00  0.00    -0.108 NA 
HETATM   19  C   UNL     1      -7.414   7.574  66.908  1.00  0.00    -0.098 C  
HETATM   20  H1  UNL     1      -7.473   4.975  67.188  1.00  0.00     0.000 HD 
HETATM   21  H2  UNL     1      -8.823   5.367  66.255  1.00  0.00     0.000 HD 
HETATM   22  C   UNL     1      -7.321   9.013  67.419  1.00  0.00    -0.084 C  
HETATM   23  C   UNL     1      -8.383   6.750  67.739  1.00  0.00    -0.119 C  
HETATM   24  N   UNL     1      -6.268   9.657  66.615  1.00  0.00    -0.064 NA 
HETATM   25  C   UNL     1      -8.700   9.740  67.342  1.00  0.00    -0.132 C  
HETATM   26  H   UNL     1     -11.118  10.336  67.801  1.00  0.00     0.000 HD 
HETATM   27  H1  UNL     1      -6.206  10.616  66.956  1.00  0.00     0.000 HD 
HETATM   28  C   UNL     1      -9.815   8.898  68.034  1.00  0.00    -0.168 C  
HETATM   29  H2  UNL     1      -6.424   9.591  65.609  1.00  0.00     0.000 HD 
HETATM   30  O   UNL     1     -11.105   9.404  67.618  1.00  0.00    -0.149 OA 
BRANCH  25  31
HETATM   31  O   UNL     1      -8.696  11.043  68.006  1.00  0.00    -0.129 OA 
BRANCH  31  32
HETATM   32  C   UNL     1      -8.952  12.166  67.153  1.00  0.00    -0.189 C  
HETATM   33  O   UNL     1     -10.287  12.670  67.292  1.00  0.00    -0.223 OA 
HETATM   34  C   UNL     1     -10.524  13.282  68.571  1.00  0.00    -0.250 C  
HETATM   35  C   UNL     1      -9.585  14.481  68.775  1.00  0.00    -0.193 C  
HETATM   36  H   UNL     1      -5.920  13.438  67.391  1.00  0.00     0.000 HD 
HETATM   37  C   UNL     1      -8.116  14.022  68.689  1.00  0.00    -0.113 C  
HETATM   38  H1  UNL     1      -6.228  14.874  68.794  1.00  0.00     0.000 HD 
HETATM   39  O   UNL     1      -9.820  15.148  70.019  1.00  0.00    -0.471 OA 
HETATM   40  H   UNL     1      -9.240  15.889  70.145  1.00  0.00     0.000 HD 
HETATM   41  H2  UNL     1      -7.387  15.693  69.711  1.00  0.00     0.000 HD 
HETATM   42  C   UNL     1      -7.895  13.282  67.359  1.00  0.00    -0.153 C  
HETATM   43  N   UNL     1      -7.201  15.178  68.851  1.00  0.00    -0.123 NA 
HETATM   44  O   UNL     1      -6.567  12.754  67.264  1.00  0.00    -0.159 OA 
BRANCH  34  45
HETATM   45  C   UNL     1     -11.987  13.743  68.621  1.00  0.00    -0.366 C  
HETATM   46  O   UNL     1     -12.168  14.940  67.866  1.00  0.00    -0.559 OA 
HETATM   47  H   UNL     1     -13.073  15.225  67.897  1.00  0.00     0.000 HD 
ENDBRANCH  34  45
ENDBRANCH  31  32
ENDBRANCH  25  31
ENDBRANCH  16  17
ENDBRANCH   7  16
ENDBRANCH   2   5
TORSDOF 6
ENDMDL
MODEL      109
REMARK 921   NORMALIZED FREE ENERGY PREDICTED BY IDOCK:   -5.87 KCAL/MOL
REMARK 922        TOTAL FREE ENERGY PREDICTED BY IDOCK:   -8.98 KCAL/MOL
REMARK 923 INTER-LIGAND FREE ENERGY PREDICTED BY IDOCK:   -7.79 KCAL/MOL
REMARK 924 INTRA-LIGAND FREE ENERGY PREDICTED BY IDOCK:   -1.18 KCAL/MOL
REMARK 927      BINDING AFFINITY PREDICTED BY RF-SCORE:    0.00 PKD
ROOT
HETATM    1  N   UNL     1      -9.782  18.511  66.036  1.00  0.00    -0.516 NA 
HETATM    2  C   UNL     1     -10.103  17.076  66.030  1.00  0.00    -0.302 C  
HETATM    3  H2  UNL     1      -9.365  18.791  66.924  1.00  0.00     0.000 HD 
HETATM    4  H1  UNL     1      -9.191  18.778  65.250  1.00  0.00     0.000 HD 
ENDROOT
BRANCH   2   5
HETATM    5  C   UNL     1     -11.003  16.671  67.225  1.00  0.00    -0.064 C  
HETATM    6  O   UNL     1     -11.418  15.298  67.155  1.00  0.00    -0.307 OA 
HETATM    7  C   UNL     1     -10.385  14.346  67.353  1.00  0.00    -0.252 C  
HETATM    8  C   UNL     1      -9.769  14.517  68.780  1.00  0.00    -0.210 C  
HETATM    9  C   UNL     1     -10.355  16.992  68.587  1.00  0.00    -0.351 C  
HETATM   10  N   UNL     1     -10.724  14.181  69.858  1.00  0.00    -0.440 NA 
HETATM   11  C   UNL     1      -9.278  15.966  68.959  1.00  0.00    -0.242 C  
HETATM   12  H   UNL     1     -10.988  17.199  70.420  1.00  0.00     0.000 HD 
HETATM   13  H1  UNL     1     -10.322  14.292  70.790  1.00  0.00     0.000 HD 
HETATM   14  H2  UNL     1     -11.102  13.242  69.733  1.00  0.00     0.000 HD 
HETATM   15  O   UNL     1     -11.387  17.002  69.581  1.00  0.00     0.232 OA 
BRANCH   7  16
HETATM   16  O   UNL     1     -10.904  13.013  67.209  1.00  0.00    -0.247 OA 
BRANCH  16  17
HETATM   17  C   UNL     1     -10.072  12.060  66.485  1.00  0.00    -0.201 C  
HETATM   18  N   UNL     1     -10.649  12.943  64.235  1.00  0.00    -0.389 NA 
HETATM   19  C   UNL     1      -9.725  10.713  64.373  1.00  0.00    -0.368 C  
HETATM   20  H1  UNL     1     -11.001  12.728  63.302  1.00  0.00     0.000 HD 
HETATM   21  H2  UNL     1      -9.741  13.407  64.196  1.00  0.00     0.000 HD 
HETATM   22  C   UNL     1      -9.626   9.415  65.176  1.00  0.00    -0.124 C  
HETATM   23  C   UNL     1     -10.605  11.735  65.074  1.00  0.00    -0.288 C  
HETATM   24  N   UNL     1      -8.858   8.480  64.335  1.00  0.00    -0.407 NA 
HETATM   25  C   UNL     1      -8.992   9.655  66.582  1.00  0.00    -0.146 C  
HETATM   26  H   UNL     1      -8.684  10.479  68.957  1.00  0.00     0.000 HD 
HETATM   27  H1  UNL     1      -8.792   7.615  64.870  1.00  0.00     0.000 HD 
HETATM   28  C   UNL     1      -9.726  10.806  67.336  1.00  0.00    -0.171 C  
HETATM   29  H2  UNL     1      -7.953   8.847  64.038  1.00  0.00     0.000 HD 
HETATM   30  O   UNL     1      -8.896  11.245  68.437  1.00  0.00    -0.149 OA 
BRANCH  25  31
HETATM   31  O   UNL     1      -9.067   8.481  67.450  1.00  0.00    -0.132 OA 
BRANCH  31  32
HETATM   32  C   UNL     1     -10.383   7.947  67.644  1.00  0.00    -0.241 C  
HETATM   33  O   UNL     1     -10.703   6.915  66.702  1.00  0.00    -0.246 OA 
HETATM   34  C   UNL     1      -9.929   5.719  66.897  1.00  0.00    -0.171 C  
HETATM   35  C   UNL     1     -10.193   5.130  68.292  1.00  0.00    -0.111 C  
HETATM   36  H   UNL     1     -10.345   8.204  70.930  1.00  0.00     0.000 HD 
HETATM   37  C   UNL     1      -9.829   6.161  69.378  1.00  0.00    -0.157 C  
HETATM   38  H1  UNL     1      -9.871   6.297  71.447  1.00  0.00     0.000 HD 
HETATM   39  O   UNL     1      -9.475   3.912  68.509  1.00  0.00    -0.156 OA 
HETATM   40  H   UNL     1      -9.638   3.548  69.371  1.00  0.00     0.000 HD 
HETATM   41  H2  UNL     1      -9.645   4.722  70.881  1.00  0.00     0.000 HD 
HETATM   42  C   UNL     1     -10.588   7.470  69.106  1.00  0.00    -0.197 C  
HETATM   43  N   UNL     1     -10.112   5.615  70.728  1.00  0.00    -0.197 NA 
HETATM   44  O   UNL     1     -10.219   8.497  70.035  1.00  0.00    -0.190 OA 
BRANCH  34  45
HETATM   45  C   UNL     1     -10.323   4.707  65.813  1.00  0.00    -0.264 C  
HETATM   46  O   UNL     1     -11.583   5.049  65.234  1.00  0.00    -0.787 OA 
HETATM   47  H   UNL     1     -11.827   4.423  64.563  1.00  0.00     0.000 HD 
ENDBRANCH  34  45
ENDBRANCH  31  32
ENDBRANCH  25  31
ENDBRANCH  16  17
ENDBRANCH   7  16
ENDBRANCH   2   5
TORSDOF 6
ENDMDL
MODEL      110
REMARK 921   NORMALIZED FREE ENERGY PREDICTED BY IDOCK:   -5.86 KCAL/MOL
REMARK 922        TOTAL FREE ENERGY PREDICTED BY IDOCK:   -8.97 KCAL/MOL
REMARK 923 INTER-LIGAND FREE ENERGY PREDICTED BY IDOCK:   -7.67 KCAL/MOL
REMARK 924 INTRA-LIGAND FREE ENERGY PREDICTED BY IDOCK:   -1.30 KCAL/MOL
REMARK 927      BINDING AFFINITY PREDICTED BY RF-SCORE:    0.00 PKD
ROOT
HETATM    1  N   UNL     1      -9.900  15.235  69.922  1.00  0.00    -0.457 NA 
HETATM    2  C   UNL     1     -10.684  14.939  68.713  1.00  0.00    -0.252 C  
HETATM    3  H2  UNL     1      -8.978  15.599  69.682  1.00  0.00     0.000 HD 
HETATM    4  H1  UNL     1     -10.391  15.864  70.556  1.00  0.00     0.000 HD 
ENDROOT
BRANCH   2   5
HETATM    5  C   UNL     1      -9.937  13.984  67.749  1.00  0.00    -0.236 C  
HETATM    6  O   UNL     1      -9.548  12.758  68.388  1.00  0.00    -0.220 OA 
HETATM    7  C   UNL     1     -10.618  11.893  68.735  1.00  0.00    -0.206 C  
HETATM    8  C   UNL     1     -11.390  11.458  67.447  1.00  0.00    -0.288 C  
HETATM    9  C   UNL     1     -10.731  13.714  66.455  1.00  0.00    -0.284 C  
HETATM   10  N   UNL     1     -10.574  10.612  66.549  1.00  0.00    -0.222 NA 
HETATM   11  C   UNL     1     -11.866  12.709  66.684  1.00  0.00    -0.449 C  
HETATM   12  H   UNL     1     -10.309  13.041  64.673  1.00  0.00     0.000 HD 
HETATM   13  H1  UNL     1     -11.077  10.328  65.709  1.00  0.00     0.000 HD 
HETATM   14  H2  UNL     1     -10.205   9.801  67.047  1.00  0.00     0.000 HD 
HETATM   15  O   UNL     1      -9.820  13.208  65.470  1.00  0.00    -0.237 OA 
BRANCH   7  16
HETATM   16  O   UNL     1     -10.116  10.729  69.412  1.00  0.00    -0.212 OA 
BRANCH  16  17
HETATM   17  C   UNL     1     -11.100   9.737  69.829  1.00  0.00    -0.237 C  
HETATM   18  N   UNL     1     -12.482  11.344  71.127  1.00  0.00    -0.380 NA 
HETATM   19  C   UNL     1     -12.749   8.987  71.593  1.00  0.00    -0.421 C  
HETATM   20  H1  UNL     1     -12.916  11.561  72.023  1.00  0.00     0.000 HD 
HETATM   21  H2  UNL     1     -13.162  11.356  70.367  1.00  0.00     0.000 HD 
HETATM   22  C   UNL     1     -12.079   7.616  71.686  1.00  0.00    -0.306 C  
HETATM   23  C   UNL     1     -11.757  10.065  71.186  1.00  0.00    -0.387 C  
HETATM   24  N   UNL     1     -13.109   6.699  72.205  1.00  0.00    -0.534 NA 
HETATM   25  C   UNL     1     -11.482   7.173  70.313  1.00  0.00    -0.247 C  
HETATM   26  H   UNL     1     -10.016   7.117  68.250  1.00  0.00     0.000 HD 
HETATM   27  H1  UNL     1     -12.662   5.785  72.267  1.00  0.00     0.000 HD 
HETATM   28  C   UNL     1     -10.562   8.283  69.720  1.00  0.00    -0.228 C  
HETATM   29  H2  UNL     1     -13.968   6.697  71.654  1.00  0.00     0.000 HD 
HETATM   30  O   UNL     1     -10.344   8.006  68.316  1.00  0.00    -0.201 OA 
BRANCH  25  31
HETATM   31  O   UNL     1     -10.661   5.966  70.410  1.00  0.00    -0.259 OA 
BRANCH  31  32
HETATM   32  C   UNL     1      -9.697   5.967  71.470  1.00  0.00    -0.163 C  
HETATM   33  O   UNL     1     -10.174   5.305  72.649  1.00  0.00    -0.172 OA 
HETATM   34  C   UNL     1     -10.331   3.887  72.470  1.00  0.00    -0.138 C  
HETATM   35  C   UNL     1      -8.984   3.236  72.123  1.00  0.00    -0.099 C  
HETATM   36  H   UNL     1      -7.069   5.665  69.502  1.00  0.00     0.000 HD 
HETATM   37  C   UNL     1      -8.414   3.856  70.832  1.00  0.00    -0.071 C  
HETATM   38  H1  UNL     1      -6.720   3.670  69.652  1.00  0.00     0.000 HD 
HETATM   39  O   UNL     1      -9.089   1.816  71.982  1.00  0.00    -0.070 OA 
HETATM   40  H   UNL     1      -8.256   1.414  71.766  1.00  0.00     0.000 HD 
HETATM   41  H2  UNL     1      -7.145   2.242  70.449  1.00  0.00     0.000 HD 
HETATM   42  C   UNL     1      -8.339   5.384  70.997  1.00  0.00    -0.119 C  
HETATM   43  N   UNL     1      -7.097   3.259  70.506  1.00  0.00    -0.034 NA 
HETATM   44  O   UNL     1      -7.900   6.023  69.792  1.00  0.00    -0.097 OA 
BRANCH  34  45
HETATM   45  C   UNL     1     -10.884   3.295  73.774  1.00  0.00    -0.223 C  
HETATM   46  O   UNL     1     -11.613   2.095  73.517  1.00  0.00    -0.217 OA 
HETATM   47  H   UNL     1     -11.955   1.729  74.324  1.00  0.00     0.000 HD 
ENDBRANCH  34  45
ENDBRANCH  31  32
ENDBRANCH  25  31
ENDBRANCH  16  17
ENDBRANCH   7  16
ENDBRANCH   2   5
TORSDOF 6
ENDMDL
MODEL      111
REMARK 921   NORMALIZED FREE ENERGY PREDICTED BY IDOCK:   -5.85 KCAL/MOL
REMARK 922        TOTAL FREE ENERGY PREDICTED BY IDOCK:   -8.96 KCAL/MOL
REMARK 923 INTER-LIGAND FREE ENERGY PREDICTED BY IDOCK:   -8.67 KCAL/MOL
REMARK 924 INTRA-LIGAND FREE ENERGY PREDICTED BY IDOCK:   -0.29 KCAL/MOL
REMARK 927      BINDING AFFINITY PREDICTED BY RF-SCORE:    0.00 PKD
ROOT
HETATM    1  N   UNL     1      -6.400  12.056  66.666  1.00  0.00    -0.446 NA 
HETATM    2  C   UNL     1      -6.359  10.594  66.814  1.00  0.00    -0.084 C  
HETATM    3  H2  UNL     1      -6.376  12.519  67.574  1.00  0.00     0.000 HD 
HETATM    4  H1  UNL     1      -5.662  12.404  66.055  1.00  0.00     0.000 HD 
ENDROOT
BRANCH   2   5
HETATM    5  C   UNL     1      -7.482  10.066  67.742  1.00  0.00    -0.089 C  
HETATM    6  O   UNL     1      -8.616  10.946  67.782  1.00  0.00    -0.125 OA 
HETATM    7  C   UNL     1      -9.367  11.014  66.580  1.00  0.00    -0.180 C  
HETATM    8  C   UNL     1      -9.952   9.604  66.237  1.00  0.00    -0.264 C  
HETATM    9  C   UNL     1      -7.902   8.624  67.397  1.00  0.00    -0.098 C  
HETATM   10  N   UNL     1     -10.960   9.149  67.219  1.00  0.00    -0.358 NA 
HETATM   11  C   UNL     1      -8.807   8.577  66.160  1.00  0.00    -0.200 C  
HETATM   12  H   UNL     1      -8.851   7.188  68.316  1.00  0.00     0.000 HD 
HETATM   13  H1  UNL     1     -11.341   8.230  66.996  1.00  0.00     0.000 HD 
HETATM   14  H2  UNL     1     -11.704   9.838  67.325  1.00  0.00     0.000 HD 
HETATM   15  O   UNL     1      -8.592   8.077  68.529  1.00  0.00    -0.127 OA 
BRANCH   7  16
HETATM   16  O   UNL     1     -10.441  11.960  66.718  1.00  0.00    -0.212 OA 
BRANCH  16  17
HETATM   17  C   UNL     1     -10.567  12.624  68.009  1.00  0.00    -0.221 C  
HETATM   18  N   UNL     1     -12.267  11.042  68.895  1.00  0.00    -0.712 NA 
HETATM   19  C   UNL     1     -12.057  13.197  69.970  1.00  0.00    -0.375 C  
HETATM   20  H1  UNL     1     -13.190  10.934  69.315  1.00  0.00     0.000 HD 
HETATM   21  H2  UNL     1     -11.543  10.597  69.459  1.00  0.00     0.000 HD 
HETATM   22  C   UNL     1     -11.761  14.688  69.804  1.00  0.00    -0.313 C  
HETATM   23  C   UNL     1     -11.964  12.460  68.644  1.00  0.00    -0.225 C  
HETATM   24  N   UNL     1     -12.007  15.296  71.123  1.00  0.00    -0.312 NA 
HETATM   25  C   UNL     1     -10.317  14.931  69.263  1.00  0.00    -0.234 C  
HETATM   26  H   UNL     1      -8.316  14.943  67.712  1.00  0.00     0.000 HD 
HETATM   27  H1  UNL     1     -11.810  16.291  71.012  1.00  0.00     0.000 HD 
HETATM   28  C   UNL     1     -10.055  14.091  67.976  1.00  0.00    -0.239 C  
HETATM   29  H2  UNL     1     -11.481  14.858  71.880  1.00  0.00     0.000 HD 
HETATM   30  O   UNL     1      -8.629  14.046  67.732  1.00  0.00    -0.160 OA 
BRANCH  25  31
HETATM   31  O   UNL     1     -10.071  16.326  68.901  1.00  0.00    -0.226 OA 
BRANCH  31  32
HETATM   32  C   UNL     1      -9.096  16.528  67.870  1.00  0.00    -0.206 C  
HETATM   33  O   UNL     1      -9.668  17.055  66.666  1.00  0.00    -0.253 OA 
HETATM   34  C   UNL     1     -10.141  18.404  66.814  1.00  0.00    -0.373 C  
HETATM   35  C   UNL     1      -8.983  19.341  67.189  1.00  0.00    -0.296 C  
HETATM   36  H   UNL     1      -6.666  17.426  69.909  1.00  0.00     0.000 HD 
HETATM   37  C   UNL     1      -8.333  18.877  68.507  1.00  0.00    -0.349 C  
HETATM   38  H1  UNL     1      -6.762  19.447  69.734  1.00  0.00     0.000 HD 
HETATM   39  O   UNL     1      -9.404  20.704  67.301  1.00  0.00    -0.478 OA 
HETATM   40  H   UNL     1      -8.688  21.283  67.533  1.00  0.00     0.000 HD 
HETATM   41  H2  UNL     1      -7.465  20.736  68.899  1.00  0.00     0.000 HD 
HETATM   42  C   UNL     1      -7.917  17.402  68.373  1.00  0.00    -0.259 C  
HETATM   43  N   UNL     1      -7.192  19.755  68.861  1.00  0.00    -0.329 NA 
HETATM   44  O   UNL     1      -7.388  16.890  69.602  1.00  0.00    -0.013 OA 
BRANCH  34  45
HETATM   45  C   UNL     1     -10.767  18.844  65.483  1.00  0.00    -0.001 C  
HETATM   46  O   UNL     1     -11.083  17.712  64.673  1.00  0.00    -0.906 OA 
HETATM   47  H   UNL     1     -11.471  17.984  63.850  1.00  0.00     0.000 HD 
ENDBRANCH  34  45
ENDBRANCH  31  32
ENDBRANCH  25  31
ENDBRANCH  16  17
ENDBRANCH   7  16
ENDBRANCH   2   5
TORSDOF 6
ENDMDL
MODEL      112
REMARK 921   NORMALIZED FREE ENERGY PREDICTED BY IDOCK:   -5.85 KCAL/MOL
REMARK 922        TOTAL FREE ENERGY PREDICTED BY IDOCK:   -8.96 KCAL/MOL
REMARK 923 INTER-LIGAND FREE ENERGY PREDICTED BY IDOCK:   -7.74 KCAL/MOL
REMARK 924 INTRA-LIGAND FREE ENERGY PREDICTED BY IDOCK:   -1.21 KCAL/MOL
REMARK 927      BINDING AFFINITY PREDICTED BY RF-SCORE:    0.00 PKD
ROOT
HETATM    1  N   UNL     1      -9.870  10.472  62.421  1.00  0.00    -0.725 NA 
HETATM    2  C   UNL     1      -9.843  11.188  63.705  1.00  0.00    -0.345 C  
HETATM    3  H2  UNL     1     -10.544  10.890  61.780  1.00  0.00     0.000 HD 
HETATM    4  H1  UNL     1      -8.946  10.409  61.994  1.00  0.00     0.000 HD 
ENDROOT
BRANCH   2   5
HETATM    5  C   UNL     1     -11.247  11.283  64.353  1.00  0.00    -0.126 C  
HETATM    6  O   UNL     1     -11.195  11.795  65.694  1.00  0.00    -0.314 OA 
HETATM    7  C   UNL     1     -10.833  13.162  65.803  1.00  0.00    -0.273 C  
HETATM    8  C   UNL     1     -11.885  14.052  65.064  1.00  0.00    -0.378 C  
HETATM    9  C   UNL     1     -12.244  12.079  63.488  1.00  0.00    -0.547 C  
HETATM   10  N   UNL     1     -13.215  14.021  65.710  1.00  0.00    -0.646 NA 
HETATM   11  C   UNL     1     -12.013  13.590  63.600  1.00  0.00    -0.439 C  
HETATM   12  H   UNL     1     -14.185  12.243  63.388  1.00  0.00     0.000 HD 
HETATM   13  H1  UNL     1     -13.902  14.601  65.228  1.00  0.00     0.000 HD 
HETATM   14  H2  UNL     1     -13.149  14.275  66.696  1.00  0.00     0.000 HD 
HETATM   15  O   UNL     1     -13.570  11.752  63.921  1.00  0.00    -0.382 OA 
BRANCH   7  16
HETATM   16  O   UNL     1     -10.763  13.549  67.186  1.00  0.00    -0.275 OA 
BRANCH  16  17
HETATM   17  C   UNL     1      -9.617  13.063  67.945  1.00  0.00    -0.215 C  
HETATM   18  N   UNL     1      -8.028  14.735  67.019  1.00  0.00    -0.333 NA 
HETATM   19  C   UNL     1      -7.110  12.747  68.044  1.00  0.00    -0.111 C  
HETATM   20  H1  UNL     1      -7.137  14.891  66.548  1.00  0.00     0.000 HD 
HETATM   21  H2  UNL     1      -8.087  15.259  67.893  1.00  0.00     0.000 HD 
HETATM   22  C   UNL     1      -7.274  11.250  68.309  1.00  0.00    -0.080 C  
HETATM   23  C   UNL     1      -8.269  13.299  67.231  1.00  0.00    -0.158 C  
HETATM   24  N   UNL     1      -6.038  10.824  68.987  1.00  0.00    -0.041 NA 
HETATM   25  C   UNL     1      -8.570  10.949  69.125  1.00  0.00    -0.050 C  
HETATM   26  H   UNL     1     -11.020  10.746  69.733  1.00  0.00     0.000 HD 
HETATM   27  H1  UNL     1      -6.147   9.825  69.162  1.00  0.00     0.000 HD 
HETATM   28  C   UNL     1      -9.815  11.610  68.459  1.00  0.00    -0.193 C  
HETATM   29  H2  UNL     1      -5.824  11.365  69.825  1.00  0.00     0.000 HD 
HETATM   30  O   UNL     1     -10.898  11.634  69.418  1.00  0.00    -0.196 OA 
BRANCH  25  31
HETATM   31  O   UNL     1      -8.865   9.520  69.221  1.00  0.00    -0.136 OA 
BRANCH  31  32
HETATM   32  C   UNL     1      -9.850   9.036  68.300  1.00  0.00    -0.166 C  
HETATM   33  O   UNL     1      -9.270   8.531  67.089  1.00  0.00    -0.136 OA 
HETATM   34  C   UNL     1      -8.516   7.324  67.290  1.00  0.00    -0.118 C  
HETATM   35  C   UNL     1      -9.422   6.208  67.834  1.00  0.00    -0.115 C  
HETATM   36  H   UNL     1     -11.881   7.848  70.609  1.00  0.00     0.000 HD 
HETATM   37  C   UNL     1     -10.055   6.646  69.168  1.00  0.00    -0.169 C  
HETATM   38  H1  UNL     1     -11.378   5.880  70.570  1.00  0.00     0.000 HD 
HETATM   39  O   UNL     1      -8.718   4.974  68.004  1.00  0.00    -0.103 OA 
HETATM   40  H   UNL     1      -9.278   4.285  68.341  1.00  0.00     0.000 HD 
HETATM   41  H2  UNL     1     -10.484   4.691  69.768  1.00  0.00     0.000 HD 
HETATM   42  C   UNL     1     -10.779   7.988  68.968  1.00  0.00    -0.088 C  
HETATM   43  N   UNL     1     -10.959   5.590  69.686  1.00  0.00    -0.229 NA 
HETATM   44  O   UNL     1     -11.312   8.489  70.200  1.00  0.00    -0.198 OA 
BRANCH  34  45
HETATM   45  C   UNL     1      -7.911   6.904  65.943  1.00  0.00    -0.112 C  
HETATM   46  O   UNL     1      -8.874   6.210  65.150  1.00  0.00    -0.345 OA 
HETATM   47  H   UNL     1      -8.500   5.950  64.316  1.00  0.00     0.000 HD 
ENDBRANCH  34  45
ENDBRANCH  31  32
ENDBRANCH  25  31
ENDBRANCH  16  17
ENDBRANCH   7  16
ENDBRANCH   2   5
TORSDOF 6
ENDMDL
MODEL      113
REMARK 921   NORMALIZED FREE ENERGY PREDICTED BY IDOCK:   -5.84 KCAL/MOL
REMARK 922        TOTAL FREE ENERGY PREDICTED BY IDOCK:   -8.94 KCAL/MOL
REMARK 923 INTER-LIGAND FREE ENERGY PREDICTED BY IDOCK:   -8.67 KCAL/MOL
REMARK 924 INTRA-LIGAND FREE ENERGY PREDICTED BY IDOCK:   -0.27 KCAL/MOL
REMARK 927      BINDING AFFINITY PREDICTED BY RF-SCORE:    0.00 PKD
ROOT
HETATM    1  N   UNL     1      -9.269   6.434  65.564  1.00  0.00    -0.366 NA 
HETATM    2  C   UNL     1      -7.998   6.827  64.938  1.00  0.00    -0.124 C  
HETATM    3  H2  UNL     1     -10.049   6.550  64.918  1.00  0.00     0.000 HD 
HETATM    4  H1  UNL     1      -9.238   5.485  65.937  1.00  0.00     0.000 HD 
ENDROOT
BRANCH   2   5
HETATM    5  C   UNL     1      -8.045   8.269  64.372  1.00  0.00    -0.145 C  
HETATM    6  O   UNL     1      -7.909   9.264  65.399  1.00  0.00    -0.097 OA 
HETATM    7  C   UNL     1      -6.628   9.330  66.006  1.00  0.00    -0.072 C  
HETATM    8  C   UNL     1      -5.549   9.695  64.934  1.00  0.00    -0.063 C  
HETATM    9  C   UNL     1      -7.025   8.490  63.238  1.00  0.00    -0.089 C  
HETATM   10  N   UNL     1      -5.719  11.062  64.395  1.00  0.00    -0.419 NA 
HETATM   11  C   UNL     1      -5.603   8.675  63.781  1.00  0.00    -0.066 C  
HETATM   12  H   UNL     1      -6.793   9.790  61.801  1.00  0.00     0.000 HD 
HETATM   13  H1  UNL     1      -5.015  11.300  63.695  1.00  0.00     0.000 HD 
HETATM   14  H2  UNL     1      -5.737  11.752  65.145  1.00  0.00     0.000 HD 
HETATM   15  O   UNL     1      -7.422   9.653  62.501  1.00  0.00    -0.108 OA 
BRANCH   7  16
HETATM   16  O   UNL     1      -6.624  10.320  67.049  1.00  0.00    -0.071 OA 
BRANCH  16  17
HETATM   17  C   UNL     1      -7.906  10.619  67.674  1.00  0.00    -0.105 C  
HETATM   18  N   UNL     1      -7.977   8.530  69.019  1.00  0.00    -0.111 NA 
HETATM   19  C   UNL     1     -10.052   9.719  68.664  1.00  0.00    -0.186 C  
HETATM   20  H1  UNL     1      -8.509   7.696  69.266  1.00  0.00     0.000 HD 
HETATM   21  H2  UNL     1      -7.715   9.067  69.846  1.00  0.00     0.000 HD 
HETATM   22  C   UNL     1     -10.890  10.578  67.716  1.00  0.00    -0.294 C  
HETATM   23  C   UNL     1      -8.711   9.357  68.047  1.00  0.00    -0.124 C  
HETATM   24  N   UNL     1     -12.196  10.749  68.376  1.00  0.00    -0.809 NA 
HETATM   25  C   UNL     1     -10.178  11.926  67.380  1.00  0.00    -0.196 C  
HETATM   26  H   UNL     1      -8.488  13.574  66.463  1.00  0.00     0.000 HD 
HETATM   27  H1  UNL     1     -12.755  11.322  67.744  1.00  0.00     0.000 HD 
HETATM   28  C   UNL     1      -8.721  11.679  66.882  1.00  0.00    -0.185 C  
HETATM   29  H2  UNL     1     -12.129  11.130  69.321  1.00  0.00     0.000 HD 
HETATM   30  O   UNL     1      -7.990  12.926  66.947  1.00  0.00    -0.071 OA 
BRANCH  25  31
HETATM   31  O   UNL     1     -10.852  12.679  66.323  1.00  0.00    -0.265 OA 
BRANCH  31  32
HETATM   32  C   UNL     1     -11.731  13.717  66.776  1.00  0.00    -0.391 C  
HETATM   33  O   UNL     1     -11.146  14.521  67.809  1.00  0.00    -0.267 OA 
HETATM   34  C   UNL     1     -10.049  15.324  67.342  1.00  0.00    -0.232 C  
HETATM   35  C   UNL     1     -10.522  16.297  66.252  1.00  0.00    -0.308 C  
HETATM   36  H   UNL     1     -13.079  14.297  63.824  1.00  0.00     0.000 HD 
HETATM   37  C   UNL     1     -11.125  15.514  65.070  1.00  0.00    -0.401 C  
HETATM   38  H1  UNL     1     -12.016  15.927  63.243  1.00  0.00     0.000 HD 
HETATM   39  O   UNL     1      -9.468  17.148  65.792  1.00  0.00    -0.525 OA 
HETATM   40  H   UNL     1      -9.760  17.750  65.117  1.00  0.00     0.000 HD 
HETATM   41  H2  UNL     1     -10.889  17.091  63.721  1.00  0.00     0.000 HD 
HETATM   42  C   UNL     1     -12.234  14.585  65.593  1.00  0.00    -0.273 C  
HETATM   43  N   UNL     1     -11.617  16.446  64.026  1.00  0.00    -1.082 NA 
HETATM   44  O   UNL     1     -12.771  13.765  64.548  1.00  0.00    -0.643 OA 
BRANCH  34  45
HETATM   45  C   UNL     1      -9.479  16.103  68.536  1.00  0.00    -0.216 C  
HETATM   46  O   UNL     1      -9.077  15.213  69.576  1.00  0.00    -0.366 OA 
HETATM   47  H   UNL     1      -8.724  15.695  70.315  1.00  0.00     0.000 HD 
ENDBRANCH  34  45
ENDBRANCH  31  32
ENDBRANCH  25  31
ENDBRANCH  16  17
ENDBRANCH   7  16
ENDBRANCH   2   5
TORSDOF 6
ENDMDL
MODEL      114
REMARK 921   NORMALIZED FREE ENERGY PREDICTED BY IDOCK:   -5.83 KCAL/MOL
REMARK 922        TOTAL FREE ENERGY PREDICTED BY IDOCK:   -8.93 KCAL/MOL
REMARK 923 INTER-LIGAND FREE ENERGY PREDICTED BY IDOCK:   -8.05 KCAL/MOL
REMARK 924 INTRA-LIGAND FREE ENERGY PREDICTED BY IDOCK:   -0.87 KCAL/MOL
REMARK 927      BINDING AFFINITY PREDICTED BY RF-SCORE:    0.00 PKD
ROOT
HETATM    1  N   UNL     1      -8.555  15.243  69.772  1.00  0.00    -0.388 NA 
HETATM    2  C   UNL     1      -8.444  16.633  69.306  1.00  0.00    -0.011 C  
HETATM    3  H2  UNL     1      -7.803  14.667  69.394  1.00  0.00     0.000 HD 
HETATM    4  H1  UNL     1      -8.593  15.178  70.789  1.00  0.00     0.000 HD 
ENDROOT
BRANCH   2   5
HETATM    5  C   UNL     1      -8.386  16.731  67.761  1.00  0.00    -0.188 C  
HETATM    6  O   UNL     1      -9.191  15.729  67.119  1.00  0.00    -0.202 OA 
HETATM    7  C   UNL     1     -10.591  15.890  67.276  1.00  0.00    -0.314 C  
HETATM    8  C   UNL     1     -11.045  17.247  66.645  1.00  0.00     0.391 C  
HETATM    9  C   UNL     1      -8.733  18.143  67.247  1.00  0.00    -0.244 C  
HETATM   10  N   UNL     1     -10.882  17.277  65.175  1.00  0.00    -0.599 NA 
HETATM   11  C   UNL     1     -10.244  18.402  67.276  1.00  0.00    -0.396 C  
HETATM   12  H   UNL     1      -8.456  19.132  65.588  1.00  0.00     0.000 HD 
HETATM   13  H1  UNL     1     -11.178  18.163  64.763  1.00  0.00     0.000 HD 
HETATM   14  H2  UNL     1     -11.363  16.491  64.738  1.00  0.00     0.000 HD 
HETATM   15  O   UNL     1      -8.242  18.262  65.906  1.00  0.00    -0.506 OA 
BRANCH   7  16
HETATM   16  O   UNL     1     -11.290  14.807  66.641  1.00  0.00    -0.345 OA 
BRANCH  16  17
HETATM   17  C   UNL     1     -10.648  13.499  66.682  1.00  0.00    -0.280 C  
HETATM   18  N   UNL     1     -10.013  13.500  64.279  1.00  0.00    -0.752 NA 
HETATM   19  C   UNL     1     -10.058  11.378  65.437  1.00  0.00    -0.308 C  
HETATM   20  H1  UNL     1     -10.053  13.004  63.389  1.00  0.00     0.000 HD 
HETATM   21  H2  UNL     1      -9.053  13.719  64.544  1.00  0.00     0.000 HD 
HETATM   22  C   UNL     1     -10.724  10.520  66.512  1.00  0.00    -0.121 C  
HETATM   23  C   UNL     1     -10.709  12.748  65.335  1.00  0.00    -0.284 C  
HETATM   24  N   UNL     1     -10.089   9.194  66.420  1.00  0.00    -0.289 NA 
HETATM   25  C   UNL     1     -10.605  11.173  67.925  1.00  0.00    -0.198 C  
HETATM   26  H   UNL     1     -10.913  12.800  69.840  1.00  0.00     0.000 HD 
HETATM   27  H1  UNL     1     -10.534   8.622  67.137  1.00  0.00     0.000 HD 
HETATM   28  C   UNL     1     -11.104  12.650  67.901  1.00  0.00    -0.247 C  
HETATM   29  H2  UNL     1      -9.071   9.223  66.493  1.00  0.00     0.000 HD 
HETATM   30  O   UNL     1     -10.634  13.319  69.095  1.00  0.00    -0.123 OA 
BRANCH  25  31
HETATM   31  O   UNL     1     -11.403  10.486  68.941  1.00  0.00    -0.251 OA 
BRANCH  31  32
HETATM   32  C   UNL     1     -10.838  10.476  70.258  1.00  0.00    -0.174 C  
HETATM   33  O   UNL     1     -11.494  11.392  71.145  1.00  0.00     0.493 OA 
HETATM   34  C   UNL     1     -12.841  11.001  71.459  1.00  0.00    -0.450 C  
HETATM   35  C   UNL     1     -12.854   9.635  72.161  1.00  0.00    -0.375 C  
HETATM   36  H   UNL     1     -10.166   7.249  70.286  1.00  0.00     0.000 HD 
HETATM   37  C   UNL     1     -12.208   8.569  71.255  1.00  0.00    -0.277 C  
HETATM   38  H1  UNL     1     -11.757   6.547  71.337  1.00  0.00     0.000 HD 
HETATM   39  O   UNL     1     -14.175   9.230  72.533  1.00  0.00    -0.643 OA 
HETATM   40  H   UNL     1     -14.183   8.385  72.967  1.00  0.00     0.000 HD 
HETATM   41  H2  UNL     1     -13.112   6.971  72.251  1.00  0.00     0.000 HD 
HETATM   42  C   UNL     1     -10.802   9.040  70.845  1.00  0.00    -0.258 C  
HETATM   43  N   UNL     1     -12.184   7.252  71.937  1.00  0.00    -0.310 NA 
HETATM   44  O   UNL     1     -10.188   8.128  69.927  1.00  0.00    -0.196 OA 
BRANCH  34  45
HETATM   45  C   UNL     1     -13.452  12.072  72.374  1.00  0.00     0.060 C  
HETATM   46  O   UNL     1     -13.686  13.281  71.652  1.00  0.00    -0.271 OA 
HETATM   47  H   UNL     1     -14.065  13.943  72.218  1.00  0.00     0.000 HD 
ENDBRANCH  34  45
ENDBRANCH  31  32
ENDBRANCH  25  31
ENDBRANCH  16  17
ENDBRANCH   7  16
ENDBRANCH   2   5
TORSDOF 6
ENDMDL
MODEL      115
REMARK 921   NORMALIZED FREE ENERGY PREDICTED BY IDOCK:   -5.83 KCAL/MOL
REMARK 922        TOTAL FREE ENERGY PREDICTED BY IDOCK:   -8.93 KCAL/MOL
REMARK 923 INTER-LIGAND FREE ENERGY PREDICTED BY IDOCK:   -7.44 KCAL/MOL
REMARK 924 INTRA-LIGAND FREE ENERGY PREDICTED BY IDOCK:   -1.48 KCAL/MOL
REMARK 927      BINDING AFFINITY PREDICTED BY RF-SCORE:    0.00 PKD
ROOT
HETATM    1  N   UNL     1      -8.609   7.626  64.942  1.00  0.00    -0.369 NA 
HETATM    2  C   UNL     1      -9.004   7.639  66.358  1.00  0.00    -0.167 C  
HETATM    3  H2  UNL     1      -8.833   6.733  64.505  1.00  0.00     0.000 HD 
HETATM    4  H1  UNL     1      -9.014   8.403  64.421  1.00  0.00     0.000 HD 
ENDROOT
BRANCH   2   5
HETATM    5  C   UNL     1      -8.387   6.458  67.149  1.00  0.00    -0.112 C  
HETATM    6  O   UNL     1      -8.450   6.662  68.570  1.00  0.00    -0.121 OA 
HETATM    7  C   UNL     1      -9.753   6.616  69.128  1.00  0.00    -0.145 C  
HETATM    8  C   UNL     1     -10.387   5.207  68.886  1.00  0.00    -0.116 C  
HETATM    9  C   UNL     1      -8.996   5.100  66.751  1.00  0.00    -0.113 C  
HETATM   10  N   UNL     1      -9.687   4.132  69.622  1.00  0.00    -0.214 NA 
HETATM   11  C   UNL     1     -10.379   4.890  67.379  1.00  0.00    -0.127 C  
HETATM   12  H   UNL     1      -8.476   3.228  66.935  1.00  0.00     0.000 HD 
HETATM   13  H1  UNL     1     -10.100   3.212  69.464  1.00  0.00     0.000 HD 
HETATM   14  H2  UNL     1      -9.635   4.344  70.618  1.00  0.00     0.000 HD 
HETATM   15  O   UNL     1      -8.101   4.066  67.181  1.00  0.00    -0.095 OA 
BRANCH   7  16
HETATM   16  O   UNL     1      -9.699   6.884  70.539  1.00  0.00    -0.173 OA 
BRANCH  16  17
HETATM   17  C   UNL     1     -10.304   8.129  70.995  1.00  0.00    -0.195 C  
HETATM   18  N   UNL     1     -11.555   7.083  72.870  1.00  0.00    -0.528 NA 
HETATM   19  C   UNL     1     -12.281   9.256  72.098  1.00  0.00    -0.377 C  
HETATM   20  H1  UNL     1     -12.461   6.950  73.318  1.00  0.00     0.000 HD 
HETATM   21  H2  UNL     1     -10.864   7.453  73.523  1.00  0.00     0.000 HD 
HETATM   22  C   UNL     1     -12.450  10.202  70.908  1.00  0.00    -0.360 C  
HETATM   23  C   UNL     1     -11.676   7.928  71.671  1.00  0.00    -0.281 C  
HETATM   24  N   UNL     1     -13.153  11.385  71.433  1.00  0.00    -0.347 NA 
HETATM   25  C   UNL     1     -11.080  10.534  70.238  1.00  0.00    -0.285 C  
HETATM   26  H   UNL     1      -8.905  10.249  68.973  1.00  0.00     0.000 HD 
HETATM   27  H1  UNL     1     -13.266  12.016  70.639  1.00  0.00     0.000 HD 
HETATM   28  C   UNL     1     -10.294   9.231  69.898  1.00  0.00    -0.220 C  
HETATM   29  H2  UNL     1     -12.688  11.815  72.233  1.00  0.00     0.000 HD 
HETATM   30  O   UNL     1      -8.912   9.575  69.643  1.00  0.00    -0.159 OA 
BRANCH  25  31
HETATM   31  O   UNL     1     -11.222  11.268  68.982  1.00  0.00    -0.214 OA 
BRANCH  31  32
HETATM   32  C   UNL     1     -10.389  12.428  68.853  1.00  0.00    -0.049 C  
HETATM   33  O   UNL     1      -9.136  12.137  68.220  1.00  0.00    -0.193 OA 
HETATM   34  C   UNL     1      -9.276  11.789  66.833  1.00  0.00    -0.189 C  
HETATM   35  C   UNL     1      -9.899  12.953  66.046  1.00  0.00    -0.255 C  
HETATM   36  H   UNL     1     -12.866  14.535  68.312  1.00  0.00     0.000 HD 
HETATM   37  C   UNL     1     -11.281  13.305  66.630  1.00  0.00    -0.306 C  
HETATM   38  H1  UNL     1     -12.792  14.683  66.287  1.00  0.00     0.000 HD 
HETATM   39  O   UNL     1     -10.014  12.662  64.650  1.00  0.00    -0.471 OA 
HETATM   40  H   UNL     1     -10.399  13.382  64.164  1.00  0.00     0.000 HD 
HETATM   41  H2  UNL     1     -11.922  14.278  64.896  1.00  0.00     0.000 HD 
HETATM   42  C   UNL     1     -11.137  13.582  68.136  1.00  0.00    -0.257 C  
HETATM   43  N   UNL     1     -11.877  14.450  65.900  1.00  0.00    -0.374 NA 
HETATM   44  O   UNL     1     -12.408  13.828  68.751  1.00  0.00    -0.284 OA 
BRANCH  34  45
HETATM   45  C   UNL     1      -7.884  11.459  66.275  1.00  0.00    -0.015 C  
HETATM   46  O   UNL     1      -7.988  10.740  65.046  1.00  0.00    -0.333 OA 
HETATM   47  H   UNL     1      -7.127  10.536  64.701  1.00  0.00     0.000 HD 
ENDBRANCH  34  45
ENDBRANCH  31  32
ENDBRANCH  25  31
ENDBRANCH  16  17
ENDBRANCH   7  16
ENDBRANCH   2   5
TORSDOF 6
ENDMDL
MODEL      116
REMARK 921   NORMALIZED FREE ENERGY PREDICTED BY IDOCK:   -5.79 KCAL/MOL
REMARK 922        TOTAL FREE ENERGY PREDICTED BY IDOCK:   -8.88 KCAL/MOL
REMARK 923 INTER-LIGAND FREE ENERGY PREDICTED BY IDOCK:   -8.28 KCAL/MOL
REMARK 924 INTRA-LIGAND FREE ENERGY PREDICTED BY IDOCK:   -0.59 KCAL/MOL
REMARK 927      BINDING AFFINITY PREDICTED BY RF-SCORE:    0.00 PKD
ROOT
HETATM    1  N   UNL     1      -8.263   7.160  63.822  1.00  0.00    -0.346 NA 
HETATM    2  C   UNL     1      -8.514   7.699  65.167  1.00  0.00    -0.043 C  
HETATM    3  H2  UNL     1      -8.889   6.383  63.614  1.00  0.00     0.000 HD 
HETATM    4  H1  UNL     1      -8.317   7.879  63.102  1.00  0.00     0.000 HD 
ENDROOT
BRANCH   2   5
HETATM    5  C   UNL     1      -8.432   6.605  66.262  1.00  0.00    -0.130 C  
HETATM    6  O   UNL     1      -8.238   7.158  67.573  1.00  0.00    -0.115 OA 
HETATM    7  C   UNL     1      -9.345   7.877  68.093  1.00  0.00    -0.142 C  
HETATM    8  C   UNL     1     -10.580   6.928  68.226  1.00  0.00    -0.215 C  
HETATM    9  C   UNL     1      -9.640   5.648  66.231  1.00  0.00    -0.147 C  
HETATM   10  N   UNL     1     -10.382   5.870  69.240  1.00  0.00    -0.220 NA 
HETATM   11  C   UNL     1     -10.884   6.283  66.861  1.00  0.00    -0.428 C  
HETATM   12  H   UNL     1     -10.028   3.866  66.925  1.00  0.00     0.000 HD 
HETATM   13  H1  UNL     1     -11.188   5.250  69.327  1.00  0.00     0.000 HD 
HETATM   14  H2  UNL     1     -10.130   6.271  70.143  1.00  0.00     0.000 HD 
HETATM   15  O   UNL     1      -9.283   4.457  66.944  1.00  0.00    -0.123 OA 
BRANCH   7  16
HETATM   16  O   UNL     1      -9.019   8.427  69.381  1.00  0.00    -0.150 OA 
BRANCH  16  17
HETATM   17  C   UNL     1      -9.614   9.716  69.713  1.00  0.00    -0.219 C  
HETATM   18  N   UNL     1     -10.757   8.897  71.763  1.00  0.00    -0.341 NA 
HETATM   19  C   UNL     1     -11.545  10.957  70.773  1.00  0.00    -0.249 C  
HETATM   20  H1  UNL     1     -11.638   8.815  72.270  1.00  0.00     0.000 HD 
HETATM   21  H2  UNL     1     -10.038   9.347  72.330  1.00  0.00     0.000 HD 
HETATM   22  C   UNL     1     -11.785  11.751  69.489  1.00  0.00    -0.343 C  
HETATM   23  C   UNL     1     -10.948   9.591  70.479  1.00  0.00    -0.288 C  
HETATM   24  N   UNL     1     -12.474  12.986  69.902  1.00  0.00    -0.080 NA 
HETATM   25  C   UNL     1     -10.454  12.007  68.714  1.00  0.00    -0.183 C  
HETATM   26  H   UNL     1      -8.344  11.582  67.381  1.00  0.00     0.000 HD 
HETATM   27  H1  UNL     1     -12.634  13.515  69.045  1.00  0.00     0.000 HD 
HETATM   28  C   UNL     1      -9.672  10.677  68.493  1.00  0.00    -0.174 C  
HETATM   29  H2  UNL     1     -11.974  13.512  70.620  1.00  0.00     0.000 HD 
HETATM   30  O   UNL     1      -8.309  10.994  68.127  1.00  0.00    -0.119 OA 
BRANCH  25  31
HETATM   31  O   UNL     1     -10.668  12.584  67.387  1.00  0.00    -0.223 OA 
BRANCH  31  32
HETATM   32  C   UNL     1     -11.786  13.475  67.281  1.00  0.00    -0.383 C  
HETATM   33  O   UNL     1     -11.467  14.809  67.699  1.00  0.00    -0.323 OA 
HETATM   34  C   UNL     1     -10.549  15.470  66.813  1.00  0.00    -0.307 C  
HETATM   35  C   UNL     1     -11.152  15.590  65.405  1.00  0.00    -0.298 C  
HETATM   36  H   UNL     1     -13.026  12.097  64.554  1.00  0.00     0.000 HD 
HETATM   37  C   UNL     1     -11.483  14.191  64.851  1.00  0.00    -0.366 C  
HETATM   38  H1  UNL     1     -12.317  13.371  63.139  1.00  0.00     0.000 HD 
HETATM   39  O   UNL     1     -10.286  16.285  64.502  1.00  0.00    -0.445 OA 
HETATM   40  H   UNL     1     -10.659  16.359  63.632  1.00  0.00     0.000 HD 
HETATM   41  H2  UNL     1     -11.514  14.831  62.862  1.00  0.00     0.000 HD 
HETATM   42  C   UNL     1     -12.389  13.453  65.852  1.00  0.00    -0.437 C  
HETATM   43  N   UNL     1     -12.099  14.297  63.506  1.00  0.00    -0.399 NA 
HETATM   44  O   UNL     1     -12.657  12.110  65.430  1.00  0.00    -0.480 OA 
BRANCH  34  45
HETATM   45  C   UNL     1     -10.250  16.865  67.381  1.00  0.00    -0.298 C  
HETATM   46  O   UNL     1     -11.134  17.173  68.459  1.00  0.00    -0.270 OA 
HETATM   47  H   UNL     1     -10.949  18.036  68.810  1.00  0.00     0.000 HD 
ENDBRANCH  34  45
ENDBRANCH  31  32
ENDBRANCH  25  31
ENDBRANCH  16  17
ENDBRANCH   7  16
ENDBRANCH   2   5
TORSDOF 6
ENDMDL
MODEL      117
REMARK 921   NORMALIZED FREE ENERGY PREDICTED BY IDOCK:   -5.76 KCAL/MOL
REMARK 922        TOTAL FREE ENERGY PREDICTED BY IDOCK:   -8.84 KCAL/MOL
REMARK 923 INTER-LIGAND FREE ENERGY PREDICTED BY IDOCK:   -7.37 KCAL/MOL
REMARK 924 INTRA-LIGAND FREE ENERGY PREDICTED BY IDOCK:   -1.47 KCAL/MOL
REMARK 927      BINDING AFFINITY PREDICTED BY RF-SCORE:    0.00 PKD
ROOT
HETATM    1  N   UNL     1      -9.427  13.392  68.701  1.00  0.00    -0.392 NA 
HETATM    2  C   UNL     1     -10.613  13.812  67.939  1.00  0.00    -0.252 C  
HETATM    3  H2  UNL     1      -8.670  14.069  68.607  1.00  0.00     0.000 HD 
HETATM    4  H1  UNL     1      -9.641  13.214  69.682  1.00  0.00     0.000 HD 
ENDROOT
BRANCH   2   5
HETATM    5  C   UNL     1     -10.287  14.083  66.449  1.00  0.00    -0.289 C  
HETATM    6  O   UNL     1     -10.132  12.871  65.695  1.00  0.00    -0.279 OA 
HETATM    7  C   UNL     1     -11.323  12.124  65.505  1.00  0.00    -0.344 C  
HETATM    8  C   UNL     1     -12.364  12.975  64.706  1.00  0.00    -0.436 C  
HETATM    9  C   UNL     1     -11.306  15.030  65.785  1.00  0.00    -0.279 C  
HETATM   10  N   UNL     1     -11.933  13.248  63.318  1.00  0.00    -0.783 NA 
HETATM   11  C   UNL     1     -12.613  14.306  65.440  1.00  0.00    -0.422 C  
HETATM   12  H   UNL     1     -11.340  16.145  64.185  1.00  0.00     0.000 HD 
HETATM   13  H1  UNL     1     -12.612  13.804  62.796  1.00  0.00     0.000 HD 
HETATM   14  H2  UNL     1     -11.714  12.382  62.826  1.00  0.00     0.000 HD 
HETATM   15  O   UNL     1     -10.712  15.562  64.594  1.00  0.00    -0.370 OA 
BRANCH   7  16
HETATM   16  O   UNL     1     -11.040  10.911  64.786  1.00  0.00    -0.095 OA 
BRANCH  16  17
HETATM   17  C   UNL     1      -9.676  10.404  64.868  1.00  0.00    -0.309 C  
HETATM   18  N   UNL     1      -8.897  11.561  62.811  1.00  0.00    -0.614 NA 
HETATM   19  C   UNL     1      -7.591   9.696  63.625  1.00  0.00    -0.124 C  
HETATM   20  H1  UNL     1      -8.448  11.465  61.900  1.00  0.00     0.000 HD 
HETATM   21  H2  UNL     1      -8.424  12.253  63.392  1.00  0.00     0.000 HD 
HETATM   22  C   UNL     1      -7.597   8.334  64.319  1.00  0.00    -0.122 C  
HETATM   23  C   UNL     1      -8.996  10.259  63.490  1.00  0.00    -0.242 C  
HETATM   24  N   UNL     1      -6.206   7.851  64.271  1.00  0.00    -0.056 NA 
HETATM   25  C   UNL     1      -8.177   8.428  65.765  1.00  0.00    -0.131 C  
HETATM   26  H   UNL     1      -9.812   8.768  67.668  1.00  0.00     0.000 HD 
HETATM   27  H1  UNL     1      -6.211   6.942  64.733  1.00  0.00     0.000 HD 
HETATM   28  C   UNL     1      -9.564   9.140  65.766  1.00  0.00    -0.253 C  
HETATM   29  H2  UNL     1      -5.532   8.508  64.667  1.00  0.00     0.000 HD 
HETATM   30  O   UNL     1      -9.881   9.541  67.120  1.00  0.00    -0.165 OA 
BRANCH  25  31
HETATM   31  O   UNL     1      -8.386   7.119  66.382  1.00  0.00    -0.114 OA 
BRANCH  31  32
HETATM   32  C   UNL     1      -7.495   6.800  67.459  1.00  0.00    -0.097 C  
HETATM   33  O   UNL     1      -8.052   7.105  68.744  1.00  0.00    -0.118 OA 
HETATM   34  C   UNL     1      -9.158   6.256  69.091  1.00  0.00    -0.130 C  
HETATM   35  C   UNL     1      -8.711   4.787  69.151  1.00  0.00    -0.087 C  
HETATM   36  H   UNL     1      -6.219   4.120  66.024  1.00  0.00     0.000 HD 
HETATM   37  C   UNL     1      -8.139   4.354  67.787  1.00  0.00    -0.095 C  
HETATM   38  H1  UNL     1      -7.293   2.660  66.941  1.00  0.00     0.000 HD 
HETATM   39  O   UNL     1      -9.775   3.913  69.539  1.00  0.00    -0.199 OA 
HETATM   40  H   UNL     1      -9.498   3.005  69.575  1.00  0.00     0.000 HD 
HETATM   41  H2  UNL     1      -8.406   2.316  68.164  1.00  0.00     0.000 HD 
HETATM   42  C   UNL     1      -7.019   5.326  67.378  1.00  0.00    -0.065 C  
HETATM   43  N   UNL     1      -7.672   2.947  67.844  1.00  0.00    -0.056 NA 
HETATM   44  O   UNL     1      -6.510   5.023  66.073  1.00  0.00    -0.038 OA 
BRANCH  34  45
HETATM   45  C   UNL     1      -9.697   6.701  70.458  1.00  0.00    -0.176 C  
HETATM   46  O   UNL     1     -10.630   5.748  70.969  1.00  0.00    -0.231 OA 
HETATM   47  H   UNL     1     -10.963   6.023  71.815  1.00  0.00     0.000 HD 
ENDBRANCH  34  45
ENDBRANCH  31  32
ENDBRANCH  25  31
ENDBRANCH  16  17
ENDBRANCH   7  16
ENDBRANCH   2   5
TORSDOF 6
ENDMDL
MODEL      118
REMARK 921   NORMALIZED FREE ENERGY PREDICTED BY IDOCK:   -5.75 KCAL/MOL
REMARK 922        TOTAL FREE ENERGY PREDICTED BY IDOCK:   -8.83 KCAL/MOL
REMARK 923 INTER-LIGAND FREE ENERGY PREDICTED BY IDOCK:   -7.25 KCAL/MOL
REMARK 924 INTRA-LIGAND FREE ENERGY PREDICTED BY IDOCK:   -1.58 KCAL/MOL
REMARK 927      BINDING AFFINITY PREDICTED BY RF-SCORE:    0.00 PKD
ROOT
HETATM    1  N   UNL     1      -6.241  12.803  68.172  1.00  0.00    -0.078 NA 
HETATM    2  C   UNL     1      -6.483  11.906  67.033  1.00  0.00    -0.136 C  
HETATM    3  H2  UNL     1      -5.876  12.290  68.974  1.00  0.00     0.000 HD 
HETATM    4  H1  UNL     1      -5.633  13.583  67.927  1.00  0.00     0.000 HD 
ENDROOT
BRANCH   2   5
HETATM    5  C   UNL     1      -7.408  10.720  67.407  1.00  0.00    -0.094 C  
HETATM    6  O   UNL     1      -8.767  11.134  67.621  1.00  0.00    -0.127 OA 
HETATM    7  C   UNL     1      -9.456  11.564  66.457  1.00  0.00    -0.204 C  
HETATM    8  C   UNL     1      -9.540  10.392  65.425  1.00  0.00    -0.246 C  
HETATM    9  C   UNL     1      -7.328   9.566  66.389  1.00  0.00    -0.093 C  
HETATM   10  N   UNL     1     -10.382   9.272  65.900  1.00  0.00    -0.211 NA 
HETATM   11  C   UNL     1      -8.123   9.875  65.115  1.00  0.00    -0.138 C  
HETATM   12  H   UNL     1      -7.794   7.671  66.385  1.00  0.00     0.000 HD 
HETATM   13  H1  UNL     1     -10.438   8.507  65.226  1.00  0.00     0.000 HD 
HETATM   14  H2  UNL     1     -11.313   9.599  66.159  1.00  0.00     0.000 HD 
HETATM   15  O   UNL     1      -7.844   8.383  67.013  1.00  0.00    -0.094 OA 
BRANCH   7  16
HETATM   16  O   UNL     1     -10.782  12.002  66.798  1.00  0.00    -0.227 OA 
BRANCH  16  17
HETATM   17  C   UNL     1     -11.102  13.398  66.528  1.00  0.00    -0.297 C  
HETATM   18  N   UNL     1     -12.097  12.957  64.293  1.00  0.00    -0.393 NA 
HETATM   19  C   UNL     1     -11.396  15.216  64.795  1.00  0.00    -0.399 C  
HETATM   20  H1  UNL     1     -12.090  13.186  63.300  1.00  0.00     0.000 HD 
HETATM   21  H2  UNL     1     -13.026  13.066  64.698  1.00  0.00     0.000 HD 
HETATM   22  C   UNL     1     -10.392  16.115  65.517  1.00  0.00    -0.367 C  
HETATM   23  C   UNL     1     -11.091  13.744  65.024  1.00  0.00    -0.346 C  
HETATM   24  N   UNL     1     -10.723  17.492  65.113  1.00  0.00    -0.595 NA 
HETATM   25  C   UNL     1     -10.426  15.891  67.062  1.00  0.00    -0.306 C  
HETATM   26  H   UNL     1     -10.187  14.774  69.321  1.00  0.00     0.000 HD 
HETATM   27  H1  UNL     1     -10.053  18.092  65.595  1.00  0.00     0.000 HD 
HETATM   28  C   UNL     1     -10.279  14.378  67.410  1.00  0.00    -0.247 C  
HETATM   29  H2  UNL     1     -11.696  17.746  65.287  1.00  0.00     0.000 HD 
HETATM   30  O   UNL     1     -10.690  14.175  68.782  1.00  0.00    -0.245 OA 
BRANCH  25  31
HETATM   31  O   UNL     1      -9.344  16.581  67.763  1.00  0.00    -0.209 OA 
BRANCH  31  32
HETATM   32  C   UNL     1      -8.021  16.153  67.417  1.00  0.00    -0.160 C  
HETATM   33  O   UNL     1      -7.397  17.015  66.456  1.00  0.00    -0.228 OA 
HETATM   34  C   UNL     1      -7.097  18.318  66.983  1.00  0.00    -0.196 C  
HETATM   35  C   UNL     1      -6.120  18.208  68.165  1.00  0.00    -0.177 C  
HETATM   36  H   UNL     1      -7.257  15.040  70.424  1.00  0.00     0.000 HD 
HETATM   37  C   UNL     1      -6.731  17.333  69.276  1.00  0.00    -0.230 C  
HETATM   38  H1  UNL     1      -6.188  16.611  71.142  1.00  0.00     0.000 HD 
HETATM   39  O   UNL     1      -5.759  19.489  68.690  1.00  0.00    -0.203 OA 
HETATM   40  H   UNL     1      -5.156  19.421  69.420  1.00  0.00     0.000 HD 
HETATM   41  H2  UNL     1      -5.479  18.097  70.762  1.00  0.00     0.000 HD 
HETATM   42  C   UNL     1      -7.139  15.974  68.680  1.00  0.00    -0.136 C  
HETATM   43  N   UNL     1      -5.783  17.191  70.407  1.00  0.00    -0.186 NA 
HETATM   44  O   UNL     1      -7.797  15.150  69.651  1.00  0.00    -0.213 OA 
BRANCH  34  45
HETATM   45  C   UNL     1      -6.475  19.162  65.861  1.00  0.00    -0.225 C  
HETATM   46  O   UNL     1      -7.487  19.673  64.993  1.00  0.00    -0.237 OA 
HETATM   47  H   UNL     1      -7.102  20.195  64.299  1.00  0.00     0.000 HD 
ENDBRANCH  34  45
ENDBRANCH  31  32
ENDBRANCH  25  31
ENDBRANCH  16  17
ENDBRANCH   7  16
ENDBRANCH   2   5
TORSDOF 6
ENDMDL
MODEL      119
REMARK 921   NORMALIZED FREE ENERGY PREDICTED BY IDOCK:   -5.75 KCAL/MOL
REMARK 922        TOTAL FREE ENERGY PREDICTED BY IDOCK:   -8.82 KCAL/MOL
REMARK 923 INTER-LIGAND FREE ENERGY PREDICTED BY IDOCK:   -6.99 KCAL/MOL
REMARK 924 INTRA-LIGAND FREE ENERGY PREDICTED BY IDOCK:   -1.83 KCAL/MOL
REMARK 927      BINDING AFFINITY PREDICTED BY RF-SCORE:    0.00 PKD
ROOT
HETATM    1  N   UNL     1      -7.966   4.235  64.876  1.00  0.00    -0.092 NA 
HETATM    2  C   UNL     1      -8.846   4.514  66.021  1.00  0.00    -0.119 C  
HETATM    3  H2  UNL     1      -7.349   3.446  65.070  1.00  0.00     0.000 HD 
HETATM    4  H1  UNL     1      -8.488   4.090  64.013  1.00  0.00     0.000 HD 
ENDROOT
BRANCH   2   5
HETATM    5  C   UNL     1      -8.051   4.733  67.332  1.00  0.00    -0.102 C  
HETATM    6  O   UNL     1      -8.477   5.909  68.039  1.00  0.00    -0.111 OA 
HETATM    7  C   UNL     1      -9.776   5.833  68.604  1.00  0.00    -0.131 C  
HETATM    8  C   UNL     1      -9.833   4.678  69.656  1.00  0.00    -0.223 C  
HETATM    9  C   UNL     1      -8.068   3.493  68.247  1.00  0.00    -0.074 C  
HETATM   10  N   UNL     1      -8.984   4.941  70.839  1.00  0.00    -0.129 NA 
HETATM   11  C   UNL     1      -9.400   3.357  68.995  1.00  0.00    -0.239 C  
HETATM   12  H   UNL     1      -7.001   2.849  69.748  1.00  0.00     0.000 HD 
HETATM   13  H1  UNL     1      -9.021   4.187  71.526  1.00  0.00     0.000 HD 
HETATM   14  H2  UNL     1      -9.219   5.836  71.266  1.00  0.00     0.000 HD 
HETATM   15  O   UNL     1      -6.991   3.614  69.184  1.00  0.00    -0.044 OA 
BRANCH   7  16
HETATM   16  O   UNL     1     -10.115   7.079  69.238  1.00  0.00    -0.166 OA 
BRANCH  16  17
HETATM   17  C   UNL     1      -9.239   8.212  68.968  1.00  0.00    -0.148 C  
HETATM   18  N   UNL     1      -7.629   7.669  70.781  1.00  0.00    -0.079 NA 
HETATM   19  C   UNL     1      -7.622   9.919  69.897  1.00  0.00    -0.167 C  
HETATM   20  H1  UNL     1      -7.137   8.004  71.609  1.00  0.00     0.000 HD 
HETATM   21  H2  UNL     1      -6.982   7.304  70.082  1.00  0.00     0.000 HD 
HETATM   22  C   UNL     1      -8.444  11.068  69.311  1.00  0.00     0.065 C  
HETATM   23  C   UNL     1      -8.495   8.719  70.221  1.00  0.00    -0.149 C  
HETATM   24  N   UNL     1      -7.509  12.197  69.163  1.00  0.00    -0.329 NA 
HETATM   25  C   UNL     1      -9.142  10.655  67.977  1.00  0.00    -0.147 C  
HETATM   26  H   UNL     1     -10.684   9.477  66.351  1.00  0.00     0.000 HD 
HETATM   27  H1  UNL     1      -8.058  12.963  68.773  1.00  0.00     0.000 HD 
HETATM   28  C   UNL     1      -9.948   9.332  68.156  1.00  0.00    -0.177 C  
HETATM   29  H2  UNL     1      -6.678  11.969  68.616  1.00  0.00     0.000 HD 
HETATM   30  O   UNL     1     -10.252   8.792  66.848  1.00  0.00    -0.249 OA 
BRANCH  25  31
HETATM   31  O   UNL     1     -10.094  11.655  67.497  1.00  0.00    -0.188 OA 
BRANCH  31  32
HETATM   32  C   UNL     1      -9.689  12.372  66.324  1.00  0.00    -0.246 C  
HETATM   33  O   UNL     1     -10.428  11.982  65.159  1.00  0.00    -0.268 OA 
HETATM   34  C   UNL     1     -11.809  12.375  65.214  1.00  0.00    -0.399 C  
HETATM   35  C   UNL     1     -11.930  13.904  65.312  1.00  0.00    -0.375 C  
HETATM   36  H   UNL     1      -9.084  15.211  67.885  1.00  0.00     0.000 HD 
HETATM   37  C   UNL     1     -11.201  14.411  66.571  1.00  0.00    -0.340 C  
HETATM   38  H1  UNL     1     -10.800  16.225  67.491  1.00  0.00     0.000 HD 
HETATM   39  O   UNL     1     -13.293  14.339  65.322  1.00  0.00    -0.660 OA 
HETATM   40  H   UNL     1     -13.368  15.284  65.384  1.00  0.00     0.000 HD 
HETATM   41  H2  UNL     1     -12.246  16.220  66.619  1.00  0.00     0.000 HD 
HETATM   42  C   UNL     1      -9.749  13.905  66.552  1.00  0.00    -0.294 C  
HETATM   43  N   UNL     1     -11.282  15.889  66.657  1.00  0.00    -0.041 NA 
HETATM   44  O   UNL     1      -9.047  14.273  67.746  1.00  0.00    -0.182 OA 
BRANCH  34  45
HETATM   45  C   UNL     1     -12.505  11.870  63.941  1.00  0.00    -0.371 C  
HETATM   46  O   UNL     1     -11.549  11.583  62.921  1.00  0.00    -0.810 OA 
HETATM   47  H   UNL     1     -11.980  11.271  62.134  1.00  0.00     0.000 HD 
ENDBRANCH  34  45
ENDBRANCH  31  32
ENDBRANCH  25  31
ENDBRANCH  16  17
ENDBRANCH   7  16
ENDBRANCH   2   5
TORSDOF 6
ENDMDL
MODEL      120
REMARK 921   NORMALIZED FREE ENERGY PREDICTED BY IDOCK:   -5.74 KCAL/MOL
REMARK 922        TOTAL FREE ENERGY PREDICTED BY IDOCK:   -8.81 KCAL/MOL
REMARK 923 INTER-LIGAND FREE ENERGY PREDICTED BY IDOCK:   -7.60 KCAL/MOL
REMARK 924 INTRA-LIGAND FREE ENERGY PREDICTED BY IDOCK:   -1.21 KCAL/MOL
REMARK 927      BINDING AFFINITY PREDICTED BY RF-SCORE:    0.00 PKD
ROOT
HETATM    1  N   UNL     1     -12.557  14.291  69.253  1.00  0.00    -0.483 NA 
HETATM    2  C   UNL     1     -11.198  13.882  68.871  1.00  0.00    -0.271 C  
HETATM    3  H2  UNL     1     -13.233  14.042  68.532  1.00  0.00     0.000 HD 
HETATM    4  H1  UNL     1     -12.833  13.917  70.161  1.00  0.00     0.000 HD 
ENDROOT
BRANCH   2   5
HETATM    5  C   UNL     1     -10.779  14.451  67.492  1.00  0.00    -0.271 C  
HETATM    6  O   UNL     1      -9.551  13.879  67.015  1.00  0.00    -0.237 OA 
HETATM    7  C   UNL     1      -9.627  12.510  66.650  1.00  0.00    -0.239 C  
HETATM    8  C   UNL     1     -10.648  12.327  65.480  1.00  0.00    -0.269 C  
HETATM    9  C   UNL     1     -11.900  14.331  66.440  1.00  0.00    -0.411 C  
HETATM   10  N   UNL     1     -10.200  12.968  64.224  1.00  0.00    -0.586 NA 
HETATM   11  C   UNL     1     -12.015  12.903  65.894  1.00  0.00    -0.504 C  
HETATM   12  H   UNL     1     -12.299  15.168  64.724  1.00  0.00     0.000 HD 
HETATM   13  H1  UNL     1     -10.866  12.848  63.461  1.00  0.00     0.000 HD 
HETATM   14  H2  UNL     1      -9.273  12.638  63.956  1.00  0.00     0.000 HD 
HETATM   15  O   UNL     1     -11.609  15.242  65.372  1.00  0.00    -0.243 OA 
BRANCH   7  16
HETATM   16  O   UNL     1      -8.334  12.033  66.240  1.00  0.00    -0.027 OA 
BRANCH  16  17
HETATM   17  C   UNL     1      -8.155  10.588  66.187  1.00  0.00    -0.145 C  
HETATM   18  N   UNL     1      -8.005  10.485  63.709  1.00  0.00    -0.333 NA 
HETATM   19  C   UNL     1      -8.522   8.444  64.898  1.00  0.00    -0.141 C  
HETATM   20  H1  UNL     1      -8.366  10.065  62.852  1.00  0.00     0.000 HD 
HETATM   21  H2  UNL     1      -6.994  10.371  63.785  1.00  0.00     0.000 HD 
HETATM   22  C   UNL     1      -9.222   7.802  66.097  1.00  0.00    -0.128 C  
HETATM   23  C   UNL     1      -8.701   9.953  64.891  1.00  0.00    -0.176 C  
HETATM   24  N   UNL     1      -9.078   6.347  65.914  1.00  0.00    -0.311 NA 
HETATM   25  C   UNL     1      -8.640   8.323  67.449  1.00  0.00    -0.125 C  
HETATM   26  H   UNL     1      -8.047   9.882  69.353  1.00  0.00     0.000 HD 
HETATM   27  H1  UNL     1      -9.545   5.920  66.713  1.00  0.00     0.000 HD 
HETATM   28  C   UNL     1      -8.630   9.882  67.488  1.00  0.00    -0.122 C  
HETATM   29  H2  UNL     1      -8.111   6.044  65.796  1.00  0.00     0.000 HD 
HETATM   30  O   UNL     1      -7.757  10.314  68.558  1.00  0.00    -0.086 OA 
BRANCH  25  31
HETATM   31  O   UNL     1      -9.417   7.888  68.609  1.00  0.00    -0.149 OA 
BRANCH  31  32
HETATM   32  C   UNL     1      -8.644   7.405  69.715  1.00  0.00    -0.140 C  
HETATM   33  O   UNL     1      -9.052   7.978  70.964  1.00  0.00    -0.143 OA 
HETATM   34  C   UNL     1     -10.359   7.547  71.379  1.00  0.00    -0.194 C  
HETATM   35  C   UNL     1     -10.386   6.023  71.573  1.00  0.00    -0.214 C  
HETATM   36  H   UNL     1      -8.288   4.346  68.536  1.00  0.00     0.000 HD 
HETATM   37  C   UNL     1     -10.004   5.316  70.258  1.00  0.00    -0.240 C  
HETATM   38  H1  UNL     1      -9.741   3.377  69.573  1.00  0.00     0.000 HD 
HETATM   39  O   UNL     1     -11.659   5.558  72.031  1.00  0.00    -0.148 OA 
HETATM   40  H   UNL     1     -11.675   4.616  72.151  1.00  0.00     0.000 HD 
HETATM   41  H2  UNL     1     -10.879   3.502  70.815  1.00  0.00     0.000 HD 
HETATM   42  C   UNL     1      -8.648   5.854  69.771  1.00  0.00    -0.129 C  
HETATM   43  N   UNL     1      -9.993   3.845  70.444  1.00  0.00    -0.092 NA 
HETATM   44  O   UNL     1      -8.285   5.296  68.502  1.00  0.00    -0.090 OA 
BRANCH  34  45
HETATM   45  C   UNL     1     -10.705   8.254  72.697  1.00  0.00    -0.314 C  
HETATM   46  O   UNL     1     -12.090   8.100  73.006  1.00  0.00    -0.640 OA 
HETATM   47  H   UNL     1     -12.304   8.538  73.821  1.00  0.00     0.000 HD 
ENDBRANCH  34  45
ENDBRANCH  31  32
ENDBRANCH  25  31
ENDBRANCH  16  17
ENDBRANCH   7  16
ENDBRANCH   2   5
TORSDOF 6
ENDMDL
MODEL      121
REMARK 921   NORMALIZED FREE ENERGY PREDICTED BY IDOCK:   -5.73 KCAL/MOL
REMARK 922        TOTAL FREE ENERGY PREDICTED BY IDOCK:   -8.80 KCAL/MOL
REMARK 923 INTER-LIGAND FREE ENERGY PREDICTED BY IDOCK:   -7.96 KCAL/MOL
REMARK 924 INTRA-LIGAND FREE ENERGY PREDICTED BY IDOCK:   -0.84 KCAL/MOL
REMARK 927      BINDING AFFINITY PREDICTED BY RF-SCORE:    0.00 PKD
ROOT
HETATM    1  N   UNL     1     -10.535   4.354  73.585  1.00  0.00    -0.187 NA 
HETATM    2  C   UNL     1     -10.979   5.591  72.926  1.00  0.00    -0.285 C  
HETATM    3  H2  UNL     1      -9.605   4.081  73.267  1.00  0.00     0.000 HD 
HETATM    4  H1  UNL     1     -10.570   4.424  74.602  1.00  0.00     0.000 HD 
ENDROOT
BRANCH   2   5
HETATM    5  C   UNL     1     -10.925   5.485  71.381  1.00  0.00    -0.137 C  
HETATM    6  O   UNL     1     -11.702   6.507  70.736  1.00  0.00    -0.361 OA 
HETATM    7  C   UNL     1     -11.188   7.823  70.863  1.00  0.00    -0.271 C  
HETATM    8  C   UNL     1      -9.771   7.907  70.206  1.00  0.00    -0.183 C  
HETATM    9  C   UNL     1      -9.481   5.454  70.843  1.00  0.00    -0.167 C  
HETATM   10  N   UNL     1      -9.809   7.718  68.740  1.00  0.00    -0.165 NA 
HETATM   11  C   UNL     1      -8.847   6.850  70.839  1.00  0.00    -0.149 C  
HETATM   12  H   UNL     1      -8.623   4.908  69.178  1.00  0.00     0.000 HD 
HETATM   13  H1  UNL     1      -8.884   7.773  68.311  1.00  0.00     0.000 HD 
HETATM   14  H2  UNL     1     -10.454   8.376  68.303  1.00  0.00     0.000 HD 
HETATM   15  O   UNL     1      -9.513   4.927  69.510  1.00  0.00    -0.121 OA 
BRANCH   7  16
HETATM   16  O   UNL     1     -12.070   8.763  70.226  1.00  0.00     0.103 OA 
BRANCH  16  17
HETATM   17  C   UNL     1     -12.027  10.136  70.714  1.00  0.00    -0.348 C  
HETATM   18  N   UNL     1     -13.535   9.721  72.645  1.00  0.00    -0.599 NA 
HETATM   19  C   UNL     1     -13.233  12.006  71.915  1.00  0.00    -0.469 C  
HETATM   20  H1  UNL     1     -14.384  10.001  73.136  1.00  0.00     0.000 HD 
HETATM   21  H2  UNL     1     -12.725   9.724  73.265  1.00  0.00     0.000 HD 
HETATM   22  C   UNL     1     -13.006  12.955  70.738  1.00  0.00     0.059 C  
HETATM   23  C   UNL     1     -13.312  10.559  71.456  1.00  0.00    -0.290 C  
HETATM   24  N   UNL     1     -13.076  14.316  71.299  1.00  0.00    -0.344 NA 
HETATM   25  C   UNL     1     -11.663  12.650  70.003  1.00  0.00    -0.215 C  
HETATM   26  H   UNL     1      -9.909  11.445  68.632  1.00  0.00     0.000 HD 
HETATM   27  H1  UNL     1     -12.925  14.949  70.513  1.00  0.00     0.000 HD 
HETATM   28  C   UNL     1     -11.566  11.141  69.621  1.00  0.00    -0.326 C  
HETATM   29  H2  UNL     1     -12.433  14.470  72.077  1.00  0.00     0.000 HD 
HETATM   30  O   UNL     1     -10.190  10.830  69.299  1.00  0.00    -0.218 OA 
BRANCH  25  31
HETATM   31  O   UNL     1     -11.512  13.400  68.757  1.00  0.00    -0.261 OA 
BRANCH  31  32
HETATM   32  C   UNL     1     -10.208  13.950  68.529  1.00  0.00    -0.240 C  
HETATM   33  O   UNL     1      -9.294  12.991  67.980  1.00  0.00    -0.200 OA 
HETATM   34  C   UNL     1      -9.628  12.602  66.637  1.00  0.00    -0.249 C  
HETATM   35  C   UNL     1      -9.591  13.820  65.701  1.00  0.00    -0.012 C  
HETATM   36  H   UNL     1     -11.278  16.944  67.658  1.00  0.00     0.000 HD 
HETATM   37  C   UNL     1     -10.585  14.892  66.188  1.00  0.00    -0.318 C  
HETATM   38  H1  UNL     1     -11.191  16.796  65.634  1.00  0.00     0.000 HD 
HETATM   39  O   UNL     1      -9.873  13.468  64.343  1.00  0.00    -0.659 OA 
HETATM   40  H   UNL     1      -9.850  14.221  63.765  1.00  0.00     0.000 HD 
HETATM   41  H2  UNL     1     -10.685  15.845  64.332  1.00  0.00     0.000 HD 
HETATM   42  C   UNL     1     -10.281  15.231  67.658  1.00  0.00    -0.242 C  
HETATM   43  N   UNL     1     -10.532  16.086  65.311  1.00  0.00    -0.531 NA 
HETATM   44  O   UNL     1     -11.233  16.159  68.192  1.00  0.00    -0.347 OA 
BRANCH  34  45
HETATM   45  C   UNL     1      -8.613  11.548  66.173  1.00  0.00    -0.094 C  
HETATM   46  O   UNL     1      -8.607  10.427  67.057  1.00  0.00    -0.129 OA 
HETATM   47  H   UNL     1      -7.980   9.775  66.770  1.00  0.00     0.000 HD 
ENDBRANCH  34  45
ENDBRANCH  31  32
ENDBRANCH  25  31
ENDBRANCH  16  17
ENDBRANCH   7  16
ENDBRANCH   2   5
TORSDOF 6
ENDMDL
MODEL      122
REMARK 921   NORMALIZED FREE ENERGY PREDICTED BY IDOCK:   -5.69 KCAL/MOL
REMARK 922        TOTAL FREE ENERGY PREDICTED BY IDOCK:   -8.74 KCAL/MOL
REMARK 923 INTER-LIGAND FREE ENERGY PREDICTED BY IDOCK:   -6.94 KCAL/MOL
REMARK 924 INTRA-LIGAND FREE ENERGY PREDICTED BY IDOCK:   -1.80 KCAL/MOL
REMARK 927      BINDING AFFINITY PREDICTED BY RF-SCORE:    0.00 PKD
ROOT
HETATM    1  N   UNL     1     -10.916  14.260  69.704  1.00  0.00    -0.419 NA 
HETATM    2  C   UNL     1     -11.673  14.235  68.444  1.00  0.00    -0.338 C  
HETATM    3  H2  UNL     1     -10.145  14.925  69.658  1.00  0.00     0.000 HD 
HETATM    4  H1  UNL     1     -11.514  14.443  70.509  1.00  0.00     0.000 HD 
ENDROOT
BRANCH   2   5
HETATM    5  C   UNL     1     -10.765  13.956  67.219  1.00  0.00    -0.284 C  
HETATM    6  O   UNL     1     -10.485  12.557  67.055  1.00  0.00    -0.229 OA 
HETATM    7  C   UNL     1     -11.594  11.763  66.665  1.00  0.00    -0.197 C  
HETATM    8  C   UNL     1     -12.128  12.241  65.275  1.00  0.00    -0.297 C  
HETATM    9  C   UNL     1     -11.320  14.573  65.921  1.00  0.00    -0.341 C  
HETATM   10  N   UNL     1     -11.163  12.004  64.179  1.00  0.00    -0.347 NA 
HETATM   11  C   UNL     1     -12.472  13.741  65.344  1.00  0.00    -0.532 C  
HETATM   12  H   UNL     1     -10.592  15.032  64.170  1.00  0.00     0.000 HD 
HETATM   13  H1  UNL     1     -11.512  12.316  63.272  1.00  0.00     0.000 HD 
HETATM   14  H2  UNL     1     -10.882  11.025  64.146  1.00  0.00     0.000 HD 
HETATM   15  O   UNL     1     -10.250  14.652  64.971  1.00  0.00    -0.401 OA 
BRANCH   7  16
HETATM   16  O   UNL     1     -11.209  10.380  66.583  1.00  0.00    -0.038 OA 
BRANCH  16  17
HETATM   17  C   UNL     1      -9.908  10.027  67.137  1.00  0.00    -0.185 C  
HETATM   18  N   UNL     1      -8.605  11.094  65.309  1.00  0.00    -0.379 NA 
HETATM   19  C   UNL     1      -7.489   9.447  66.683  1.00  0.00    -0.093 C  
HETATM   20  H1  UNL     1      -7.883  10.975  64.598  1.00  0.00     0.000 HD 
HETATM   21  H2  UNL     1      -8.395  11.876  65.930  1.00  0.00     0.000 HD 
HETATM   22  C   UNL     1      -7.614   8.150  67.483  1.00  0.00    -0.101 C  
HETATM   23  C   UNL     1      -8.817   9.847  66.061  1.00  0.00    -0.146 C  
HETATM   24  N   UNL     1      -6.248   7.814  67.920  1.00  0.00    -0.048 NA 
HETATM   25  C   UNL     1      -8.629   8.295  68.661  1.00  0.00    -0.133 C  
HETATM   26  H   UNL     1     -10.805   8.611  69.916  1.00  0.00     0.000 HD 
HETATM   27  H1  UNL     1      -6.331   6.948  68.453  1.00  0.00     0.000 HD 
HETATM   28  C   UNL     1      -9.993   8.856  68.155  1.00  0.00    -0.176 C  
HETATM   29  H2  UNL     1      -5.786   8.566  68.432  1.00  0.00     0.000 HD 
HETATM   30  O   UNL     1     -10.753   9.326  69.293  1.00  0.00    -0.225 OA 
BRANCH  25  31
HETATM   31  O   UNL     1      -8.925   7.024  69.319  1.00  0.00    -0.138 OA 
BRANCH  31  32
HETATM   32  C   UNL     1      -8.309   6.841  70.601  1.00  0.00    -0.129 C  
HETATM   33  O   UNL     1      -9.026   7.498  71.654  1.00  0.00    -0.123 OA 
HETATM   34  C   UNL     1     -10.307   6.902  71.918  1.00  0.00    -0.189 C  
HETATM   35  C   UNL     1     -10.140   5.439  72.355  1.00  0.00    -0.182 C  
HETATM   36  H   UNL     1      -7.282   3.763  70.018  1.00  0.00     0.000 HD 
HETATM   37  C   UNL     1      -9.416   4.638  71.255  1.00  0.00    -0.158 C  
HETATM   38  H1  UNL     1      -8.740   2.701  70.952  1.00  0.00     0.000 HD 
HETATM   39  O   UNL     1     -11.391   4.821  72.671  1.00  0.00    -0.129 OA 
HETATM   40  H   UNL     1     -11.287   3.917  72.941  1.00  0.00     0.000 HD 
HETATM   41  H2  UNL     1     -10.096   2.791  71.955  1.00  0.00     0.000 HD 
HETATM   42  C   UNL     1      -8.090   5.337  70.911  1.00  0.00    -0.107 C  
HETATM   43  N   UNL     1      -9.218   3.231  71.681  1.00  0.00    -0.107 NA 
HETATM   44  O   UNL     1      -7.416   4.684  69.828  1.00  0.00    -0.053 OA 
BRANCH  34  45
HETATM   45  C   UNL     1     -10.996   7.710  73.026  1.00  0.00    -0.400 C  
HETATM   46  O   UNL     1     -12.409   7.506  72.998  1.00  0.00    -0.316 OA 
HETATM   47  H   UNL     1     -12.836   8.005  73.684  1.00  0.00     0.000 HD 
ENDBRANCH  34  45
ENDBRANCH  31  32
ENDBRANCH  25  31
ENDBRANCH  16  17
ENDBRANCH   7  16
ENDBRANCH   2   5
TORSDOF 6
ENDMDL
MODEL      123
REMARK 921   NORMALIZED FREE ENERGY PREDICTED BY IDOCK:   -5.65 KCAL/MOL
REMARK 922        TOTAL FREE ENERGY PREDICTED BY IDOCK:   -8.68 KCAL/MOL
REMARK 923 INTER-LIGAND FREE ENERGY PREDICTED BY IDOCK:   -7.53 KCAL/MOL
REMARK 924 INTRA-LIGAND FREE ENERGY PREDICTED BY IDOCK:   -1.15 KCAL/MOL
REMARK 927      BINDING AFFINITY PREDICTED BY RF-SCORE:    0.00 PKD
ROOT
HETATM    1  N   UNL     1      -9.984  12.609  63.334  1.00  0.00    -0.645 NA 
HETATM    2  C   UNL     1     -10.654  11.569  64.127  1.00  0.00    -0.363 C  
HETATM    3  H2  UNL     1      -9.692  13.390  63.921  1.00  0.00     0.000 HD 
HETATM    4  H1  UNL     1      -9.200  12.240  62.796  1.00  0.00     0.000 HD 
ENDROOT
BRANCH   2   5
HETATM    5  C   UNL     1     -11.845  12.130  64.944  1.00  0.00    -0.302 C  
HETATM    6  O   UNL     1     -11.740  11.824  66.344  1.00  0.00    -0.511 OA 
HETATM    7  C   UNL     1     -10.695  12.494  67.030  1.00  0.00    -0.242 C  
HETATM    8  C   UNL     1     -10.920  14.040  66.964  1.00  0.00    -0.297 C  
HETATM    9  C   UNL     1     -12.057  13.640  64.716  1.00  0.00    -0.402 C  
HETATM   10  N   UNL     1     -12.122  14.475  67.708  1.00  0.00    -0.598 NA 
HETATM   11  C   UNL     1     -11.037  14.481  65.493  1.00  0.00    -0.339 C  
HETATM   12  H   UNL     1     -13.518  14.903  64.994  1.00  0.00     0.000 HD 
HETATM   13  H1  UNL     1     -12.269  15.484  67.665  1.00  0.00     0.000 HD 
HETATM   14  H2  UNL     1     -12.090  14.151  68.674  1.00  0.00     0.000 HD 
HETATM   15  O   UNL     1     -13.387  13.972  65.135  1.00  0.00    -0.703 OA 
BRANCH   7  16
HETATM   16  O   UNL     1     -10.652  12.072  68.404  1.00  0.00    -0.203 OA 
BRANCH  16  17
HETATM   17  C   UNL     1      -9.500  11.279  68.811  1.00  0.00    -0.139 C  
HETATM   18  N   UNL     1      -7.979  13.229  69.059  1.00  0.00    -0.331 NA 
HETATM   19  C   UNL     1      -6.982  11.038  68.831  1.00  0.00    -0.088 C  
HETATM   20  H1  UNL     1      -7.087  13.650  68.798  1.00  0.00     0.000 HD 
HETATM   21  H2  UNL     1      -8.083  13.167  70.072  1.00  0.00     0.000 HD 
HETATM   22  C   UNL     1      -7.076   9.648  68.201  1.00  0.00    -0.079 C  
HETATM   23  C   UNL     1      -8.151  11.916  68.416  1.00  0.00    -0.155 C  
HETATM   24  N   UNL     1      -5.834   8.951  68.578  1.00  0.00    -0.041 NA 
HETATM   25  C   UNL     1      -8.372   8.900  68.646  1.00  0.00    -0.124 C  
HETATM   26  H   UNL     1     -10.820   8.316  68.920  1.00  0.00     0.000 HD 
HETATM   27  H1  UNL     1      -5.896   8.024  68.157  1.00  0.00     0.000 HD 
HETATM   28  C   UNL     1      -9.635   9.783  68.409  1.00  0.00    -0.148 C  
HETATM   29  H2  UNL     1      -5.666   8.932  69.584  1.00  0.00     0.000 HD 
HETATM   30  O   UNL     1     -10.738   9.230  69.165  1.00  0.00    -0.224 OA 
BRANCH  25  31
HETATM   31  O   UNL     1      -8.596   7.657  67.909  1.00  0.00    -0.122 OA 
BRANCH  31  32
HETATM   32  C   UNL     1      -9.330   7.795  66.685  1.00  0.00    -0.188 C  
HETATM   33  O   UNL     1      -8.476   7.964  65.547  1.00  0.00    -0.141 OA 
HETATM   34  C   UNL     1      -7.714   6.785  65.237  1.00  0.00    -0.106 C  
HETATM   35  C   UNL     1      -8.650   5.613  64.905  1.00  0.00    -0.085 C  
HETATM   36  H   UNL     1     -11.739   5.709  67.529  1.00  0.00     0.000 HD 
HETATM   37  C   UNL     1      -9.580   5.325  66.099  1.00  0.00    -0.161 C  
HETATM   38  H1  UNL     1     -11.127   4.027  66.568  1.00  0.00     0.000 HD 
HETATM   39  O   UNL     1      -7.930   4.430  64.545  1.00  0.00    -0.087 OA 
HETATM   40  H   UNL     1      -8.509   3.706  64.340  1.00  0.00     0.000 HD 
HETATM   41  H2  UNL     1     -10.015   3.380  65.473  1.00  0.00     0.000 HD 
HETATM   42  C   UNL     1     -10.320   6.617  66.486  1.00  0.00    -0.050 C  
HETATM   43  N   UNL     1     -10.512   4.217  65.777  1.00  0.00    -0.168 NA 
HETATM   44  O   UNL     1     -11.133   6.430  67.651  1.00  0.00    -0.339 OA 
BRANCH  34  45
HETATM   45  C   UNL     1      -6.811   7.097  64.035  1.00  0.00    -0.051 C  
HETATM   46  O   UNL     1      -7.570   7.138  62.827  1.00  0.00    -0.094 OA 
HETATM   47  H   UNL     1      -7.011   7.331  62.084  1.00  0.00     0.000 HD 
ENDBRANCH  34  45
ENDBRANCH  31  32
ENDBRANCH  25  31
ENDBRANCH  16  17
ENDBRANCH   7  16
ENDBRANCH   2   5
TORSDOF 6
ENDMDL
MODEL      124
REMARK 921   NORMALIZED FREE ENERGY PREDICTED BY IDOCK:   -5.64 KCAL/MOL
REMARK 922        TOTAL FREE ENERGY PREDICTED BY IDOCK:   -8.68 KCAL/MOL
REMARK 923 INTER-LIGAND FREE ENERGY PREDICTED BY IDOCK:   -8.43 KCAL/MOL
REMARK 924 INTRA-LIGAND FREE ENERGY PREDICTED BY IDOCK:   -0.25 KCAL/MOL
REMARK 927      BINDING AFFINITY PREDICTED BY RF-SCORE:    0.00 PKD
ROOT
HETATM    1  N   UNL     1     -11.754  16.334  71.010  1.00  0.00    -0.599 NA 
HETATM    2  C   UNL     1     -10.994  15.540  70.034  1.00  0.00    -0.319 C  
HETATM    3  H2  UNL     1     -12.065  17.216  70.605  1.00  0.00     0.000 HD 
HETATM    4  H1  UNL     1     -12.536  15.814  71.406  1.00  0.00     0.000 HD 
ENDROOT
BRANCH   2   5
HETATM    5  C   UNL     1      -9.805  16.331  69.433  1.00  0.00    -0.217 C  
HETATM    6  O   UNL     1      -8.909  15.488  68.690  1.00  0.00    -0.173 OA 
HETATM    7  C   UNL     1      -9.435  14.970  67.479  1.00  0.00    -0.203 C  
HETATM    8  C   UNL     1      -9.795  16.142  66.510  1.00  0.00    -0.267 C  
HETATM    9  C   UNL     1     -10.264  17.538  68.592  1.00  0.00    -0.373 C  
HETATM   10  N   UNL     1      -8.604  16.888  66.047  1.00  0.00    -0.516 NA 
HETATM   11  C   UNL     1     -10.769  17.109  67.209  1.00  0.00    -0.208 C  
HETATM   12  H   UNL     1      -9.437  19.178  67.934  1.00  0.00     0.000 HD 
HETATM   13  H1  UNL     1      -8.839  17.653  65.414  1.00  0.00     0.000 HD 
HETATM   14  H2  UNL     1      -7.921  16.260  65.624  1.00  0.00     0.000 HD 
HETATM   15  O   UNL     1      -9.154  18.433  68.452  1.00  0.00    -0.306 OA 
BRANCH   7  16
HETATM   16  O   UNL     1      -8.474  14.103  66.851  1.00  0.00    -0.185 OA 
BRANCH  16  17
HETATM   17  C   UNL     1      -8.813  12.687  66.786  1.00  0.00    -0.168 C  
HETATM   18  N   UNL     1      -9.864  12.825  64.538  1.00  0.00    -0.570 NA 
HETATM   19  C   UNL     1     -10.397  10.916  65.922  1.00  0.00    -0.310 C  
HETATM   20  H1  UNL     1     -10.692  12.634  63.974  1.00  0.00     0.000 HD 
HETATM   21  H2  UNL     1      -9.028  12.403  64.134  1.00  0.00     0.000 HD 
HETATM   22  C   UNL     1     -10.629  10.384  67.337  1.00  0.00    -0.269 C  
HETATM   23  C   UNL     1     -10.065  12.399  65.932  1.00  0.00    -0.253 C  
HETATM   24  N   UNL     1     -11.060   8.985  67.175  1.00  0.00    -0.222 NA 
HETATM   25  C   UNL     1      -9.358  10.548  68.229  1.00  0.00    -0.156 C  
HETATM   26  H   UNL     1      -7.491  11.627  69.555  1.00  0.00     0.000 HD 
HETATM   27  H1  UNL     1     -11.215   8.631  68.119  1.00  0.00     0.000 HD 
HETATM   28  C   UNL     1      -8.833  12.015  68.187  1.00  0.00    -0.182 C  
HETATM   29  H2  UNL     1     -10.411   8.418  66.628  1.00  0.00     0.000 HD 
HETATM   30  O   UNL     1      -7.479  12.039  68.698  1.00  0.00    -0.113 OA 
BRANCH  25  31
HETATM   31  O   UNL     1      -9.606  10.239  69.637  1.00  0.00    -0.215 OA 
BRANCH  31  32
HETATM   32  C   UNL     1      -8.639   9.379  70.254  1.00  0.00    -0.221 C  
HETATM   33  O   UNL     1      -9.023   8.978  71.575  1.00  0.00    -0.273 OA 
HETATM   34  C   UNL     1     -10.163   8.102  71.586  1.00  0.00    -0.206 C  
HETATM   35  C   UNL     1      -9.855   6.810  70.813  1.00  0.00    -0.183 C  
HETATM   36  H   UNL     1      -7.788   7.822  67.475  1.00  0.00     0.000 HD 
HETATM   37  C   UNL     1      -9.477   7.143  69.356  1.00  0.00    -0.153 C  
HETATM   38  H1  UNL     1      -8.894   6.126  67.646  1.00  0.00     0.000 HD 
HETATM   39  O   UNL     1     -10.951   5.890  70.838  1.00  0.00    -0.277 OA 
HETATM   40  H   UNL     1     -10.761   5.092  70.360  1.00  0.00     0.000 HD 
HETATM   41  H2  UNL     1      -9.897   5.220  68.658  1.00  0.00     0.000 HD 
HETATM   42  C   UNL     1      -8.319   8.156  69.355  1.00  0.00    -0.123 C  
HETATM   43  N   UNL     1      -9.144   5.906  68.610  1.00  0.00    -0.116 NA 
HETATM   44  O   UNL     1      -7.984   8.571  68.025  1.00  0.00    -0.109 OA 
BRANCH  34  45
HETATM   45  C   UNL     1     -10.507   7.775  73.046  1.00  0.00    -0.369 C  
HETATM   46  O   UNL     1     -11.907   7.545  73.197  1.00  0.00    -0.577 OA 
HETATM   47  H   UNL     1     -12.120   7.343  74.100  1.00  0.00     0.000 HD 
ENDBRANCH  34  45
ENDBRANCH  31  32
ENDBRANCH  25  31
ENDBRANCH  16  17
ENDBRANCH   7  16
ENDBRANCH   2   5
TORSDOF 6
ENDMDL
MODEL      125
REMARK 921   NORMALIZED FREE ENERGY PREDICTED BY IDOCK:   -5.64 KCAL/MOL
REMARK 922        TOTAL FREE ENERGY PREDICTED BY IDOCK:   -8.67 KCAL/MOL
REMARK 923 INTER-LIGAND FREE ENERGY PREDICTED BY IDOCK:   -8.21 KCAL/MOL
REMARK 924 INTRA-LIGAND FREE ENERGY PREDICTED BY IDOCK:   -0.46 KCAL/MOL
REMARK 927      BINDING AFFINITY PREDICTED BY RF-SCORE:    0.00 PKD
ROOT
HETATM    1  N   UNL     1      -6.581   5.182  70.124  1.00  0.00    -0.038 NA 
HETATM    2  C   UNL     1      -7.773   6.039  70.203  1.00  0.00    -0.096 C  
HETATM    3  H2  UNL     1      -6.659   4.383  70.753  1.00  0.00     0.000 HD 
HETATM    4  H1  UNL     1      -6.384   4.882  69.170  1.00  0.00     0.000 HD 
ENDROOT
BRANCH   2   5
HETATM    5  C   UNL     1      -8.072   6.495  71.653  1.00  0.00    -0.108 C  
HETATM    6  O   UNL     1      -8.963   7.621  71.699  1.00  0.00    -0.124 OA 
HETATM    7  C   UNL     1     -10.296   7.350  71.296  1.00  0.00    -0.192 C  
HETATM    8  C   UNL     1     -10.933   6.283  72.247  1.00  0.00    -0.259 C  
HETATM    9  C   UNL     1      -8.581   5.342  72.541  1.00  0.00    -0.121 C  
HETATM   10  N   UNL     1     -11.111   6.782  73.628  1.00  0.00    -0.466 NA 
HETATM   11  C   UNL     1     -10.054   5.019  72.264  1.00  0.00    -0.245 C  
HETATM   12  H   UNL     1      -8.726   5.016  74.459  1.00  0.00     0.000 HD 
HETATM   13  H1  UNL     1     -11.526   6.086  74.248  1.00  0.00     0.000 HD 
HETATM   14  H2  UNL     1     -11.649   7.648  73.637  1.00  0.00     0.000 HD 
HETATM   15  O   UNL     1      -8.413   5.726  73.912  1.00  0.00    -0.118 OA 
BRANCH   7  16
HETATM   16  O   UNL     1     -11.080   8.555  71.331  1.00  0.00    -0.239 OA 
BRANCH  16  17
HETATM   17  C   UNL     1     -11.325   9.215  70.055  1.00  0.00    -0.090 C  
HETATM   18  N   UNL     1     -10.756   7.227  68.677  1.00  0.00    -0.361 NA 
HETATM   19  C   UNL     1     -10.732   9.393  67.603  1.00  0.00    -0.295 C  
HETATM   20  H1  UNL     1     -10.189   6.854  67.915  1.00  0.00     0.000 HD 
HETATM   21  H2  UNL     1     -11.751   7.066  68.517  1.00  0.00     0.000 HD 
HETATM   22  C   UNL     1     -10.449  10.889  67.745  1.00  0.00    -0.203 C  
HETATM   23  C   UNL     1     -10.466   8.651  68.903  1.00  0.00    -0.192 C  
HETATM   24  N   UNL     1     -10.623  11.460  66.398  1.00  0.00    -0.255 NA 
HETATM   25  C   UNL     1     -11.364  11.548  68.825  1.00  0.00    -0.265 C  
HETATM   26  H   UNL     1     -12.387  12.108  71.072  1.00  0.00     0.000 HD 
HETATM   27  H1  UNL     1     -10.434  12.457  66.492  1.00  0.00     0.000 HD 
HETATM   28  C   UNL     1     -11.291  10.765  70.171  1.00  0.00    -0.309 C  
HETATM   29  H2  UNL     1     -11.531  11.253  65.980  1.00  0.00     0.000 HD 
HETATM   30  O   UNL     1     -12.407  11.161  71.001  1.00  0.00    -0.371 OA 
BRANCH  25  31
HETATM   31  O   UNL     1     -10.985  12.927  69.130  1.00  0.00    -0.217 OA 
BRANCH  31  32
HETATM   32  C   UNL     1     -11.955  13.920  68.774  1.00  0.00    -0.358 C  
HETATM   33  O   UNL     1     -13.020  14.017  69.728  1.00  0.00     0.057 OA 
HETATM   34  C   UNL     1     -12.592  14.543  70.995  1.00  0.00    -0.340 C  
HETATM   35  C   UNL     1     -12.033  15.965  70.825  1.00  0.00    -0.378 C  
HETATM   36  H   UNL     1      -9.781  16.019  67.455  1.00  0.00     0.000 HD 
HETATM   37  C   UNL     1     -10.844  15.951  69.846  1.00  0.00    -0.333 C  
HETATM   38  H1  UNL     1      -9.530  17.314  69.000  1.00  0.00     0.000 HD 
HETATM   39  O   UNL     1     -11.638  16.543  72.072  1.00  0.00    -0.502 OA 
HETATM   40  H   UNL     1     -11.292  17.422  71.967  1.00  0.00     0.000 HD 
HETATM   41  H2  UNL     1     -10.076  17.768  70.533  1.00  0.00     0.000 HD 
HETATM   42  C   UNL     1     -11.285  15.297  68.525  1.00  0.00    -0.303 C  
HETATM   43  N   UNL     1     -10.318  17.324  69.648  1.00  0.00    -0.092 NA 
HETATM   44  O   UNL     1     -10.191  15.176  67.607  1.00  0.00    -0.238 OA 
BRANCH  34  45
HETATM   45  C   UNL     1     -13.799  14.560  71.944  1.00  0.00    -0.457 C  
HETATM   46  O   UNL     1     -14.025  13.264  72.498  1.00  0.00    -0.701 OA 
HETATM   47  H   UNL     1     -14.772  13.274  73.085  1.00  0.00     0.000 HD 
ENDBRANCH  34  45
ENDBRANCH  31  32
ENDBRANCH  25  31
ENDBRANCH  16  17
ENDBRANCH   7  16
ENDBRANCH   2   5
TORSDOF 6
ENDMDL
MODEL      126
REMARK 921   NORMALIZED FREE ENERGY PREDICTED BY IDOCK:   -5.63 KCAL/MOL
REMARK 922        TOTAL FREE ENERGY PREDICTED BY IDOCK:   -8.65 KCAL/MOL
REMARK 923 INTER-LIGAND FREE ENERGY PREDICTED BY IDOCK:   -8.01 KCAL/MOL
REMARK 924 INTRA-LIGAND FREE ENERGY PREDICTED BY IDOCK:   -0.64 KCAL/MOL
REMARK 927      BINDING AFFINITY PREDICTED BY RF-SCORE:    0.00 PKD
ROOT
HETATM    1  N   UNL     1     -10.045   1.991  72.081  1.00  0.00    -0.159 NA 
HETATM    2  C   UNL     1      -9.688   3.356  71.668  1.00  0.00    -0.164 C  
HETATM    3  H2  UNL     1      -9.347   1.317  71.767  1.00  0.00     0.000 HD 
HETATM    4  H1  UNL     1     -10.201   1.919  73.085  1.00  0.00     0.000 HD 
ENDROOT
BRANCH   2   5
HETATM    5  C   UNL     1      -9.451   3.465  70.141  1.00  0.00    -0.173 C  
HETATM    6  O   UNL     1     -10.262   4.483  69.534  1.00  0.00    -0.168 OA 
HETATM    7  C   UNL     1      -9.919   5.814  69.883  1.00  0.00    -0.194 C  
HETATM    8  C   UNL     1      -8.457   6.125  69.424  1.00  0.00    -0.120 C  
HETATM    9  C   UNL     1      -7.962   3.649  69.787  1.00  0.00    -0.050 C  
HETATM   10  N   UNL     1      -8.310   6.133  67.952  1.00  0.00    -0.116 NA 
HETATM   11  C   UNL     1      -7.494   5.088  70.032  1.00  0.00    -0.060 C  
HETATM   12  H   UNL     1      -6.869   3.419  68.188  1.00  0.00     0.000 HD 
HETATM   13  H1  UNL     1      -7.356   6.336  67.652  1.00  0.00     0.000 HD 
HETATM   14  H2  UNL     1      -8.973   6.777  67.522  1.00  0.00     0.000 HD 
HETATM   15  O   UNL     1      -7.786   3.306  68.406  1.00  0.00    -0.059 OA 
BRANCH   7  16
HETATM   16  O   UNL     1     -10.826   6.741  69.262  1.00  0.00    -0.237 OA 
BRANCH  16  17
HETATM   17  C   UNL     1     -10.714   8.137  69.664  1.00  0.00    -0.195 C  
HETATM   18  N   UNL     1     -11.504   7.752  71.988  1.00  0.00    -0.274 NA 
HETATM   19  C   UNL     1     -11.588  10.008  71.123  1.00  0.00    -0.460 C  
HETATM   20  H1  UNL     1     -12.169   8.017  72.715  1.00  0.00     0.000 HD 
HETATM   21  H2  UNL     1     -10.541   7.825  72.316  1.00  0.00     0.000 HD 
HETATM   22  C   UNL     1     -11.805  10.905  69.904  1.00  0.00    -0.349 C  
HETATM   23  C   UNL     1     -11.721   8.538  70.763  1.00  0.00    -0.205 C  
HETATM   24  N   UNL     1     -11.775  12.288  70.411  1.00  0.00    -0.534 NA 
HETATM   25  C   UNL     1     -10.748  10.626  68.789  1.00  0.00    -0.215 C  
HETATM   26  H   UNL     1      -9.448   9.435  66.971  1.00  0.00     0.000 HD 
HETATM   27  H1  UNL     1     -11.920  12.886  69.598  1.00  0.00     0.000 HD 
HETATM   28  C   UNL     1     -10.685   9.105  68.448  1.00  0.00    -0.115 C  
HETATM   29  H2  UNL     1     -10.930  12.511  70.938  1.00  0.00     0.000 HD 
HETATM   30  O   UNL     1      -9.466   8.843  67.714  1.00  0.00    -0.139 OA 
BRANCH  25  31
HETATM   31  O   UNL     1     -11.045  11.317  67.535  1.00  0.00    -0.249 OA 
BRANCH  31  32
HETATM   32  C   UNL     1      -9.916  11.551  66.684  1.00  0.00    -0.207 C  
HETATM   33  O   UNL     1     -10.245  11.450  65.292  1.00  0.00    -0.245 OA 
HETATM   34  C   UNL     1     -11.107  12.508  64.842  1.00  0.00    -0.299 C  
HETATM   35  C   UNL     1     -10.426  13.873  65.028  1.00  0.00    -0.410 C  
HETATM   36  H   UNL     1      -8.538  13.840  68.615  1.00  0.00     0.000 HD 
HETATM   37  C   UNL     1     -10.077  14.091  66.513  1.00  0.00    -0.285 C  
HETATM   38  H1  UNL     1      -9.156  15.535  67.682  1.00  0.00     0.000 HD 
HETATM   39  O   UNL     1     -11.234  14.951  64.548  1.00  0.00    -0.572 OA 
HETATM   40  H   UNL     1     -10.813  15.795  64.663  1.00  0.00     0.000 HD 
HETATM   41  H2  UNL     1      -9.930  16.166  66.319  1.00  0.00     0.000 HD 
HETATM   42  C   UNL     1      -9.234  12.905  67.013  1.00  0.00    -0.226 C  
HETATM   43  N   UNL     1      -9.387  15.391  66.698  1.00  0.00    -0.243 NA 
HETATM   44  O   UNL     1      -8.955  13.011  68.414  1.00  0.00    -0.188 OA 
BRANCH  34  45
HETATM   45  C   UNL     1     -11.425  12.273  63.358  1.00  0.00    -0.430 C  
HETATM   46  O   UNL     1     -12.472  13.140  62.921  1.00  0.00    -0.671 OA 
HETATM   47  H   UNL     1     -12.668  12.995  62.003  1.00  0.00     0.000 HD 
ENDBRANCH  34  45
ENDBRANCH  31  32
ENDBRANCH  25  31
ENDBRANCH  16  17
ENDBRANCH   7  16
ENDBRANCH   2   5
TORSDOF 6
ENDMDL
MODEL      127
REMARK 921   NORMALIZED FREE ENERGY PREDICTED BY IDOCK:   -5.62 KCAL/MOL
REMARK 922        TOTAL FREE ENERGY PREDICTED BY IDOCK:   -8.65 KCAL/MOL
REMARK 923 INTER-LIGAND FREE ENERGY PREDICTED BY IDOCK:   -6.89 KCAL/MOL
REMARK 924 INTRA-LIGAND FREE ENERGY PREDICTED BY IDOCK:   -1.76 KCAL/MOL
REMARK 927      BINDING AFFINITY PREDICTED BY RF-SCORE:    0.00 PKD
ROOT
HETATM    1  N   UNL     1     -12.356  13.880  63.355  1.00  0.00    -1.139 NA 
HETATM    2  C   UNL     1     -11.588  13.028  64.274  1.00  0.00    -0.385 C  
HETATM    3  H2  UNL     1     -12.188  14.868  63.541  1.00  0.00     0.000 HD 
HETATM    4  H1  UNL     1     -12.176  13.653  62.377  1.00  0.00     0.000 HD 
ENDROOT
BRANCH   2   5
HETATM    5  C   UNL     1     -11.862  13.373  65.760  1.00  0.00    -0.377 C  
HETATM    6  O   UNL     1     -11.192  12.477  66.661  1.00  0.00    -0.276 OA 
HETATM    7  C   UNL     1      -9.778  12.596  66.687  1.00  0.00    -0.249 C  
HETATM    8  C   UNL     1      -9.374  14.032  67.158  1.00  0.00    -0.242 C  
HETATM    9  C   UNL     1     -11.544  14.844  66.093  1.00  0.00    -0.228 C  
HETATM   10  N   UNL     1      -9.743  14.297  68.565  1.00  0.00    -0.224 NA 
HETATM   11  C   UNL     1     -10.037  15.079  66.244  1.00  0.00    -0.298 C  
HETATM   12  H   UNL     1     -12.022  16.088  67.518  1.00  0.00     0.000 HD 
HETATM   13  H1  UNL     1      -9.479  15.234  68.872  1.00  0.00     0.000 HD 
HETATM   14  H2  UNL     1      -9.356  13.586  69.185  1.00  0.00     0.000 HD 
HETATM   15  O   UNL     1     -12.218  15.181  67.312  1.00  0.00     0.049 OA 
BRANCH   7  16
HETATM   16  O   UNL     1      -9.214  11.620  67.580  1.00  0.00    -0.167 OA 
BRANCH  16  17
HETATM   17  C   UNL     1     -10.104  10.563  68.043  1.00  0.00    -0.165 C  
HETATM   18  N   UNL     1     -11.363  12.021  69.613  1.00  0.00    -0.461 NA 
HETATM   19  C   UNL     1     -11.492   9.629  69.939  1.00  0.00    -0.144 C  
HETATM   20  H1  UNL     1     -11.689  12.159  70.570  1.00  0.00     0.000 HD 
HETATM   21  H2  UNL     1     -12.134  12.055  68.946  1.00  0.00     0.000 HD 
HETATM   22  C   UNL     1     -10.770   8.284  69.850  1.00  0.00    -0.234 C  
HETATM   23  C   UNL     1     -10.595  10.772  69.491  1.00  0.00    -0.196 C  
HETATM   24  N   UNL     1     -11.696   7.292  70.426  1.00  0.00    -0.490 NA 
HETATM   25  C   UNL     1     -10.337   7.958  68.386  1.00  0.00    -0.199 C  
HETATM   26  H   UNL     1      -9.142   8.102  66.159  1.00  0.00     0.000 HD 
HETATM   27  H1  UNL     1     -11.214   6.395  70.367  1.00  0.00     0.000 HD 
HETATM   28  C   UNL     1      -9.536   9.143  67.765  1.00  0.00    -0.146 C  
HETATM   29  H2  UNL     1     -12.617   7.291  69.987  1.00  0.00     0.000 HD 
HETATM   30  O   UNL     1      -9.488   8.970  66.329  1.00  0.00    -0.201 OA 
BRANCH  25  31
HETATM   31  O   UNL     1      -9.471   6.784  68.295  1.00  0.00    -0.127 OA 
BRANCH  31  32
HETATM   32  C   UNL     1      -8.282   6.837  69.094  1.00  0.00    -0.121 C  
HETATM   33  O   UNL     1      -8.515   6.447  70.453  1.00  0.00    -0.127 OA 
HETATM   34  C   UNL     1      -8.833   5.052  70.590  1.00  0.00    -0.126 C  
HETATM   35  C   UNL     1      -7.671   4.184  70.084  1.00  0.00    -0.049 C  
HETATM   36  H   UNL     1      -6.244   5.876  66.687  1.00  0.00     0.000 HD 
HETATM   37  C   UNL     1      -7.379   4.502  68.605  1.00  0.00    -0.060 C  
HETATM   38  H1  UNL     1      -6.043   3.905  67.136  1.00  0.00     0.000 HD 
HETATM   39  O   UNL     1      -7.929   2.786  70.245  1.00  0.00    -0.043 OA 
HETATM   40  H   UNL     1      -7.210   2.249  69.932  1.00  0.00     0.000 HD 
HETATM   41  H2  UNL     1      -6.383   2.697  68.267  1.00  0.00     0.000 HD 
HETATM   42  C   UNL     1      -7.135   6.013  68.452  1.00  0.00    -0.082 C  
HETATM   43  N   UNL     1      -6.235   3.694  68.116  1.00  0.00    -0.032 NA 
HETATM   44  O   UNL     1      -6.947   6.381  67.080  1.00  0.00    -0.067 OA 
BRANCH  34  45
HETATM   45  C   UNL     1      -9.103   4.761  72.073  1.00  0.00    -0.128 C  
HETATM   46  O   UNL     1      -9.942   3.616  72.221  1.00  0.00    -0.157 OA 
HETATM   47  H   UNL     1     -10.109   3.436  73.138  1.00  0.00     0.000 HD 
ENDBRANCH  34  45
ENDBRANCH  31  32
ENDBRANCH  25  31
ENDBRANCH  16  17
ENDBRANCH   7  16
ENDBRANCH   2   5
TORSDOF 6
ENDMDL
MODEL      128
REMARK 921   NORMALIZED FREE ENERGY PREDICTED BY IDOCK:   -5.61 KCAL/MOL
REMARK 922        TOTAL FREE ENERGY PREDICTED BY IDOCK:   -8.63 KCAL/MOL
REMARK 923 INTER-LIGAND FREE ENERGY PREDICTED BY IDOCK:   -7.83 KCAL/MOL
REMARK 924 INTRA-LIGAND FREE ENERGY PREDICTED BY IDOCK:   -0.81 KCAL/MOL
REMARK 927      BINDING AFFINITY PREDICTED BY RF-SCORE:    0.00 PKD
ROOT
HETATM    1  N   UNL     1     -12.492  14.803  69.253  1.00  0.00    -0.579 NA 
HETATM    2  C   UNL     1     -12.021  13.779  68.309  1.00  0.00    -0.357 C  
HETATM    3  H2  UNL     1     -13.111  15.470  68.793  1.00  0.00     0.000 HD 
HETATM    4  H1  UNL     1     -12.936  14.395  70.075  1.00  0.00     0.000 HD 
ENDROOT
BRANCH   2   5
HETATM    5  C   UNL     1     -11.347  14.399  67.059  1.00  0.00    -0.346 C  
HETATM    6  O   UNL     1     -10.007  13.918  66.866  1.00  0.00    -0.252 OA 
HETATM    7  C   UNL     1      -9.906  12.554  66.490  1.00  0.00    -0.246 C  
HETATM    8  C   UNL     1     -10.626  12.324  65.121  1.00  0.00    -0.285 C  
HETATM    9  C   UNL     1     -12.195  14.223  65.783  1.00  0.00    -0.403 C  
HETATM   10  N   UNL     1      -9.956  13.016  63.999  1.00  0.00    -0.734 NA 
HETATM   11  C   UNL     1     -12.087  12.801  65.221  1.00  0.00    -0.505 C  
HETATM   12  H   UNL     1     -12.259  15.063  64.023  1.00  0.00     0.000 HD 
HETATM   13  H1  UNL     1     -10.426  12.866  63.105  1.00  0.00     0.000 HD 
HETATM   14  H2  UNL     1      -8.972  12.753  63.943  1.00  0.00     0.000 HD 
HETATM   15  O   UNL     1     -11.737  15.171  64.810  1.00  0.00    -0.384 OA 
BRANCH   7  16
HETATM   16  O   UNL     1      -8.525  12.171  66.377  1.00  0.00    -0.091 OA 
BRANCH  16  17
HETATM   17  C   UNL     1      -8.224  10.752  66.515  1.00  0.00    -0.148 C  
HETATM   18  N   UNL     1      -7.374  10.489  64.194  1.00  0.00    -0.344 NA 
HETATM   19  C   UNL     1      -8.042   8.496  65.388  1.00  0.00    -0.127 C  
HETATM   20  H1  UNL     1      -7.445   9.975  63.317  1.00  0.00     0.000 HD 
HETATM   21  H2  UNL     1      -6.421  10.487  64.556  1.00  0.00     0.000 HD 
HETATM   22  C   UNL     1      -8.998   7.872  66.405  1.00  0.00    -0.166 C  
HETATM   23  C   UNL     1      -8.331   9.974  65.187  1.00  0.00    -0.153 C  
HETATM   24  N   UNL     1      -8.695   6.430  66.411  1.00  0.00    -0.133 NA 
HETATM   25  C   UNL     1      -8.865   8.544  67.808  1.00  0.00    -0.137 C  
HETATM   26  H   UNL     1      -8.957  10.286  69.643  1.00  0.00     0.000 HD 
HETATM   27  H1  UNL     1      -9.333   6.014  67.089  1.00  0.00     0.000 HD 
HETATM   28  C   UNL     1      -8.988  10.094  67.698  1.00  0.00    -0.131 C  
HETATM   29  H2  UNL     1      -7.712   6.220  66.592  1.00  0.00     0.000 HD 
HETATM   30  O   UNL     1      -8.490  10.688  68.920  1.00  0.00    -0.139 OA 
BRANCH  25  31
HETATM   31  O   UNL     1      -9.899   8.114  68.748  1.00  0.00    -0.167 OA 
BRANCH  31  32
HETATM   32  C   UNL     1      -9.589   6.936  69.502  1.00  0.00    -0.148 C  
HETATM   33  O   UNL     1      -8.253   6.949  70.020  1.00  0.00    -0.129 OA 
HETATM   34  C   UNL     1      -8.056   7.944  71.039  1.00  0.00    -0.098 C  
HETATM   35  C   UNL     1      -8.981   7.677  72.236  1.00  0.00    -0.135 C  
HETATM   36  H   UNL     1     -12.605   6.583  70.785  1.00  0.00     0.000 HD 
HETATM   37  C   UNL     1     -10.453   7.692  71.780  1.00  0.00    -0.205 C  
HETATM   38  H1  UNL     1     -12.328   7.411  72.620  1.00  0.00     0.000 HD 
HETATM   39  O   UNL     1      -8.784   8.620  73.294  1.00  0.00    -0.352 OA 
HETATM   40  H   UNL     1      -9.356   8.455  74.034  1.00  0.00     0.000 HD 
HETATM   41  H2  UNL     1     -11.193   8.035  73.703  1.00  0.00     0.000 HD 
HETATM   42  C   UNL     1     -10.633   6.694  70.624  1.00  0.00    -0.227 C  
HETATM   43  N   UNL     1     -11.354   7.401  72.922  1.00  0.00    -0.305 NA 
HETATM   44  O   UNL     1     -11.966   6.731  70.098  1.00  0.00    -0.328 OA 
BRANCH  34  45
HETATM   45  C   UNL     1      -6.588   7.895  71.484  1.00  0.00    -0.043 C  
HETATM   46  O   UNL     1      -5.808   8.848  70.763  1.00  0.00    -0.032 OA 
HETATM   47  H   UNL     1      -4.899   8.818  71.038  1.00  0.00     0.000 HD 
ENDBRANCH  34  45
ENDBRANCH  31  32
ENDBRANCH  25  31
ENDBRANCH  16  17
ENDBRANCH   7  16
ENDBRANCH   2   5
TORSDOF 6
ENDMDL
MODEL      129
REMARK 921   NORMALIZED FREE ENERGY PREDICTED BY IDOCK:   -5.61 KCAL/MOL
REMARK 922        TOTAL FREE ENERGY PREDICTED BY IDOCK:   -8.63 KCAL/MOL
REMARK 923 INTER-LIGAND FREE ENERGY PREDICTED BY IDOCK:   -8.02 KCAL/MOL
REMARK 924 INTRA-LIGAND FREE ENERGY PREDICTED BY IDOCK:   -0.62 KCAL/MOL
REMARK 927      BINDING AFFINITY PREDICTED BY RF-SCORE:    0.00 PKD
ROOT
HETATM    1  N   UNL     1     -10.321   5.845  68.709  1.00  0.00    -0.196 NA 
HETATM    2  C   UNL     1      -9.177   6.515  68.074  1.00  0.00    -0.111 C  
HETATM    3  H2  UNL     1     -10.458   4.909  68.328  1.00  0.00     0.000 HD 
HETATM    4  H1  UNL     1     -10.239   5.820  69.725  1.00  0.00     0.000 HD 
ENDROOT
BRANCH   2   5
HETATM    5  C   UNL     1      -9.302   6.552  66.530  1.00  0.00    -0.159 C  
HETATM    6  O   UNL     1      -9.279   7.892  66.012  1.00  0.00    -0.172 OA 
HETATM    7  C   UNL     1      -8.033   8.560  66.127  1.00  0.00    -0.102 C  
HETATM    8  C   UNL     1      -6.939   7.789  65.318  1.00  0.00    -0.059 C  
HETATM    9  C   UNL     1      -8.253   5.664  65.831  1.00  0.00    -0.119 C  
HETATM   10  N   UNL     1      -7.182   7.813  63.860  1.00  0.00    -0.079 NA 
HETATM   11  C   UNL     1      -6.872   6.329  65.805  1.00  0.00    -0.053 C  
HETATM   12  H   UNL     1      -8.055   4.865  64.063  1.00  0.00     0.000 HD 
HETATM   13  H1  UNL     1      -6.468   7.310  63.332  1.00  0.00     0.000 HD 
HETATM   14  H2  UNL     1      -7.280   8.770  63.521  1.00  0.00     0.000 HD 
HETATM   15  O   UNL     1      -8.701   5.412  64.493  1.00  0.00    -0.122 OA 
BRANCH   7  16
HETATM   16  O   UNL     1      -8.143   9.904  65.627  1.00  0.00    -0.120 OA 
BRANCH  16  17
HETATM   17  C   UNL     1      -9.468  10.341  65.205  1.00  0.00    -0.240 C  
HETATM   18  N   UNL     1      -8.889  10.467  62.791  1.00  0.00    -0.210 NA 
HETATM   19  C   UNL     1     -10.843  11.670  63.552  1.00  0.00    -0.497 C  
HETATM   20  H1  UNL     1      -8.874  11.042  61.950  1.00  0.00     0.000 HD 
HETATM   21  H2  UNL     1      -9.387   9.590  62.638  1.00  0.00     0.000 HD 
HETATM   22  C   UNL     1     -11.499  12.463  64.682  1.00  0.00    -0.331 C  
HETATM   23  C   UNL     1      -9.445  11.212  63.932  1.00  0.00    -0.227 C  
HETATM   24  N   UNL     1     -12.781  12.948  64.142  1.00  0.00    -0.690 NA 
HETATM   25  C   UNL     1     -11.652  11.603  65.976  1.00  0.00    -0.026 C  
HETATM   26  H   UNL     1     -11.056  10.255  68.034  1.00  0.00     0.000 HD 
HETATM   27  H1  UNL     1     -13.218  13.478  64.896  1.00  0.00     0.000 HD 
HETATM   28  C   UNL     1     -10.294  10.947  66.373  1.00  0.00    -0.251 C  
HETATM   29  H2  UNL     1     -13.373  12.206  63.767  1.00  0.00     0.000 HD 
HETATM   30  O   UNL     1     -10.550   9.884  67.320  1.00  0.00    -0.248 OA 
BRANCH  25  31
HETATM   31  O   UNL     1     -12.086  12.384  67.133  1.00  0.00    -0.532 OA 
BRANCH  31  32
HETATM   32  C   UNL     1     -11.052  12.724  68.064  1.00  0.00    -0.250 C  
HETATM   33  O   UNL     1     -10.569  14.062  67.887  1.00  0.00    -0.239 OA 
HETATM   34  C   UNL     1     -11.543  15.060  68.236  1.00  0.00    -0.334 C  
HETATM   35  C   UNL     1     -11.934  14.934  69.717  1.00  0.00    -0.323 C  
HETATM   36  H   UNL     1     -12.305  10.988  70.572  1.00  0.00     0.000 HD 
HETATM   37  C   UNL     1     -12.513  13.533  69.993  1.00  0.00    -0.167 C  
HETATM   38  H1  UNL     1     -13.245  12.460  71.609  1.00  0.00     0.000 HD 
HETATM   39  O   UNL     1     -12.869  15.940  70.117  1.00  0.00    -0.616 OA 
HETATM   40  H   UNL     1     -13.111  15.862  71.032  1.00  0.00     0.000 HD 
HETATM   41  H2  UNL     1     -13.491  14.126  71.740  1.00  0.00     0.000 HD 
HETATM   42  C   UNL     1     -11.504  12.469  69.526  1.00  0.00    -0.230 C  
HETATM   43  N   UNL     1     -12.862  13.388  71.427  1.00  0.00    -0.355 NA 
HETATM   44  O   UNL     1     -12.028  11.144  69.677  1.00  0.00    -0.308 OA 
BRANCH  34  45
HETATM   45  C   UNL     1     -10.934  16.443  67.966  1.00  0.00    -0.327 C  
HETATM   46  O   UNL     1     -10.459  17.033  69.176  1.00  0.00    -0.320 OA 
HETATM   47  H   UNL     1     -10.082  17.888  69.010  1.00  0.00     0.000 HD 
ENDBRANCH  34  45
ENDBRANCH  31  32
ENDBRANCH  25  31
ENDBRANCH  16  17
ENDBRANCH   7  16
ENDBRANCH   2   5
TORSDOF 6
ENDMDL
MODEL      130
REMARK 921   NORMALIZED FREE ENERGY PREDICTED BY IDOCK:   -5.61 KCAL/MOL
REMARK 922        TOTAL FREE ENERGY PREDICTED BY IDOCK:   -8.63 KCAL/MOL
REMARK 923 INTER-LIGAND FREE ENERGY PREDICTED BY IDOCK:   -7.57 KCAL/MOL
REMARK 924 INTRA-LIGAND FREE ENERGY PREDICTED BY IDOCK:   -1.06 KCAL/MOL
REMARK 927      BINDING AFFINITY PREDICTED BY RF-SCORE:    0.00 PKD
ROOT
HETATM    1  N   UNL     1     -11.846  16.342  71.145  1.00  0.00    -0.607 NA 
HETATM    2  C   UNL     1     -11.463  16.077  69.751  1.00  0.00    -0.318 C  
HETATM    3  H2  UNL     1     -11.905  17.344  71.327  1.00  0.00     0.000 HD 
HETATM    4  H1  UNL     1     -12.711  15.870  71.405  1.00  0.00     0.000 HD 
ENDROOT
BRANCH   2   5
HETATM    5  C   UNL     1     -10.148  16.795  69.356  1.00  0.00    -0.177 C  
HETATM    6  O   UNL     1      -9.235  15.924  68.671  1.00  0.00    -0.191 OA 
HETATM    7  C   UNL     1      -9.642  15.528  67.371  1.00  0.00    -0.213 C  
HETATM    8  C   UNL     1      -9.781  16.785  66.451  1.00  0.00    -0.290 C  
HETATM    9  C   UNL     1     -10.399  18.087  68.554  1.00  0.00    -0.349 C  
HETATM   10  N   UNL     1      -8.486  17.449  66.191  1.00  0.00    -0.484 NA 
HETATM   11  C   UNL     1     -10.756  17.789  67.093  1.00  0.00    -0.222 C  
HETATM   12  H   UNL     1      -9.367  19.685  68.120  1.00  0.00     0.000 HD 
HETATM   13  H1  UNL     1      -8.576  18.269  65.590  1.00  0.00     0.000 HD 
HETATM   14  H2  UNL     1      -7.806  16.791  65.811  1.00  0.00     0.000 HD 
HETATM   15  O   UNL     1      -9.212  18.888  68.615  1.00  0.00    -0.343 OA 
BRANCH   7  16
HETATM   16  O   UNL     1      -8.681  14.621  66.805  1.00  0.00    -0.237 OA 
BRANCH  16  17
HETATM   17  C   UNL     1      -9.104  13.235  66.643  1.00  0.00    -0.171 C  
HETATM   18  N   UNL     1     -10.647  13.705  64.752  1.00  0.00    -0.402 NA 
HETATM   19  C   UNL     1     -10.943  11.636  65.969  1.00  0.00    -0.338 C  
HETATM   20  H1  UNL     1     -11.593  13.612  64.385  1.00  0.00     0.000 HD 
HETATM   21  H2  UNL     1      -9.955  13.323  64.107  1.00  0.00     0.000 HD 
HETATM   22  C   UNL     1     -10.864  10.922  67.318  1.00  0.00    -0.287 C  
HETATM   23  C   UNL     1     -10.537  13.096  66.088  1.00  0.00    -0.279 C  
HETATM   24  N   UNL     1     -11.399   9.568  67.088  1.00  0.00    -0.015 NA 
HETATM   25  C   UNL     1      -9.412  10.931  67.890  1.00  0.00    -0.159 C  
HETATM   26  H   UNL     1      -7.227  11.775  68.852  1.00  0.00     0.000 HD 
HETATM   27  H1  UNL     1     -11.346   9.092  67.988  1.00  0.00     0.000 HD 
HETATM   28  C   UNL     1      -8.830  12.378  67.910  1.00  0.00    -0.180 C  
HETATM   29  H2  UNL     1     -10.930   9.067  66.333  1.00  0.00     0.000 HD 
HETATM   30  O   UNL     1      -7.395  12.299  68.078  1.00  0.00    -0.087 OA 
BRANCH  25  31
HETATM   31  O   UNL     1      -9.337  10.439  69.265  1.00  0.00    -0.195 OA 
BRANCH  31  32
HETATM   32  C   UNL     1      -9.257   9.014  69.401  1.00  0.00    -0.150 C  
HETATM   33  O   UNL     1      -7.945   8.569  69.769  1.00  0.00    -0.098 OA 
HETATM   34  C   UNL     1      -7.575   8.957  71.103  1.00  0.00    -0.119 C  
HETATM   35  C   UNL     1      -8.543   8.347  72.128  1.00  0.00    -0.192 C  
HETATM   36  H   UNL     1     -12.296   8.646  70.625  1.00  0.00     0.000 HD 
HETATM   37  C   UNL     1      -9.982   8.813  71.838  1.00  0.00    -0.331 C  
HETATM   38  H1  UNL     1     -11.883   8.511  72.609  1.00  0.00     0.000 HD 
HETATM   39  O   UNL     1      -8.181   8.673  73.474  1.00  0.00    -0.404 OA 
HETATM   40  H   UNL     1      -8.780   8.296  74.108  1.00  0.00     0.000 HD 
HETATM   41  H2  UNL     1     -10.660   8.385  73.767  1.00  0.00     0.000 HD 
HETATM   42  C   UNL     1     -10.336   8.480  70.379  1.00  0.00    -0.202 C  
HETATM   43  N   UNL     1     -10.930   8.202  72.801  1.00  0.00    -0.372 NA 
HETATM   44  O   UNL     1     -11.635   8.973  70.026  1.00  0.00    -0.084 OA 
BRANCH  34  45
HETATM   45  C   UNL     1      -6.144   8.467  71.369  1.00  0.00    -0.045 C  
HETATM   46  O   UNL     1      -5.608   7.821  70.215  1.00  0.00    -0.023 OA 
HETATM   47  H   UNL     1      -4.723   7.517  70.379  1.00  0.00     0.000 HD 
ENDBRANCH  34  45
ENDBRANCH  31  32
ENDBRANCH  25  31
ENDBRANCH  16  17
ENDBRANCH   7  16
ENDBRANCH   2   5
TORSDOF 6
ENDMDL
MODEL      131
REMARK 921   NORMALIZED FREE ENERGY PREDICTED BY IDOCK:   -5.60 KCAL/MOL
REMARK 922        TOTAL FREE ENERGY PREDICTED BY IDOCK:   -8.62 KCAL/MOL
REMARK 923 INTER-LIGAND FREE ENERGY PREDICTED BY IDOCK:   -7.49 KCAL/MOL
REMARK 924 INTRA-LIGAND FREE ENERGY PREDICTED BY IDOCK:   -1.13 KCAL/MOL
REMARK 927      BINDING AFFINITY PREDICTED BY RF-SCORE:    0.00 PKD
ROOT
HETATM    1  N   UNL     1     -13.107  10.072  70.583  1.00  0.00    -0.590 NA 
HETATM    2  C   UNL     1     -11.812   9.675  71.153  1.00  0.00    -0.367 C  
HETATM    3  H2  UNL     1     -13.868   9.516  70.973  1.00  0.00     0.000 HD 
HETATM    4  H1  UNL     1     -13.287  11.069  70.691  1.00  0.00     0.000 HD 
ENDROOT
BRANCH   2   5
HETATM    5  C   UNL     1     -11.538   8.158  70.989  1.00  0.00    -0.279 C  
HETATM    6  O   UNL     1     -10.346   7.898  70.232  1.00  0.00    -0.205 OA 
HETATM    7  C   UNL     1      -9.133   8.249  70.878  1.00  0.00    -0.152 C  
HETATM    8  C   UNL     1      -8.972   7.422  72.195  1.00  0.00    -0.131 C  
HETATM    9  C   UNL     1     -11.519   7.413  72.338  1.00  0.00    -0.300 C  
HETATM   10  N   UNL     1      -8.792   5.975  71.943  1.00  0.00    -0.138 NA 
HETATM   11  C   UNL     1     -10.204   7.639  73.094  1.00  0.00    -0.401 C  
HETATM   12  H   UNL     1     -11.688   5.555  72.910  1.00  0.00     0.000 HD 
HETATM   13  H1  UNL     1      -8.688   5.435  72.803  1.00  0.00     0.000 HD 
HETATM   14  H2  UNL     1      -8.012   5.809  71.309  1.00  0.00     0.000 HD 
HETATM   15  O   UNL     1     -11.700   6.015  72.078  1.00  0.00    -0.307 OA 
BRANCH   7  16
HETATM   16  O   UNL     1      -8.016   7.994  70.010  1.00  0.00    -0.102 OA 
BRANCH  16  17
HETATM   17  C   UNL     1      -7.350   9.158  69.438  1.00  0.00    -0.076 C  
HETATM   18  N   UNL     1      -5.800   9.477  71.354  1.00  0.00    -0.081 NA 
HETATM   19  C   UNL     1      -6.152  11.345  69.860  1.00  0.00    -0.134 C  
HETATM   20  H1  UNL     1      -5.440  10.121  72.058  1.00  0.00     0.000 HD 
HETATM   21  H2  UNL     1      -5.048   9.068  70.800  1.00  0.00     0.000 HD 
HETATM   22  C   UNL     1      -7.132  12.096  68.957  1.00  0.00    -0.062 C  
HETATM   23  C   UNL     1      -6.806  10.133  70.503  1.00  0.00    -0.077 C  
HETATM   24  N   UNL     1      -6.417  13.301  68.503  1.00  0.00    -0.078 NA 
HETATM   25  C   UNL     1      -7.642  11.195  67.788  1.00  0.00    -0.100 C  
HETATM   26  H   UNL     1      -8.817   9.327  66.548  1.00  0.00     0.000 HD 
HETATM   27  H1  UNL     1      -7.070  13.802  67.901  1.00  0.00     0.000 HD 
HETATM   28  C   UNL     1      -8.197   9.842  68.328  1.00  0.00    -0.105 C  
HETATM   29  H2  UNL     1      -5.521  13.101  68.057  1.00  0.00     0.000 HD 
HETATM   30  O   UNL     1      -8.300   8.909  67.226  1.00  0.00    -0.104 OA 
BRANCH  25  31
HETATM   31  O   UNL     1      -8.729  11.811  67.027  1.00  0.00    -0.167 OA 
BRANCH  31  32
HETATM   32  C   UNL     1      -9.994  11.142  67.117  1.00  0.00    -0.186 C  
HETATM   33  O   UNL     1     -10.837  11.695  68.136  1.00  0.00    -0.196 OA 
HETATM   34  C   UNL     1     -11.290  13.024  67.829  1.00  0.00    -0.292 C  
HETATM   35  C   UNL     1     -12.119  13.023  66.535  1.00  0.00    -0.341 C  
HETATM   36  H   UNL     1     -10.277  10.571  63.883  1.00  0.00     0.000 HD 
HETATM   37  C   UNL     1     -11.271  12.486  65.365  1.00  0.00    -0.307 C  
HETATM   38  H1  UNL     1     -11.511  12.093  63.344  1.00  0.00     0.000 HD 
HETATM   39  O   UNL     1     -12.628  14.322  66.217  1.00  0.00    -0.488 OA 
HETATM   40  H   UNL     1     -13.140  14.321  65.417  1.00  0.00     0.000 HD 
HETATM   41  H2  UNL     1     -12.482  13.357  63.903  1.00  0.00     0.000 HD 
HETATM   42  C   UNL     1     -10.710  11.104  65.742  1.00  0.00    -0.188 C  
HETATM   43  N   UNL     1     -12.072  12.448  64.118  1.00  0.00    -0.422 NA 
HETATM   44  O   UNL     1      -9.839  10.594  64.725  1.00  0.00    -0.258 OA 
BRANCH  34  45
HETATM   45  C   UNL     1     -12.143  13.526  69.002  1.00  0.00    -0.291 C  
HETATM   46  O   UNL     1     -12.380  14.930  68.892  1.00  0.00    -0.570 OA 
HETATM   47  H   UNL     1     -12.908  15.241  69.618  1.00  0.00     0.000 HD 
ENDBRANCH  34  45
ENDBRANCH  31  32
ENDBRANCH  25  31
ENDBRANCH  16  17
ENDBRANCH   7  16
ENDBRANCH   2   5
TORSDOF 6
ENDMDL
MODEL      132
REMARK 921   NORMALIZED FREE ENERGY PREDICTED BY IDOCK:   -5.60 KCAL/MOL
REMARK 922        TOTAL FREE ENERGY PREDICTED BY IDOCK:   -8.62 KCAL/MOL
REMARK 923 INTER-LIGAND FREE ENERGY PREDICTED BY IDOCK:   -8.35 KCAL/MOL
REMARK 924 INTRA-LIGAND FREE ENERGY PREDICTED BY IDOCK:   -0.27 KCAL/MOL
REMARK 927      BINDING AFFINITY PREDICTED BY RF-SCORE:    0.00 PKD
ROOT
HETATM    1  N   UNL     1      -8.441   9.881  70.968  1.00  0.00    -0.201 NA 
HETATM    2  C   UNL     1      -8.721   9.105  69.751  1.00  0.00    -0.151 C  
HETATM    3  H2  UNL     1      -8.168  10.837  70.741  1.00  0.00     0.000 HD 
HETATM    4  H1  UNL     1      -9.222   9.867  71.624  1.00  0.00     0.000 HD 
ENDROOT
BRANCH   2   5
HETATM    5  C   UNL     1      -7.534   9.127  68.756  1.00  0.00    -0.076 C  
HETATM    6  O   UNL     1      -7.969   9.190  67.388  1.00  0.00    -0.102 OA 
HETATM    7  C   UNL     1      -8.573  10.415  67.005  1.00  0.00    -0.130 C  
HETATM    8  C   UNL     1      -7.549  11.586  67.164  1.00  0.00    -0.149 C  
HETATM    9  C   UNL     1      -6.519  10.243  69.072  1.00  0.00    -0.045 C  
HETATM   10  N   UNL     1      -6.411  11.482  66.225  1.00  0.00    -0.364 NA 
HETATM   11  C   UNL     1      -7.022  11.616  68.611  1.00  0.00    -0.088 C  
HETATM   12  H   UNL     1      -4.660  10.614  68.608  1.00  0.00     0.000 HD 
HETATM   13  H1  UNL     1      -5.743  12.247  66.329  1.00  0.00     0.000 HD 
HETATM   14  H2  UNL     1      -6.738  11.411  65.262  1.00  0.00     0.000 HD 
HETATM   15  O   UNL     1      -5.286   9.926  68.413  1.00  0.00    -0.036 OA 
BRANCH   7  16
HETATM   16  O   UNL     1      -9.015  10.345  65.638  1.00  0.00    -0.162 OA 
BRANCH  16  17
HETATM   17  C   UNL     1     -10.158  11.173  65.275  1.00  0.00    -0.276 C  
HETATM   18  N   UNL     1      -9.386  11.588  62.949  1.00  0.00    -0.524 NA 
HETATM   19  C   UNL     1     -11.039  13.088  63.878  1.00  0.00    -0.411 C  
HETATM   20  H1  UNL     1      -9.168  12.285  62.238  1.00  0.00     0.000 HD 
HETATM   21  H2  UNL     1     -10.069  10.909  62.613  1.00  0.00     0.000 HD 
HETATM   22  C   UNL     1     -11.566  13.800  65.125  1.00  0.00    -0.331 C  
HETATM   23  C   UNL     1      -9.827  12.228  64.199  1.00  0.00    -0.145 C  
HETATM   24  N   UNL     1     -12.646  14.685  64.656  1.00  0.00    -0.569 NA 
HETATM   25  C   UNL     1     -12.020  12.784  66.219  1.00  0.00    -0.395 C  
HETATM   26  H   UNL     1     -11.927  10.975  67.988  1.00  0.00     0.000 HD 
HETATM   27  H1  UNL     1     -12.997  15.160  65.487  1.00  0.00     0.000 HD 
HETATM   28  C   UNL     1     -10.897  11.745  66.517  1.00  0.00    -0.282 C  
HETATM   29  H2  UNL     1     -13.371  14.199  64.126  1.00  0.00     0.000 HD 
HETATM   30  O   UNL     1     -11.475  10.626  67.230  1.00  0.00    -0.412 OA 
BRANCH  25  31
HETATM   31  O   UNL     1     -12.337  13.424  67.495  1.00  0.00    -0.246 OA 
BRANCH  31  32
HETATM   32  C   UNL     1     -11.259  13.476  68.438  1.00  0.00    -0.278 C  
HETATM   33  O   UNL     1     -10.710  14.793  68.574  1.00  0.00    -0.235 OA 
HETATM   34  C   UNL     1     -11.617  15.717  69.199  1.00  0.00    -0.383 C  
HETATM   35  C   UNL     1     -11.972  15.246  70.618  1.00  0.00    -0.343 C  
HETATM   36  H   UNL     1     -12.531  11.233  70.492  1.00  0.00     0.000 HD 
HETATM   37  C   UNL     1     -12.617  13.848  70.565  1.00  0.00    -0.312 C  
HETATM   38  H1  UNL     1     -13.360  12.444  71.898  1.00  0.00     0.000 HD 
HETATM   39  O   UNL     1     -12.838  16.163  71.291  1.00  0.00    -0.541 OA 
HETATM   40  H   UNL     1     -13.058  15.873  72.169  1.00  0.00     0.000 HD 
HETATM   41  H2  UNL     1     -13.511  14.035  72.444  1.00  0.00     0.000 HD 
HETATM   42  C   UNL     1     -11.681  12.888  69.810  1.00  0.00    -0.281 C  
HETATM   43  N   UNL     1     -12.932  13.369  71.933  1.00  0.00    -0.342 NA 
HETATM   44  O   UNL     1     -12.272  11.592  69.652  1.00  0.00    -0.273 OA 
BRANCH  34  45
HETATM   45  C   UNL     1     -10.942  17.095  69.251  1.00  0.00     0.107 C  
HETATM   46  O   UNL     1     -10.603  17.543  67.939  1.00  0.00    -0.378 OA 
HETATM   47  H   UNL     1     -10.186  18.396  67.972  1.00  0.00     0.000 HD 
ENDBRANCH  34  45
ENDBRANCH  31  32
ENDBRANCH  25  31
ENDBRANCH  16  17
ENDBRANCH   7  16
ENDBRANCH   2   5
TORSDOF 6
ENDMDL
MODEL      133
REMARK 921   NORMALIZED FREE ENERGY PREDICTED BY IDOCK:   -5.60 KCAL/MOL
REMARK 922        TOTAL FREE ENERGY PREDICTED BY IDOCK:   -8.61 KCAL/MOL
REMARK 923 INTER-LIGAND FREE ENERGY PREDICTED BY IDOCK:   -7.13 KCAL/MOL
REMARK 924 INTRA-LIGAND FREE ENERGY PREDICTED BY IDOCK:   -1.48 KCAL/MOL
REMARK 927      BINDING AFFINITY PREDICTED BY RF-SCORE:    0.00 PKD
ROOT
HETATM    1  N   UNL     1      -7.589  10.963  62.951  1.00  0.00    -0.368 NA 
HETATM    2  C   UNL     1      -8.364  10.568  64.136  1.00  0.00    -0.095 C  
HETATM    3  H2  UNL     1      -7.792  11.925  62.681  1.00  0.00     0.000 HD 
HETATM    4  H1  UNL     1      -6.588  10.819  63.079  1.00  0.00     0.000 HD 
ENDROOT
BRANCH   2   5
HETATM    5  C   UNL     1      -9.886  10.787  63.942  1.00  0.00    -0.332 C  
HETATM    6  O   UNL     1     -10.659  10.242  65.023  1.00  0.00    -0.126 OA 
HETATM    7  C   UNL     1     -10.518  10.917  66.263  1.00  0.00    -0.245 C  
HETATM    8  C   UNL     1     -10.998  12.398  66.121  1.00  0.00    -0.286 C  
HETATM    9  C   UNL     1     -10.242  12.265  63.688  1.00  0.00    -0.403 C  
HETATM   10  N   UNL     1     -12.450  12.506  65.861  1.00  0.00    -0.517 NA 
HETATM   11  C   UNL     1     -10.219  13.085  64.984  1.00  0.00    -0.287 C  
HETATM   12  H   UNL     1     -11.767  13.227  62.944  1.00  0.00     0.000 HD 
HETATM   13  H1  UNL     1     -12.764  13.473  65.768  1.00  0.00     0.000 HD 
HETATM   14  H2  UNL     1     -12.987  12.015  66.575  1.00  0.00     0.000 HD 
HETATM   15  O   UNL     1     -11.548  12.315  63.100  1.00  0.00    -0.364 OA 
BRANCH   7  16
HETATM   16  O   UNL     1     -11.291  10.256  67.279  1.00  0.00    -0.280 OA 
BRANCH  16  17
HETATM   17  C   UNL     1     -10.576   9.334  68.152  1.00  0.00    -0.198 C  
HETATM   18  N   UNL     1     -10.346  10.953  70.024  1.00  0.00    -0.370 NA 
HETATM   19  C   UNL     1      -8.867   9.040  69.993  1.00  0.00    -0.181 C  
HETATM   20  H1  UNL     1      -9.710  11.421  70.669  1.00  0.00     0.000 HD 
HETATM   21  H2  UNL     1     -11.095  10.470  70.519  1.00  0.00     0.000 HD 
HETATM   22  C   UNL     1      -8.069   8.052  69.142  1.00  0.00    -0.119 C  
HETATM   23  C   UNL     1      -9.614  10.043  69.128  1.00  0.00    -0.210 C  
HETATM   24  N   UNL     1      -7.304   7.228  70.094  1.00  0.00    -0.077 NA 
HETATM   25  C   UNL     1      -8.998   7.221  68.202  1.00  0.00    -0.132 C  
HETATM   26  H   UNL     1     -10.613   6.641  66.340  1.00  0.00     0.000 HD 
HETATM   27  H1  UNL     1      -6.771   6.569  69.526  1.00  0.00     0.000 HD 
HETATM   28  C   UNL     1      -9.931   8.155  67.372  1.00  0.00    -0.209 C  
HETATM   29  H2  UNL     1      -7.884   6.780  70.804  1.00  0.00     0.000 HD 
HETATM   30  O   UNL     1     -11.007   7.362  66.817  1.00  0.00    -0.249 OA 
BRANCH  25  31
HETATM   31  O   UNL     1      -8.256   6.415  67.233  1.00  0.00    -0.112 OA 
BRANCH  31  32
HETATM   32  C   UNL     1      -8.371   4.996  67.403  1.00  0.00    -0.106 C  
HETATM   33  O   UNL     1      -9.399   4.425  66.583  1.00  0.00    -0.137 OA 
HETATM   34  C   UNL     1      -9.089   4.474  65.180  1.00  0.00    -0.150 C  
HETATM   35  C   UNL     1      -7.808   3.678  64.885  1.00  0.00    -0.085 C  
HETATM   36  H   UNL     1      -5.145   4.470  67.838  1.00  0.00     0.000 HD 
HETATM   37  C   UNL     1      -6.629   4.256  65.692  1.00  0.00    -0.047 C  
HETATM   38  H1  UNL     1      -4.614   3.857  65.975  1.00  0.00     0.000 HD 
HETATM   39  O   UNL     1      -7.489   3.664  63.490  1.00  0.00    -0.056 OA 
HETATM   40  H   UNL     1      -6.697   3.172  63.308  1.00  0.00     0.000 HD 
HETATM   41  H2  UNL     1      -5.179   3.414  64.446  1.00  0.00     0.000 HD 
HETATM   42  C   UNL     1      -7.007   4.290  67.183  1.00  0.00    -0.060 C  
HETATM   43  N   UNL     1      -5.395   3.474  65.441  1.00  0.00    -0.009 NA 
HETATM   44  O   UNL     1      -5.980   4.903  67.973  1.00  0.00    -0.024 OA 
BRANCH  34  45
HETATM   45  C   UNL     1     -10.272   3.879  64.403  1.00  0.00    -0.230 C  
HETATM   46  O   UNL     1     -11.510   4.389  64.897  1.00  0.00    -1.070 OA 
HETATM   47  H   UNL     1     -12.242   4.021  64.417  1.00  0.00     0.000 HD 
ENDBRANCH  34  45
ENDBRANCH  31  32
ENDBRANCH  25  31
ENDBRANCH  16  17
ENDBRANCH   7  16
ENDBRANCH   2   5
TORSDOF 6
ENDMDL
MODEL      134
REMARK 921   NORMALIZED FREE ENERGY PREDICTED BY IDOCK:   -5.57 KCAL/MOL
REMARK 922        TOTAL FREE ENERGY PREDICTED BY IDOCK:   -8.58 KCAL/MOL
REMARK 923 INTER-LIGAND FREE ENERGY PREDICTED BY IDOCK:   -7.30 KCAL/MOL
REMARK 924 INTRA-LIGAND FREE ENERGY PREDICTED BY IDOCK:   -1.28 KCAL/MOL
REMARK 927      BINDING AFFINITY PREDICTED BY RF-SCORE:    0.00 PKD
ROOT
HETATM    1  N   UNL     1      -7.824  20.455  65.723  1.00  0.00    -0.539 NA 
HETATM    2  C   UNL     1      -8.612  19.519  66.539  1.00  0.00    -0.348 C  
HETATM    3  H2  UNL     1      -6.828  20.246  65.782  1.00  0.00     0.000 HD 
HETATM    4  H1  UNL     1      -8.138  20.480  64.753  1.00  0.00     0.000 HD 
ENDROOT
BRANCH   2   5
HETATM    5  C   UNL     1      -8.134  19.480  68.012  1.00  0.00    -0.312 C  
HETATM    6  O   UNL     1      -8.499  18.258  68.672  1.00  0.00    -0.317 OA 
HETATM    7  C   UNL     1      -7.820  17.100  68.212  1.00  0.00    -0.227 C  
HETATM    8  C   UNL     1      -6.282  17.254  68.453  1.00  0.00    -0.153 C  
HETATM    9  C   UNL     1      -6.626  19.764  68.151  1.00  0.00    -0.261 C  
HETATM   10  N   UNL     1      -5.928  17.284  69.888  1.00  0.00    -0.246 NA 
HETATM   11  C   UNL     1      -5.781  18.541  67.772  1.00  0.00    -0.167 C  
HETATM   12  H   UNL     1      -5.434  20.311  69.595  1.00  0.00     0.000 HD 
HETATM   13  H1  UNL     1      -4.925  17.384  70.045  1.00  0.00     0.000 HD 
HETATM   14  H2  UNL     1      -6.294  16.464  70.372  1.00  0.00     0.000 HD 
HETATM   15  O   UNL     1      -6.365  20.137  69.510  1.00  0.00    -0.328 OA 
BRANCH   7  16
HETATM   16  O   UNL     1      -8.301  15.935  68.904  1.00  0.00    -0.194 OA 
BRANCH  16  17
HETATM   17  C   UNL     1      -9.154  15.028  68.146  1.00  0.00    -0.178 C  
HETATM   18  N   UNL     1     -11.234  16.336  68.519  1.00  0.00    -0.365 NA 
HETATM   19  C   UNL     1     -11.456  14.024  67.847  1.00  0.00    -0.347 C  
HETATM   20  H1  UNL     1     -12.199  16.323  68.848  1.00  0.00     0.000 HD 
HETATM   21  H2  UNL     1     -11.167  16.693  67.566  1.00  0.00     0.000 HD 
HETATM   22  C   UNL     1     -10.886  12.608  67.926  1.00  0.00    -0.219 C  
HETATM   23  C   UNL     1     -10.614  15.007  68.645  1.00  0.00    -0.237 C  
HETATM   24  N   UNL     1     -11.853  11.746  67.225  1.00  0.00    -0.624 NA 
HETATM   25  C   UNL     1      -9.442  12.534  67.337  1.00  0.00    -0.184 C  
HETATM   26  H   UNL     1      -6.954  12.907  67.054  1.00  0.00     0.000 HD 
HETATM   27  H1  UNL     1     -11.473  10.801  67.278  1.00  0.00     0.000 HD 
HETATM   28  C   UNL     1      -8.522  13.618  67.978  1.00  0.00    -0.174 C  
HETATM   29  H2  UNL     1     -12.057  12.051  66.273  1.00  0.00     0.000 HD 
HETATM   30  O   UNL     1      -7.340  13.769  67.158  1.00  0.00    -0.077 OA 
BRANCH  25  31
HETATM   31  O   UNL     1      -8.791  11.247  67.579  1.00  0.00    -0.138 OA 
BRANCH  31  32
HETATM   32  C   UNL     1      -8.757  10.828  68.949  1.00  0.00    -0.152 C  
HETATM   33  O   UNL     1      -9.783   9.876  69.259  1.00  0.00    -0.184 OA 
HETATM   34  C   UNL     1      -9.583   8.606  68.616  1.00  0.00    -0.155 C  
HETATM   35  C   UNL     1      -8.257   7.976  69.069  1.00  0.00    -0.128 C  
HETATM   36  H   UNL     1      -5.473  10.919  69.221  1.00  0.00     0.000 HD 
HETATM   37  C   UNL     1      -7.083   8.915  68.729  1.00  0.00    -0.067 C  
HETATM   38  H1  UNL     1      -5.024   8.954  68.969  1.00  0.00     0.000 HD 
HETATM   39  O   UNL     1      -8.042   6.688  68.485  1.00  0.00    -0.116 OA 
HETATM   40  H   UNL     1      -7.222   6.299  68.765  1.00  0.00     0.000 HD 
HETATM   41  H2  UNL     1      -5.655   7.394  68.824  1.00  0.00     0.000 HD 
HETATM   42  C   UNL     1      -7.352  10.301  69.341  1.00  0.00    -0.115 C  
HETATM   43  N   UNL     1      -5.801   8.332  69.194  1.00  0.00    -0.034 NA 
HETATM   44  O   UNL     1      -6.333  11.242  68.981  1.00  0.00    -0.051 OA 
BRANCH  34  45
HETATM   45  C   UNL     1     -10.758   7.689  68.984  1.00  0.00    -0.119 C  
HETATM   46  O   UNL     1     -11.287   7.052  67.821  1.00  0.00    -0.541 OA 
HETATM   47  H   UNL     1     -12.013   6.484  68.049  1.00  0.00     0.000 HD 
ENDBRANCH  34  45
ENDBRANCH  31  32
ENDBRANCH  25  31
ENDBRANCH  16  17
ENDBRANCH   7  16
ENDBRANCH   2   5
TORSDOF 6
ENDMDL
MODEL      135
REMARK 921   NORMALIZED FREE ENERGY PREDICTED BY IDOCK:   -5.57 KCAL/MOL
REMARK 922        TOTAL FREE ENERGY PREDICTED BY IDOCK:   -8.57 KCAL/MOL
REMARK 923 INTER-LIGAND FREE ENERGY PREDICTED BY IDOCK:   -8.35 KCAL/MOL
REMARK 924 INTRA-LIGAND FREE ENERGY PREDICTED BY IDOCK:   -0.22 KCAL/MOL
REMARK 927      BINDING AFFINITY PREDICTED BY RF-SCORE:    0.00 PKD
ROOT
HETATM    1  N   UNL     1     -10.981  10.942  63.367  1.00  0.00    -0.588 NA 
HETATM    2  C   UNL     1     -11.776  12.172  63.504  1.00  0.00    -0.490 C  
HETATM    3  H2  UNL     1     -11.375  10.186  63.926  1.00  0.00     0.000 HD 
HETATM    4  H1  UNL     1     -10.870  10.661  62.393  1.00  0.00     0.000 HD 
ENDROOT
BRANCH   2   5
HETATM    5  C   UNL     1     -11.945  12.600  64.983  1.00  0.00    -0.419 C  
HETATM    6  O   UNL     1     -10.800  12.263  65.783  1.00  0.00    -0.262 OA 
HETATM    7  C   UNL     1      -9.626  13.005  65.495  1.00  0.00     0.047 C  
HETATM    8  C   UNL     1      -9.878  14.525  65.758  1.00  0.00    -0.314 C  
HETATM    9  C   UNL     1     -12.311  14.090  65.128  1.00  0.00    -0.453 C  
HETATM   10  N   UNL     1     -10.105  14.828  67.188  1.00  0.00    -0.239 NA 
HETATM   11  C   UNL     1     -11.090  14.997  64.933  1.00  0.00    -0.425 C  
HETATM   12  H   UNL     1     -13.091  15.207  66.525  1.00  0.00     0.000 HD 
HETATM   13  H1  UNL     1     -10.270  15.821  67.360  1.00  0.00     0.000 HD 
HETATM   14  H2  UNL     1      -9.337  14.480  67.762  1.00  0.00     0.000 HD 
HETATM   15  O   UNL     1     -12.865  14.288  66.435  1.00  0.00    -0.191 OA 
BRANCH   7  16
HETATM   16  O   UNL     1      -8.537  12.549  66.316  1.00  0.00     0.030 OA 
BRANCH  16  17
HETATM   17  C   UNL     1      -8.524  11.133  66.661  1.00  0.00    -0.164 C  
HETATM   18  N   UNL     1      -7.601  10.391  64.476  1.00  0.00    -0.306 NA 
HETATM   19  C   UNL     1      -8.712   8.744  65.853  1.00  0.00    -0.198 C  
HETATM   20  H1  UNL     1      -7.715   9.779  63.669  1.00  0.00     0.000 HD 
HETATM   21  H2  UNL     1      -6.689  10.266  64.917  1.00  0.00     0.000 HD 
HETATM   22  C   UNL     1      -9.831   8.457  66.855  1.00  0.00    -0.245 C  
HETATM   23  C   UNL     1      -8.698  10.206  65.439  1.00  0.00    -0.161 C  
HETATM   24  N   UNL     1      -9.812   7.000  67.072  1.00  0.00    -0.170 NA 
HETATM   25  C   UNL     1      -9.657   9.286  68.166  1.00  0.00    -0.143 C  
HETATM   26  H   UNL     1      -9.524  11.260  69.747  1.00  0.00     0.000 HD 
HETATM   27  H1  UNL     1     -10.559   6.808  67.740  1.00  0.00     0.000 HD 
HETATM   28  C   UNL     1      -9.472  10.801  67.847  1.00  0.00    -0.157 C  
HETATM   29  H2  UNL     1      -8.902   6.642  67.363  1.00  0.00     0.000 HD 
HETATM   30  O   UNL     1      -8.945  11.463  69.021  1.00  0.00    -0.063 OA 
BRANCH  25  31
HETATM   31  O   UNL     1     -10.811   9.191  69.059  1.00  0.00    -0.191 OA 
BRANCH  31  32
HETATM   32  C   UNL     1     -10.500   9.162  70.458  1.00  0.00    -0.236 C  
HETATM   33  O   UNL     1     -11.228  10.146  71.204  1.00  0.00    -0.325 OA 
HETATM   34  C   UNL     1     -12.638   9.874  71.267  1.00  0.00    -0.381 C  
HETATM   35  C   UNL     1     -12.895   8.527  71.961  1.00  0.00    -0.374 C  
HETATM   36  H   UNL     1     -10.119   5.891  70.626  1.00  0.00     0.000 HD 
HETATM   37  C   UNL     1     -12.185   7.394  71.195  1.00  0.00    -0.324 C  
HETATM   38  H1  UNL     1     -11.928   5.344  71.369  1.00  0.00     0.000 HD 
HETATM   39  O   UNL     1     -14.291   8.240  72.085  1.00  0.00    -0.483 OA 
HETATM   40  H   UNL     1     -14.449   7.407  72.514  1.00  0.00     0.000 HD 
HETATM   41  H2  UNL     1     -13.388   5.896  72.015  1.00  0.00     0.000 HD 
HETATM   42  C   UNL     1     -10.694   7.740  71.049  1.00  0.00    -0.228 C  
HETATM   43  N   UNL     1     -12.398   6.094  71.876  1.00  0.00    -0.155 NA 
HETATM   44  O   UNL     1     -10.000   6.762  70.264  1.00  0.00    -0.178 OA 
BRANCH  34  45
HETATM   45  C   UNL     1     -13.315  11.009  72.047  1.00  0.00    -0.288 C  
HETATM   46  O   UNL     1     -13.205  12.245  71.342  1.00  0.00    -0.280 OA 
HETATM   47  H   UNL     1     -13.624  12.947  71.825  1.00  0.00     0.000 HD 
ENDBRANCH  34  45
ENDBRANCH  31  32
ENDBRANCH  25  31
ENDBRANCH  16  17
ENDBRANCH   7  16
ENDBRANCH   2   5
TORSDOF 6
ENDMDL
MODEL      136
REMARK 921   NORMALIZED FREE ENERGY PREDICTED BY IDOCK:   -5.55 KCAL/MOL
REMARK 922        TOTAL FREE ENERGY PREDICTED BY IDOCK:   -8.55 KCAL/MOL
REMARK 923 INTER-LIGAND FREE ENERGY PREDICTED BY IDOCK:   -7.99 KCAL/MOL
REMARK 924 INTRA-LIGAND FREE ENERGY PREDICTED BY IDOCK:   -0.56 KCAL/MOL
REMARK 927      BINDING AFFINITY PREDICTED BY RF-SCORE:    0.00 PKD
ROOT
HETATM    1  N   UNL     1      -6.439  10.880  67.903  1.00  0.00    -0.061 NA 
HETATM    2  C   UNL     1      -6.464   9.420  67.731  1.00  0.00    -0.059 C  
HETATM    3  H2  UNL     1      -6.455  11.135  68.890  1.00  0.00     0.000 HD 
HETATM    4  H1  UNL     1      -5.650  11.311  67.424  1.00  0.00     0.000 HD 
ENDROOT
BRANCH   2   5
HETATM    5  C   UNL     1      -7.665   8.764  68.459  1.00  0.00    -0.099 C  
HETATM    6  O   UNL     1      -8.846   9.579  68.409  1.00  0.00    -0.123 OA 
HETATM    7  C   UNL     1      -9.437   9.704  67.125  1.00  0.00    -0.148 C  
HETATM    8  C   UNL     1      -9.885   8.298  66.606  1.00  0.00    -0.267 C  
HETATM    9  C   UNL     1      -7.949   7.334  67.958  1.00  0.00    -0.119 C  
HETATM   10  N   UNL     1     -10.983   7.717  67.409  1.00  0.00    -0.546 NA 
HETATM   11  C   UNL     1      -8.680   7.339  66.611  1.00  0.00    -0.136 C  
HETATM   12  H   UNL     1      -8.920   5.784  68.636  1.00  0.00     0.000 HD 
HETATM   13  H1  UNL     1     -11.276   6.799  67.070  1.00  0.00     0.000 HD 
HETATM   14  H2  UNL     1     -11.775   8.356  67.462  1.00  0.00     0.000 HD 
HETATM   15  O   UNL     1      -8.745   6.665  68.945  1.00  0.00    -0.128 OA 
BRANCH   7  16
HETATM   16  O   UNL     1     -10.575  10.580  67.185  1.00  0.00    -0.237 OA 
BRANCH  16  17
HETATM   17  C   UNL     1     -10.693  11.422  68.369  1.00  0.00    -0.203 C  
HETATM   18  N   UNL     1     -12.534  10.098  69.385  1.00  0.00    -0.387 NA 
HETATM   19  C   UNL     1     -12.199  12.359  70.171  1.00  0.00    -0.303 C  
HETATM   20  H1  UNL     1     -13.476  10.112  69.776  1.00  0.00     0.000 HD 
HETATM   21  H2  UNL     1     -11.864   9.684  70.034  1.00  0.00     0.000 HD 
HETATM   22  C   UNL     1     -11.786  13.789  69.820  1.00  0.00    -0.331 C  
HETATM   23  C   UNL     1     -12.118  11.444  68.960  1.00  0.00    -0.249 C  
HETATM   24  N   UNL     1     -12.029  14.587  71.034  1.00  0.00    -0.330 NA 
HETATM   25  C   UNL     1     -10.311  13.855  69.313  1.00  0.00     0.083 C  
HETATM   26  H   UNL     1      -8.265  13.515  67.861  1.00  0.00     0.000 HD 
HETATM   27  H1  UNL     1     -11.754  15.541  70.800  1.00  0.00     0.000 HD 
HETATM   28  C   UNL     1     -10.071  12.831  68.162  1.00  0.00    -0.239 C  
HETATM   29  H2  UNL     1     -11.562  14.220  71.864  1.00  0.00     0.000 HD 
HETATM   30  O   UNL     1      -8.646  12.654  67.987  1.00  0.00    -0.172 OA 
BRANCH  25  31
HETATM   31  O   UNL     1      -9.949  15.167  68.778  1.00  0.00    -0.213 OA 
BRANCH  31  32
HETATM   32  C   UNL     1     -11.052  16.041  68.505  1.00  0.00    -0.347 C  
HETATM   33  O   UNL     1     -10.820  17.379  68.964  1.00  0.00    -0.181 OA 
HETATM   34  C   UNL     1      -9.790  18.056  68.224  1.00  0.00    -0.355 C  
HETATM   35  C   UNL     1     -10.179  18.168  66.742  1.00  0.00    -0.372 C  
HETATM   36  H   UNL     1     -11.851  14.647  65.627  1.00  0.00     0.000 HD 
HETATM   37  C   UNL     1     -10.402  16.764  66.147  1.00  0.00    -0.330 C  
HETATM   38  H1  UNL     1     -10.959  15.932  64.331  1.00  0.00     0.000 HD 
HETATM   39  O   UNL     1      -9.199  18.876  65.978  1.00  0.00    -0.468 OA 
HETATM   40  H   UNL     1      -9.439  18.945  65.061  1.00  0.00     0.000 HD 
HETATM   41  H2  UNL     1     -10.146  17.405  64.175  1.00  0.00     0.000 HD 
HETATM   42  C   UNL     1     -11.435  16.011  67.002  1.00  0.00     0.284 C  
HETATM   43  N   UNL     1     -10.811  16.861  64.725  1.00  0.00    -0.816 NA 
HETATM   44  O   UNL     1     -11.616  14.665  66.547  1.00  0.00    -0.361 OA 
BRANCH  34  45
HETATM   45  C   UNL     1      -9.601  19.454  68.828  1.00  0.00    -0.432 C  
HETATM   46  O   UNL     1     -10.168  20.453  67.981  1.00  0.00    -0.346 OA 
HETATM   47  H   UNL     1     -10.051  21.318  68.354  1.00  0.00     0.000 HD 
ENDBRANCH  34  45
ENDBRANCH  31  32
ENDBRANCH  25  31
ENDBRANCH  16  17
ENDBRANCH   7  16
ENDBRANCH   2   5
TORSDOF 6
ENDMDL
MODEL      137
REMARK 921   NORMALIZED FREE ENERGY PREDICTED BY IDOCK:   -5.53 KCAL/MOL
REMARK 922        TOTAL FREE ENERGY PREDICTED BY IDOCK:   -8.53 KCAL/MOL
REMARK 923 INTER-LIGAND FREE ENERGY PREDICTED BY IDOCK:   -6.73 KCAL/MOL
REMARK 924 INTRA-LIGAND FREE ENERGY PREDICTED BY IDOCK:   -1.80 KCAL/MOL
REMARK 927      BINDING AFFINITY PREDICTED BY RF-SCORE:    0.00 PKD
ROOT
HETATM    1  N   UNL     1      -8.506  10.285  70.056  1.00  0.00    -0.359 NA 
HETATM    2  C   UNL     1      -7.300   9.481  69.808  1.00  0.00    -0.092 C  
HETATM    3  H2  UNL     1      -8.923  10.055  70.958  1.00  0.00     0.000 HD 
HETATM    4  H1  UNL     1      -8.325  11.286  69.979  1.00  0.00     0.000 HD 
ENDROOT
BRANCH   2   5
HETATM    5  C   UNL     1      -7.574   7.961  69.925  1.00  0.00    -0.089 C  
HETATM    6  O   UNL     1      -8.442   7.481  68.886  1.00  0.00    -0.128 OA 
HETATM    7  C   UNL     1      -7.880   7.481  67.584  1.00  0.00    -0.113 C  
HETATM    8  C   UNL     1      -6.631   6.541  67.543  1.00  0.00    -0.061 C  
HETATM    9  C   UNL     1      -6.277   7.131  69.999  1.00  0.00    -0.027 C  
HETATM   10  N   UNL     1      -6.981   5.117  67.740  1.00  0.00    -0.060 NA 
HETATM   11  C   UNL     1      -5.622   6.978  68.622  1.00  0.00    -0.018 C  
HETATM   12  H   UNL     1      -5.802   5.330  70.580  1.00  0.00     0.000 HD 
HETATM   13  H1  UNL     1      -6.166   4.503  67.713  1.00  0.00     0.000 HD 
HETATM   14  H2  UNL     1      -7.686   4.818  67.068  1.00  0.00     0.000 HD 
HETATM   15  O   UNL     1      -6.602   5.842  70.534  1.00  0.00    -0.040 OA 
BRANCH   7  16
HETATM   16  O   UNL     1      -8.851   7.033  66.623  1.00  0.00    -0.121 OA 
BRANCH  16  17
HETATM   17  C   UNL     1      -9.261   7.995  65.608  1.00  0.00     0.075 C  
HETATM   18  N   UNL     1      -8.002   6.903  63.764  1.00  0.00    -0.242 NA 
HETATM   19  C   UNL     1      -8.679   9.205  63.465  1.00  0.00    -0.148 C  
HETATM   20  H1  UNL     1      -7.316   7.019  63.018  1.00  0.00     0.000 HD 
HETATM   21  H2  UNL     1      -8.877   6.514  63.412  1.00  0.00     0.000 HD 
HETATM   22  C   UNL     1      -8.928  10.563  64.124  1.00  0.00    -0.218 C  
HETATM   23  C   UNL     1      -8.222   8.170  64.480  1.00  0.00    -0.115 C  
HETATM   24  N   UNL     1      -9.237  11.492  63.024  1.00  0.00    -0.540 NA 
HETATM   25  C   UNL     1     -10.049  10.480  65.207  1.00  0.00    -0.300 C  
HETATM   26  H   UNL     1     -11.280   9.863  67.332  1.00  0.00     0.000 HD 
HETATM   27  H1  UNL     1      -9.403  12.398  63.463  1.00  0.00     0.000 HD 
HETATM   28  C   UNL     1      -9.761   9.332  66.222  1.00  0.00    -0.271 C  
HETATM   29  H2  UNL     1     -10.006  11.180  62.429  1.00  0.00     0.000 HD 
HETATM   30  O   UNL     1     -10.974   9.045  66.956  1.00  0.00    -0.091 OA 
BRANCH  25  31
HETATM   31  O   UNL     1     -10.173  11.705  65.995  1.00  0.00    -0.218 OA 
BRANCH  31  32
HETATM   32  C   UNL     1     -11.497  12.248  66.078  1.00  0.00    -0.381 C  
HETATM   33  O   UNL     1     -12.100  12.033  67.361  1.00  0.00    -0.566 OA 
HETATM   34  C   UNL     1     -11.468  12.783  68.411  1.00  0.00    -0.311 C  
HETATM   35  C   UNL     1     -11.571  14.291  68.131  1.00  0.00    -0.332 C  
HETATM   36  H   UNL     1     -10.880  14.871  64.179  1.00  0.00     0.000 HD 
HETATM   37  C   UNL     1     -10.901  14.625  66.785  1.00  0.00    -0.312 C  
HETATM   38  H1  UNL     1     -10.580  16.295  65.597  1.00  0.00     0.000 HD 
HETATM   39  O   UNL     1     -10.993  15.076  69.178  1.00  0.00    -0.239 OA 
HETATM   40  H   UNL     1     -11.057  16.008  69.005  1.00  0.00     0.000 HD 
HETATM   41  H2  UNL     1     -10.660  16.648  67.247  1.00  0.00     0.000 HD 
HETATM   42  C   UNL     1     -11.517  13.748  65.682  1.00  0.00    -0.310 C  
HETATM   43  N   UNL     1     -11.025  16.073  66.489  1.00  0.00    -0.161 NA 
HETATM   44  O   UNL     1     -10.867  13.953  64.421  1.00  0.00    -0.388 OA 
BRANCH  34  45
HETATM   45  C   UNL     1     -12.166  12.442  69.735  1.00  0.00    -0.131 C  
HETATM   46  O   UNL     1     -11.371  11.546  70.511  1.00  0.00    -0.424 OA 
HETATM   47  H   UNL     1     -11.802  11.335  71.330  1.00  0.00     0.000 HD 
ENDBRANCH  34  45
ENDBRANCH  31  32
ENDBRANCH  25  31
ENDBRANCH  16  17
ENDBRANCH   7  16
ENDBRANCH   2   5
TORSDOF 6
ENDMDL
MODEL      138
REMARK 921   NORMALIZED FREE ENERGY PREDICTED BY IDOCK:   -5.53 KCAL/MOL
REMARK 922        TOTAL FREE ENERGY PREDICTED BY IDOCK:   -8.53 KCAL/MOL
REMARK 923 INTER-LIGAND FREE ENERGY PREDICTED BY IDOCK:   -7.42 KCAL/MOL
REMARK 924 INTRA-LIGAND FREE ENERGY PREDICTED BY IDOCK:   -1.11 KCAL/MOL
REMARK 927      BINDING AFFINITY PREDICTED BY RF-SCORE:    0.00 PKD
ROOT
HETATM    1  N   UNL     1     -11.742   6.749  70.606  1.00  0.00    -0.370 NA 
HETATM    2  C   UNL     1     -11.361   5.926  71.763  1.00  0.00    -0.227 C  
HETATM    3  H2  UNL     1     -11.860   6.176  69.770  1.00  0.00     0.000 HD 
HETATM    4  H1  UNL     1     -12.573   7.311  70.788  1.00  0.00     0.000 HD 
ENDROOT
BRANCH   2   5
HETATM    5  C   UNL     1     -10.098   5.072  71.487  1.00  0.00    -0.196 C  
HETATM    6  O   UNL     1      -9.294   5.615  70.427  1.00  0.00    -0.154 OA 
HETATM    7  C   UNL     1      -8.644   6.838  70.731  1.00  0.00    -0.141 C  
HETATM    8  C   UNL     1      -7.661   6.635  71.930  1.00  0.00    -0.096 C  
HETATM    9  C   UNL     1      -9.261   4.829  72.758  1.00  0.00    -0.129 C  
HETATM   10  N   UNL     1      -6.528   5.745  71.597  1.00  0.00    -0.047 NA 
HETATM   11  C   UNL     1      -8.430   6.062  73.135  1.00  0.00    -0.118 C  
HETATM   12  H   UNL     1      -7.880   3.561  73.299  1.00  0.00     0.000 HD 
HETATM   13  H1  UNL     1      -5.886   5.613  72.379  1.00  0.00     0.000 HD 
HETATM   14  H2  UNL     1      -6.032   6.079  70.770  1.00  0.00     0.000 HD 
HETATM   15  O   UNL     1      -8.397   3.712  72.516  1.00  0.00    -0.083 OA 
BRANCH   7  16
HETATM   16  O   UNL     1      -7.914   7.311  69.585  1.00  0.00    -0.121 OA 
BRANCH  16  17
HETATM   17  C   UNL     1      -8.699   7.674  68.412  1.00  0.00    -0.127 C  
HETATM   18  N   UNL     1      -7.685   5.948  66.938  1.00  0.00    -0.099 NA 
HETATM   19  C   UNL     1      -8.817   7.810  65.890  1.00  0.00    -0.176 C  
HETATM   20  H1  UNL     1      -7.207   5.757  66.059  1.00  0.00     0.000 HD 
HETATM   21  H2  UNL     1      -8.529   5.384  67.037  1.00  0.00     0.000 HD 
HETATM   22  C   UNL     1      -9.162   9.299  65.952  1.00  0.00    -0.219 C  
HETATM   23  C   UNL     1      -7.974   7.384  67.081  1.00  0.00    -0.114 C  
HETATM   24  N   UNL     1      -9.862   9.602  64.692  1.00  0.00    -0.371 NA 
HETATM   25  C   UNL     1      -9.992   9.644  67.228  1.00  0.00    -0.197 C  
HETATM   26  H   UNL     1     -10.608   9.983  69.660  1.00  0.00     0.000 HD 
HETATM   27  H1  UNL     1     -10.092  10.595  64.733  1.00  0.00     0.000 HD 
HETATM   28  C   UNL     1      -9.290   9.108  68.513  1.00  0.00    -0.135 C  
HETATM   29  H2  UNL     1     -10.670   9.002  64.520  1.00  0.00     0.000 HD 
HETATM   30  O   UNL     1     -10.246   9.107  69.599  1.00  0.00    -0.188 OA 
BRANCH  25  31
HETATM   31  O   UNL     1     -10.165  11.083  67.424  1.00  0.00    -0.185 OA 
BRANCH  31  32
HETATM   32  C   UNL     1     -11.519  11.549  67.366  1.00  0.00    -0.274 C  
HETATM   33  O   UNL     1     -12.268  11.214  68.541  1.00  0.00    -0.600 OA 
HETATM   34  C   UNL     1     -11.823  11.920  69.711  1.00  0.00    -0.340 C  
HETATM   35  C   UNL     1     -11.980  13.436  69.516  1.00  0.00    -0.319 C  
HETATM   36  H   UNL     1     -10.823  14.328  65.734  1.00  0.00     0.000 HD 
HETATM   37  C   UNL     1     -11.163  13.899  68.293  1.00  0.00    -0.272 C  
HETATM   38  H1  UNL     1     -10.794  15.662  67.266  1.00  0.00     0.000 HD 
HETATM   39  O   UNL     1     -11.589  14.175  70.677  1.00  0.00    -0.477 OA 
HETATM   40  H   UNL     1     -11.686  15.112  70.556  1.00  0.00     0.000 HD 
HETATM   41  H2  UNL     1     -11.106  15.894  68.910  1.00  0.00     0.000 HD 
HETATM   42  C   UNL     1     -11.579  13.070  67.066  1.00  0.00    -0.360 C  
HETATM   43  N   UNL     1     -11.335  15.355  68.075  1.00  0.00    -0.339 NA 
HETATM   44  O   UNL     1     -10.786  13.397  65.917  1.00  0.00    -0.273 OA 
BRANCH  34  45
HETATM   45  C   UNL     1     -12.663  11.451  70.907  1.00  0.00    -0.303 C  
HETATM   46  O   UNL     1     -12.094  10.284  71.499  1.00  0.00    -0.370 OA 
HETATM   47  H   UNL     1     -12.614   9.994  72.239  1.00  0.00     0.000 HD 
ENDBRANCH  34  45
ENDBRANCH  31  32
ENDBRANCH  25  31
ENDBRANCH  16  17
ENDBRANCH   7  16
ENDBRANCH   2   5
TORSDOF 6
ENDMDL
MODEL      139
REMARK 921   NORMALIZED FREE ENERGY PREDICTED BY IDOCK:   -5.53 KCAL/MOL
REMARK 922        TOTAL FREE ENERGY PREDICTED BY IDOCK:   -8.52 KCAL/MOL
REMARK 923 INTER-LIGAND FREE ENERGY PREDICTED BY IDOCK:   -7.72 KCAL/MOL
REMARK 924 INTRA-LIGAND FREE ENERGY PREDICTED BY IDOCK:   -0.80 KCAL/MOL
REMARK 927      BINDING AFFINITY PREDICTED BY RF-SCORE:    0.00 PKD
ROOT
HETATM    1  N   UNL     1     -10.501  20.235  69.906  1.00  0.00    -0.512 NA 
HETATM    2  C   UNL     1     -10.171  19.478  68.690  1.00  0.00    -0.384 C  
HETATM    3  H2  UNL     1      -9.933  21.078  69.981  1.00  0.00     0.000 HD 
HETATM    4  H1  UNL     1     -11.495  20.453  69.968  1.00  0.00     0.000 HD 
ENDROOT
BRANCH   2   5
HETATM    5  C   UNL     1      -8.660  19.146  68.597  1.00  0.00    -0.361 C  
HETATM    6  O   UNL     1      -8.420  17.743  68.405  1.00  0.00    -0.280 OA 
HETATM    7  C   UNL     1      -8.814  17.232  67.141  1.00  0.00    -0.226 C  
HETATM    8  C   UNL     1      -8.011  17.946  66.005  1.00  0.00    -0.127 C  
HETATM    9  C   UNL     1      -7.936  19.989  67.529  1.00  0.00    -0.307 C  
HETATM   10  N   UNL     1      -6.566  17.630  66.041  1.00  0.00    -0.256 NA 
HETATM   11  C   UNL     1      -8.209  19.469  66.113  1.00  0.00    -0.336 C  
HETATM   12  H   UNL     1      -6.083  20.466  67.147  1.00  0.00     0.000 HD 
HETATM   13  H1  UNL     1      -6.042  18.095  65.300  1.00  0.00     0.000 HD 
HETATM   14  H2  UNL     1      -6.412  16.622  66.021  1.00  0.00     0.000 HD 
HETATM   15  O   UNL     1      -6.530  19.946  67.805  1.00  0.00    -0.217 OA 
BRANCH   7  16
HETATM   16  O   UNL     1      -8.576  15.815  67.082  1.00  0.00    -0.175 OA 
BRANCH  16  17
HETATM   17  C   UNL     1      -9.734  14.948  67.260  1.00  0.00    -0.228 C  
HETATM   18  N   UNL     1     -10.291  15.804  69.526  1.00  0.00    -0.252 NA 
HETATM   19  C   UNL     1     -11.202  13.663  68.869  1.00  0.00    -0.309 C  
HETATM   20  H1  UNL     1     -10.473  15.571  70.502  1.00  0.00     0.000 HD 
HETATM   21  H2  UNL     1     -11.054  16.347  69.122  1.00  0.00     0.000 HD 
HETATM   22  C   UNL     1     -10.993  12.369  68.081  1.00  0.00    -0.228 C  
HETATM   23  C   UNL     1     -10.008  14.594  68.737  1.00  0.00    -0.235 C  
HETATM   24  N   UNL     1     -12.152  11.516  68.394  1.00  0.00    -0.560 NA 
HETATM   25  C   UNL     1     -10.815  12.647  66.556  1.00  0.00    -0.258 C  
HETATM   26  H   UNL     1      -9.823  13.466  64.375  1.00  0.00     0.000 HD 
HETATM   27  H1  UNL     1     -12.012  10.653  67.869  1.00  0.00     0.000 HD 
HETATM   28  C   UNL     1      -9.710  13.719  66.309  1.00  0.00    -0.284 C  
HETATM   29  H2  UNL     1     -13.050  11.965  68.211  1.00  0.00     0.000 HD 
HETATM   30  O   UNL     1      -9.838  14.217  64.956  1.00  0.00    -0.250 OA 
BRANCH  25  31
HETATM   31  O   UNL     1     -10.412  11.460  65.803  1.00  0.00    -0.249 OA 
BRANCH  31  32
HETATM   32  C   UNL     1      -9.019  11.390  65.472  1.00  0.00    -0.088 C  
HETATM   33  O   UNL     1      -8.271  10.599  66.405  1.00  0.00    -0.135 OA 
HETATM   34  C   UNL     1      -8.601   9.202  66.348  1.00  0.00    -0.125 C  
HETATM   35  C   UNL     1      -8.293   8.633  64.954  1.00  0.00    -0.164 C  
HETATM   36  H   UNL     1      -9.473  11.371  62.207  1.00  0.00     0.000 HD 
HETATM   37  C   UNL     1      -9.096   9.396  63.883  1.00  0.00    -0.039 C  
HETATM   38  H1  UNL     1      -9.311   9.383  61.820  1.00  0.00     0.000 HD 
HETATM   39  O   UNL     1      -8.565   7.231  64.869  1.00  0.00    -0.347 OA 
HETATM   40  H   UNL     1      -8.375   6.880  64.007  1.00  0.00     0.000 HD 
HETATM   41  H2  UNL     1      -8.923   7.871  62.466  1.00  0.00     0.000 HD 
HETATM   42  C   UNL     1      -8.810  10.902  64.014  1.00  0.00    -0.048 C  
HETATM   43  N   UNL     1      -8.779   8.878  62.530  1.00  0.00    -0.199 NA 
HETATM   44  O   UNL     1      -9.601  11.670  63.099  1.00  0.00    -0.375 OA 
BRANCH  34  45
HETATM   45  C   UNL     1      -7.776   8.466  67.413  1.00  0.00    -0.098 C  
HETATM   46  O   UNL     1      -6.754   9.314  67.937  1.00  0.00    -0.069 OA 
HETATM   47  H   UNL     1      -6.244   8.860  68.596  1.00  0.00     0.000 HD 
ENDBRANCH  34  45
ENDBRANCH  31  32
ENDBRANCH  25  31
ENDBRANCH  16  17
ENDBRANCH   7  16
ENDBRANCH   2   5
TORSDOF 6
ENDMDL
MODEL      140
REMARK 921   NORMALIZED FREE ENERGY PREDICTED BY IDOCK:   -5.52 KCAL/MOL
REMARK 922        TOTAL FREE ENERGY PREDICTED BY IDOCK:   -8.51 KCAL/MOL
REMARK 923 INTER-LIGAND FREE ENERGY PREDICTED BY IDOCK:   -9.34 KCAL/MOL
REMARK 924 INTRA-LIGAND FREE ENERGY PREDICTED BY IDOCK:    0.83 KCAL/MOL
REMARK 927      BINDING AFFINITY PREDICTED BY RF-SCORE:    0.00 PKD
ROOT
HETATM    1  N   UNL     1      -6.281  17.465  69.196  1.00  0.00    -0.215 NA 
HETATM    2  C   UNL     1      -7.632  17.324  68.631  1.00  0.00    -0.260 C  
HETATM    3  H2  UNL     1      -6.085  18.434  69.444  1.00  0.00     0.000 HD 
HETATM    4  H1  UNL     1      -6.128  16.843  69.988  1.00  0.00     0.000 HD 
ENDROOT
BRANCH   2   5
HETATM    5  C   UNL     1      -7.865  18.270  67.426  1.00  0.00    -0.226 C  
HETATM    6  O   UNL     1      -8.444  17.589  66.302  1.00  0.00    -0.359 OA 
HETATM    7  C   UNL     1      -9.785  17.162  66.482  1.00  0.00    -0.287 C  
HETATM    8  C   UNL     1     -10.708  18.399  66.734  1.00  0.00    -0.237 C  
HETATM    9  C   UNL     1      -8.684  19.519  67.807  1.00  0.00    -0.319 C  
HETATM   10  N   UNL     1     -10.811  19.285  65.554  1.00  0.00    -0.446 NA 
HETATM   11  C   UNL     1     -10.178  19.201  67.937  1.00  0.00    -0.494 C  
HETATM   12  H   UNL     1      -8.985  21.283  67.028  1.00  0.00     0.000 HD 
HETATM   13  H1  UNL     1     -11.413  20.092  65.718  1.00  0.00     0.000 HD 
HETATM   14  H2  UNL     1     -11.113  18.765  64.731  1.00  0.00     0.000 HD 
HETATM   15  O   UNL     1      -8.480  20.512  66.794  1.00  0.00    -0.240 OA 
BRANCH   7  16
HETATM   16  O   UNL     1     -10.240  16.451  65.319  1.00  0.00    -0.575 OA 
BRANCH  16  17
HETATM   17  C   UNL     1     -10.442  15.015  65.466  1.00  0.00    -0.365 C  
HETATM   18  N   UNL     1     -12.429  14.928  63.976  1.00  0.00    -1.008 NA 
HETATM   19  C   UNL     1     -12.082  13.090  65.507  1.00  0.00    -0.501 C  
HETATM   20  H1  UNL     1     -13.404  14.646  63.874  1.00  0.00     0.000 HD 
HETATM   21  H2  UNL     1     -11.845  14.533  63.238  1.00  0.00     0.000 HD 
HETATM   22  C   UNL     1     -11.578  12.645  66.881  1.00  0.00    -0.373 C  
HETATM   23  C   UNL     1     -11.917  14.589  65.313  1.00  0.00    -0.353 C  
HETATM   24  N   UNL     1     -11.908  11.213  66.986  1.00  0.00    -0.275 NA 
HETATM   25  C   UNL     1     -10.058  12.951  67.063  1.00  0.00    -0.245 C  
HETATM   26  H   UNL     1      -7.892  14.237  67.317  1.00  0.00     0.000 HD 
HETATM   27  H1  UNL     1     -11.573  10.917  67.902  1.00  0.00     0.000 HD 
HETATM   28  C   UNL     1      -9.745  14.442  66.732  1.00  0.00    -0.270 C  
HETATM   29  H2  UNL     1     -11.543  10.652  66.216  1.00  0.00     0.000 HD 
HETATM   30  O   UNL     1      -8.318  14.587  66.543  1.00  0.00     0.001 OA 
BRANCH  25  31
HETATM   31  O   UNL     1      -9.591  12.727  68.430  1.00  0.00    -0.220 OA 
BRANCH  31  32
HETATM   32  C   UNL     1      -8.859  11.512  68.635  1.00  0.00    -0.106 C  
HETATM   33  O   UNL     1      -9.269  10.465  67.745  1.00  0.00    -0.141 OA 
HETATM   34  C   UNL     1      -8.922  10.726  66.375  1.00  0.00    -0.166 C  
HETATM   35  C   UNL     1      -7.398  10.852  66.221  1.00  0.00    -0.127 C  
HETATM   36  H   UNL     1      -6.004  12.987  69.373  1.00  0.00     0.000 HD 
HETATM   37  C   UNL     1      -6.870  11.993  67.111  1.00  0.00    -0.136 C  
HETATM   38  H1  UNL     1      -5.046  12.858  67.586  1.00  0.00     0.000 HD 
HETATM   39  O   UNL     1      -7.007  11.066  64.862  1.00  0.00    -0.287 OA 
HETATM   40  H   UNL     1      -6.066  11.145  64.767  1.00  0.00     0.000 HD 
HETATM   41  H2  UNL     1      -5.097  12.207  66.028  1.00  0.00     0.000 HD 
HETATM   42  C   UNL     1      -7.328  11.757  68.560  1.00  0.00    -0.103 C  
HETATM   43  N   UNL     1      -5.396  12.102  66.997  1.00  0.00    -0.276 NA 
HETATM   44  O   UNL     1      -6.941  12.837  69.419  1.00  0.00    -0.024 OA 
BRANCH  34  45
HETATM   45  C   UNL     1      -9.446   9.567  65.515  1.00  0.00    -0.268 C  
HETATM   46  O   UNL     1     -10.042  10.056  64.314  1.00  0.00    -0.437 OA 
HETATM   47  H   UNL     1     -10.366   9.339  63.782  1.00  0.00     0.000 HD 
ENDBRANCH  34  45
ENDBRANCH  31  32
ENDBRANCH  25  31
ENDBRANCH  16  17
ENDBRANCH   7  16
ENDBRANCH   2   5
TORSDOF 6
ENDMDL
MODEL      141
REMARK 921   NORMALIZED FREE ENERGY PREDICTED BY IDOCK:   -5.51 KCAL/MOL
REMARK 922        TOTAL FREE ENERGY PREDICTED BY IDOCK:   -8.50 KCAL/MOL
REMARK 923 INTER-LIGAND FREE ENERGY PREDICTED BY IDOCK:   -7.56 KCAL/MOL
REMARK 924 INTRA-LIGAND FREE ENERGY PREDICTED BY IDOCK:   -0.95 KCAL/MOL
REMARK 927      BINDING AFFINITY PREDICTED BY RF-SCORE:    0.00 PKD
ROOT
HETATM    1  N   UNL     1     -10.921  13.005  69.156  1.00  0.00    -0.409 NA 
HETATM    2  C   UNL     1     -11.717  13.426  67.994  1.00  0.00    -0.356 C  
HETATM    3  H2  UNL     1     -10.189  13.683  69.366  1.00  0.00     0.000 HD 
HETATM    4  H1  UNL     1     -11.500  12.822  69.975  1.00  0.00     0.000 HD 
ENDROOT
BRANCH   2   5
HETATM    5  C   UNL     1     -10.838  13.705  66.750  1.00  0.00    -0.290 C  
HETATM    6  O   UNL     1     -10.450  12.498  66.074  1.00  0.00    -0.250 OA 
HETATM    7  C   UNL     1     -11.504  11.808  65.422  1.00  0.00    -0.176 C  
HETATM    8  C   UNL     1     -12.130  12.717  64.314  1.00  0.00    -0.426 C  
HETATM    9  C   UNL     1     -11.492  14.706  65.777  1.00  0.00    -0.338 C  
HETATM   10  N   UNL     1     -11.192  12.991  63.203  1.00  0.00    -0.570 NA 
HETATM   11  C   UNL     1     -12.593  14.046  64.938  1.00  0.00    -0.369 C  
HETATM   12  H   UNL     1     -10.872  15.845  64.320  1.00  0.00     0.000 HD 
HETATM   13  H1  UNL     1     -11.600  13.584  62.480  1.00  0.00     0.000 HD 
HETATM   14  H2  UNL     1     -10.832  12.124  62.805  1.00  0.00     0.000 HD 
HETATM   15  O   UNL     1     -10.469  15.228  64.920  1.00  0.00    -0.392 OA 
BRANCH   7  16
HETATM   16  O   UNL     1     -11.011  10.595  64.828  1.00  0.00    -0.024 OA 
BRANCH  16  17
HETATM   17  C   UNL     1      -9.715  10.117  65.293  1.00  0.00    -0.300 C  
HETATM   18  N   UNL     1      -8.437  11.102  63.403  1.00  0.00    -0.393 NA 
HETATM   19  C   UNL     1      -7.390   9.335  64.678  1.00  0.00    -0.101 C  
HETATM   20  H1  UNL     1      -7.775  10.935  62.646  1.00  0.00     0.000 HD 
HETATM   21  H2  UNL     1      -8.120  11.849  64.021  1.00  0.00     0.000 HD 
HETATM   22  C   UNL     1      -7.581   8.038  65.465  1.00  0.00    -0.085 C  
HETATM   23  C   UNL     1      -8.713   9.863  64.147  1.00  0.00    -0.206 C  
HETATM   24  N   UNL     1      -6.226   7.574  65.810  1.00  0.00    -0.038 NA 
HETATM   25  C   UNL     1      -8.504   8.248  66.707  1.00  0.00    -0.122 C  
HETATM   26  H   UNL     1     -10.561   8.729  68.102  1.00  0.00     0.000 HD 
HETATM   27  H1  UNL     1      -6.353   6.708  66.334  1.00  0.00     0.000 HD 
HETATM   28  C   UNL     1      -9.841   8.937  66.297  1.00  0.00    -0.285 C  
HETATM   29  H2  UNL     1      -5.668   8.272  66.302  1.00  0.00     0.000 HD 
HETATM   30  O   UNL     1     -10.484   9.449  67.488  1.00  0.00    -0.248 OA 
BRANCH  25  31
HETATM   31  O   UNL     1      -8.871   6.995  67.364  1.00  0.00    -0.119 OA 
BRANCH  31  32
HETATM   32  C   UNL     1      -8.215   6.745  68.614  1.00  0.00    -0.120 C  
HETATM   33  O   UNL     1      -7.450   7.868  69.069  1.00  0.00    -0.092 OA 
HETATM   34  C   UNL     1      -8.268   8.987  69.448  1.00  0.00    -0.117 C  
HETATM   35  C   UNL     1      -9.202   8.603  70.606  1.00  0.00    -0.174 C  
HETATM   36  H   UNL     1     -10.630   4.881  69.866  1.00  0.00     0.000 HD 
HETATM   37  C   UNL     1     -10.104   7.425  70.188  1.00  0.00    -0.197 C  
HETATM   38  H1  UNL     1     -11.583   6.243  71.033  1.00  0.00     0.000 HD 
HETATM   39  O   UNL     1     -10.003   9.704  71.044  1.00  0.00    -0.276 OA 
HETATM   40  H   UNL     1     -10.581   9.466  71.760  1.00  0.00     0.000 HD 
HETATM   41  H2  UNL     1     -11.529   7.808  71.666  1.00  0.00     0.000 HD 
HETATM   42  C   UNL     1      -9.223   6.266  69.692  1.00  0.00    -0.141 C  
HETATM   43  N   UNL     1     -10.986   7.022  71.310  1.00  0.00    -0.239 NA 
HETATM   44  O   UNL     1     -10.013   5.174  69.205  1.00  0.00    -0.175 OA 
BRANCH  34  45
HETATM   45  C   UNL     1      -7.345  10.138  69.873  1.00  0.00    -0.165 C  
HETATM   46  O   UNL     1      -7.799  11.378  69.332  1.00  0.00    -0.360 OA 
HETATM   47  H   UNL     1      -7.228  12.090  69.596  1.00  0.00     0.000 HD 
ENDBRANCH  34  45
ENDBRANCH  31  32
ENDBRANCH  25  31
ENDBRANCH  16  17
ENDBRANCH   7  16
ENDBRANCH   2   5
TORSDOF 6
ENDMDL
MODEL      142
REMARK 921   NORMALIZED FREE ENERGY PREDICTED BY IDOCK:   -5.50 KCAL/MOL
REMARK 922        TOTAL FREE ENERGY PREDICTED BY IDOCK:   -8.48 KCAL/MOL
REMARK 923 INTER-LIGAND FREE ENERGY PREDICTED BY IDOCK:   -7.00 KCAL/MOL
REMARK 924 INTRA-LIGAND FREE ENERGY PREDICTED BY IDOCK:   -1.48 KCAL/MOL
REMARK 927      BINDING AFFINITY PREDICTED BY RF-SCORE:    0.00 PKD
ROOT
HETATM    1  N   UNL     1     -12.970  10.508  71.866  1.00  0.00    -0.466 NA 
HETATM    2  C   UNL     1     -13.654  11.804  71.982  1.00  0.00    -0.065 C  
HETATM    3  H2  UNL     1     -12.370  10.334  72.672  1.00  0.00     0.000 HD 
HETATM    4  H1  UNL     1     -13.623   9.738  71.721  1.00  0.00     0.000 HD 
ENDROOT
BRANCH   2   5
HETATM    5  C   UNL     1     -12.661  12.973  72.203  1.00  0.00    -0.003 C  
HETATM    6  O   UNL     1     -11.971  13.338  70.997  1.00  0.00    -0.186 OA 
HETATM    7  C   UNL     1     -12.778  13.947  70.002  1.00  0.00    -0.049 C  
HETATM    8  C   UNL     1     -13.381  15.282  70.550  1.00  0.00    -0.164 C  
HETATM    9  C   UNL     1     -13.329  14.198  72.858  1.00  0.00    -0.430 C  
HETATM   10  N   UNL     1     -12.352  16.313  70.803  1.00  0.00    -0.399 NA 
HETATM   11  C   UNL     1     -14.159  15.001  71.849  1.00  0.00    -0.627 C  
HETATM   12  H   UNL     1     -12.709  15.780  73.817  1.00  0.00     0.000 HD 
HETATM   13  H1  UNL     1     -12.745  17.184  71.160  1.00  0.00     0.000 HD 
HETATM   14  H2  UNL     1     -11.790  16.481  69.969  1.00  0.00     0.000 HD 
HETATM   15  O   UNL     1     -12.298  15.025  73.413  1.00  0.00    -0.413 OA 
BRANCH   7  16
HETATM   16  O   UNL     1     -11.996  14.219  68.827  1.00  0.00    -0.325 OA 
BRANCH  16  17
HETATM   17  C   UNL     1     -10.577  13.894  68.893  1.00  0.00    -0.212 C  
HETATM   18  N   UNL     1      -9.844  16.235  69.293  1.00  0.00    -0.259 NA 
HETATM   19  C   UNL     1      -8.199  14.655  68.491  1.00  0.00    -0.152 C  
HETATM   20  H1  UNL     1      -9.241  17.000  68.991  1.00  0.00     0.000 HD 
HETATM   21  H2  UNL     1      -9.701  16.011  70.278  1.00  0.00     0.000 HD 
HETATM   22  C   UNL     1      -7.918  13.430  67.619  1.00  0.00    -0.174 C  
HETATM   23  C   UNL     1      -9.665  15.052  68.436  1.00  0.00    -0.216 C  
HETATM   24  N   UNL     1      -6.459  13.232  67.663  1.00  0.00    -0.158 NA 
HETATM   25  C   UNL     1      -8.732  12.186  68.096  1.00  0.00    -0.185 C  
HETATM   26  H   UNL     1     -10.688  10.663  68.610  1.00  0.00     0.000 HD 
HETATM   27  H1  UNL     1      -6.272  12.416  67.081  1.00  0.00     0.000 HD 
HETATM   28  C   UNL     1     -10.247  12.529  68.229  1.00  0.00    -0.234 C  
HETATM   29  H2  UNL     1      -6.085  13.154  68.609  1.00  0.00     0.000 HD 
HETATM   30  O   UNL     1     -10.890  11.498  69.016  1.00  0.00    -0.207 OA 
BRANCH  25  31
HETATM   31  O   UNL     1      -8.645  11.058  67.169  1.00  0.00    -0.132 OA 
BRANCH  31  32
HETATM   32  C   UNL     1      -8.024   9.880  67.697  1.00  0.00    -0.109 C  
HETATM   33  O   UNL     1      -8.950   8.799  67.869  1.00  0.00    -0.139 OA 
HETATM   34  C   UNL     1      -9.437   8.274  66.623  1.00  0.00    -0.209 C  
HETATM   35  C   UNL     1      -8.276   7.720  65.783  1.00  0.00    -0.132 C  
HETATM   36  H   UNL     1      -5.164  10.297  66.111  1.00  0.00     0.000 HD 
HETATM   37  C   UNL     1      -7.247   8.832  65.505  1.00  0.00    -0.084 C  
HETATM   38  H1  UNL     1      -5.423   9.036  64.539  1.00  0.00     0.000 HD 
HETATM   39  O   UNL     1      -8.725   7.145  64.552  1.00  0.00    -0.331 OA 
HETATM   40  H   UNL     1      -8.008   6.803  64.032  1.00  0.00     0.000 HD 
HETATM   41  H2  UNL     1      -6.412   7.844  63.864  1.00  0.00     0.000 HD 
HETATM   42  C   UNL     1      -6.803   9.454  66.840  1.00  0.00    -0.080 C  
HETATM   43  N   UNL     1      -6.105   8.300  64.723  1.00  0.00    -0.052 NA 
HETATM   44  O   UNL     1      -5.911  10.557  66.636  1.00  0.00    -0.055 OA 
BRANCH  34  45
HETATM   45  C   UNL     1     -10.447   7.159  66.931  1.00  0.00    -0.294 C  
HETATM   46  O   UNL     1     -11.178   7.453  68.121  1.00  0.00    -0.453 OA 
HETATM   47  H   UNL     1     -11.803   6.764  68.311  1.00  0.00     0.000 HD 
ENDBRANCH  34  45
ENDBRANCH  31  32
ENDBRANCH  25  31
ENDBRANCH  16  17
ENDBRANCH   7  16
ENDBRANCH   2   5
TORSDOF 6
ENDMDL
MODEL      143
REMARK 921   NORMALIZED FREE ENERGY PREDICTED BY IDOCK:   -5.49 KCAL/MOL
REMARK 922        TOTAL FREE ENERGY PREDICTED BY IDOCK:   -8.46 KCAL/MOL
REMARK 923 INTER-LIGAND FREE ENERGY PREDICTED BY IDOCK:   -7.79 KCAL/MOL
REMARK 924 INTRA-LIGAND FREE ENERGY PREDICTED BY IDOCK:   -0.68 KCAL/MOL
REMARK 927      BINDING AFFINITY PREDICTED BY RF-SCORE:    0.00 PKD
ROOT
HETATM    1  N   UNL     1      -6.680  19.208  65.175  1.00  0.00    -0.468 NA 
HETATM    2  C   UNL     1      -7.488  19.710  66.296  1.00  0.00    -0.290 C  
HETATM    3  H2  UNL     1      -7.115  19.427  64.280  1.00  0.00     0.000 HD 
HETATM    4  H1  UNL     1      -5.719  19.546  65.210  1.00  0.00     0.000 HD 
ENDROOT
BRANCH   2   5
HETATM    5  C   UNL     1      -8.948  19.195  66.243  1.00  0.00    -0.309 C  
HETATM    6  O   UNL     1      -9.021  17.782  65.997  1.00  0.00    -0.497 OA 
HETATM    7  C   UNL     1      -8.560  16.962  67.059  1.00  0.00    -0.205 C  
HETATM    8  C   UNL     1      -9.431  17.202  68.334  1.00  0.00    -0.276 C  
HETATM    9  C   UNL     1      -9.758  19.588  67.495  1.00  0.00    -0.347 C  
HETATM   10  N   UNL     1     -10.829  16.749  68.165  1.00  0.00    -0.360 NA 
HETATM   11  C   UNL     1      -9.414  18.699  68.696  1.00  0.00    -0.396 C  
HETATM   12  H   UNL     1     -11.650  19.712  67.952  1.00  0.00     0.000 HD 
HETATM   13  H1  UNL     1     -11.398  16.906  68.998  1.00  0.00     0.000 HD 
HETATM   14  H2  UNL     1     -10.865  15.772  67.876  1.00  0.00     0.000 HD 
HETATM   15  O   UNL     1     -11.151  19.470  67.181  1.00  0.00    -0.446 OA 
BRANCH   7  16
HETATM   16  O   UNL     1      -8.630  15.576  66.682  1.00  0.00    -0.249 OA 
BRANCH  16  17
HETATM   17  C   UNL     1      -8.083  14.611  67.627  1.00  0.00    -0.173 C  
HETATM   18  N   UNL     1      -5.772  15.522  67.546  1.00  0.00    -0.313 NA 
HETATM   19  C   UNL     1      -6.074  13.272  68.379  1.00  0.00    -0.086 C  
HETATM   20  H1  UNL     1      -4.784  15.321  67.391  1.00  0.00     0.000 HD 
HETATM   21  H2  UNL     1      -5.927  15.967  68.450  1.00  0.00     0.000 HD 
HETATM   22  C   UNL     1      -6.865  11.967  68.285  1.00  0.00    -0.066 C  
HETATM   23  C   UNL     1      -6.588  14.307  67.392  1.00  0.00     0.082 C  
HETATM   24  N   UNL     1      -6.190  11.022  69.192  1.00  0.00    -0.045 NA 
HETATM   25  C   UNL     1      -8.374  12.184  68.618  1.00  0.00    -0.016 C  
HETATM   26  H   UNL     1     -10.770  12.983  68.443  1.00  0.00     0.000 HD 
HETATM   27  H1  UNL     1      -6.717  10.151  69.129  1.00  0.00     0.000 HD 
HETATM   28  C   UNL     1      -8.973  13.344  67.765  1.00  0.00    -0.205 C  
HETATM   29  H2  UNL     1      -6.091  11.372  70.146  1.00  0.00     0.000 HD 
HETATM   30  O   UNL     1     -10.226  13.758  68.358  1.00  0.00    -0.238 OA 
BRANCH  25  31
HETATM   31  O   UNL     1      -9.194  11.005  68.342  1.00  0.00    -0.161 OA 
BRANCH  31  32
HETATM   32  C   UNL     1      -8.564   9.745  68.607  1.00  0.00    -0.121 C  
HETATM   33  O   UNL     1      -8.691   9.344  69.977  1.00  0.00    -0.170 OA 
HETATM   34  C   UNL     1     -10.043   9.016  70.342  1.00  0.00    -0.207 C  
HETATM   35  C   UNL     1     -10.558   7.841  69.497  1.00  0.00    -0.221 C  
HETATM   36  H   UNL     1      -9.298   8.407  65.685  1.00  0.00     0.000 HD 
HETATM   37  C   UNL     1     -10.503   8.203  68.000  1.00  0.00    -0.183 C  
HETATM   38  H1  UNL     1     -10.929   7.302  66.182  1.00  0.00     0.000 HD 
HETATM   39  O   UNL     1     -11.885   7.453  69.861  1.00  0.00    -0.497 OA 
HETATM   40  H   UNL     1     -12.204   6.726  69.338  1.00  0.00     0.000 HD 
HETATM   41  H2  UNL     1     -11.892   6.743  67.451  1.00  0.00     0.000 HD 
HETATM   42  C   UNL     1      -9.074   8.645  67.640  1.00  0.00    -0.134 C  
HETATM   43  N   UNL     1     -10.965   7.062  67.172  1.00  0.00    -0.359 NA 
HETATM   44  O   UNL     1      -8.985   9.080  66.277  1.00  0.00    -0.144 OA 
BRANCH  34  45
HETATM   45  C   UNL     1     -10.064   8.645  71.832  1.00  0.00    -0.328 C  
HETATM   46  O   UNL     1     -11.402   8.613  72.327  1.00  0.00    -0.359 OA 
HETATM   47  H   UNL     1     -11.415   8.383  73.248  1.00  0.00     0.000 HD 
ENDBRANCH  34  45
ENDBRANCH  31  32
ENDBRANCH  25  31
ENDBRANCH  16  17
ENDBRANCH   7  16
ENDBRANCH   2   5
TORSDOF 6
ENDMDL
MODEL      144
REMARK 921   NORMALIZED FREE ENERGY PREDICTED BY IDOCK:   -5.48 KCAL/MOL
REMARK 922        TOTAL FREE ENERGY PREDICTED BY IDOCK:   -8.45 KCAL/MOL
REMARK 923 INTER-LIGAND FREE ENERGY PREDICTED BY IDOCK:   -6.99 KCAL/MOL
REMARK 924 INTRA-LIGAND FREE ENERGY PREDICTED BY IDOCK:   -1.46 KCAL/MOL
REMARK 927      BINDING AFFINITY PREDICTED BY RF-SCORE:    0.00 PKD
ROOT
HETATM    1  N   UNL     1     -11.377  14.992  68.609  1.00  0.00    -0.281 NA 
HETATM    2  C   UNL     1     -12.007  14.206  67.539  1.00  0.00    -0.384 C  
HETATM    3  H2  UNL     1     -11.425  15.991  68.410  1.00  0.00     0.000 HD 
HETATM    4  H1  UNL     1     -11.769  14.780  69.526  1.00  0.00     0.000 HD 
ENDROOT
BRANCH   2   5
HETATM    5  C   UNL     1     -11.410  14.528  66.145  1.00  0.00    -0.348 C  
HETATM    6  O   UNL     1     -10.251  13.733  65.850  1.00  0.00    -0.296 OA 
HETATM    7  C   UNL     1     -10.505  12.352  65.643  1.00  0.00    -0.261 C  
HETATM    8  C   UNL     1     -11.456  12.164  64.416  1.00  0.00    -0.350 C  
HETATM    9  C   UNL     1     -12.458  14.431  65.019  1.00  0.00    -0.359 C  
HETATM   10  N   UNL     1     -10.828  12.569  63.139  1.00  0.00    -0.650 NA 
HETATM   11  C   UNL     1     -12.747  12.975  64.635  1.00  0.00    -0.367 C  
HETATM   12  H   UNL     1     -12.604  15.087  63.187  1.00  0.00     0.000 HD 
HETATM   13  H1  UNL     1     -11.448  12.446  62.338  1.00  0.00     0.000 HD 
HETATM   14  H2  UNL     1      -9.944  12.081  62.996  1.00  0.00     0.000 HD 
HETATM   15  O   UNL     1     -11.958  15.147  63.882  1.00  0.00    -0.415 OA 
BRANCH   7  16
HETATM   16  O   UNL     1      -9.272  11.650  65.409  1.00  0.00    -0.178 OA 
BRANCH  16  17
HETATM   17  C   UNL     1      -8.621  11.063  66.573  1.00  0.00    -0.165 C  
HETATM   18  N   UNL     1      -7.301  13.096  67.125  1.00  0.00    -0.367 NA 
HETATM   19  C   UNL     1      -6.570  10.986  68.051  1.00  0.00    -0.062 C  
HETATM   20  H1  UNL     1      -6.377  13.485  67.308  1.00  0.00     0.000 HD 
HETATM   21  H2  UNL     1      -7.952  13.299  67.884  1.00  0.00     0.000 HD 
HETATM   22  C   UNL     1      -6.440   9.475  67.851  1.00  0.00    -0.062 C  
HETATM   23  C   UNL     1      -7.222  11.652  66.850  1.00  0.00    -0.125 C  
HETATM   24  N   UNL     1      -5.689   8.978  69.017  1.00  0.00    -0.039 NA 
HETATM   25  C   UNL     1      -7.835   8.797  67.670  1.00  0.00    -0.102 C  
HETATM   26  H   UNL     1     -10.073   8.162  66.672  1.00  0.00     0.000 HD 
HETATM   27  H1  UNL     1      -5.602   7.971  68.883  1.00  0.00     0.000 HD 
HETATM   28  C   UNL     1      -8.662   9.509  66.558  1.00  0.00    -0.134 C  
HETATM   29  H2  UNL     1      -6.106   9.237  69.911  1.00  0.00     0.000 HD 
HETATM   30  O   UNL     1     -10.048   9.112  66.682  1.00  0.00    -0.244 OA 
BRANCH  25  31
HETATM   31  O   UNL     1      -7.739   7.392  67.276  1.00  0.00    -0.111 OA 
BRANCH  31  32
HETATM   32  C   UNL     1      -8.443   6.471  68.119  1.00  0.00    -0.116 C  
HETATM   33  O   UNL     1      -9.518   5.811  67.438  1.00  0.00    -0.111 OA 
HETATM   34  C   UNL     1      -9.064   4.904  66.420  1.00  0.00    -0.127 C  
HETATM   35  C   UNL     1      -8.197   3.795  67.036  1.00  0.00    -0.095 C  
HETATM   36  H   UNL     1      -5.783   5.502  69.810  1.00  0.00     0.000 HD 
HETATM   37  C   UNL     1      -6.981   4.412  67.754  1.00  0.00    -0.056 C  
HETATM   38  H1  UNL     1      -5.350   3.761  68.857  1.00  0.00     0.000 HD 
HETATM   39  O   UNL     1      -7.762   2.843  66.060  1.00  0.00    -0.076 OA 
HETATM   40  H   UNL     1      -7.225   2.158  66.441  1.00  0.00     0.000 HD 
HETATM   41  H2  UNL     1      -5.876   2.640  67.708  1.00  0.00     0.000 HD 
HETATM   42  C   UNL     1      -7.472   5.453  68.774  1.00  0.00    -0.075 C  
HETATM   43  N   UNL     1      -6.155   3.353  68.382  1.00  0.00    -0.030 NA 
HETATM   44  O   UNL     1      -6.378   6.125  69.410  1.00  0.00    -0.037 OA 
BRANCH  34  45
HETATM   45  C   UNL     1     -10.294   4.294  65.734  1.00  0.00    -0.153 C  
HETATM   46  O   UNL     1     -11.388   5.211  65.746  1.00  0.00    -0.812 OA 
HETATM   47  H   UNL     1     -12.149   4.833  65.322  1.00  0.00     0.000 HD 
ENDBRANCH  34  45
ENDBRANCH  31  32
ENDBRANCH  25  31
ENDBRANCH  16  17
ENDBRANCH   7  16
ENDBRANCH   2   5
TORSDOF 6
ENDMDL
MODEL      145
REMARK 921   NORMALIZED FREE ENERGY PREDICTED BY IDOCK:   -5.47 KCAL/MOL
REMARK 922        TOTAL FREE ENERGY PREDICTED BY IDOCK:   -8.44 KCAL/MOL
REMARK 923 INTER-LIGAND FREE ENERGY PREDICTED BY IDOCK:   -8.37 KCAL/MOL
REMARK 924 INTRA-LIGAND FREE ENERGY PREDICTED BY IDOCK:   -0.07 KCAL/MOL
REMARK 927      BINDING AFFINITY PREDICTED BY RF-SCORE:    0.00 PKD
ROOT
HETATM    1  N   UNL     1      -9.054  11.814  62.917  1.00  0.00    -0.634 NA 
HETATM    2  C   UNL     1      -9.183  10.540  63.639  1.00  0.00    -0.270 C  
HETATM    3  H2  UNL     1      -8.093  12.155  62.940  1.00  0.00     0.000 HD 
HETATM    4  H1  UNL     1      -9.399  11.752  61.959  1.00  0.00     0.000 HD 
ENDROOT
BRANCH   2   5
HETATM    5  C   UNL     1      -8.658  10.634  65.094  1.00  0.00    -0.167 C  
HETATM    6  O   UNL     1      -9.507  11.436  65.930  1.00  0.00    -0.216 OA 
HETATM    7  C   UNL     1     -10.777  10.872  66.213  1.00  0.00    -0.176 C  
HETATM    8  C   UNL     1     -10.601   9.521  66.981  1.00  0.00    -0.201 C  
HETATM    9  C   UNL     1      -8.401   9.249  65.719  1.00  0.00    -0.123 C  
HETATM   10  N   UNL     1     -10.023   9.702  68.331  1.00  0.00    -0.154 NA 
HETATM   11  C   UNL     1      -9.706   8.575  66.160  1.00  0.00    -0.259 C  
HETATM   12  H   UNL     1      -7.376   8.568  67.233  1.00  0.00     0.000 HD 
HETATM   13  H1  UNL     1      -9.908   8.821  68.832  1.00  0.00     0.000 HD 
HETATM   14  H2  UNL     1     -10.572  10.365  68.878  1.00  0.00     0.000 HD 
HETATM   15  O   UNL     1      -7.534   9.422  66.847  1.00  0.00    -0.090 OA 
BRANCH   7  16
HETATM   16  O   UNL     1     -11.557  11.780  67.010  1.00  0.00    -0.480 OA 
BRANCH  16  17
HETATM   17  C   UNL     1     -11.777  13.112  66.460  1.00  0.00    -0.382 C  
HETATM   18  N   UNL     1     -13.423  12.366  64.754  1.00  0.00    -0.289 NA 
HETATM   19  C   UNL     1     -12.350  14.508  64.430  1.00  0.00    -0.437 C  
HETATM   20  H1  UNL     1     -13.680  12.356  63.767  1.00  0.00     0.000 HD 
HETATM   21  H2  UNL     1     -14.176  12.737  65.334  1.00  0.00     0.000 HD 
HETATM   22  C   UNL     1     -11.082  15.344  64.605  1.00  0.00    -0.347 C  
HETATM   23  C   UNL     1     -12.164  13.097  64.966  1.00  0.00    -0.440 C  
HETATM   24  N   UNL     1     -11.353  16.630  63.939  1.00  0.00    -1.432 NA 
HETATM   25  C   UNL     1     -10.691  15.490  66.109  1.00  0.00    -0.313 C  
HETATM   26  H   UNL     1      -9.936  14.895  68.451  1.00  0.00     0.000 HD 
HETATM   27  H1  UNL     1     -10.507  17.187  64.054  1.00  0.00     0.000 HD 
HETATM   28  C   UNL     1     -10.625  14.096  66.806  1.00  0.00    -0.277 C  
HETATM   29  H2  UNL     1     -12.198  17.094  64.275  1.00  0.00     0.000 HD 
HETATM   30  O   UNL     1     -10.639  14.292  68.240  1.00  0.00    -0.235 OA 
BRANCH  25  31
HETATM   31  O   UNL     1      -9.379  16.107  66.300  1.00  0.00    -0.266 OA 
BRANCH  31  32
HETATM   32  C   UNL     1      -9.327  17.137  67.296  1.00  0.00    -0.242 C  
HETATM   33  O   UNL     1      -9.432  16.620  68.629  1.00  0.00    -0.232 OA 
HETATM   34  C   UNL     1      -8.285  15.848  69.023  1.00  0.00    -0.234 C  
HETATM   35  C   UNL     1      -7.018  16.717  68.995  1.00  0.00    -0.218 C  
HETATM   36  H   UNL     1      -7.176  19.035  65.672  1.00  0.00     0.000 HD 
HETATM   37  C   UNL     1      -6.796  17.281  67.578  1.00  0.00    -0.151 C  
HETATM   38  H1  UNL     1      -5.448  18.523  66.609  1.00  0.00     0.000 HD 
HETATM   39  O   UNL     1      -5.859  15.998  69.425  1.00  0.00    -0.118 OA 
HETATM   40  H   UNL     1      -5.075  16.535  69.407  1.00  0.00     0.000 HD 
HETATM   41  H2  UNL     1      -4.768  17.666  67.896  1.00  0.00     0.000 HD 
HETATM   42  C   UNL     1      -8.066  18.023  67.125  1.00  0.00    -0.213 C  
HETATM   43  N   UNL     1      -5.595  18.150  67.547  1.00  0.00    -0.140 NA 
HETATM   44  O   UNL     1      -7.949  18.493  65.777  1.00  0.00    -0.498 OA 
BRANCH  34  45
HETATM   45  C   UNL     1      -8.527  15.313  70.442  1.00  0.00     1.128 C  
HETATM   46  O   UNL     1      -9.919  15.327  70.757  1.00  0.00    -0.263 OA 
HETATM   47  H   UNL     1     -10.069  14.996  71.635  1.00  0.00     0.000 HD 
ENDBRANCH  34  45
ENDBRANCH  31  32
ENDBRANCH  25  31
ENDBRANCH  16  17
ENDBRANCH   7  16
ENDBRANCH   2   5
TORSDOF 6
ENDMDL
MODEL      146
REMARK 921   NORMALIZED FREE ENERGY PREDICTED BY IDOCK:   -5.46 KCAL/MOL
REMARK 922        TOTAL FREE ENERGY PREDICTED BY IDOCK:   -8.44 KCAL/MOL
REMARK 923 INTER-LIGAND FREE ENERGY PREDICTED BY IDOCK:   -7.46 KCAL/MOL
REMARK 924 INTRA-LIGAND FREE ENERGY PREDICTED BY IDOCK:   -0.98 KCAL/MOL
REMARK 927      BINDING AFFINITY PREDICTED BY RF-SCORE:    0.00 PKD
ROOT
HETATM    1  N   UNL     1     -11.322   8.891  72.197  1.00  0.00    -0.346 NA 
HETATM    2  C   UNL     1     -11.668   8.081  71.020  1.00  0.00    -0.277 C  
HETATM    3  H2  UNL     1     -10.491   8.527  72.664  1.00  0.00     0.000 HD 
HETATM    4  H1  UNL     1     -11.212   9.879  71.968  1.00  0.00     0.000 HD 
ENDROOT
BRANCH   2   5
HETATM    5  C   UNL     1     -11.834   6.581  71.369  1.00  0.00    -0.329 C  
HETATM    6  O   UNL     1     -11.343   5.721  70.328  1.00  0.00    -0.262 OA 
HETATM    7  C   UNL     1      -9.935   5.729  70.155  1.00  0.00    -0.198 C  
HETATM    8  C   UNL     1      -9.234   5.234  71.462  1.00  0.00    -0.146 C  
HETATM    9  C   UNL     1     -11.214   6.220  72.733  1.00  0.00    -0.237 C  
HETATM   10  N   UNL     1      -9.512   3.811  71.755  1.00  0.00    -0.135 NA 
HETATM   11  C   UNL     1      -9.687   6.103  72.650  1.00  0.00    -0.164 C  
HETATM   12  H   UNL     1     -11.395   4.752  74.006  1.00  0.00     0.000 HD 
HETATM   13  H1  UNL     1      -9.054   3.488  72.609  1.00  0.00     0.000 HD 
HETATM   14  H2  UNL     1      -9.266   3.220  70.962  1.00  0.00     0.000 HD 
HETATM   15  O   UNL     1     -11.778   4.975  73.164  1.00  0.00    -0.313 OA 
BRANCH   7  16
HETATM   16  O   UNL     1      -9.565   4.877  69.058  1.00  0.00    -0.133 OA 
BRANCH  16  17
HETATM   17  C   UNL     1      -8.969   5.525  67.896  1.00  0.00    -0.108 C  
HETATM   18  N   UNL     1      -6.666   4.713  68.361  1.00  0.00    -0.049 NA 
HETATM   19  C   UNL     1      -6.921   6.608  66.881  1.00  0.00    -0.067 C  
HETATM   20  H1  UNL     1      -5.688   4.965  68.499  1.00  0.00     0.000 HD 
HETATM   21  H2  UNL     1      -6.775   4.017  67.624  1.00  0.00     0.000 HD 
HETATM   22  C   UNL     1      -7.715   7.870  66.542  1.00  0.00    -0.097 C  
HETATM   23  C   UNL     1      -7.488   5.906  68.105  1.00  0.00    -0.081 C  
HETATM   24  N   UNL     1      -6.993   8.511  65.429  1.00  0.00    -0.077 NA 
HETATM   25  C   UNL     1      -9.205   7.542  66.213  1.00  0.00    -0.146 C  
HETATM   26  H   UNL     1     -11.608   6.796  66.499  1.00  0.00     0.000 HD 
HETATM   27  H1  UNL     1      -7.522   9.354  65.203  1.00  0.00     0.000 HD 
HETATM   28  C   UNL     1      -9.849   6.680  67.342  1.00  0.00    -0.131 C  
HETATM   29  H2  UNL     1      -6.845   7.895  64.629  1.00  0.00     0.000 HD 
HETATM   30  O   UNL     1     -11.070   6.090  66.838  1.00  0.00    -0.303 OA 
BRANCH  25  31
HETATM   31  O   UNL     1     -10.037   8.738  66.084  1.00  0.00    -0.269 OA 
BRANCH  31  32
HETATM   32  C   UNL     1      -9.366   9.980  66.331  1.00  0.00    -0.168 C  
HETATM   33  O   UNL     1      -9.218  10.771  65.144  1.00  0.00    -0.194 OA 
HETATM   34  C   UNL     1     -10.469  11.271  64.644  1.00  0.00    -0.325 C  
HETATM   35  C   UNL     1     -11.142  12.177  65.687  1.00  0.00    -0.316 C  
HETATM   36  H   UNL     1     -10.666  10.448  69.324  1.00  0.00     0.000 HD 
HETATM   37  C   UNL     1     -11.386  11.391  66.990  1.00  0.00    -0.236 C  
HETATM   38  H1  UNL     1     -12.165  11.745  68.879  1.00  0.00     0.000 HD 
HETATM   39  O   UNL     1     -12.370  12.733  65.210  1.00  0.00    -0.465 OA 
HETATM   40  H   UNL     1     -12.786  13.292  65.855  1.00  0.00     0.000 HD 
HETATM   41  H2  UNL     1     -12.856  12.707  67.675  1.00  0.00     0.000 HD 
HETATM   42  C   UNL     1     -10.058  10.778  67.467  1.00  0.00    -0.186 C  
HETATM   43  N   UNL     1     -12.003  12.265  68.016  1.00  0.00    -0.458 NA 
HETATM   44  O   UNL     1     -10.242   9.959  68.628  1.00  0.00    -0.165 OA 
BRANCH  34  45
HETATM   45  C   UNL     1     -10.193  12.061  63.357  1.00  0.00    -0.426 C  
HETATM   46  O   UNL     1      -8.903  11.744  62.835  1.00  0.00    -0.652 OA 
HETATM   47  H   UNL     1      -8.732  12.233  62.039  1.00  0.00     0.000 HD 
ENDBRANCH  34  45
ENDBRANCH  31  32
ENDBRANCH  25  31
ENDBRANCH  16  17
ENDBRANCH   7  16
ENDBRANCH   2   5
TORSDOF 6
ENDMDL
MODEL      147
REMARK 921   NORMALIZED FREE ENERGY PREDICTED BY IDOCK:   -5.46 KCAL/MOL
REMARK 922        TOTAL FREE ENERGY PREDICTED BY IDOCK:   -8.42 KCAL/MOL
REMARK 923 INTER-LIGAND FREE ENERGY PREDICTED BY IDOCK:   -7.70 KCAL/MOL
REMARK 924 INTRA-LIGAND FREE ENERGY PREDICTED BY IDOCK:   -0.73 KCAL/MOL
REMARK 927      BINDING AFFINITY PREDICTED BY RF-SCORE:    0.00 PKD
ROOT
HETATM    1  N   UNL     1     -11.350   6.786  67.983  1.00  0.00    -0.555 NA 
HETATM    2  C   UNL     1     -11.264   6.033  69.243  1.00  0.00    -0.297 C  
HETATM    3  H2  UNL     1     -10.544   6.599  67.387  1.00  0.00     0.000 HD 
HETATM    4  H1  UNL     1     -12.223   6.611  67.488  1.00  0.00     0.000 HD 
ENDROOT
BRANCH   2   5
HETATM    5  C   UNL     1      -9.936   6.299  69.996  1.00  0.00    -0.171 C  
HETATM    6  O   UNL     1      -9.381   7.587  69.687  1.00  0.00    -0.154 OA 
HETATM    7  C   UNL     1     -10.117   8.694  70.183  1.00  0.00    -0.185 C  
HETATM    8  C   UNL     1     -10.176   8.636  71.745  1.00  0.00    -0.308 C  
HETATM    9  C   UNL     1     -10.071   6.098  71.518  1.00  0.00    -0.192 C  
HETATM   10  N   UNL     1      -8.850   8.825  72.374  1.00  0.00    -0.400 NA 
HETATM   11  C   UNL     1     -10.770   7.287  72.188  1.00  0.00    -0.252 C  
HETATM   12  H   UNL     1      -8.839   5.808  73.003  1.00  0.00     0.000 HD 
HETATM   13  H1  UNL     1      -8.889   8.787  73.393  1.00  0.00     0.000 HD 
HETATM   14  H2  UNL     1      -8.414   9.690  72.056  1.00  0.00     0.000 HD 
HETATM   15  O   UNL     1      -8.756   5.932  72.065  1.00  0.00    -0.136 OA 
BRANCH   7  16
HETATM   16  O   UNL     1      -9.500   9.926  69.770  1.00  0.00    -0.210 OA 
BRANCH  16  17
HETATM   17  C   UNL     1      -9.923  10.473  68.487  1.00  0.00    -0.170 C  
HETATM   18  N   UNL     1      -8.843   8.690  67.132  1.00  0.00    -0.127 NA 
HETATM   19  C   UNL     1      -9.416  10.763  66.027  1.00  0.00    -0.230 C  
HETATM   20  H1  UNL     1      -8.201   8.473  66.371  1.00  0.00     0.000 HD 
HETATM   21  H2  UNL     1      -9.758   8.263  66.986  1.00  0.00     0.000 HD 
HETATM   22  C   UNL     1      -9.551  12.282  66.143  1.00  0.00    -0.240 C  
HETATM   23  C   UNL     1      -8.951  10.144  67.335  1.00  0.00    -0.134 C  
HETATM   24  N   UNL     1      -9.881  12.760  64.789  1.00  0.00    -0.528 NA 
HETATM   25  C   UNL     1     -10.604  12.685  67.223  1.00  0.00    -0.228 C  
HETATM   26  H   UNL     1     -11.727  12.985  69.472  1.00  0.00     0.000 HD 
HETATM   27  H1  UNL     1      -9.971  13.773  64.867  1.00  0.00     0.000 HD 
HETATM   28  C   UNL     1     -10.312  11.975  68.579  1.00  0.00    -0.217 C  
HETATM   29  H2  UNL     1     -10.702  12.307  64.385  1.00  0.00     0.000 HD 
HETATM   30  O   UNL     1     -11.489  12.067  69.416  1.00  0.00    -0.273 OA 
BRANCH  25  31
HETATM   31  O   UNL     1     -10.613  14.120  67.503  1.00  0.00    -0.254 OA 
BRANCH  31  32
HETATM   32  C   UNL     1      -9.933  14.513  68.702  1.00  0.00    -0.237 C  
HETATM   33  O   UNL     1      -8.507  14.448  68.573  1.00  0.00    -0.162 OA 
HETATM   34  C   UNL     1      -7.980  15.431  67.667  1.00  0.00    -0.155 C  
HETATM   35  C   UNL     1      -8.306  16.849  68.164  1.00  0.00    -0.212 C  
HETATM   36  H   UNL     1     -12.115  16.834  69.552  1.00  0.00     0.000 HD 
HETATM   37  C   UNL     1      -9.831  17.028  68.288  1.00  0.00    -0.278 C  
HETATM   38  H1  UNL     1     -11.166  18.500  68.881  1.00  0.00     0.000 HD 
HETATM   39  O   UNL     1      -7.759  17.860  67.313  1.00  0.00    -0.199 OA 
HETATM   40  H   UNL     1      -7.960  18.736  67.620  1.00  0.00     0.000 HD 
HETATM   41  H2  UNL     1      -9.733  19.114  68.230  1.00  0.00     0.000 HD 
HETATM   42  C   UNL     1     -10.400  15.912  69.182  1.00  0.00    -0.237 C  
HETATM   43  N   UNL     1     -10.156  18.381  68.800  1.00  0.00    -0.385 NA 
HETATM   44  O   UNL     1     -11.829  15.976  69.259  1.00  0.00    -0.345 OA 
BRANCH  34  45
HETATM   45  C   UNL     1      -6.460  15.239  67.577  1.00  0.00    -0.129 C  
HETATM   46  O   UNL     1      -5.859  15.335  68.868  1.00  0.00    -0.095 OA 
HETATM   47  H   UNL     1      -4.919  15.215  68.812  1.00  0.00     0.000 HD 
ENDBRANCH  34  45
ENDBRANCH  31  32
ENDBRANCH  25  31
ENDBRANCH  16  17
ENDBRANCH   7  16
ENDBRANCH   2   5
TORSDOF 6
ENDMDL
MODEL      148
REMARK 921   NORMALIZED FREE ENERGY PREDICTED BY IDOCK:   -5.45 KCAL/MOL
REMARK 922        TOTAL FREE ENERGY PREDICTED BY IDOCK:   -8.41 KCAL/MOL
REMARK 923 INTER-LIGAND FREE ENERGY PREDICTED BY IDOCK:   -8.90 KCAL/MOL
REMARK 924 INTRA-LIGAND FREE ENERGY PREDICTED BY IDOCK:    0.49 KCAL/MOL
REMARK 927      BINDING AFFINITY PREDICTED BY RF-SCORE:    0.00 PKD
ROOT
HETATM    1  N   UNL     1     -11.647  16.413  63.811  1.00  0.00    -1.515 NA 
HETATM    2  C   UNL     1     -10.670  16.007  64.832  1.00  0.00    -0.316 C  
HETATM    3  H2  UNL     1     -12.560  15.993  63.987  1.00  0.00     0.000 HD 
HETATM    4  H1  UNL     1     -11.719  17.427  63.727  1.00  0.00     0.000 HD 
ENDROOT
BRANCH   2   5
HETATM    5  C   UNL     1     -10.562  14.467  64.961  1.00  0.00    -0.432 C  
HETATM    6  O   UNL     1     -10.053  14.060  66.241  1.00  0.00    -0.282 OA 
HETATM    7  C   UNL     1     -10.925  14.290  67.336  1.00  0.00    -0.295 C  
HETATM    8  C   UNL     1     -12.247  13.479  67.143  1.00  0.00    -0.281 C  
HETATM    9  C   UNL     1     -11.889  13.753  64.633  1.00  0.00    -0.402 C  
HETATM   10  N   UNL     1     -12.035  12.016  67.205  1.00  0.00    -0.590 NA 
HETATM   11  C   UNL     1     -12.887  13.850  65.793  1.00  0.00    -0.437 C  
HETATM   12  H   UNL     1     -12.416  11.938  64.148  1.00  0.00     0.000 HD 
HETATM   13  H1  UNL     1     -12.899  11.487  67.080  1.00  0.00     0.000 HD 
HETATM   14  H2  UNL     1     -11.566  11.751  68.071  1.00  0.00     0.000 HD 
HETATM   15  O   UNL     1     -11.598  12.378  64.350  1.00  0.00    -0.321 OA 
BRANCH   7  16
HETATM   16  O   UNL     1     -10.292  13.895  68.565  1.00  0.00    -0.236 OA 
BRANCH  16  17
HETATM   17  C   UNL     1      -9.090  13.079  68.451  1.00  0.00    -0.129 C  
HETATM   18  N   UNL     1      -7.563  15.005  68.081  1.00  0.00    -0.105 NA 
HETATM   19  C   UNL     1      -6.792  12.807  67.432  1.00  0.00    -0.137 C  
HETATM   20  H1  UNL     1      -6.849  15.420  67.483  1.00  0.00     0.000 HD 
HETATM   21  H2  UNL     1      -7.243  14.923  69.046  1.00  0.00     0.000 HD 
HETATM   22  C   UNL     1      -7.163  11.432  66.876  1.00  0.00    -0.144 C  
HETATM   23  C   UNL     1      -8.010  13.708  67.546  1.00  0.00    -0.182 C  
HETATM   24  N   UNL     1      -5.890  10.712  66.700  1.00  0.00    -0.065 NA 
HETATM   25  C   UNL     1      -8.177  10.691  67.804  1.00  0.00    -0.111 C  
HETATM   26  H   UNL     1     -10.308  10.131  69.051  1.00  0.00     0.000 HD 
HETATM   27  H1  UNL     1      -6.138   9.795  66.329  1.00  0.00     0.000 HD 
HETATM   28  C   UNL     1      -9.408  11.594  68.120  1.00  0.00    -0.188 C  
HETATM   29  H2  UNL     1      -5.324  10.670  67.548  1.00  0.00     0.000 HD 
HETATM   30  O   UNL     1     -10.114  11.039  69.254  1.00  0.00    -0.189 OA 
BRANCH  25  31
HETATM   31  O   UNL     1      -8.708   9.466  67.206  1.00  0.00    -0.127 OA 
BRANCH  31  32
HETATM   32  C   UNL     1      -8.212   8.245  67.769  1.00  0.00    -0.127 C  
HETATM   33  O   UNL     1      -8.476   8.139  69.174  1.00  0.00    -0.132 OA 
HETATM   34  C   UNL     1      -9.875   7.988  69.471  1.00  0.00    -0.181 C  
HETATM   35  C   UNL     1     -10.425   6.705  68.829  1.00  0.00    -0.213 C  
HETATM   36  H   UNL     1      -8.837   6.398  65.111  1.00  0.00     0.000 HD 
HETATM   37  C   UNL     1     -10.226   6.752  67.302  1.00  0.00    -0.210 C  
HETATM   38  H1  UNL     1     -10.591   5.535  65.663  1.00  0.00     0.000 HD 
HETATM   39  O   UNL     1     -11.805   6.494  69.139  1.00  0.00    -0.570 OA 
HETATM   40  H   UNL     1     -12.146   5.701  68.742  1.00  0.00     0.000 HD 
HETATM   41  H2  UNL     1     -11.693   5.313  66.925  1.00  0.00     0.000 HD 
HETATM   42  C   UNL     1      -8.741   7.011  66.993  1.00  0.00    -0.123 C  
HETATM   43  N   UNL     1     -10.723   5.503  66.675  1.00  0.00    -0.300 NA 
HETATM   44  O   UNL     1      -8.512   7.154  65.586  1.00  0.00    -0.143 OA 
BRANCH  34  45
HETATM   45  C   UNL     1     -10.040   7.929  70.996  1.00  0.00    -0.192 C  
HETATM   46  O   UNL     1     -10.678   6.714  71.389  1.00  0.00    -0.222 OA 
HETATM   47  H   UNL     1     -10.781   6.677  72.333  1.00  0.00     0.000 HD 
ENDBRANCH  34  45
ENDBRANCH  31  32
ENDBRANCH  25  31
ENDBRANCH  16  17
ENDBRANCH   7  16
ENDBRANCH   2   5
TORSDOF 6
ENDMDL
MODEL      149
REMARK 921   NORMALIZED FREE ENERGY PREDICTED BY IDOCK:   -5.43 KCAL/MOL
REMARK 922        TOTAL FREE ENERGY PREDICTED BY IDOCK:   -8.39 KCAL/MOL
REMARK 923 INTER-LIGAND FREE ENERGY PREDICTED BY IDOCK:   -7.92 KCAL/MOL
REMARK 924 INTRA-LIGAND FREE ENERGY PREDICTED BY IDOCK:   -0.47 KCAL/MOL
REMARK 927      BINDING AFFINITY PREDICTED BY RF-SCORE:    0.00 PKD
ROOT
HETATM    1  N   UNL     1      -9.768  20.542  65.396  1.00  0.00    -0.303 NA 
HETATM    2  C   UNL     1     -10.681  19.589  66.044  1.00  0.00    -0.430 C  
HETATM    3  H2  UNL     1      -8.815  20.179  65.369  1.00  0.00     0.000 HD 
HETATM    4  H1  UNL     1     -10.086  20.811  64.466  1.00  0.00     0.000 HD 
ENDROOT
BRANCH   2   5
HETATM    5  C   UNL     1     -10.197  19.180  67.458  1.00  0.00    -0.403 C  
HETATM    6  O   UNL     1     -10.511  17.814  67.769  1.00  0.00    -0.368 OA 
HETATM    7  C   UNL     1      -9.788  16.846  67.025  1.00  0.00    -0.270 C  
HETATM    8  C   UNL     1      -8.257  16.991  67.308  1.00  0.00    -0.186 C  
HETATM    9  C   UNL     1      -8.700  19.475  67.677  1.00  0.00    -0.315 C  
HETATM   10  N   UNL     1      -7.900  16.654  68.703  1.00  0.00    -0.222 NA 
HETATM   11  C   UNL     1      -7.809  18.430  66.995  1.00  0.00    -0.238 C  
HETATM   12  H   UNL     1      -7.526  19.668  69.224  1.00  0.00     0.000 HD 
HETATM   13  H1  UNL     1      -6.901  16.748  68.888  1.00  0.00     0.000 HD 
HETATM   14  H2  UNL     1      -8.231  15.722  68.951  1.00  0.00     0.000 HD 
HETATM   15  O   UNL     1      -8.449  19.486  69.088  1.00  0.00    -0.294 OA 
BRANCH   7  16
HETATM   16  O   UNL     1     -10.221  15.522  67.381  1.00  0.00    -0.248 OA 
BRANCH  16  17
HETATM   17  C   UNL     1      -9.843  14.443  66.477  1.00  0.00    -0.287 C  
HETATM   18  N   UNL     1     -11.280  15.224  64.605  1.00  0.00    -0.623 NA 
HETATM   19  C   UNL     1     -10.524  12.928  64.570  1.00  0.00    -0.400 C  
HETATM   20  H1  UNL     1     -12.013  14.982  63.938  1.00  0.00     0.000 HD 
HETATM   21  H2  UNL     1     -10.452  15.591  64.137  1.00  0.00     0.000 HD 
HETATM   22  C   UNL     1     -10.167  11.684  65.386  1.00  0.00    -0.263 C  
HETATM   23  C   UNL     1     -10.952  14.077  65.468  1.00  0.00    -0.309 C  
HETATM   24  N   UNL     1      -9.897  10.622  64.401  1.00  0.00    -0.307 NA 
HETATM   25  C   UNL     1      -8.975  11.955  66.356  1.00  0.00    -0.180 C  
HETATM   26  H   UNL     1      -7.623  12.903  68.275  1.00  0.00     0.000 HD 
HETATM   27  H1  UNL     1      -9.659   9.793  64.945  1.00  0.00     0.000 HD 
HETATM   28  C   UNL     1      -9.240  13.222  67.226  1.00  0.00    -0.222 C  
HETATM   29  H2  UNL     1      -9.188  10.875  63.712  1.00  0.00     0.000 HD 
HETATM   30  O   UNL     1      -7.991  13.650  67.817  1.00  0.00    -0.142 OA 
BRANCH  25  31
HETATM   31  O   UNL     1      -8.740  10.856  67.292  1.00  0.00    -0.130 OA 
BRANCH  31  32
HETATM   32  C   UNL     1      -8.799  11.211  68.679  1.00  0.00    -0.155 C  
HETATM   33  O   UNL     1      -9.970  10.699  69.329  1.00  0.00    -0.218 OA 
HETATM   34  C   UNL     1      -9.964   9.267  69.448  1.00  0.00    -0.181 C  
HETATM   35  C   UNL     1      -8.765   8.802  70.289  1.00  0.00    -0.161 C  
HETATM   36  H   UNL     1      -5.548  11.012  69.191  1.00  0.00     0.000 HD 
HETATM   37  C   UNL     1      -7.449   9.269  69.636  1.00  0.00    -0.078 C  
HETATM   38  H1  UNL     1      -5.415   9.165  70.025  1.00  0.00     0.000 HD 
HETATM   39  O   UNL     1      -8.748   7.383  70.471  1.00  0.00    -0.144 OA 
HETATM   40  H   UNL     1      -8.006   7.096  70.991  1.00  0.00     0.000 HD 
HETATM   41  H2  UNL     1      -6.285   7.852  70.637  1.00  0.00     0.000 HD 
HETATM   42  C   UNL     1      -7.504  10.791  69.423  1.00  0.00    -0.124 C  
HETATM   43  N   UNL     1      -6.286   8.856  70.458  1.00  0.00    -0.040 NA 
HETATM   44  O   UNL     1      -6.341  11.269  68.736  1.00  0.00    -0.047 OA 
BRANCH  34  45
HETATM   45  C   UNL     1     -11.277   8.833  70.115  1.00  0.00    -0.152 C  
HETATM   46  O   UNL     1     -11.609   7.492  69.755  1.00  0.00    -0.477 OA 
HETATM   47  H   UNL     1     -12.421   7.223  70.168  1.00  0.00     0.000 HD 
ENDBRANCH  34  45
ENDBRANCH  31  32
ENDBRANCH  25  31
ENDBRANCH  16  17
ENDBRANCH   7  16
ENDBRANCH   2   5
TORSDOF 6
ENDMDL
MODEL      150
REMARK 921   NORMALIZED FREE ENERGY PREDICTED BY IDOCK:   -5.43 KCAL/MOL
REMARK 922        TOTAL FREE ENERGY PREDICTED BY IDOCK:   -8.38 KCAL/MOL
REMARK 923 INTER-LIGAND FREE ENERGY PREDICTED BY IDOCK:   -6.45 KCAL/MOL
REMARK 924 INTRA-LIGAND FREE ENERGY PREDICTED BY IDOCK:   -1.93 KCAL/MOL
REMARK 927      BINDING AFFINITY PREDICTED BY RF-SCORE:    0.00 PKD
ROOT
HETATM    1  N   UNL     1      -9.881   9.473  70.316  1.00  0.00    -0.246 NA 
HETATM    2  C   UNL     1      -8.420   9.617  70.399  1.00  0.00    -0.146 C  
HETATM    3  H2  UNL     1     -10.209   8.707  70.904  1.00  0.00     0.000 HD 
HETATM    4  H1  UNL     1     -10.368  10.341  70.537  1.00  0.00     0.000 HD 
ENDROOT
BRANCH   2   5
HETATM    5  C   UNL     1      -7.681   8.297  70.063  1.00  0.00    -0.095 C  
HETATM    6  O   UNL     1      -8.137   7.712  68.834  1.00  0.00    -0.123 OA 
HETATM    7  C   UNL     1      -7.797   8.434  67.661  1.00  0.00    -0.107 C  
HETATM    8  C   UNL     1      -6.242   8.521  67.522  1.00  0.00    -0.053 C  
HETATM    9  C   UNL     1      -6.148   8.463  70.070  1.00  0.00    -0.031 C  
HETATM   10  N   UNL     1      -5.615   7.204  67.279  1.00  0.00    -0.023 NA 
HETATM   11  C   UNL     1      -5.645   9.150  68.795  1.00  0.00    -0.040 C  
HETATM   12  H   UNL     1      -4.614   7.263  70.193  1.00  0.00     0.000 HD 
HETATM   13  H1  UNL     1      -4.600   7.261  67.188  1.00  0.00     0.000 HD 
HETATM   14  H2  UNL     1      -6.030   6.745  66.468  1.00  0.00     0.000 HD 
HETATM   15  O   UNL     1      -5.559   7.161  70.189  1.00  0.00    -0.023 OA 
BRANCH   7  16
HETATM   16  O   UNL     1      -8.349   7.787  66.502  1.00  0.00    -0.119 OA 
BRANCH  16  17
HETATM   17  C   UNL     1      -9.211   8.594  65.647  1.00  0.00    -0.139 C  
HETATM   18  N   UNL     1      -7.859   8.241  63.592  1.00  0.00    -0.146 NA 
HETATM   19  C   UNL     1      -9.389  10.112  63.633  1.00  0.00    -0.336 C  
HETATM   20  H1  UNL     1      -7.361   8.678  62.816  1.00  0.00     0.000 HD 
HETATM   21  H2  UNL     1      -8.554   7.572  63.262  1.00  0.00     0.000 HD 
HETATM   22  C   UNL     1     -10.056  11.204  64.471  1.00  0.00    -0.308 C  
HETATM   23  C   UNL     1      -8.457   9.256  64.474  1.00  0.00    -0.181 C  
HETATM   24  N   UNL     1     -10.823  12.028  63.522  1.00  0.00    -0.499 NA 
HETATM   25  C   UNL     1     -10.925  10.598  65.618  1.00  0.00     0.180 C  
HETATM   26  H   UNL     1     -11.568   9.372  67.738  1.00  0.00     0.000 HD 
HETATM   27  H1  UNL     1     -11.267  12.756  64.081  1.00  0.00     0.000 HD 
HETATM   28  C   UNL     1     -10.104   9.573  66.459  1.00  0.00    -0.256 C  
HETATM   29  H2  UNL     1     -11.480  11.492  62.953  1.00  0.00     0.000 HD 
HETATM   30  O   UNL     1     -11.022   8.774  67.242  1.00  0.00    -0.115 OA 
BRANCH  25  31
HETATM   31  O   UNL     1     -11.411  11.606  66.559  1.00  0.00    -0.411 OA 
BRANCH  31  32
HETATM   32  C   UNL     1     -10.403  12.217  67.375  1.00  0.00    -0.205 C  
HETATM   33  O   UNL     1      -9.765  13.324  66.727  1.00  0.00    -0.243 OA 
HETATM   34  C   UNL     1     -10.641  14.450  66.547  1.00  0.00    -0.296 C  
HETATM   35  C   UNL     1     -11.134  14.970  67.906  1.00  0.00    -0.307 C  
HETATM   36  H   UNL     1     -11.992  11.759  70.228  1.00  0.00     0.000 HD 
HETATM   37  C   UNL     1     -11.880  13.852  68.660  1.00  0.00    -0.372 C  
HETATM   38  H1  UNL     1     -12.825  13.594  70.488  1.00  0.00     0.000 HD 
HETATM   39  O   UNL     1     -11.973  16.120  67.774  1.00  0.00     0.092 OA 
HETATM   40  H   UNL     1     -12.278  16.442  68.614  1.00  0.00     0.000 HD 
HETATM   41  H2  UNL     1     -12.891  15.181  69.916  1.00  0.00     0.000 HD 
HETATM   42  C   UNL     1     -10.969  12.617  68.763  1.00  0.00    -0.249 C  
HETATM   43  N   UNL     1     -12.330  14.333  69.989  1.00  0.00    -0.345 NA 
HETATM   44  O   UNL     1     -11.646  11.513  69.378  1.00  0.00    -0.265 OA 
BRANCH  34  45
HETATM   45  C   UNL     1      -9.867  15.551  65.809  1.00  0.00    -0.357 C  
HETATM   46  O   UNL     1     -10.693  16.181  64.830  1.00  0.00    -0.687 OA 
HETATM   47  H   UNL     1     -10.214  16.863  64.373  1.00  0.00     0.000 HD 
ENDBRANCH  34  45
ENDBRANCH  31  32
ENDBRANCH  25  31
ENDBRANCH  16  17
ENDBRANCH   7  16
ENDBRANCH   2   5
TORSDOF 6
ENDMDL
MODEL      151
REMARK 921   NORMALIZED FREE ENERGY PREDICTED BY IDOCK:   -5.39 KCAL/MOL
REMARK 922        TOTAL FREE ENERGY PREDICTED BY IDOCK:   -8.33 KCAL/MOL
REMARK 923 INTER-LIGAND FREE ENERGY PREDICTED BY IDOCK:   -8.44 KCAL/MOL
REMARK 924 INTRA-LIGAND FREE ENERGY PREDICTED BY IDOCK:    0.10 KCAL/MOL
REMARK 927      BINDING AFFINITY PREDICTED BY RF-SCORE:    0.00 PKD
ROOT
HETATM    1  N   UNL     1     -11.356  15.858  63.981  1.00  0.00    -1.070 NA 
HETATM    2  C   UNL     1     -10.928  14.911  65.021  1.00  0.00    -0.420 C  
HETATM    3  H2  UNL     1     -11.191  16.822  64.270  1.00  0.00     0.000 HD 
HETATM    4  H1  UNL     1     -10.921  15.664  63.079  1.00  0.00     0.000 HD 
ENDROOT
BRANCH   2   5
HETATM    5  C   UNL     1     -11.589  15.207  66.391  1.00  0.00    -0.089 C  
HETATM    6  O   UNL     1     -12.270  14.061  66.927  1.00  0.00    -0.436 OA 
HETATM    7  C   UNL     1     -11.426  12.998  67.339  1.00  0.00    -0.332 C  
HETATM    8  C   UNL     1     -10.477  13.484  68.482  1.00  0.00    -0.244 C  
HETATM    9  C   UNL     1     -10.595  15.796  67.411  1.00  0.00    -0.313 C  
HETATM   10  N   UNL     1     -11.204  13.816  69.727  1.00  0.00    -0.463 NA 
HETATM   11  C   UNL     1      -9.684  14.715  68.005  1.00  0.00    -0.216 C  
HETATM   12  H   UNL     1     -10.734  16.792  69.082  1.00  0.00     0.000 HD 
HETATM   13  H1  UNL     1     -10.584  14.133  70.473  1.00  0.00     0.000 HD 
HETATM   14  H2  UNL     1     -11.776  13.031  70.036  1.00  0.00     0.000 HD 
HETATM   15  O   UNL     1     -11.347  16.429  68.453  1.00  0.00    -0.366 OA 
BRANCH   7  16
HETATM   16  O   UNL     1     -12.215  11.891  67.806  1.00  0.00    -0.508 OA 
BRANCH  16  17
HETATM   17  C   UNL     1     -11.489  10.697  68.222  1.00  0.00    -0.245 C  
HETATM   18  N   UNL     1     -12.859  10.316  70.261  1.00  0.00    -0.564 NA 
HETATM   19  C   UNL     1     -10.692   9.250  70.137  1.00  0.00    -0.269 C  
HETATM   20  H1  UNL     1     -12.859  10.177  71.271  1.00  0.00     0.000 HD 
HETATM   21  H2  UNL     1     -13.349   9.564  69.777  1.00  0.00     0.000 HD 
HETATM   22  C   UNL     1      -9.246   9.342  69.650  1.00  0.00    -0.175 C  
HETATM   23  C   UNL     1     -11.489  10.486  69.751  1.00  0.00    -0.294 C  
HETATM   24  N   UNL     1      -8.563   8.155  70.193  1.00  0.00    -0.127 NA 
HETATM   25  C   UNL     1      -9.168   9.450  68.095  1.00  0.00    -0.130 C  
HETATM   26  H   UNL     1      -9.416  10.364  65.747  1.00  0.00     0.000 HD 
HETATM   27  H1  UNL     1      -7.598   8.217  69.869  1.00  0.00     0.000 HD 
HETATM   28  C   UNL     1     -10.082  10.599  67.569  1.00  0.00    -0.184 C  
HETATM   29  H2  UNL     1      -9.020   7.275  69.952  1.00  0.00     0.000 HD 
HETATM   30  O   UNL     1     -10.276  10.425  66.146  1.00  0.00    -0.232 OA 
BRANCH  25  31
HETATM   31  O   UNL     1      -7.820   9.743  67.610  1.00  0.00    -0.094 OA 
BRANCH  31  32
HETATM   32  C   UNL     1      -6.991   8.596  67.380  1.00  0.00    -0.078 C  
HETATM   33  O   UNL     1      -7.742   7.377  67.317  1.00  0.00    -0.111 OA 
HETATM   34  C   UNL     1      -8.587   7.298  66.157  1.00  0.00    -0.149 C  
HETATM   35  C   UNL     1      -7.744   7.353  64.873  1.00  0.00    -0.113 C  
HETATM   36  H   UNL     1      -4.855  10.147  65.404  1.00  0.00     0.000 HD 
HETATM   37  C   UNL     1      -6.933   8.662  64.830  1.00  0.00    -0.073 C  
HETATM   38  H1  UNL     1      -5.552   9.578  63.583  1.00  0.00     0.000 HD 
HETATM   39  O   UNL     1      -8.545   7.231  63.694  1.00  0.00    -0.332 OA 
HETATM   40  H   UNL     1      -8.024   7.265  62.901  1.00  0.00     0.000 HD 
HETATM   41  H2  UNL     1      -6.639   8.577  62.764  1.00  0.00     0.000 HD 
HETATM   42  C   UNL     1      -6.104   8.786  66.120  1.00  0.00    -0.052 C  
HETATM   43  N   UNL     1      -6.089   8.711  63.612  1.00  0.00    -0.073 NA 
HETATM   44  O   UNL     1      -5.397  10.031  66.175  1.00  0.00    -0.045 OA 
BRANCH  34  45
HETATM   45  C   UNL     1      -9.370   5.979  66.219  1.00  0.00    -0.145 C  
HETATM   46  O   UNL     1     -10.771   6.226  66.331  1.00  0.00    -0.495 OA 
HETATM   47  H   UNL     1     -11.255   5.410  66.370  1.00  0.00     0.000 HD 
ENDBRANCH  34  45
ENDBRANCH  31  32
ENDBRANCH  25  31
ENDBRANCH  16  17
ENDBRANCH   7  16
ENDBRANCH   2   5
TORSDOF 6
ENDMDL
MODEL      152
REMARK 921   NORMALIZED FREE ENERGY PREDICTED BY IDOCK:   -5.36 KCAL/MOL
REMARK 922        TOTAL FREE ENERGY PREDICTED BY IDOCK:   -8.30 KCAL/MOL
REMARK 923 INTER-LIGAND FREE ENERGY PREDICTED BY IDOCK:   -6.91 KCAL/MOL
REMARK 924 INTRA-LIGAND FREE ENERGY PREDICTED BY IDOCK:   -1.38 KCAL/MOL
REMARK 927      BINDING AFFINITY PREDICTED BY RF-SCORE:    0.00 PKD
ROOT
HETATM    1  N   UNL     1     -12.259   6.762  70.000  1.00  0.00    -0.589 NA 
HETATM    2  C   UNL     1     -10.892   7.098  69.576  1.00  0.00    -0.225 C  
HETATM    3  H2  UNL     1     -12.358   5.762  70.169  1.00  0.00     0.000 HD 
HETATM    4  H1  UNL     1     -12.556   7.304  70.811  1.00  0.00     0.000 HD 
ENDROOT
BRANCH   2   5
HETATM    5  C   UNL     1     -10.442   6.275  68.342  1.00  0.00    -0.227 C  
HETATM    6  O   UNL     1      -9.350   6.892  67.643  1.00  0.00    -0.122 OA 
HETATM    7  C   UNL     1      -8.114   6.897  68.341  1.00  0.00    -0.120 C  
HETATM    8  C   UNL     1      -7.651   5.428  68.612  1.00  0.00    -0.083 C  
HETATM    9  C   UNL     1     -10.124   4.809  68.696  1.00  0.00    -0.044 C  
HETATM   10  N   UNL     1      -7.315   4.696  67.372  1.00  0.00    -0.073 NA 
HETATM   11  C   UNL     1      -8.756   4.672  69.374  1.00  0.00    -0.111 C  
HETATM   12  H   UNL     1      -9.953   3.138  67.703  1.00  0.00     0.000 HD 
HETATM   13  H1  UNL     1      -7.013   3.737  67.549  1.00  0.00     0.000 HD 
HETATM   14  H2  UNL     1      -6.620   5.203  66.825  1.00  0.00     0.000 HD 
HETATM   15  O   UNL     1     -10.150   4.042  67.485  1.00  0.00    -0.040 OA 
BRANCH   7  16
HETATM   16  O   UNL     1      -7.112   7.583  67.572  1.00  0.00    -0.080 OA 
BRANCH  16  17
HETATM   17  C   UNL     1      -7.011   9.024  67.764  1.00  0.00    -0.078 C  
HETATM   18  N   UNL     1      -6.255   8.868  70.127  1.00  0.00    -0.036 NA 
HETATM   19  C   UNL     1      -7.171  10.973  69.368  1.00  0.00    -0.114 C  
HETATM   20  H1  UNL     1      -6.415   9.158  71.091  1.00  0.00     0.000 HD 
HETATM   21  H2  UNL     1      -5.304   9.078  69.825  1.00  0.00     0.000 HD 
HETATM   22  C   UNL     1      -8.183  11.678  68.465  1.00  0.00    -0.144 C  
HETATM   23  C   UNL     1      -7.254   9.462  69.224  1.00  0.00    -0.066 C  
HETATM   24  N   UNL     1      -8.085  13.111  68.792  1.00  0.00    -0.342 NA 
HETATM   25  C   UNL     1      -7.928  11.362  66.957  1.00  0.00    -0.158 C  
HETATM   26  H   UNL     1      -7.737  10.080  64.782  1.00  0.00     0.000 HD 
HETATM   27  H1  UNL     1      -8.761  13.581  68.190  1.00  0.00     0.000 HD 
HETATM   28  C   UNL     1      -7.835   9.824  66.717  1.00  0.00    -0.102 C  
HETATM   29  H2  UNL     1      -7.138  13.484  68.713  1.00  0.00     0.000 HD 
HETATM   30  O   UNL     1      -7.233   9.591  65.422  1.00  0.00    -0.090 OA 
BRANCH  25  31
HETATM   31  O   UNL     1      -8.993  11.851  66.083  1.00  0.00    -0.195 OA 
BRANCH  31  32
HETATM   32  C   UNL     1     -10.248  11.170  66.208  1.00  0.00    -0.239 C  
HETATM   33  O   UNL     1     -11.066  11.710  67.253  1.00  0.00    -0.256 OA 
HETATM   34  C   UNL     1     -11.541  13.035  66.965  1.00  0.00    -0.360 C  
HETATM   35  C   UNL     1     -12.408  13.032  65.696  1.00  0.00    -0.446 C  
HETATM   36  H   UNL     1     -10.621  10.610  62.980  1.00  0.00     0.000 HD 
HETATM   37  C   UNL     1     -11.590  12.508  64.500  1.00  0.00    -0.348 C  
HETATM   38  H1  UNL     1     -11.885  12.121  62.484  1.00  0.00     0.000 HD 
HETATM   39  O   UNL     1     -12.939  14.327  65.400  1.00  0.00    -0.654 OA 
HETATM   40  H   UNL     1     -13.474  14.325  64.615  1.00  0.00     0.000 HD 
HETATM   41  H2  UNL     1     -12.851  13.373  63.078  1.00  0.00     0.000 HD 
HETATM   42  C   UNL     1     -11.004  11.130  64.854  1.00  0.00    -0.121 C  
HETATM   43  N   UNL     1     -12.426  12.468  63.276  1.00  0.00    -0.646 NA 
HETATM   44  O   UNL     1     -10.158  10.634  63.809  1.00  0.00    -0.330 OA 
BRANCH  34  45
HETATM   45  C   UNL     1     -12.364  13.524  68.166  1.00  0.00     0.093 C  
HETATM   46  O   UNL     1     -12.268  14.942  68.302  1.00  0.00    -0.570 OA 
HETATM   47  H   UNL     1     -12.777  15.244  69.045  1.00  0.00     0.000 HD 
ENDBRANCH  34  45
ENDBRANCH  31  32
ENDBRANCH  25  31
ENDBRANCH  16  17
ENDBRANCH   7  16
ENDBRANCH   2   5
TORSDOF 6
ENDMDL
MODEL      153
REMARK 921   NORMALIZED FREE ENERGY PREDICTED BY IDOCK:   -5.36 KCAL/MOL
REMARK 922        TOTAL FREE ENERGY PREDICTED BY IDOCK:   -8.29 KCAL/MOL
REMARK 923 INTER-LIGAND FREE ENERGY PREDICTED BY IDOCK:   -6.73 KCAL/MOL
REMARK 924 INTRA-LIGAND FREE ENERGY PREDICTED BY IDOCK:   -1.56 KCAL/MOL
REMARK 927      BINDING AFFINITY PREDICTED BY RF-SCORE:    0.00 PKD
ROOT
HETATM    1  N   UNL     1     -12.956  10.357  72.173  1.00  0.00    -0.464 NA 
HETATM    2  C   UNL     1     -12.495   9.593  71.004  1.00  0.00    -0.296 C  
HETATM    3  H2  UNL     1     -12.249  10.369  72.907  1.00  0.00     0.000 HD 
HETATM    4  H1  UNL     1     -13.246  11.302  71.925  1.00  0.00     0.000 HD 
ENDROOT
BRANCH   2   5
HETATM    5  C   UNL     1     -12.054   8.156  71.380  1.00  0.00    -0.297 C  
HETATM    6  O   UNL     1     -11.469   7.456  70.270  1.00  0.00    -0.261 OA 
HETATM    7  C   UNL     1     -10.208   7.947  69.847  1.00  0.00    -0.210 C  
HETATM    8  C   UNL     1      -9.168   7.817  71.008  1.00  0.00    -0.151 C  
HETATM    9  C   UNL     1     -11.127   8.127  72.612  1.00  0.00    -0.380 C  
HETATM   10  N   UNL     1      -8.866   6.410  71.349  1.00  0.00    -0.138 NA 
HETATM   11  C   UNL     1      -9.696   8.548  72.256  1.00  0.00    -0.380 C  
HETATM   12  H   UNL     1     -10.557   6.776  73.899  1.00  0.00     0.000 HD 
HETATM   13  H1  UNL     1      -8.187   6.325  72.107  1.00  0.00     0.000 HD 
HETATM   14  H2  UNL     1      -8.561   5.891  70.526  1.00  0.00     0.000 HD 
HETATM   15  O   UNL     1     -11.128   6.794  73.140  1.00  0.00    -0.256 OA 
BRANCH   7  16
HETATM   16  O   UNL     1      -9.746   7.208  68.703  1.00  0.00    -0.140 OA 
BRANCH  16  17
HETATM   17  C   UNL     1      -8.983   7.950  67.707  1.00  0.00    -0.128 C  
HETATM   18  N   UNL     1      -6.880   6.673  68.059  1.00  0.00    -0.074 NA 
HETATM   19  C   UNL     1      -6.728   8.830  66.977  1.00  0.00    -0.066 C  
HETATM   20  H1  UNL     1      -5.883   6.719  68.268  1.00  0.00     0.000 HD 
HETATM   21  H2  UNL     1      -7.060   6.160  67.196  1.00  0.00     0.000 HD 
HETATM   22  C   UNL     1      -7.277  10.253  66.874  1.00  0.00    -0.093 C  
HETATM   23  C   UNL     1      -7.474   8.019  68.023  1.00  0.00    -0.097 C  
HETATM   24  N   UNL     1      -6.394  10.958  65.928  1.00  0.00    -0.283 NA 
HETATM   25  C   UNL     1      -8.780  10.261  66.450  1.00  0.00    -0.135 C  
HETATM   26  H   UNL     1     -11.286   9.908  66.523  1.00  0.00     0.000 HD 
HETATM   27  H1  UNL     1      -6.761  11.907  65.860  1.00  0.00     0.000 HD 
HETATM   28  C   UNL     1      -9.623   9.326  67.370  1.00  0.00    -0.150 C  
HETATM   29  H2  UNL     1      -6.305  10.489  65.026  1.00  0.00     0.000 HD 
HETATM   30  O   UNL     1     -10.895   9.067  66.729  1.00  0.00    -0.116 OA 
BRANCH  25  31
HETATM   31  O   UNL     1      -9.391  11.586  66.539  1.00  0.00    -0.186 OA 
BRANCH  31  32
HETATM   32  C   UNL     1      -9.545  12.101  67.868  1.00  0.00    -0.198 C  
HETATM   33  O   UNL     1      -8.455  12.944  68.261  1.00  0.00    -0.168 OA 
HETATM   34  C   UNL     1      -8.411  14.181  67.530  1.00  0.00    -0.185 C  
HETATM   35  C   UNL     1      -9.694  14.992  67.767  1.00  0.00    -0.215 C  
HETATM   36  H   UNL     1     -12.823  12.415  67.703  1.00  0.00     0.000 HD 
HETATM   37  C   UNL     1     -10.924  14.177  67.325  1.00  0.00    -0.297 C  
HETATM   38  H1  UNL     1     -12.986  14.397  67.288  1.00  0.00     0.000 HD 
HETATM   39  O   UNL     1      -9.670  16.253  67.092  1.00  0.00    -0.232 OA 
HETATM   40  H   UNL     1     -10.463  16.754  67.239  1.00  0.00     0.000 HD 
HETATM   41  H2  UNL     1     -12.151  15.858  67.146  1.00  0.00     0.000 HD 
HETATM   42  C   UNL     1     -10.911  12.815  68.040  1.00  0.00    -0.239 C  
HETATM   43  N   UNL     1     -12.171  14.937  67.582  1.00  0.00    -0.028 NA 
HETATM   44  O   UNL     1     -11.986  11.977  67.598  1.00  0.00    -0.547 OA 
BRANCH  34  45
HETATM   45  C   UNL     1      -7.187  14.978  68.002  1.00  0.00    -0.131 C  
HETATM   46  O   UNL     1      -7.454  15.627  69.245  1.00  0.00    -0.186 OA 
HETATM   47  H   UNL     1      -6.696  16.120  69.537  1.00  0.00     0.000 HD 
ENDBRANCH  34  45
ENDBRANCH  31  32
ENDBRANCH  25  31
ENDBRANCH  16  17
ENDBRANCH   7  16
ENDBRANCH   2   5
TORSDOF 6
ENDMDL
MODEL      154
REMARK 921   NORMALIZED FREE ENERGY PREDICTED BY IDOCK:   -5.36 KCAL/MOL
REMARK 922        TOTAL FREE ENERGY PREDICTED BY IDOCK:   -8.29 KCAL/MOL
REMARK 923 INTER-LIGAND FREE ENERGY PREDICTED BY IDOCK:   -7.68 KCAL/MOL
REMARK 924 INTRA-LIGAND FREE ENERGY PREDICTED BY IDOCK:   -0.61 KCAL/MOL
REMARK 927      BINDING AFFINITY PREDICTED BY RF-SCORE:    0.00 PKD
ROOT
HETATM    1  N   UNL     1     -13.509   9.522  71.104  1.00  0.00    -0.541 NA 
HETATM    2  C   UNL     1     -12.167   9.074  71.502  1.00  0.00    -0.335 C  
HETATM    3  H2  UNL     1     -14.229   9.082  71.677  1.00  0.00     0.000 HD 
HETATM    4  H1  UNL     1     -13.597  10.538  71.118  1.00  0.00     0.000 HD 
ENDROOT
BRANCH   2   5
HETATM    5  C   UNL     1     -12.033   7.530  71.481  1.00  0.00    -0.307 C  
HETATM    6  O   UNL     1     -11.572   7.039  70.213  1.00  0.00    -0.299 OA 
HETATM    7  C   UNL     1     -10.227   7.359  69.897  1.00  0.00    -0.211 C  
HETATM    8  C   UNL     1      -9.266   6.727  70.957  1.00  0.00    -0.156 C  
HETATM    9  C   UNL     1     -11.165   6.998  72.638  1.00  0.00    -0.272 C  
HETATM   10  N   UNL     1      -9.262   5.248  70.914  1.00  0.00    -0.143 NA 
HETATM   11  C   UNL     1      -9.669   7.201  72.365  1.00  0.00    -0.173 C  
HETATM   12  H   UNL     1     -10.912   5.274  73.516  1.00  0.00     0.000 HD 
HETATM   13  H1  UNL     1      -8.635   4.835  71.605  1.00  0.00     0.000 HD 
HETATM   14  H2  UNL     1      -9.046   4.910  69.977  1.00  0.00     0.000 HD 
HETATM   15  O   UNL     1     -11.448   5.603  72.803  1.00  0.00    -0.299 OA 
BRANCH   7  16
HETATM   16  O   UNL     1      -9.893   6.864  68.589  1.00  0.00    -0.142 OA 
BRANCH  16  17
HETATM   17  C   UNL     1      -9.255   7.804  67.676  1.00  0.00    -0.136 C  
HETATM   18  N   UNL     1      -7.156   6.492  67.456  1.00  0.00    -0.078 NA 
HETATM   19  C   UNL     1      -7.099   8.830  66.841  1.00  0.00    -0.078 C  
HETATM   20  H1  UNL     1      -6.138   6.497  67.529  1.00  0.00     0.000 HD 
HETATM   21  H2  UNL     1      -7.464   6.172  66.538  1.00  0.00     0.000 HD 
HETATM   22  C   UNL     1      -7.622  10.239  67.118  1.00  0.00    -0.092 C  
HETATM   23  C   UNL     1      -7.716   7.812  67.787  1.00  0.00    -0.122 C  
HETATM   24  N   UNL     1      -6.860  11.133  66.228  1.00  0.00    -0.300 NA 
HETATM   25  C   UNL     1      -9.168  10.329  66.918  1.00  0.00    -0.150 C  
HETATM   26  H   UNL     1     -11.648   9.957  67.262  1.00  0.00     0.000 HD 
HETATM   27  H1  UNL     1      -7.208  12.073  66.413  1.00  0.00     0.000 HD 
HETATM   28  C   UNL     1      -9.901   9.217  67.728  1.00  0.00    -0.174 C  
HETATM   29  H2  UNL     1      -6.906  10.866  65.244  1.00  0.00     0.000 HD 
HETATM   30  O   UNL     1     -11.254   9.093  67.230  1.00  0.00     0.139 OA 
BRANCH  25  31
HETATM   31  O   UNL     1      -9.728  11.603  67.367  1.00  0.00    -0.175 OA 
BRANCH  31  32
HETATM   32  C   UNL     1     -11.160  11.661  67.406  1.00  0.00    -0.281 C  
HETATM   33  O   UNL     1     -11.658  12.154  68.656  1.00  0.00    -0.273 OA 
HETATM   34  C   UNL     1     -11.356  13.542  68.872  1.00  0.00    -0.289 C  
HETATM   35  C   UNL     1     -12.001  14.409  67.779  1.00  0.00    -0.333 C  
HETATM   36  H   UNL     1     -11.524  12.495  64.237  1.00  0.00     0.000 HD 
HETATM   37  C   UNL     1     -11.483  13.980  66.392  1.00  0.00    -0.352 C  
HETATM   38  H1  UNL     1     -11.782  14.502  64.408  1.00  0.00     0.000 HD 
HETATM   39  O   UNL     1     -11.762  15.804  67.983  1.00  0.00    -0.279 OA 
HETATM   40  H   UNL     1     -12.160  16.340  67.307  1.00  0.00     0.000 HD 
HETATM   41  H2  UNL     1     -12.005  15.787  65.483  1.00  0.00     0.000 HD 
HETATM   42  C   UNL     1     -11.723  12.471  66.208  1.00  0.00    -0.404 C  
HETATM   43  N   UNL     1     -12.125  14.786  65.326  1.00  0.00    -0.255 NA 
HETATM   44  O   UNL     1     -11.179  11.998  64.970  1.00  0.00    -0.315 OA 
BRANCH  34  45
HETATM   45  C   UNL     1     -11.896  13.945  70.252  1.00  0.00    -0.290 C  
HETATM   46  O   UNL     1     -13.107  14.690  70.124  1.00  0.00    -0.565 OA 
HETATM   47  H   UNL     1     -13.441  14.939  70.978  1.00  0.00     0.000 HD 
ENDBRANCH  34  45
ENDBRANCH  31  32
ENDBRANCH  25  31
ENDBRANCH  16  17
ENDBRANCH   7  16
ENDBRANCH   2   5
TORSDOF 6
ENDMDL
MODEL      155
REMARK 921   NORMALIZED FREE ENERGY PREDICTED BY IDOCK:   -5.35 KCAL/MOL
REMARK 922        TOTAL FREE ENERGY PREDICTED BY IDOCK:   -8.28 KCAL/MOL
REMARK 923 INTER-LIGAND FREE ENERGY PREDICTED BY IDOCK:   -6.96 KCAL/MOL
REMARK 924 INTRA-LIGAND FREE ENERGY PREDICTED BY IDOCK:   -1.32 KCAL/MOL
REMARK 927      BINDING AFFINITY PREDICTED BY RF-SCORE:    0.00 PKD
ROOT
HETATM    1  N   UNL     1      -7.872   4.022  64.985  1.00  0.00    -0.088 NA 
HETATM    2  C   UNL     1      -8.633   5.221  65.366  1.00  0.00    -0.149 C  
HETATM    3  H2  UNL     1      -8.095   3.235  65.593  1.00  0.00     0.000 HD 
HETATM    4  H1  UNL     1      -8.003   3.778  64.004  1.00  0.00     0.000 HD 
ENDROOT
BRANCH   2   5
HETATM    5  C   UNL     1      -8.435   5.592  66.858  1.00  0.00    -0.110 C  
HETATM    6  O   UNL     1      -8.214   6.998  67.046  1.00  0.00    -0.115 OA 
HETATM    7  C   UNL     1      -9.338   7.824  66.783  1.00  0.00    -0.180 C  
HETATM    8  C   UNL     1     -10.506   7.458  67.756  1.00  0.00    -0.232 C  
HETATM    9  C   UNL     1      -9.583   5.080  67.750  1.00  0.00    -0.146 C  
HETATM   10  N   UNL     1     -10.197   7.777  69.167  1.00  0.00    -0.204 NA 
HETATM   11  C   UNL     1     -10.834   5.958  67.626  1.00  0.00    -0.331 C  
HETATM   12  H   UNL     1      -9.831   4.757  69.658  1.00  0.00     0.000 HD 
HETATM   13  H1  UNL     1     -10.960   7.538  69.801  1.00  0.00     0.000 HD 
HETATM   14  H2  UNL     1      -9.929   8.755  69.270  1.00  0.00     0.000 HD 
HETATM   15  O   UNL     1      -9.123   5.072  69.108  1.00  0.00    -0.095 OA 
BRANCH   7  16
HETATM   16  O   UNL     1      -8.987   9.208  66.952  1.00  0.00    -0.121 OA 
BRANCH  16  17
HETATM   17  C   UNL     1      -9.993  10.191  66.570  1.00  0.00    -0.224 C  
HETATM   18  N   UNL     1      -9.814   9.739  64.133  1.00  0.00    -0.432 NA 
HETATM   19  C   UNL     1     -10.813  11.829  64.827  1.00  0.00    -0.358 C  
HETATM   20  H1  UNL     1      -9.660  10.132  63.205  1.00  0.00     0.000 HD 
HETATM   21  H2  UNL     1     -10.685   9.211  64.178  1.00  0.00     0.000 HD 
HETATM   22  C   UNL     1     -10.826  12.965  65.850  1.00  0.00    -0.272 C  
HETATM   23  C   UNL     1      -9.760  10.786  65.166  1.00  0.00    -0.265 C  
HETATM   24  N   UNL     1     -11.790  13.955  65.339  1.00  0.00    -0.339 NA 
HETATM   25  C   UNL     1     -11.163  12.445  67.283  1.00  0.00    -0.303 C  
HETATM   26  H   UNL     1     -10.962  11.223  69.491  1.00  0.00     0.000 HD 
HETATM   27  H1  UNL     1     -11.798  14.713  66.021  1.00  0.00     0.000 HD 
HETATM   28  C   UNL     1     -10.236  11.255  67.677  1.00  0.00    -0.181 C  
HETATM   29  H2  UNL     1     -12.714  13.565  65.151  1.00  0.00     0.000 HD 
HETATM   30  O   UNL     1     -10.813  10.573  68.815  1.00  0.00    -0.202 OA 
BRANCH  25  31
HETATM   31  O   UNL     1     -10.985  13.465  68.316  1.00  0.00    -0.241 OA 
BRANCH  31  32
HETATM   32  C   UNL     1     -12.183  14.135  68.726  1.00  0.00    -0.199 C  
HETATM   33  O   UNL     1     -12.907  13.405  69.726  1.00  0.00     0.109 OA 
HETATM   34  C   UNL     1     -12.220  13.350  70.987  1.00  0.00    -0.224 C  
HETATM   35  C   UNL     1     -12.014  14.766  71.549  1.00  0.00    -0.353 C  
HETATM   36  H   UNL     1     -10.943  17.179  68.472  1.00  0.00     0.000 HD 
HETATM   37  C   UNL     1     -11.197  15.614  70.556  1.00  0.00    -0.362 C  
HETATM   38  H1  UNL     1     -10.480  17.555  70.414  1.00  0.00     0.000 HD 
HETATM   39  O   UNL     1     -11.373  14.752  72.828  1.00  0.00    -0.134 OA 
HETATM   40  H   UNL     1     -11.245  15.627  73.175  1.00  0.00     0.000 HD 
HETATM   41  H2  UNL     1     -10.608  16.999  72.004  1.00  0.00     0.000 HD 
HETATM   42  C   UNL     1     -11.888  15.588  69.182  1.00  0.00    -0.354 C  
HETATM   43  N   UNL     1     -11.021  16.993  71.072  1.00  0.00     0.599 NA 
HETATM   44  O   UNL     1     -11.124  16.289  68.193  1.00  0.00    -0.346 OA 
BRANCH  34  45
HETATM   45  C   UNL     1     -13.063  12.513  71.960  1.00  0.00    -0.366 C  
HETATM   46  O   UNL     1     -14.062  13.318  72.586  1.00  0.00    -0.744 OA 
HETATM   47  H   UNL     1     -14.584  12.800  73.187  1.00  0.00     0.000 HD 
ENDBRANCH  34  45
ENDBRANCH  31  32
ENDBRANCH  25  31
ENDBRANCH  16  17
ENDBRANCH   7  16
ENDBRANCH   2   5
TORSDOF 6
ENDMDL
MODEL      156
REMARK 921   NORMALIZED FREE ENERGY PREDICTED BY IDOCK:   -5.33 KCAL/MOL
REMARK 922        TOTAL FREE ENERGY PREDICTED BY IDOCK:   -8.25 KCAL/MOL
REMARK 923 INTER-LIGAND FREE ENERGY PREDICTED BY IDOCK:   -6.63 KCAL/MOL
REMARK 924 INTRA-LIGAND FREE ENERGY PREDICTED BY IDOCK:   -1.62 KCAL/MOL
REMARK 927      BINDING AFFINITY PREDICTED BY RF-SCORE:    0.00 PKD
ROOT
HETATM    1  N   UNL     1      -9.225   6.215  65.587  1.00  0.00    -0.366 NA 
HETATM    2  C   UNL     1      -8.027   6.338  64.743  1.00  0.00    -0.124 C  
HETATM    3  H2  UNL     1     -10.074   6.381  65.047  1.00  0.00     0.000 HD 
HETATM    4  H1  UNL     1      -9.266   5.319  66.071  1.00  0.00     0.000 HD 
ENDROOT
BRANCH   2   5
HETATM    5  C   UNL     1      -7.966   7.700  64.007  1.00  0.00    -0.099 C  
HETATM    6  O   UNL     1      -8.315   8.800  64.863  1.00  0.00    -0.153 OA 
HETATM    7  C   UNL     1      -7.377   9.085  65.888  1.00  0.00    -0.093 C  
HETATM    8  C   UNL     1      -6.001   9.477  65.257  1.00  0.00    -0.065 C  
HETATM    9  C   UNL     1      -6.608   7.937  63.317  1.00  0.00    -0.075 C  
HETATM   10  N   UNL     1      -6.057  10.752  64.511  1.00  0.00    -0.376 NA 
HETATM   11  C   UNL     1      -5.525   8.351  64.321  1.00  0.00    -0.055 C  
HETATM   12  H   UNL     1      -5.943   9.109  61.906  1.00  0.00     0.000 HD 
HETATM   13  H1  UNL     1      -5.158  11.008  64.099  1.00  0.00     0.000 HD 
HETATM   14  H2  UNL     1      -6.417  11.504  65.097  1.00  0.00     0.000 HD 
HETATM   15  O   UNL     1      -6.780   8.963  62.331  1.00  0.00    -0.096 OA 
BRANCH   7  16
HETATM   16  O   UNL     1      -7.854  10.164  66.710  1.00  0.00    -0.106 OA 
BRANCH  16  17
HETATM   17  C   UNL     1      -9.231  10.071  67.181  1.00  0.00    -0.141 C  
HETATM   18  N   UNL     1      -9.962  12.194  66.115  1.00  0.00    -0.228 NA 
HETATM   19  C   UNL     1     -11.320  11.299  67.904  1.00  0.00    -0.367 C  
HETATM   20  H1  UNL     1     -10.405  13.103  66.247  1.00  0.00     0.000 HD 
HETATM   21  H2  UNL     1     -10.424  11.654  65.383  1.00  0.00     0.000 HD 
HETATM   22  C   UNL     1     -11.352  10.535  69.229  1.00  0.00    -0.262 C  
HETATM   23  C   UNL     1      -9.900  11.447  67.381  1.00  0.00    -0.182 C  
HETATM   24  N   UNL     1     -12.753  10.574  69.681  1.00  0.00    -0.616 NA 
HETATM   25  C   UNL     1     -10.784   9.089  69.073  1.00  0.00    -0.141 C  
HETATM   26  H   UNL     1      -9.160   7.189  68.672  1.00  0.00     0.000 HD 
HETATM   27  H1  UNL     1     -12.774  10.065  70.564  1.00  0.00     0.000 HD 
HETATM   28  C   UNL     1      -9.381   9.111  68.394  1.00  0.00    -0.135 C  
HETATM   29  H2  UNL     1     -13.415  10.220  68.989  1.00  0.00     0.000 HD 
HETATM   30  O   UNL     1      -9.068   7.776  67.931  1.00  0.00    -0.132 OA 
BRANCH  25  31
HETATM   31  O   UNL     1     -10.611   8.404  70.353  1.00  0.00    -0.214 OA 
BRANCH  31  32
HETATM   32  C   UNL     1     -11.525   7.326  70.598  1.00  0.00    -0.293 C  
HETATM   33  O   UNL     1     -11.208   6.153  69.837  1.00  0.00    -0.375 OA 
HETATM   34  C   UNL     1      -9.983   5.528  70.255  1.00  0.00    -0.216 C  
HETATM   35  C   UNL     1     -10.081   5.080  71.722  1.00  0.00    -0.200 C  
HETATM   36  H   UNL     1     -11.968   8.011  73.792  1.00  0.00     0.000 HD 
HETATM   37  C   UNL     1     -10.374   6.292  72.626  1.00  0.00    -0.199 C  
HETATM   38  H1  UNL     1     -10.699   6.670  74.639  1.00  0.00     0.000 HD 
HETATM   39  O   UNL     1      -8.897   4.410  72.164  1.00  0.00    -0.114 OA 
HETATM   40  H   UNL     1      -8.958   4.134  73.071  1.00  0.00     0.000 HD 
HETATM   41  H2  UNL     1      -9.688   5.346  74.357  1.00  0.00     0.000 HD 
HETATM   42  C   UNL     1     -11.633   7.013  72.113  1.00  0.00    -0.282 C  
HETATM   43  N   UNL     1     -10.505   5.866  74.041  1.00  0.00    -0.277 NA 
HETATM   44  O   UNL     1     -11.902   8.203  72.864  1.00  0.00    -0.352 OA 
BRANCH  34  45
HETATM   45  C   UNL     1      -9.726   4.316  69.349  1.00  0.00    -0.187 C  
HETATM   46  O   UNL     1      -9.106   4.719  68.128  1.00  0.00    -0.109 OA 
HETATM   47  H   UNL     1      -8.947   3.970  67.567  1.00  0.00     0.000 HD 
ENDBRANCH  34  45
ENDBRANCH  31  32
ENDBRANCH  25  31
ENDBRANCH  16  17
ENDBRANCH   7  16
ENDBRANCH   2   5
TORSDOF 6
ENDMDL
MODEL      157
REMARK 921   NORMALIZED FREE ENERGY PREDICTED BY IDOCK:   -5.33 KCAL/MOL
REMARK 922        TOTAL FREE ENERGY PREDICTED BY IDOCK:   -8.25 KCAL/MOL
REMARK 923 INTER-LIGAND FREE ENERGY PREDICTED BY IDOCK:   -7.26 KCAL/MOL
REMARK 924 INTRA-LIGAND FREE ENERGY PREDICTED BY IDOCK:   -0.99 KCAL/MOL
REMARK 927      BINDING AFFINITY PREDICTED BY RF-SCORE:    0.00 PKD
ROOT
HETATM    1  N   UNL     1     -10.635   7.490  73.927  1.00  0.00    -0.474 NA 
HETATM    2  C   UNL     1     -10.021   8.098  72.738  1.00  0.00    -0.291 C  
HETATM    3  H2  UNL     1     -10.753   6.484  73.808  1.00  0.00     0.000 HD 
HETATM    4  H1  UNL     1     -10.118   7.701  74.780  1.00  0.00     0.000 HD 
ENDROOT
BRANCH   2   5
HETATM    5  C   UNL     1     -10.807   7.777  71.442  1.00  0.00    -0.228 C  
HETATM    6  O   UNL     1      -9.991   7.892  70.266  1.00  0.00    -0.188 OA 
HETATM    7  C   UNL     1      -8.981   6.905  70.135  1.00  0.00    -0.149 C  
HETATM    8  C   UNL     1      -9.631   5.486  70.047  1.00  0.00    -0.165 C  
HETATM    9  C   UNL     1     -11.511   6.406  71.504  1.00  0.00    -0.306 C  
HETATM   10  N   UNL     1     -10.424   5.296  68.813  1.00  0.00    -0.142 NA 
HETATM   11  C   UNL     1     -10.528   5.252  71.277  1.00  0.00    -0.274 C  
HETATM   12  H   UNL     1     -12.967   5.540  70.537  1.00  0.00     0.000 HD 
HETATM   13  H1  UNL     1     -10.849   4.370  68.755  1.00  0.00     0.000 HD 
HETATM   14  H2  UNL     1      -9.864   5.494  67.984  1.00  0.00     0.000 HD 
HETATM   15  O   UNL     1     -12.533   6.384  70.499  1.00  0.00    -0.047 OA 
BRANCH   7  16
HETATM   16  O   UNL     1      -8.197   7.150  68.955  1.00  0.00    -0.123 OA 
BRANCH  16  17
HETATM   17  C   UNL     1      -7.692   8.505  68.772  1.00  0.00    -0.102 C  
HETATM   18  N   UNL     1      -6.022   8.356  70.606  1.00  0.00    -0.032 NA 
HETATM   19  C   UNL     1      -6.669  10.556  69.840  1.00  0.00    -0.142 C  
HETATM   20  H1  UNL     1      -5.664   8.772  71.466  1.00  0.00     0.000 HD 
HETATM   21  H2  UNL     1      -5.285   8.239  69.911  1.00  0.00     0.000 HD 
HETATM   22  C   UNL     1      -7.785  11.443  69.289  1.00  0.00     0.061 C  
HETATM   23  C   UNL     1      -7.152   9.134  70.074  1.00  0.00    -0.060 C  
HETATM   24  N   UNL     1      -7.225  12.804  69.229  1.00  0.00    -0.315 NA 
HETATM   25  C   UNL     1      -8.308  10.922  67.913  1.00  0.00    -0.119 C  
HETATM   26  H   UNL     1      -9.407   9.439  66.180  1.00  0.00     0.000 HD 
HETATM   27  H1  UNL     1      -7.970  13.396  68.862  1.00  0.00     0.000 HD 
HETATM   28  C   UNL     1      -8.688   9.412  67.997  1.00  0.00    -0.124 C  
HETATM   29  H2  UNL     1      -6.356  12.865  68.698  1.00  0.00     0.000 HD 
HETATM   30  O   UNL     1      -8.798   8.885  66.654  1.00  0.00    -0.123 OA 
BRANCH  25  31
HETATM   31  O   UNL     1      -9.507  11.623  67.456  1.00  0.00    -0.168 OA 
BRANCH  31  32
HETATM   32  C   UNL     1      -9.278  12.664  66.498  1.00  0.00    -0.200 C  
HETATM   33  O   UNL     1      -9.729  12.313  65.183  1.00  0.00    -0.203 OA 
HETATM   34  C   UNL     1     -11.160  12.212  65.089  1.00  0.00    -0.322 C  
HETATM   35  C   UNL     1     -11.816  13.560  65.426  1.00  0.00    -0.357 C  
HETATM   36  H   UNL     1      -9.844  15.146  68.593  1.00  0.00     0.000 HD 
HETATM   37  C   UNL     1     -11.424  13.998  66.850  1.00  0.00    -0.356 C  
HETATM   38  H1  UNL     1     -11.765  15.604  68.116  1.00  0.00     0.000 HD 
HETATM   39  O   UNL     1     -13.240  13.515  65.299  1.00  0.00    -0.688 OA 
HETATM   40  H   UNL     1     -13.646  14.348  65.508  1.00  0.00     0.000 HD 
HETATM   41  H2  UNL     1     -13.036  15.313  67.042  1.00  0.00     0.000 HD 
HETATM   42  C   UNL     1      -9.890  14.009  66.971  1.00  0.00    -0.260 C  
HETATM   43  N   UNL     1     -12.025  15.315  67.173  1.00  0.00     0.051 NA 
HETATM   44  O   UNL     1      -9.469  14.322  68.304  1.00  0.00    -0.198 OA 
BRANCH  34  45
HETATM   45  C   UNL     1     -11.521  11.791  63.658  1.00  0.00    -0.431 C  
HETATM   46  O   UNL     1     -11.860  12.929  62.866  1.00  0.00    -0.783 OA 
HETATM   47  H   UNL     1     -12.084  12.668  61.980  1.00  0.00     0.000 HD 
ENDBRANCH  34  45
ENDBRANCH  31  32
ENDBRANCH  25  31
ENDBRANCH  16  17
ENDBRANCH   7  16
ENDBRANCH   2   5
TORSDOF 6
ENDMDL
MODEL      158
REMARK 921   NORMALIZED FREE ENERGY PREDICTED BY IDOCK:   -5.29 KCAL/MOL
REMARK 922        TOTAL FREE ENERGY PREDICTED BY IDOCK:   -8.19 KCAL/MOL
REMARK 923 INTER-LIGAND FREE ENERGY PREDICTED BY IDOCK:   -6.66 KCAL/MOL
REMARK 924 INTRA-LIGAND FREE ENERGY PREDICTED BY IDOCK:   -1.53 KCAL/MOL
REMARK 927      BINDING AFFINITY PREDICTED BY RF-SCORE:    0.00 PKD
ROOT
HETATM    1  N   UNL     1      -6.549  16.479  69.532  1.00  0.00    -0.223 NA 
HETATM    2  C   UNL     1      -7.374  15.420  68.930  1.00  0.00    -0.147 C  
HETATM    3  H2  UNL     1      -6.933  17.402  69.332  1.00  0.00     0.000 HD 
HETATM    4  H1  UNL     1      -6.418  16.344  70.533  1.00  0.00     0.000 HD 
ENDROOT
BRANCH   2   5
HETATM    5  C   UNL     1      -7.573  15.626  67.407  1.00  0.00    -0.198 C  
HETATM    6  O   UNL     1      -8.624  14.802  66.878  1.00  0.00    -0.228 OA 
HETATM    7  C   UNL     1      -9.933  15.151  67.299  1.00  0.00    -0.230 C  
HETATM    8  C   UNL     1     -10.273  16.603  66.829  1.00  0.00    -0.301 C  
HETATM    9  C   UNL     1      -7.781  17.107  67.035  1.00  0.00    -0.189 C  
HETATM   10  N   UNL     1     -10.369  16.720  65.358  1.00  0.00    -0.632 NA 
HETATM   11  C   UNL     1      -9.204  17.579  67.356  1.00  0.00    -0.238 C  
HETATM   12  H   UNL     1      -7.649  18.168  65.403  1.00  0.00     0.000 HD 
HETATM   13  H1  UNL     1     -10.591  17.668  65.051  1.00  0.00     0.000 HD 
HETATM   14  H2  UNL     1     -11.036  16.048  64.980  1.00  0.00     0.000 HD 
HETATM   15  O   UNL     1      -7.521  17.255  65.633  1.00  0.00    -0.336 OA 
BRANCH   7  16
HETATM   16  O   UNL     1     -10.893  14.231  66.753  1.00  0.00    -0.292 OA 
BRANCH  16  17
HETATM   17  C   UNL     1     -11.179  13.038  67.540  1.00  0.00    -0.284 C  
HETATM   18  N   UNL     1     -12.453  14.247  69.299  1.00  0.00    -0.528 NA 
HETATM   19  C   UNL     1     -11.597  12.049  69.829  1.00  0.00    -0.348 C  
HETATM   20  H1  UNL     1     -12.554  14.437  70.296  1.00  0.00     0.000 HD 
HETATM   21  H2  UNL     1     -13.322  13.901  68.892  1.00  0.00     0.000 HD 
HETATM   22  C   UNL     1     -10.474  11.029  69.631  1.00  0.00    -0.023 C  
HETATM   23  C   UNL     1     -11.333  13.326  69.048  1.00  0.00    -0.285 C  
HETATM   24  N   UNL     1     -10.789   9.906  70.530  1.00  0.00    -0.308 NA 
HETATM   25  C   UNL     1     -10.334  10.611  68.134  1.00  0.00    -0.176 C  
HETATM   26  H   UNL     1      -9.877  10.745  65.647  1.00  0.00     0.000 HD 
HETATM   27  H1  UNL     1     -10.039   9.226  70.399  1.00  0.00     0.000 HD 
HETATM   28  C   UNL     1     -10.214  11.864  67.213  1.00  0.00    -0.200 C  
HETATM   29  H2  UNL     1     -11.722   9.518  70.388  1.00  0.00     0.000 HD 
HETATM   30  O   UNL     1     -10.467  11.463  65.846  1.00  0.00    -0.245 OA 
BRANCH  25  31
HETATM   31  O   UNL     1      -9.146   9.798  67.877  1.00  0.00    -0.122 OA 
BRANCH  31  32
HETATM   32  C   UNL     1      -9.397   8.405  67.648  1.00  0.00    -0.137 C  
HETATM   33  O   UNL     1      -9.283   8.046  66.265  1.00  0.00    -0.178 OA 
HETATM   34  C   UNL     1      -7.935   8.130  65.772  1.00  0.00    -0.105 C  
HETATM   35  C   UNL     1      -7.019   7.169  66.546  1.00  0.00    -0.076 C  
HETATM   36  H   UNL     1      -8.032   7.374  70.466  1.00  0.00     0.000 HD 
HETATM   37  C   UNL     1      -7.040   7.514  68.048  1.00  0.00    -0.084 C  
HETATM   38  H1  UNL     1      -6.200   6.798  69.804  1.00  0.00     0.000 HD 
HETATM   39  O   UNL     1      -5.675   7.190  66.055  1.00  0.00    -0.030 OA 
HETATM   40  H   UNL     1      -5.109   6.596  66.534  1.00  0.00     0.000 HD 
HETATM   41  H2  UNL     1      -5.236   6.537  68.441  1.00  0.00     0.000 HD 
HETATM   42  C   UNL     1      -8.496   7.516  68.545  1.00  0.00    -0.129 C  
HETATM   43  N   UNL     1      -6.186   6.570  68.809  1.00  0.00    -0.029 NA 
HETATM   44  O   UNL     1      -8.584   7.918  69.917  1.00  0.00    -0.136 OA 
BRANCH  34  45
HETATM   45  C   UNL     1      -7.942   7.768  64.281  1.00  0.00    -0.120 C  
HETATM   46  O   UNL     1      -7.872   6.353  64.103  1.00  0.00    -0.110 OA 
HETATM   47  H   UNL     1      -7.877   6.129  63.180  1.00  0.00     0.000 HD 
ENDBRANCH  34  45
ENDBRANCH  31  32
ENDBRANCH  25  31
ENDBRANCH  16  17
ENDBRANCH   7  16
ENDBRANCH   2   5
TORSDOF 6
ENDMDL
MODEL      159
REMARK 921   NORMALIZED FREE ENERGY PREDICTED BY IDOCK:   -5.28 KCAL/MOL
REMARK 922        TOTAL FREE ENERGY PREDICTED BY IDOCK:   -8.19 KCAL/MOL
REMARK 923 INTER-LIGAND FREE ENERGY PREDICTED BY IDOCK:   -7.35 KCAL/MOL
REMARK 924 INTRA-LIGAND FREE ENERGY PREDICTED BY IDOCK:   -0.84 KCAL/MOL
REMARK 927      BINDING AFFINITY PREDICTED BY RF-SCORE:    0.00 PKD
ROOT
HETATM    1  N   UNL     1      -7.012  21.260  66.758  1.00  0.00    -0.742 NA 
HETATM    2  C   UNL     1      -8.177  20.520  67.267  1.00  0.00    -0.300 C  
HETATM    3  H2  UNL     1      -7.276  21.882  65.995  1.00  0.00     0.000 HD 
HETATM    4  H1  UNL     1      -6.525  21.767  67.495  1.00  0.00     0.000 HD 
ENDROOT
BRANCH   2   5
HETATM    5  C   UNL     1      -8.918  19.749  66.146  1.00  0.00    -0.336 C  
HETATM    6  O   UNL     1      -8.366  18.441  65.926  1.00  0.00    -0.502 OA 
HETATM    7  C   UNL     1      -8.577  17.514  66.979  1.00  0.00    -0.235 C  
HETATM    8  C   UNL     1     -10.110  17.283  67.185  1.00  0.00    -0.297 C  
HETATM    9  C   UNL     1     -10.440  19.682  66.382  1.00  0.00    -0.513 C  
HETATM   10  N   UNL     1     -10.747  16.610  66.032  1.00  0.00    -0.214 NA 
HETATM   11  C   UNL     1     -10.804  18.634  67.441  1.00  0.00    -0.381 C  
HETATM   12  H   UNL     1     -12.009  19.319  65.282  1.00  0.00     0.000 HD 
HETATM   13  H1  UNL     1     -11.748  16.459  66.167  1.00  0.00     0.000 HD 
HETATM   14  H2  UNL     1     -10.272  15.735  65.812  1.00  0.00     0.000 HD 
HETATM   15  O   UNL     1     -11.071  19.361  65.137  1.00  0.00    -0.365 OA 
BRANCH   7  16
HETATM   16  O   UNL     1      -7.939  16.262  66.673  1.00  0.00    -0.237 OA 
BRANCH  16  17
HETATM   17  C   UNL     1      -7.908  15.265  67.736  1.00  0.00    -0.147 C  
HETATM   18  N   UNL     1      -6.309  16.527  69.161  1.00  0.00    -0.172 NA 
HETATM   19  C   UNL     1      -6.574  14.160  69.578  1.00  0.00    -0.124 C  
HETATM   20  H1  UNL     1      -5.425  16.507  69.669  1.00  0.00     0.000 HD 
HETATM   21  H2  UNL     1      -7.083  16.804  69.765  1.00  0.00     0.000 HD 
HETATM   22  C   UNL     1      -6.833  12.776  68.983  1.00  0.00    -0.081 C  
HETATM   23  C   UNL     1      -6.570  15.236  68.504  1.00  0.00    -0.109 C  
HETATM   24  N   UNL     1      -6.686  11.825  70.098  1.00  0.00    -0.454 NA 
HETATM   25  C   UNL     1      -8.225  12.704  68.279  1.00  0.00    -0.164 C  
HETATM   26  H   UNL     1     -10.094  13.138  66.627  1.00  0.00     0.000 HD 
HETATM   27  H1  UNL     1      -6.859  10.901  69.701  1.00  0.00     0.000 HD 
HETATM   28  C   UNL     1      -8.394  13.869  67.257  1.00  0.00    -0.185 C  
HETATM   29  H2  UNL     1      -7.279  12.041  70.900  1.00  0.00     0.000 HD 
HETATM   30  O   UNL     1      -9.796  13.991  66.919  1.00  0.00    -0.252 OA 
BRANCH  25  31
HETATM   31  O   UNL     1      -8.420  11.465  67.527  1.00  0.00    -0.131 OA 
BRANCH  31  32
HETATM   32  C   UNL     1      -7.414  10.464  67.725  1.00  0.00    -0.088 C  
HETATM   33  O   UNL     1      -7.763   9.529  68.754  1.00  0.00    -0.078 OA 
HETATM   34  C   UNL     1      -8.870   8.686  68.393  1.00  0.00    -0.142 C  
HETATM   35  C   UNL     1      -8.529   7.853  67.149  1.00  0.00    -0.117 C  
HETATM   36  H   UNL     1      -6.551  10.255  64.550  1.00  0.00     0.000 HD 
HETATM   37  C   UNL     1      -8.185   8.782  65.969  1.00  0.00    -0.118 C  
HETATM   38  H1  UNL     1      -7.593   8.603  63.990  1.00  0.00     0.000 HD 
HETATM   39  O   UNL     1      -9.590   6.966  66.783  1.00  0.00    -0.157 OA 
HETATM   40  H   UNL     1      -9.379   6.451  66.014  1.00  0.00     0.000 HD 
HETATM   41  H2  UNL     1      -8.547   7.316  64.525  1.00  0.00     0.000 HD 
HETATM   42  C   UNL     1      -7.064   9.746  66.395  1.00  0.00    -0.094 C  
HETATM   43  N   UNL     1      -7.820   7.988  64.771  1.00  0.00    -0.124 NA 
HETATM   44  O   UNL     1      -6.765  10.695  65.364  1.00  0.00    -0.107 OA 
BRANCH  34  45
HETATM   45  C   UNL     1      -9.180   7.762  69.580  1.00  0.00    -0.149 C  
HETATM   46  O   UNL     1     -10.548   7.357  69.563  1.00  0.00    -0.231 OA 
HETATM   47  H   UNL     1     -10.740   6.785  70.297  1.00  0.00     0.000 HD 
ENDBRANCH  34  45
ENDBRANCH  31  32
ENDBRANCH  25  31
ENDBRANCH  16  17
ENDBRANCH   7  16
ENDBRANCH   2   5
TORSDOF 6
ENDMDL
MODEL      160
REMARK 921   NORMALIZED FREE ENERGY PREDICTED BY IDOCK:   -5.28 KCAL/MOL
REMARK 922        TOTAL FREE ENERGY PREDICTED BY IDOCK:   -8.19 KCAL/MOL
REMARK 923 INTER-LIGAND FREE ENERGY PREDICTED BY IDOCK:   -7.55 KCAL/MOL
REMARK 924 INTRA-LIGAND FREE ENERGY PREDICTED BY IDOCK:   -0.63 KCAL/MOL
REMARK 927      BINDING AFFINITY PREDICTED BY RF-SCORE:    0.00 PKD
ROOT
HETATM    1  N   UNL     1      -9.533  10.240  63.546  1.00  0.00    -0.293 NA 
HETATM    2  C   UNL     1     -10.000  11.631  63.460  1.00  0.00    -0.405 C  
HETATM    3  H2  UNL     1     -10.309   9.584  63.458  1.00  0.00     0.000 HD 
HETATM    4  H1  UNL     1      -8.800  10.036  62.866  1.00  0.00     0.000 HD 
ENDROOT
BRANCH   2   5
HETATM    5  C   UNL     1     -11.113  11.941  64.492  1.00  0.00    -0.325 C  
HETATM    6  O   UNL     1     -10.645  11.839  65.846  1.00  0.00    -0.253 OA 
HETATM    7  C   UNL     1      -9.723  12.842  66.242  1.00  0.00    -0.262 C  
HETATM    8  C   UNL     1     -10.394  14.251  66.144  1.00  0.00    -0.299 C  
HETATM    9  C   UNL     1     -11.794  13.300  64.235  1.00  0.00    -0.417 C  
HETATM   10  N   UNL     1     -11.495  14.428  67.115  1.00  0.00    -0.346 NA 
HETATM   11  C   UNL     1     -10.926  14.469  64.715  1.00  0.00    -0.404 C  
HETATM   12  H   UNL     1     -13.470  14.144  64.767  1.00  0.00     0.000 HD 
HETATM   13  H1  UNL     1     -11.933  15.348  67.051  1.00  0.00     0.000 HD 
HETATM   14  H2  UNL     1     -11.178  14.239  68.066  1.00  0.00     0.000 HD 
HETATM   15  O   UNL     1     -13.050  13.307  64.925  1.00  0.00    -0.737 OA 
BRANCH   7  16
HETATM   16  O   UNL     1      -9.285  12.609  67.592  1.00  0.00    -0.177 OA 
BRANCH  16  17
HETATM   17  C   UNL     1      -8.435  11.447  67.815  1.00  0.00    -0.128 C  
HETATM   18  N   UNL     1      -6.527  12.324  66.484  1.00  0.00    -0.399 NA 
HETATM   19  C   UNL     1      -6.605   9.947  66.923  1.00  0.00    -0.067 C  
HETATM   20  H1  UNL     1      -5.873  12.151  65.722  1.00  0.00     0.000 HD 
HETATM   21  H2  UNL     1      -6.042  12.552  67.352  1.00  0.00     0.000 HD 
HETATM   22  C   UNL     1      -7.480   8.708  67.113  1.00  0.00    -0.088 C  
HETATM   23  C   UNL     1      -7.445  11.186  66.660  1.00  0.00    -0.146 C  
HETATM   24  N   UNL     1      -6.549   7.573  67.232  1.00  0.00    -0.060 NA 
HETATM   25  C   UNL     1      -8.437   8.862  68.337  1.00  0.00    -0.129 C  
HETATM   26  H   UNL     1     -10.307   9.710  69.817  1.00  0.00     0.000 HD 
HETATM   27  H1  UNL     1      -7.133   6.746  67.358  1.00  0.00     0.000 HD 
HETATM   28  C   UNL     1      -9.243  10.193  68.251  1.00  0.00    -0.130 C  
HETATM   29  H2  UNL     1      -5.848   7.694  67.964  1.00  0.00     0.000 HD 
HETATM   30  O   UNL     1      -9.814  10.477  69.550  1.00  0.00    -0.213 OA 
BRANCH  25  31
HETATM   31  O   UNL     1      -9.425   7.787  68.428  1.00  0.00    -0.146 OA 
BRANCH  31  32
HETATM   32  C   UNL     1      -9.047   6.677  69.252  1.00  0.00    -0.138 C  
HETATM   33  O   UNL     1      -7.827   6.912  69.967  1.00  0.00    -0.106 OA 
HETATM   34  C   UNL     1      -7.955   7.927  70.977  1.00  0.00    -0.090 C  
HETATM   35  C   UNL     1      -8.998   7.512  72.026  1.00  0.00    -0.125 C  
HETATM   36  H   UNL     1     -12.127   5.833  70.070  1.00  0.00     0.000 HD 
HETATM   37  C   UNL     1     -10.364   7.284  71.351  1.00  0.00    -0.199 C  
HETATM   38  H1  UNL     1     -12.275   6.698  71.902  1.00  0.00     0.000 HD 
HETATM   39  O   UNL     1      -9.123   8.476  73.075  1.00  0.00    -0.270 OA 
HETATM   40  H   UNL     1      -9.768   8.220  73.724  1.00  0.00     0.000 HD 
HETATM   41  H2  UNL     1     -11.438   7.503  73.129  1.00  0.00     0.000 HD 
HETATM   42  C   UNL     1     -10.199   6.268  70.207  1.00  0.00    -0.196 C  
HETATM   43  N   UNL     1     -11.371   6.849  72.349  1.00  0.00    -0.266 NA 
HETATM   44  O   UNL     1     -11.422   6.084  69.485  1.00  0.00    -0.384 OA 
BRANCH  34  45
HETATM   45  C   UNL     1      -6.585   8.121  71.641  1.00  0.00    -0.058 C  
HETATM   46  O   UNL     1      -6.522   9.379  72.313  1.00  0.00    -0.298 OA 
HETATM   47  H   UNL     1      -5.674   9.500  72.725  1.00  0.00     0.000 HD 
ENDBRANCH  34  45
ENDBRANCH  31  32
ENDBRANCH  25  31
ENDBRANCH  16  17
ENDBRANCH   7  16
ENDBRANCH   2   5
TORSDOF 6
ENDMDL
MODEL      161
REMARK 921   NORMALIZED FREE ENERGY PREDICTED BY IDOCK:   -5.28 KCAL/MOL
REMARK 922        TOTAL FREE ENERGY PREDICTED BY IDOCK:   -8.19 KCAL/MOL
REMARK 923 INTER-LIGAND FREE ENERGY PREDICTED BY IDOCK:   -7.47 KCAL/MOL
REMARK 924 INTRA-LIGAND FREE ENERGY PREDICTED BY IDOCK:   -0.72 KCAL/MOL
REMARK 927      BINDING AFFINITY PREDICTED BY RF-SCORE:    0.00 PKD
ROOT
HETATM    1  N   UNL     1      -8.426   8.609  73.884  1.00  0.00    -0.274 NA 
HETATM    2  C   UNL     1      -9.146   8.582  72.603  1.00  0.00    -0.185 C  
HETATM    3  H2  UNL     1      -7.643   7.955  73.881  1.00  0.00     0.000 HD 
HETATM    4  H1  UNL     1      -8.119   9.548  74.135  1.00  0.00     0.000 HD 
ENDROOT
BRANCH   2   5
HETATM    5  C   UNL     1      -9.611   7.154  72.221  1.00  0.00    -0.142 C  
HETATM    6  O   UNL     1     -10.474   7.149  71.073  1.00  0.00    -0.214 OA 
HETATM    7  C   UNL     1      -9.845   7.488  69.847  1.00  0.00    -0.187 C  
HETATM    8  C   UNL     1      -8.721   6.451  69.521  1.00  0.00    -0.133 C  
HETATM    9  C   UNL     1      -8.432   6.178  72.040  1.00  0.00    -0.121 C  
HETATM   10  N   UNL     1      -9.253   5.099  69.245  1.00  0.00    -0.105 NA 
HETATM   11  C   UNL     1      -7.726   6.383  70.694  1.00  0.00    -0.105 C  
HETATM   12  H   UNL     1      -8.214   4.239  72.016  1.00  0.00     0.000 HD 
HETATM   13  H1  UNL     1      -8.520   4.422  69.032  1.00  0.00     0.000 HD 
HETATM   14  H2  UNL     1      -9.953   5.125  68.503  1.00  0.00     0.000 HD 
HETATM   15  O   UNL     1      -8.941   4.841  72.127  1.00  0.00    -0.125 OA 
BRANCH   7  16
HETATM   16  O   UNL     1     -10.810   7.502  68.781  1.00  0.00    -0.140 OA 
BRANCH  16  17
HETATM   17  C   UNL     1     -10.534   8.390  67.658  1.00  0.00    -0.239 C  
HETATM   18  N   UNL     1      -9.905   6.562  66.096  1.00  0.00    -0.399 NA 
HETATM   19  C   UNL     1      -9.190   8.808  65.558  1.00  0.00    -0.202 C  
HETATM   20  H1  UNL     1      -9.200   6.196  65.456  1.00  0.00     0.000 HD 
HETATM   21  H2  UNL     1     -10.814   6.653  65.641  1.00  0.00     0.000 HD 
HETATM   22  C   UNL     1      -8.722  10.164  66.087  1.00  0.00    -0.142 C  
HETATM   23  C   UNL     1      -9.467   7.835  66.692  1.00  0.00    -0.205 C  
HETATM   24  N   UNL     1      -8.372  10.960  64.897  1.00  0.00    -0.370 NA 
HETATM   25  C   UNL     1      -9.803  10.835  66.991  1.00  0.00    -0.187 C  
HETATM   26  H   UNL     1     -11.364  11.254  68.940  1.00  0.00     0.000 HD 
HETATM   27  H1  UNL     1      -8.058  11.865  65.250  1.00  0.00     0.000 HD 
HETATM   28  C   UNL     1     -10.281   9.856  68.107  1.00  0.00    -0.179 C  
HETATM   29  H2  UNL     1      -9.127  11.027  64.214  1.00  0.00     0.000 HD 
HETATM   30  O   UNL     1     -11.518  10.357  68.666  1.00  0.00    -0.245 OA 
BRANCH  25  31
HETATM   31  O   UNL     1      -9.314  12.031  67.675  1.00  0.00    -0.176 OA 
BRANCH  31  32
HETATM   32  C   UNL     1      -9.167  13.192  66.847  1.00  0.00    -0.236 C  
HETATM   33  O   UNL     1     -10.333  13.454  66.055  1.00  0.00    -0.285 OA 
HETATM   34  C   UNL     1     -11.465  13.863  66.842  1.00  0.00    -0.351 C  
HETATM   35  C   UNL     1     -11.152  15.164  67.597  1.00  0.00    -0.318 C  
HETATM   36  H   UNL     1      -7.364  14.897  69.016  1.00  0.00     0.000 HD 
HETATM   37  C   UNL     1      -9.933  14.961  68.517  1.00  0.00    -0.223 C  
HETATM   38  H1  UNL     1      -8.794  16.087  69.834  1.00  0.00     0.000 HD 
HETATM   39  O   UNL     1     -12.271  15.631  68.357  1.00  0.00    -0.476 OA 
HETATM   40  H   UNL     1     -12.077  16.435  68.824  1.00  0.00     0.000 HD 
HETATM   41  H2  UNL     1     -10.402  16.593  69.734  1.00  0.00     0.000 HD 
HETATM   42  C   UNL     1      -8.754  14.431  67.683  1.00  0.00    -0.189 C  
HETATM   43  N   UNL     1      -9.601  16.221  69.225  1.00  0.00    -0.244 NA 
HETATM   44  O   UNL     1      -7.617  14.138  68.504  1.00  0.00    -0.116 OA 
BRANCH  34  45
HETATM   45  C   UNL     1     -12.658  14.072  65.899  1.00  0.00    -0.449 C  
HETATM   46  O   UNL     1     -12.288  13.802  64.547  1.00  0.00    -0.508 OA 
HETATM   47  H   UNL     1     -13.026  13.931  63.963  1.00  0.00     0.000 HD 
ENDBRANCH  34  45
ENDBRANCH  31  32
ENDBRANCH  25  31
ENDBRANCH  16  17
ENDBRANCH   7  16
ENDBRANCH   2   5
TORSDOF 6
ENDMDL
MODEL      162
REMARK 921   NORMALIZED FREE ENERGY PREDICTED BY IDOCK:   -5.27 KCAL/MOL
REMARK 922        TOTAL FREE ENERGY PREDICTED BY IDOCK:   -8.17 KCAL/MOL
REMARK 923 INTER-LIGAND FREE ENERGY PREDICTED BY IDOCK:   -7.25 KCAL/MOL
REMARK 924 INTRA-LIGAND FREE ENERGY PREDICTED BY IDOCK:   -0.91 KCAL/MOL
REMARK 927      BINDING AFFINITY PREDICTED BY RF-SCORE:    0.00 PKD
ROOT
HETATM    1  N   UNL     1     -12.187  11.737  63.115  1.00  0.00    -0.956 NA 
HETATM    2  C   UNL     1     -11.266  11.847  64.255  1.00  0.00    -0.357 C  
HETATM    3  H2  UNL     1     -12.540  12.652  62.836  1.00  0.00     0.000 HD 
HETATM    4  H1  UNL     1     -11.766  11.249  62.325  1.00  0.00     0.000 HD 
ENDROOT
BRANCH   2   5
HETATM    5  C   UNL     1     -11.905  12.589  65.456  1.00  0.00    -0.439 C  
HETATM    6  O   UNL     1     -12.119  11.724  66.582  1.00  0.00    -0.527 OA 
HETATM    7  C   UNL     1     -10.939  11.276  67.230  1.00  0.00    -0.286 C  
HETATM    8  C   UNL     1     -10.147  12.499  67.797  1.00  0.00    -0.218 C  
HETATM    9  C   UNL     1     -11.113  13.849  65.860  1.00  0.00    -0.291 C  
HETATM   10  N   UNL     1     -10.868  13.192  68.887  1.00  0.00    -0.333 NA 
HETATM   11  C   UNL     1      -9.853  13.495  66.660  1.00  0.00    -0.279 C  
HETATM   12  H   UNL     1     -11.485  15.460  66.895  1.00  0.00     0.000 HD 
HETATM   13  H1  UNL     1     -10.351  13.990  69.258  1.00  0.00     0.000 HD 
HETATM   14  H2  UNL     1     -11.118  12.541  69.631  1.00  0.00     0.000 HD 
HETATM   15  O   UNL     1     -11.973  14.684  66.646  1.00  0.00    -0.368 OA 
BRANCH   7  16
HETATM   16  O   UNL     1     -11.272  10.379  68.303  1.00  0.00    -0.282 OA 
BRANCH  16  17
HETATM   17  C   UNL     1     -10.284   9.361  68.637  1.00  0.00    -0.201 C  
HETATM   18  N   UNL     1     -10.292   9.852  71.074  1.00  0.00    -0.300 NA 
HETATM   19  C   UNL     1      -8.404   8.642  70.169  1.00  0.00    -0.126 C  
HETATM   20  H1  UNL     1      -9.735  10.086  71.895  1.00  0.00     0.000 HD 
HETATM   21  H2  UNL     1     -10.858   9.018  71.229  1.00  0.00     0.000 HD 
HETATM   22  C   UNL     1      -7.467   8.436  68.978  1.00  0.00    -0.093 C  
HETATM   23  C   UNL     1      -9.441   9.716  69.881  1.00  0.00    -0.231 C  
HETATM   24  N   UNL     1      -6.448   7.473  69.432  1.00  0.00    -0.035 NA 
HETATM   25  C   UNL     1      -8.245   7.970  67.708  1.00  0.00    -0.129 C  
HETATM   26  H   UNL     1      -9.826   7.993  65.730  1.00  0.00     0.000 HD 
HETATM   27  H1  UNL     1      -5.822   7.336  68.638  1.00  0.00     0.000 HD 
HETATM   28  C   UNL     1      -9.443   8.921  67.407  1.00  0.00    -0.145 C  
HETATM   29  H2  UNL     1      -6.840   6.605  69.798  1.00  0.00     0.000 HD 
HETATM   30  O   UNL     1     -10.340   8.262  66.482  1.00  0.00    -0.276 OA 
BRANCH  25  31
HETATM   31  O   UNL     1      -7.416   7.958  66.503  1.00  0.00    -0.085 OA 
BRANCH  31  32
HETATM   32  C   UNL     1      -6.742   6.721  66.236  1.00  0.00    -0.052 C  
HETATM   33  O   UNL     1      -7.354   5.607  66.899  1.00  0.00    -0.077 OA 
HETATM   34  C   UNL     1      -8.655   5.289  66.376  1.00  0.00    -0.114 C  
HETATM   35  C   UNL     1      -8.558   4.909  64.890  1.00  0.00    -0.148 C  
HETATM   36  H   UNL     1      -5.951   7.462  63.123  1.00  0.00     0.000 HD 
HETATM   37  C   UNL     1      -7.951   6.075  64.085  1.00  0.00    -0.119 C  
HETATM   38  H1  UNL     1      -7.420   6.479  62.122  1.00  0.00     0.000 HD 
HETATM   39  O   UNL     1      -9.827   4.541  64.342  1.00  0.00    -0.333 OA 
HETATM   40  H   UNL     1      -9.767   4.306  63.423  1.00  0.00     0.000 HD 
HETATM   41  H2  UNL     1      -8.709   5.396  62.261  1.00  0.00     0.000 HD 
HETATM   42  C   UNL     1      -6.604   6.473  64.711  1.00  0.00    -0.038 C  
HETATM   43  N   UNL     1      -7.821   5.707  62.655  1.00  0.00    -0.076 NA 
HETATM   44  O   UNL     1      -6.035   7.614  64.057  1.00  0.00    -0.047 OA 
BRANCH  34  45
HETATM   45  C   UNL     1      -9.227   4.116  67.185  1.00  0.00    -0.157 C  
HETATM   46  O   UNL     1      -8.788   2.869  66.648  1.00  0.00    -0.131 OA 
HETATM   47  H   UNL     1      -9.141   2.143  67.149  1.00  0.00     0.000 HD 
ENDBRANCH  34  45
ENDBRANCH  31  32
ENDBRANCH  25  31
ENDBRANCH  16  17
ENDBRANCH   7  16
ENDBRANCH   2   5
TORSDOF 6
ENDMDL
MODEL      163
REMARK 921   NORMALIZED FREE ENERGY PREDICTED BY IDOCK:   -5.25 KCAL/MOL
REMARK 922        TOTAL FREE ENERGY PREDICTED BY IDOCK:   -8.15 KCAL/MOL
REMARK 923 INTER-LIGAND FREE ENERGY PREDICTED BY IDOCK:   -6.87 KCAL/MOL
REMARK 924 INTRA-LIGAND FREE ENERGY PREDICTED BY IDOCK:   -1.28 KCAL/MOL
REMARK 927      BINDING AFFINITY PREDICTED BY RF-SCORE:    0.00 PKD
ROOT
HETATM    1  N   UNL     1      -6.348  15.850  69.447  1.00  0.00    -0.150 NA 
HETATM    2  C   UNL     1      -7.715  16.339  69.211  1.00  0.00    -0.186 C  
HETATM    3  H2  UNL     1      -5.683  16.622  69.489  1.00  0.00     0.000 HD 
HETATM    4  H1  UNL     1      -6.285  15.265  70.279  1.00  0.00     0.000 HD 
ENDROOT
BRANCH   2   5
HETATM    5  C   UNL     1      -7.810  17.228  67.946  1.00  0.00    -0.196 C  
HETATM    6  O   UNL     1      -8.241  16.491  66.791  1.00  0.00    -0.191 OA 
HETATM    7  C   UNL     1      -9.589  16.052  66.827  1.00  0.00    -0.232 C  
HETATM    8  C   UNL     1     -10.549  17.283  66.910  1.00  0.00    -0.213 C  
HETATM    9  C   UNL     1      -8.682  18.480  68.170  1.00  0.00    -0.310 C  
HETATM   10  N   UNL     1     -10.516  18.117  65.688  1.00  0.00    -0.624 NA 
HETATM   11  C   UNL     1     -10.177  18.144  68.131  1.00  0.00    -0.400 C  
HETATM   12  H   UNL     1      -8.904  20.203  67.283  1.00  0.00     0.000 HD 
HETATM   13  H1  UNL     1     -11.142  18.921  65.742  1.00  0.00     0.000 HD 
HETATM   14  H2  UNL     1     -10.710  17.557  64.858  1.00  0.00     0.000 HD 
HETATM   15  O   UNL     1      -8.367  19.432  67.146  1.00  0.00    -0.275 OA 
BRANCH   7  16
HETATM   16  O   UNL     1      -9.892  15.284  65.649  1.00  0.00    -0.333 OA 
BRANCH  16  17
HETATM   17  C   UNL     1     -10.293  13.898  65.855  1.00  0.00    -0.311 C  
HETATM   18  N   UNL     1     -12.619  14.230  65.044  1.00  0.00    -0.606 NA 
HETATM   19  C   UNL     1     -12.160  12.282  66.402  1.00  0.00    -0.123 C  
HETATM   20  H1  UNL     1     -13.613  14.124  65.247  1.00  0.00     0.000 HD 
HETATM   21  H2  UNL     1     -12.365  13.779  64.165  1.00  0.00     0.000 HD 
HETATM   22  C   UNL     1     -11.354  11.688  67.557  1.00  0.00    -0.298 C  
HETATM   23  C   UNL     1     -11.797  13.739  66.162  1.00  0.00    -0.398 C  
HETATM   24  N   UNL     1     -11.888  10.330  67.762  1.00  0.00    -0.386 NA 
HETATM   25  C   UNL     1      -9.821  11.719  67.265  1.00  0.00    -0.185 C  
HETATM   26  H   UNL     1      -7.486  12.601  66.841  1.00  0.00     0.000 HD 
HETATM   27  H1  UNL     1     -11.350   9.933  68.533  1.00  0.00     0.000 HD 
HETATM   28  C   UNL     1      -9.361  13.150  66.849  1.00  0.00    -0.246 C  
HETATM   29  H2  UNL     1     -11.877   9.755  66.919  1.00  0.00     0.000 HD 
HETATM   30  O   UNL     1      -8.055  13.058  66.233  1.00  0.00     0.572 OA 
BRANCH  25  31
HETATM   31  O   UNL     1      -9.011  11.348  68.425  1.00  0.00    -0.162 OA 
BRANCH  31  32
HETATM   32  C   UNL     1      -7.883  10.510  68.140  1.00  0.00    -0.109 C  
HETATM   33  O   UNL     1      -6.682  10.971  68.771  1.00  0.00    -0.056 OA 
HETATM   34  C   UNL     1      -6.717  10.847  70.203  1.00  0.00    -0.076 C  
HETATM   35  C   UNL     1      -6.882   9.374  70.610  1.00  0.00    -0.104 C  
HETATM   36  H   UNL     1      -9.590   7.689  68.107  1.00  0.00     0.000 HD 
HETATM   37  C   UNL     1      -8.182   8.804  70.013  1.00  0.00    -0.120 C  
HETATM   38  H1  UNL     1      -9.196   6.995  69.975  1.00  0.00     0.000 HD 
HETATM   39  O   UNL     1      -6.875   9.202  72.030  1.00  0.00    -0.301 OA 
HETATM   40  H   UNL     1      -6.978   8.291  72.282  1.00  0.00     0.000 HD 
HETATM   41  H2  UNL     1      -8.285   7.226  71.379  1.00  0.00     0.000 HD 
HETATM   42  C   UNL     1      -8.180   9.028  68.491  1.00  0.00    -0.112 C  
HETATM   43  N   UNL     1      -8.335   7.373  70.371  1.00  0.00    -0.128 NA 
HETATM   44  O   UNL     1      -9.408   8.597  67.892  1.00  0.00    -0.141 OA 
BRANCH  34  45
HETATM   45  C   UNL     1      -5.404  11.408  70.768  1.00  0.00    -0.131 C  
HETATM   46  O   UNL     1      -5.594  12.730  71.271  1.00  0.00    -0.340 OA 
HETATM   47  H   UNL     1      -4.782  13.077  71.621  1.00  0.00     0.000 HD 
ENDBRANCH  34  45
ENDBRANCH  31  32
ENDBRANCH  25  31
ENDBRANCH  16  17
ENDBRANCH   7  16
ENDBRANCH   2   5
TORSDOF 6
ENDMDL
MODEL      164
REMARK 921   NORMALIZED FREE ENERGY PREDICTED BY IDOCK:   -5.19 KCAL/MOL
REMARK 922        TOTAL FREE ENERGY PREDICTED BY IDOCK:   -8.07 KCAL/MOL
REMARK 923 INTER-LIGAND FREE ENERGY PREDICTED BY IDOCK:   -7.74 KCAL/MOL
REMARK 924 INTRA-LIGAND FREE ENERGY PREDICTED BY IDOCK:   -0.33 KCAL/MOL
REMARK 927      BINDING AFFINITY PREDICTED BY RF-SCORE:    0.00 PKD
ROOT
HETATM    1  N   UNL     1     -12.400  12.766  63.153  1.00  0.00    -0.754 NA 
HETATM    2  C   UNL     1     -11.555  12.053  64.122  1.00  0.00    -0.379 C  
HETATM    3  H2  UNL     1     -12.244  13.773  63.199  1.00  0.00     0.000 HD 
HETATM    4  H1  UNL     1     -12.275  12.418  62.203  1.00  0.00     0.000 HD 
ENDROOT
BRANCH   2   5
HETATM    5  C   UNL     1     -11.744  12.582  65.566  1.00  0.00    -0.409 C  
HETATM    6  O   UNL     1     -10.877  11.927  66.506  1.00  0.00    -0.254 OA 
HETATM    7  C   UNL     1      -9.498  12.228  66.363  1.00  0.00    -0.237 C  
HETATM    8  C   UNL     1      -9.261  13.758  66.583  1.00  0.00    -0.223 C  
HETATM    9  C   UNL     1     -11.610  14.116  65.654  1.00  0.00    -0.339 C  
HETATM   10  N   UNL     1      -9.540  14.186  67.971  1.00  0.00    -0.211 NA 
HETATM   11  C   UNL     1     -10.143  14.561  65.609  1.00  0.00    -0.384 C  
HETATM   12  H   UNL     1     -12.132  15.492  66.935  1.00  0.00     0.000 HD 
HETATM   13  H1  UNL     1      -9.385  15.184  68.114  1.00  0.00     0.000 HD 
HETATM   14  H2  UNL     1      -9.003  13.633  68.639  1.00  0.00     0.000 HD 
HETATM   15  O   UNL     1     -12.214  14.546  66.880  1.00  0.00    -0.375 OA 
BRANCH   7  16
HETATM   16  O   UNL     1      -8.726  11.479  67.317  1.00  0.00    -0.143 OA 
BRANCH  16  17
HETATM   17  C   UNL     1      -8.854  10.028  67.270  1.00  0.00    -0.135 C  
HETATM   18  N   UNL     1      -7.983   9.815  64.952  1.00  0.00    -0.126 NA 
HETATM   19  C   UNL     1      -9.263   7.973  65.854  1.00  0.00    -0.128 C  
HETATM   20  H1  UNL     1      -8.148   9.455  64.012  1.00  0.00     0.000 HD 
HETATM   21  H2  UNL     1      -7.093   9.489  65.328  1.00  0.00     0.000 HD 
HETATM   22  C   UNL     1     -10.415   7.536  66.760  1.00  0.00    -0.249 C  
HETATM   23  C   UNL     1      -9.103   9.484  65.847  1.00  0.00    -0.184 C  
HETATM   24  N   UNL     1     -10.539   6.079  66.578  1.00  0.00    -0.468 NA 
HETATM   25  C   UNL     1     -10.175   7.963  68.242  1.00  0.00    -0.203 C  
HETATM   26  H   UNL     1      -9.869   9.418  70.292  1.00  0.00     0.000 HD 
HETATM   27  H1  UNL     1     -11.308   5.788  67.182  1.00  0.00     0.000 HD 
HETATM   28  C   UNL     1      -9.842   9.483  68.338  1.00  0.00    -0.158 C  
HETATM   29  H2  UNL     1      -9.671   5.571  66.749  1.00  0.00     0.000 HD 
HETATM   30  O   UNL     1      -9.265   9.751  69.638  1.00  0.00    -0.193 OA 
BRANCH  25  31
HETATM   31  O   UNL     1     -11.342   7.743  69.096  1.00  0.00     0.196 OA 
BRANCH  31  32
HETATM   32  C   UNL     1     -11.383   6.474  69.761  1.00  0.00    -0.393 C  
HETATM   33  O   UNL     1     -10.190   5.706  69.555  1.00  0.00    -0.203 OA 
HETATM   34  C   UNL     1      -9.038   6.276  70.198  1.00  0.00    -0.153 C  
HETATM   35  C   UNL     1      -9.250   6.347  71.718  1.00  0.00    -0.143 C  
HETATM   36  H   UNL     1     -13.063   7.551  72.385  1.00  0.00     0.000 HD 
HETATM   37  C   UNL     1     -10.493   7.200  72.039  1.00  0.00    -0.207 C  
HETATM   38  H1  UNL     1     -11.550   7.811  73.715  1.00  0.00     0.000 HD 
HETATM   39  O   UNL     1      -8.106   6.867  72.401  1.00  0.00    -0.103 OA 
HETATM   40  H   UNL     1      -8.237   6.911  73.341  1.00  0.00     0.000 HD 
HETATM   41  H2  UNL     1      -9.904   7.570  74.009  1.00  0.00     0.000 HD 
HETATM   42  C   UNL     1     -11.702   6.640  71.270  1.00  0.00    -0.334 C  
HETATM   43  N   UNL     1     -10.727   7.246  73.503  1.00  0.00    -0.374 NA 
HETATM   44  O   UNL     1     -12.869   7.449  71.461  1.00  0.00    -0.349 OA 
BRANCH  34  45
HETATM   45  C   UNL     1      -7.821   5.398  69.874  1.00  0.00    -0.081 C  
HETATM   46  O   UNL     1      -6.609   6.054  70.250  1.00  0.00    -0.041 OA 
HETATM   47  H   UNL     1      -5.856   5.511  70.050  1.00  0.00     0.000 HD 
ENDBRANCH  34  45
ENDBRANCH  31  32
ENDBRANCH  25  31
ENDBRANCH  16  17
ENDBRANCH   7  16
ENDBRANCH   2   5
TORSDOF 6
ENDMDL
MODEL      165
REMARK 921   NORMALIZED FREE ENERGY PREDICTED BY IDOCK:   -5.19 KCAL/MOL
REMARK 922        TOTAL FREE ENERGY PREDICTED BY IDOCK:   -8.06 KCAL/MOL
REMARK 923 INTER-LIGAND FREE ENERGY PREDICTED BY IDOCK:   -7.66 KCAL/MOL
REMARK 924 INTRA-LIGAND FREE ENERGY PREDICTED BY IDOCK:   -0.40 KCAL/MOL
REMARK 927      BINDING AFFINITY PREDICTED BY RF-SCORE:    0.00 PKD
ROOT
HETATM    1  N   UNL     1      -6.302   4.563  69.979  1.00  0.00    -0.026 NA 
HETATM    2  C   UNL     1      -7.446   5.472  69.813  1.00  0.00    -0.070 C  
HETATM    3  H2  UNL     1      -6.524   3.808  70.627  1.00  0.00     0.000 HD 
HETATM    4  H1  UNL     1      -5.967   4.198  69.088  1.00  0.00     0.000 HD 
ENDROOT
BRANCH   2   5
HETATM    5  C   UNL     1      -7.955   6.027  71.167  1.00  0.00    -0.116 C  
HETATM    6  O   UNL     1      -8.612   7.297  71.024  1.00  0.00    -0.127 OA 
HETATM    7  C   UNL     1      -9.857   7.258  70.345  1.00  0.00    -0.183 C  
HETATM    8  C   UNL     1     -10.865   6.360  71.132  1.00  0.00    -0.258 C  
HETATM    9  C   UNL     1      -8.844   5.018  71.921  1.00  0.00    -0.129 C  
HETATM   10  N   UNL     1     -11.236   6.932  72.445  1.00  0.00    -0.258 NA 
HETATM   11  C   UNL     1     -10.259   4.958  71.333  1.00  0.00    -0.257 C  
HETATM   12  H   UNL     1      -9.450   4.793  73.762  1.00  0.00     0.000 HD 
HETATM   13  H1  UNL     1     -11.894   6.346  72.959  1.00  0.00     0.000 HD 
HETATM   14  H2  UNL     1     -11.594   7.881  72.342  1.00  0.00     0.000 HD 
HETATM   15  O   UNL     1      -8.902   5.415  73.297  1.00  0.00    -0.119 OA 
BRANCH   7  16
HETATM   16  O   UNL     1     -10.393   8.585  70.215  1.00  0.00    -0.196 OA 
BRANCH  16  17
HETATM   17  C   UNL     1     -10.634   9.066  68.861  1.00  0.00    -0.180 C  
HETATM   18  N   UNL     1      -9.894   6.966  67.757  1.00  0.00    -0.132 NA 
HETATM   19  C   UNL     1      -9.968   8.981  66.423  1.00  0.00    -0.370 C  
HETATM   20  H1  UNL     1      -9.279   6.541  67.064  1.00  0.00     0.000 HD 
HETATM   21  H2  UNL     1     -10.871   6.722  67.592  1.00  0.00     0.000 HD 
HETATM   22  C   UNL     1      -9.785  10.498  66.384  1.00  0.00    -0.198 C  
HETATM   23  C   UNL     1      -9.702   8.424  67.812  1.00  0.00    -0.162 C  
HETATM   24  N   UNL     1      -9.946  10.886  64.972  1.00  0.00    -0.275 NA 
HETATM   25  C   UNL     1     -10.776  11.222  67.348  1.00  0.00    -0.242 C  
HETATM   26  H   UNL     1     -11.910  11.986  69.479  1.00  0.00     0.000 HD 
HETATM   27  H1  UNL     1      -9.824  11.898  64.946  1.00  0.00     0.000 HD 
HETATM   28  C   UNL     1     -10.701  10.617  68.783  1.00  0.00    -0.215 C  
HETATM   29  H2  UNL     1     -10.825  10.570  64.559  1.00  0.00     0.000 HD 
HETATM   30  O   UNL     1     -11.869  11.038  69.527  1.00  0.00    -0.281 OA 
BRANCH  25  31
HETATM   31  O   UNL     1     -10.495  12.650  67.488  1.00  0.00    -0.218 OA 
BRANCH  31  32
HETATM   32  C   UNL     1     -11.525  13.526  67.012  1.00  0.00    -0.340 C  
HETATM   33  O   UNL     1     -12.228  14.180  68.077  1.00  0.00    -0.310 OA 
HETATM   34  C   UNL     1     -11.415  15.130  68.785  1.00  0.00    -0.319 C  
HETATM   35  C   UNL     1     -10.936  16.241  67.837  1.00  0.00    -0.310 C  
HETATM   36  H   UNL     1      -9.883  14.507  64.326  1.00  0.00     0.000 HD 
HETATM   37  C   UNL     1     -10.123  15.631  66.678  1.00  0.00    -0.273 C  
HETATM   38  H1  UNL     1      -9.147  16.287  64.971  1.00  0.00     0.000 HD 
HETATM   39  O   UNL     1     -10.160  17.233  68.514  1.00  0.00    -0.298 OA 
HETATM   40  H   UNL     1      -9.864  17.919  67.928  1.00  0.00     0.000 HD 
HETATM   41  H2  UNL     1      -9.171  17.431  66.213  1.00  0.00     0.000 HD 
HETATM   42  C   UNL     1     -10.966  14.547  65.986  1.00  0.00    -0.324 C  
HETATM   43  N   UNL     1      -9.685  16.691  65.737  1.00  0.00    -0.531 NA 
HETATM   44  O   UNL     1     -10.226  13.882  64.955  1.00  0.00    -0.395 OA 
BRANCH  34  45
HETATM   45  C   UNL     1     -12.254  15.731  69.921  1.00  0.00    -0.248 C  
HETATM   46  O   UNL     1     -11.724  15.360  71.194  1.00  0.00    -0.299 OA 
HETATM   47  H   UNL     1     -12.243  15.732  71.897  1.00  0.00     0.000 HD 
ENDBRANCH  34  45
ENDBRANCH  31  32
ENDBRANCH  25  31
ENDBRANCH  16  17
ENDBRANCH   7  16
ENDBRANCH   2   5
TORSDOF 6
ENDMDL
MODEL      166
REMARK 921   NORMALIZED FREE ENERGY PREDICTED BY IDOCK:   -5.16 KCAL/MOL
REMARK 922        TOTAL FREE ENERGY PREDICTED BY IDOCK:   -8.03 KCAL/MOL
REMARK 923 INTER-LIGAND FREE ENERGY PREDICTED BY IDOCK:   -6.26 KCAL/MOL
REMARK 924 INTRA-LIGAND FREE ENERGY PREDICTED BY IDOCK:   -1.77 KCAL/MOL
REMARK 927      BINDING AFFINITY PREDICTED BY RF-SCORE:    0.00 PKD
ROOT
HETATM    1  N   UNL     1      -7.324  13.941  69.412  1.00  0.00    -0.328 NA 
HETATM    2  C   UNL     1      -7.569  15.259  68.809  1.00  0.00    -0.139 C  
HETATM    3  H2  UNL     1      -6.831  13.326  68.764  1.00  0.00     0.000 HD 
HETATM    4  H1  UNL     1      -6.832  14.009  70.302  1.00  0.00     0.000 HD 
ENDROOT
BRANCH   2   5
HETATM    5  C   UNL     1      -8.317  15.156  67.456  1.00  0.00    -0.172 C  
HETATM    6  O   UNL     1      -9.031  13.917  67.320  1.00  0.00    -0.200 OA 
HETATM    7  C   UNL     1     -10.151  13.770  68.178  1.00  0.00    -0.245 C  
HETATM    8  C   UNL     1     -11.204  14.886  67.874  1.00  0.00    -0.315 C  
HETATM    9  C   UNL     1      -9.238  16.364  67.197  1.00  0.00    -0.213 C  
HETATM   10  N   UNL     1     -11.809  14.751  66.531  1.00  0.00    -0.289 NA 
HETATM   11  C   UNL     1     -10.539  16.270  68.003  1.00  0.00    -0.308 C  
HETATM   12  H   UNL     1     -10.101  17.154  65.635  1.00  0.00     0.000 HD 
HETATM   13  H1  UNL     1     -12.496  15.479  66.333  1.00  0.00     0.000 HD 
HETATM   14  H2  UNL     1     -12.213  13.823  66.404  1.00  0.00     0.000 HD 
HETATM   15  O   UNL     1      -9.533  16.409  65.795  1.00  0.00    -0.464 OA 
BRANCH   7  16
HETATM   16  O   UNL     1     -10.753  12.478  67.992  1.00  0.00    -0.209 OA 
BRANCH  16  17
HETATM   17  C   UNL     1      -9.981  11.497  67.240  1.00  0.00    -0.191 C  
HETATM   18  N   UNL     1     -10.819  12.228  65.018  1.00  0.00    -0.287 NA 
HETATM   19  C   UNL     1      -9.831  10.028  65.187  1.00  0.00    -0.388 C  
HETATM   20  H1  UNL     1     -11.265  11.949  64.143  1.00  0.00     0.000 HD 
HETATM   21  H2  UNL     1      -9.933  12.704  64.852  1.00  0.00     0.000 HD 
HETATM   22  C   UNL     1      -9.613   8.784  66.050  1.00  0.00    -0.226 C  
HETATM   23  C   UNL     1     -10.655  11.075  65.918  1.00  0.00    -0.206 C  
HETATM   24  N   UNL     1      -8.918   7.813  65.188  1.00  0.00    -0.368 NA 
HETATM   25  C   UNL     1      -8.838   9.123  67.362  1.00  0.00    -0.118 C  
HETATM   26  H   UNL     1      -8.296  10.097  69.635  1.00  0.00     0.000 HD 
HETATM   27  H1  UNL     1      -8.774   6.984  65.763  1.00  0.00     0.000 HD 
HETATM   28  C   UNL     1      -9.514  10.304  68.121  1.00  0.00    -0.147 C  
HETATM   29  H2  UNL     1      -8.060   8.177  64.772  1.00  0.00     0.000 HD 
HETATM   30  O   UNL     1      -8.581  10.826  69.097  1.00  0.00    -0.150 OA 
BRANCH  25  31
HETATM   31  O   UNL     1      -8.790   8.003  68.302  1.00  0.00    -0.133 OA 
BRANCH  31  32
HETATM   32  C   UNL     1      -7.485   7.460  68.539  1.00  0.00    -0.105 C  
HETATM   33  O   UNL     1      -6.963   7.822  69.824  1.00  0.00    -0.045 OA 
HETATM   34  C   UNL     1      -7.678   7.212  70.912  1.00  0.00    -0.094 C  
HETATM   35  C   UNL     1      -7.586   5.681  70.824  1.00  0.00    -0.091 C  
HETATM   36  H   UNL     1      -8.027   4.633  66.932  1.00  0.00     0.000 HD 
HETATM   37  C   UNL     1      -8.173   5.193  69.485  1.00  0.00    -0.093 C  
HETATM   38  H1  UNL     1      -8.447   3.395  68.488  1.00  0.00     0.000 HD 
HETATM   39  O   UNL     1      -8.248   5.035  71.916  1.00  0.00    -0.112 OA 
HETATM   40  H   UNL     1      -8.191   4.088  71.861  1.00  0.00     0.000 HD 
HETATM   41  H2  UNL     1      -8.484   3.244  70.170  1.00  0.00     0.000 HD 
HETATM   42  C   UNL     1      -7.468   5.923  68.329  1.00  0.00    -0.085 C  
HETATM   43  N   UNL     1      -8.058   3.718  69.374  1.00  0.00    -0.054 NA 
HETATM   44  O   UNL     1      -8.037   5.574  67.061  1.00  0.00    -0.101 OA 
BRANCH  34  45
HETATM   45  C   UNL     1      -7.063   7.703  72.230  1.00  0.00    -0.071 C  
HETATM   46  O   UNL     1      -6.978   9.128  72.249  1.00  0.00    -0.317 OA 
HETATM   47  H   UNL     1      -6.598   9.432  73.065  1.00  0.00     0.000 HD 
ENDBRANCH  34  45
ENDBRANCH  31  32
ENDBRANCH  25  31
ENDBRANCH  16  17
ENDBRANCH   7  16
ENDBRANCH   2   5
TORSDOF 6
ENDMDL
MODEL      167
REMARK 921   NORMALIZED FREE ENERGY PREDICTED BY IDOCK:   -5.14 KCAL/MOL
REMARK 922        TOTAL FREE ENERGY PREDICTED BY IDOCK:   -7.99 KCAL/MOL
REMARK 923 INTER-LIGAND FREE ENERGY PREDICTED BY IDOCK:   -6.57 KCAL/MOL
REMARK 924 INTRA-LIGAND FREE ENERGY PREDICTED BY IDOCK:   -1.43 KCAL/MOL
REMARK 927      BINDING AFFINITY PREDICTED BY RF-SCORE:    0.00 PKD
ROOT
HETATM    1  N   UNL     1      -7.194   9.721  70.745  1.00  0.00    -0.314 NA 
HETATM    2  C   UNL     1      -6.557  10.927  70.195  1.00  0.00    -0.120 C  
HETATM    3  H2  UNL     1      -6.783   8.875  70.349  1.00  0.00     0.000 HD 
HETATM    4  H1  UNL     1      -7.168   9.701  71.763  1.00  0.00     0.000 HD 
ENDROOT
BRANCH   2   5
HETATM    5  C   UNL     1      -6.596  10.957  68.646  1.00  0.00    -0.057 C  
HETATM    6  O   UNL     1      -7.843  10.474  68.122  1.00  0.00    -0.104 OA 
HETATM    7  C   UNL     1      -8.962  11.311  68.365  1.00  0.00    -0.167 C  
HETATM    8  C   UNL     1      -8.743  12.703  67.687  1.00  0.00    -0.179 C  
HETATM    9  C   UNL     1      -6.247  12.346  68.075  1.00  0.00    -0.082 C  
HETATM   10  N   UNL     1      -8.718  12.623  66.211  1.00  0.00    -0.413 NA 
HETATM   11  C   UNL     1      -7.425  13.320  68.192  1.00  0.00    -0.128 C  
HETATM   12  H   UNL     1      -5.668  13.038  66.345  1.00  0.00     0.000 HD 
HETATM   13  H1  UNL     1      -8.575  13.532  65.768  1.00  0.00     0.000 HD 
HETATM   14  H2  UNL     1      -9.560  12.172  65.855  1.00  0.00     0.000 HD 
HETATM   15  O   UNL     1      -5.882  12.182  66.698  1.00  0.00    -0.261 OA 
BRANCH   7  16
HETATM   16  O   UNL     1     -10.157  10.705  67.844  1.00  0.00    -0.162 OA 
BRANCH  16  17
HETATM   17  C   UNL     1     -11.181  10.335  68.813  1.00  0.00    -0.206 C  
HETATM   18  N   UNL     1     -12.035  12.650  69.112  1.00  0.00    -0.276 NA 
HETATM   19  C   UNL     1     -12.558  11.021  70.820  1.00  0.00    -0.463 C  
HETATM   20  H1  UNL     1     -12.254  13.397  69.771  1.00  0.00     0.000 HD 
HETATM   21  H2  UNL     1     -12.837  12.418  68.527  1.00  0.00     0.000 HD 
HETATM   22  C   UNL     1     -12.096   9.791  71.601  1.00  0.00    -0.394 C  
HETATM   23  C   UNL     1     -11.512  11.465  69.810  1.00  0.00    -0.300 C  
HETATM   24  N   UNL     1     -13.134   9.547  72.617  1.00  0.00    -0.481 NA 
HETATM   25  C   UNL     1     -11.844   8.572  70.659  1.00  0.00    -0.096 C  
HETATM   26  H   UNL     1     -10.822   7.110  68.862  1.00  0.00     0.000 HD 
HETATM   27  H1  UNL     1     -12.825   8.726  73.139  1.00  0.00     0.000 HD 
HETATM   28  C   UNL     1     -10.898   8.962  69.483  1.00  0.00    -0.153 C  
HETATM   29  H2  UNL     1     -14.073   9.454  72.228  1.00  0.00     0.000 HD 
HETATM   30  O   UNL     1     -10.995   7.950  68.453  1.00  0.00     0.015 OA 
BRANCH  25  31
HETATM   31  O   UNL     1     -11.210   7.445  71.341  1.00  0.00    -0.241 OA 
BRANCH  31  32
HETATM   32  C   UNL     1      -9.822   7.250  71.039  1.00  0.00    -0.183 C  
HETATM   33  O   UNL     1      -8.958   7.872  71.998  1.00  0.00    -0.123 OA 
HETATM   34  C   UNL     1      -9.011   7.247  73.291  1.00  0.00    -0.152 C  
HETATM   35  C   UNL     1      -8.566   5.779  73.196  1.00  0.00    -0.116 C  
HETATM   36  H   UNL     1     -10.190   4.204  69.832  1.00  0.00     0.000 HD 
HETATM   37  C   UNL     1      -9.477   5.013  72.217  1.00  0.00    -0.139 C  
HETATM   38  H1  UNL     1      -9.639   3.096  71.443  1.00  0.00     0.000 HD 
HETATM   39  O   UNL     1      -8.562   5.132  74.472  1.00  0.00    -0.109 OA 
HETATM   40  H   UNL     1      -8.287   4.224  74.414  1.00  0.00     0.000 HD 
HETATM   41  H2  UNL     1      -8.981   3.141  72.999  1.00  0.00     0.000 HD 
HETATM   42  C   UNL     1      -9.490   5.745  70.864  1.00  0.00    -0.165 C  
HETATM   43  N   UNL     1      -9.036   3.603  72.091  1.00  0.00    -0.098 NA 
HETATM   44  O   UNL     1     -10.393   5.126  69.939  1.00  0.00    -0.279 OA 
BRANCH  34  45
HETATM   45  C   UNL     1      -8.084   8.020  74.240  1.00  0.00    -0.258 C  
HETATM   46  O   UNL     1      -7.217   8.885  73.507  1.00  0.00    -0.362 OA 
HETATM   47  H   UNL     1      -6.643   9.364  74.094  1.00  0.00     0.000 HD 
ENDBRANCH  34  45
ENDBRANCH  31  32
ENDBRANCH  25  31
ENDBRANCH  16  17
ENDBRANCH   7  16
ENDBRANCH   2   5
TORSDOF 6
ENDMDL
MODEL      168
REMARK 921   NORMALIZED FREE ENERGY PREDICTED BY IDOCK:   -5.11 KCAL/MOL
REMARK 922        TOTAL FREE ENERGY PREDICTED BY IDOCK:   -7.96 KCAL/MOL
REMARK 923 INTER-LIGAND FREE ENERGY PREDICTED BY IDOCK:   -7.14 KCAL/MOL
REMARK 924 INTRA-LIGAND FREE ENERGY PREDICTED BY IDOCK:   -0.81 KCAL/MOL
REMARK 927      BINDING AFFINITY PREDICTED BY RF-SCORE:    0.00 PKD
ROOT
HETATM    1  N   UNL     1     -13.374  10.820  72.144  1.00  0.00    -0.579 NA 
HETATM    2  C   UNL     1     -13.772  12.234  72.082  1.00  0.00    -0.110 C  
HETATM    3  H2  UNL     1     -12.892  10.611  73.018  1.00  0.00     0.000 HD 
HETATM    4  H1  UNL     1     -14.162  10.190  71.999  1.00  0.00     0.000 HD 
ENDROOT
BRANCH   2   5
HETATM    5  C   UNL     1     -12.574  13.191  72.302  1.00  0.00     0.178 C  
HETATM    6  O   UNL     1     -11.855  13.455  71.087  1.00  0.00    -0.009 OA 
HETATM    7  C   UNL     1     -12.556  14.232  70.129  1.00  0.00    -0.282 C  
HETATM    8  C   UNL     1     -12.887  15.640  70.725  1.00  0.00    -0.404 C  
HETATM    9  C   UNL     1     -12.986  14.500  73.005  1.00  0.00    -0.496 C  
HETATM   10  N   UNL     1     -11.677  16.454  70.973  1.00  0.00    -0.597 NA 
HETATM   11  C   UNL     1     -13.674  15.471  72.039  1.00  0.00    -0.599 C  
HETATM   12  H   UNL     1     -12.059  15.911  73.983  1.00  0.00     0.000 HD 
HETATM   13  H1  UNL     1     -11.893  17.372  71.362  1.00  0.00     0.000 HD 
HETATM   14  H2  UNL     1     -11.113  16.538  70.128  1.00  0.00     0.000 HD 
HETATM   15  O   UNL     1     -11.806  15.105  73.550  1.00  0.00    -0.407 OA 
BRANCH   7  16
HETATM   16  O   UNL     1     -11.765  14.387  68.939  1.00  0.00    -0.286 OA 
BRANCH  16  17
HETATM   17  C   UNL     1     -10.438  13.784  68.952  1.00  0.00    -0.169 C  
HETATM   18  N   UNL     1      -9.224  15.950  69.070  1.00  0.00    -0.227 NA 
HETATM   19  C   UNL     1      -7.996  14.003  68.331  1.00  0.00    -0.143 C  
HETATM   20  H1  UNL     1      -8.507  16.547  68.657  1.00  0.00     0.000 HD 
HETATM   21  H2  UNL     1      -9.051  15.786  70.062  1.00  0.00     0.000 HD 
HETATM   22  C   UNL     1      -8.034  12.677  67.571  1.00  0.00    -0.174 C  
HETATM   23  C   UNL     1      -9.353  14.687  68.326  1.00  0.00    -0.199 C  
HETATM   24  N   UNL     1      -6.645  12.188  67.546  1.00  0.00    -0.116 NA 
HETATM   25  C   UNL     1      -9.039  11.672  68.218  1.00  0.00    -0.187 C  
HETATM   26  H   UNL     1     -11.211  10.633  69.000  1.00  0.00     0.000 HD 
HETATM   27  H1  UNL     1      -6.671  11.304  67.038  1.00  0.00     0.000 HD 
HETATM   28  C   UNL     1     -10.440  12.328  68.408  1.00  0.00    -0.233 C  
HETATM   29  H2  UNL     1      -6.220  12.116  68.471  1.00  0.00     0.000 HD 
HETATM   30  O   UNL     1     -11.210  11.523  69.332  1.00  0.00    -0.248 OA 
BRANCH  25  31
HETATM   31  O   UNL     1      -9.252  10.475  67.405  1.00  0.00    -0.142 OA 
BRANCH  31  32
HETATM   32  C   UNL     1      -8.238   9.469  67.521  1.00  0.00    -0.121 C  
HETATM   33  O   UNL     1      -7.680   9.399  68.840  1.00  0.00    -0.074 OA 
HETATM   34  C   UNL     1      -8.613   8.911  69.818  1.00  0.00    -0.134 C  
HETATM   35  C   UNL     1      -9.068   7.487  69.465  1.00  0.00    -0.143 C  
HETATM   36  H   UNL     1      -9.677   7.336  65.459  1.00  0.00     0.000 HD 
HETATM   37  C   UNL     1      -9.729   7.474  68.073  1.00  0.00    -0.146 C  
HETATM   38  H1  UNL     1     -10.579   6.089  66.785  1.00  0.00     0.000 HD 
HETATM   39  O   UNL     1      -9.964   6.947  70.440  1.00  0.00    -0.179 OA 
HETATM   40  H   UNL     1     -10.246   6.066  70.221  1.00  0.00     0.000 HD 
HETATM   41  H2  UNL     1     -10.743   5.680  68.415  1.00  0.00     0.000 HD 
HETATM   42  C   UNL     1      -8.759   8.087  67.048  1.00  0.00    -0.128 C  
HETATM   43  N   UNL     1     -10.141   6.097  67.706  1.00  0.00    -0.137 NA 
HETATM   44  O   UNL     1      -9.357   8.183  65.749  1.00  0.00    -0.113 OA 
BRANCH  34  45
HETATM   45  C   UNL     1      -7.923   8.920  71.190  1.00  0.00    -0.144 C  
HETATM   46  O   UNL     1      -8.887   8.865  72.242  1.00  0.00    -0.397 OA 
HETATM   47  H   UNL     1      -8.460   8.871  73.090  1.00  0.00     0.000 HD 
ENDBRANCH  34  45
ENDBRANCH  31  32
ENDBRANCH  25  31
ENDBRANCH  16  17
ENDBRANCH   7  16
ENDBRANCH   2   5
TORSDOF 6
ENDMDL
MODEL      169
REMARK 921   NORMALIZED FREE ENERGY PREDICTED BY IDOCK:   -5.03 KCAL/MOL
REMARK 922        TOTAL FREE ENERGY PREDICTED BY IDOCK:   -7.85 KCAL/MOL
REMARK 923 INTER-LIGAND FREE ENERGY PREDICTED BY IDOCK:   -7.97 KCAL/MOL
REMARK 924 INTRA-LIGAND FREE ENERGY PREDICTED BY IDOCK:    0.12 KCAL/MOL
REMARK 927      BINDING AFFINITY PREDICTED BY RF-SCORE:    0.00 PKD
ROOT
HETATM    1  N   UNL     1      -9.780  11.479  63.066  1.00  0.00    -0.510 NA 
HETATM    2  C   UNL     1      -9.311  12.368  64.139  1.00  0.00     0.506 C  
HETATM    3  H2  UNL     1     -10.602  11.864  62.601  1.00  0.00     0.000 HD 
HETATM    4  H1  UNL     1      -9.044  11.263  62.394  1.00  0.00     0.000 HD 
ENDROOT
BRANCH   2   5
HETATM    5  C   UNL     1     -10.430  12.696  65.160  1.00  0.00    -0.296 C  
HETATM    6  O   UNL     1     -10.316  14.027  65.686  1.00  0.00    -0.303 OA 
HETATM    7  C   UNL     1     -10.584  15.066  64.757  1.00  0.00    -0.291 C  
HETATM    8  C   UNL     1     -12.056  14.952  64.242  1.00  0.00    -0.353 C  
HETATM    9  C   UNL     1     -11.839  12.435  64.594  1.00  0.00    -0.380 C  
HETATM   10  N   UNL     1     -13.055  15.206  65.303  1.00  0.00     0.426 NA 
HETATM   11  C   UNL     1     -12.285  13.552  63.642  1.00  0.00    -0.438 C  
HETATM   12  H   UNL     1     -13.621  12.177  65.347  1.00  0.00     0.000 HD 
HETATM   13  H1  UNL     1     -14.015  15.132  64.966  1.00  0.00     0.000 HD 
HETATM   14  H2  UNL     1     -12.892  16.108  65.749  1.00  0.00     0.000 HD 
HETATM   15  O   UNL     1     -12.751  12.338  65.695  1.00  0.00    -0.368 OA 
BRANCH   7  16
HETATM   16  O   UNL     1     -10.389  16.349  65.377  1.00  0.00    -0.535 OA 
BRANCH  16  17
HETATM   17  C   UNL     1      -9.713  16.357  66.668  1.00  0.00    -0.257 C  
HETATM   18  N   UNL     1      -7.502  17.015  65.744  1.00  0.00    -0.122 NA 
HETATM   19  C   UNL     1      -7.556  16.012  67.943  1.00  0.00    -0.144 C  
HETATM   20  H1  UNL     1      -6.508  16.795  65.679  1.00  0.00     0.000 HD 
HETATM   21  H2  UNL     1      -7.655  17.965  66.082  1.00  0.00     0.000 HD 
HETATM   22  C   UNL     1      -8.228  15.001  68.873  1.00  0.00    -0.178 C  
HETATM   23  C   UNL     1      -8.209  16.024  66.571  1.00  0.00    -0.299 C  
HETATM   24  N   UNL     1      -7.428  15.001  70.111  1.00  0.00    -0.233 NA 
HETATM   25  C   UNL     1      -9.734  15.342  69.103  1.00  0.00    -0.243 C  
HETATM   26  H   UNL     1     -12.198  15.704  68.651  1.00  0.00     0.000 HD 
HETATM   27  H1  UNL     1      -7.875  14.326  70.731  1.00  0.00     0.000 HD 
HETATM   28  C   UNL     1     -10.475  15.535  67.745  1.00  0.00    -0.273 C  
HETATM   29  H2  UNL     1      -7.317  15.927  70.526  1.00  0.00     0.000 HD 
HETATM   30  O   UNL     1     -11.733  16.206  67.992  1.00  0.00    -0.164 OA 
BRANCH  25  31
HETATM   31  O   UNL     1     -10.454  14.290  69.819  1.00  0.00     0.029 OA 
BRANCH  31  32
HETATM   32  C   UNL     1     -11.771  14.008  69.329  1.00  0.00    -0.326 C  
HETATM   33  O   UNL     1     -11.891  12.681  68.801  1.00  0.00    -0.302 OA 
HETATM   34  C   UNL     1     -11.790  11.664  69.813  1.00  0.00    -0.357 C  
HETATM   35  C   UNL     1     -12.915  11.822  70.847  1.00  0.00    -0.026 C  
HETATM   36  H   UNL     1     -13.343  15.778  71.624  1.00  0.00     0.000 HD 
HETATM   37  C   UNL     1     -12.835  13.212  71.506  1.00  0.00    -0.307 C  
HETATM   38  H1  UNL     1     -13.885  14.309  72.919  1.00  0.00     0.000 HD 
HETATM   39  O   UNL     1     -12.877  10.800  71.848  1.00  0.00    -0.436 OA 
HETATM   40  H   UNL     1     -13.572  10.897  72.487  1.00  0.00     0.000 HD 
HETATM   41  H2  UNL     1     -13.954  12.641  73.175  1.00  0.00     0.000 HD 
HETATM   42  C   UNL     1     -12.847  14.292  70.410  1.00  0.00    -0.218 C  
HETATM   43  N   UNL     1     -13.938  13.388  72.482  1.00  0.00    -0.751 NA 
HETATM   44  O   UNL     1     -12.684  15.604  70.962  1.00  0.00    -0.444 OA 
BRANCH  34  45
HETATM   45  C   UNL     1     -11.888  10.293  69.130  1.00  0.00     0.033 C  
HETATM   46  O   UNL     1     -11.478   9.254  70.019  1.00  0.00    -0.412 OA 
HETATM   47  H   UNL     1     -11.539   8.405  69.596  1.00  0.00     0.000 HD 
ENDBRANCH  34  45
ENDBRANCH  31  32
ENDBRANCH  25  31
ENDBRANCH  16  17
ENDBRANCH   7  16
ENDBRANCH   2   5
TORSDOF 6
ENDMDL
MODEL      170
REMARK 921   NORMALIZED FREE ENERGY PREDICTED BY IDOCK:   -5.03 KCAL/MOL
REMARK 922        TOTAL FREE ENERGY PREDICTED BY IDOCK:   -7.84 KCAL/MOL
REMARK 923 INTER-LIGAND FREE ENERGY PREDICTED BY IDOCK:   -6.85 KCAL/MOL
REMARK 924 INTRA-LIGAND FREE ENERGY PREDICTED BY IDOCK:   -0.99 KCAL/MOL
REMARK 927      BINDING AFFINITY PREDICTED BY RF-SCORE:    0.00 PKD
ROOT
HETATM    1  N   UNL     1      -6.903   8.522  69.052  1.00  0.00    -0.055 NA 
HETATM    2  C   UNL     1      -6.473   7.417  68.183  1.00  0.00    -0.046 C  
HETATM    3  H2  UNL     1      -7.789   8.308  69.509  1.00  0.00     0.000 HD 
HETATM    4  H1  UNL     1      -6.189   8.777  69.734  1.00  0.00     0.000 HD 
ENDROOT
BRANCH   2   5
HETATM    5  C   UNL     1      -7.558   7.029  67.147  1.00  0.00    -0.107 C  
HETATM    6  O   UNL     1      -8.483   8.099  66.899  1.00  0.00    -0.116 OA 
HETATM    7  C   UNL     1      -7.941   9.215  66.210  1.00  0.00    -0.103 C  
HETATM    8  C   UNL     1      -7.433   8.775  64.799  1.00  0.00    -0.100 C  
HETATM    9  C   UNL     1      -6.954   6.493  65.834  1.00  0.00    -0.061 C  
HETATM   10  N   UNL     1      -8.531   8.349  63.903  1.00  0.00    -0.388 NA 
HETATM   11  C   UNL     1      -6.418   7.627  64.952  1.00  0.00    -0.041 C  
HETATM   12  H   UNL     1      -7.605   5.440  64.326  1.00  0.00     0.000 HD 
HETATM   13  H1  UNL     1      -8.199   8.062  62.982  1.00  0.00     0.000 HD 
HETATM   14  H2  UNL     1      -9.242   9.076  63.826  1.00  0.00     0.000 HD 
HETATM   15  O   UNL     1      -7.976   5.771  65.135  1.00  0.00    -0.105 OA 
BRANCH   7  16
HETATM   16  O   UNL     1      -8.938  10.241  66.065  1.00  0.00    -0.146 OA 
BRANCH  16  17
HETATM   17  C   UNL     1      -9.355  10.928  67.281  1.00  0.00    -0.155 C  
HETATM   18  N   UNL     1     -10.912   9.135  68.012  1.00  0.00    -0.493 NA 
HETATM   19  C   UNL     1     -11.191  11.337  68.970  1.00  0.00    -0.321 C  
HETATM   20  H1  UNL     1     -11.861   8.899  68.303  1.00  0.00     0.000 HD 
HETATM   21  H2  UNL     1     -10.223   8.832  68.700  1.00  0.00     0.000 HD 
HETATM   22  C   UNL     1     -11.100  12.848  68.755  1.00  0.00    -0.263 C  
HETATM   23  C   UNL     1     -10.791  10.572  67.720  1.00  0.00    -0.294 C  
HETATM   24  N   UNL     1     -11.629  13.462  69.986  1.00  0.00    -0.498 NA 
HETATM   25  C   UNL     1      -9.644  13.293  68.411  1.00  0.00    -0.185 C  
HETATM   26  H   UNL     1      -7.457  13.558  67.163  1.00  0.00     0.000 HD 
HETATM   27  H1  UNL     1     -11.569  14.470  69.842  1.00  0.00     0.000 HD 
HETATM   28  C   UNL     1      -9.069  12.455  67.229  1.00  0.00    -0.187 C  
HETATM   29  H2  UNL     1     -11.163  13.141  70.835  1.00  0.00     0.000 HD 
HETATM   30  O   UNL     1      -7.632  12.625  67.194  1.00  0.00    -0.139 OA 
BRANCH  25  31
HETATM   31  O   UNL     1      -9.557  14.695  68.002  1.00  0.00    -0.204 OA 
BRANCH  31  32
HETATM   32  C   UNL     1      -9.437  15.639  69.073  1.00  0.00    -0.243 C  
HETATM   33  O   UNL     1      -8.096  16.119  69.236  1.00  0.00    -0.236 OA 
HETATM   34  C   UNL     1      -7.659  16.943  68.142  1.00  0.00    -0.188 C  
HETATM   35  C   UNL     1      -8.553  18.187  68.015  1.00  0.00    -0.265 C  
HETATM   36  H   UNL     1     -12.392  17.024  68.604  1.00  0.00     0.000 HD 
HETATM   37  C   UNL     1     -10.017  17.764  67.788  1.00  0.00    -0.322 C  
HETATM   38  H1  UNL     1     -11.863  18.677  67.549  1.00  0.00     0.000 HD 
HETATM   39  O   UNL     1      -8.123  19.057  66.965  1.00  0.00    -0.256 OA 
HETATM   40  H   UNL     1      -8.675  19.826  66.886  1.00  0.00     0.000 HD 
HETATM   41  H2  UNL     1     -10.573  19.611  66.986  1.00  0.00     0.000 HD 
HETATM   42  C   UNL     1     -10.446  16.806  68.912  1.00  0.00    -0.332 C  
HETATM   43  N   UNL     1     -10.894  18.957  67.699  1.00  0.00    -0.398 NA 
HETATM   44  O   UNL     1     -11.774  16.309  68.703  1.00  0.00    -0.314 OA 
BRANCH  34  45
HETATM   45  C   UNL     1      -6.205  17.360  68.402  1.00  0.00    -0.169 C  
HETATM   46  O   UNL     1      -5.556  16.424  69.262  1.00  0.00    -0.124 OA 
HETATM   47  H   UNL     1      -4.656  16.682  69.423  1.00  0.00     0.000 HD 
ENDBRANCH  34  45
ENDBRANCH  31  32
ENDBRANCH  25  31
ENDBRANCH  16  17
ENDBRANCH   7  16
ENDBRANCH   2   5
TORSDOF 6
ENDMDL
MODEL      171
REMARK 921   NORMALIZED FREE ENERGY PREDICTED BY IDOCK:   -5.02 KCAL/MOL
REMARK 922        TOTAL FREE ENERGY PREDICTED BY IDOCK:   -7.83 KCAL/MOL
REMARK 923 INTER-LIGAND FREE ENERGY PREDICTED BY IDOCK:   -6.10 KCAL/MOL
REMARK 924 INTRA-LIGAND FREE ENERGY PREDICTED BY IDOCK:   -1.73 KCAL/MOL
REMARK 927      BINDING AFFINITY PREDICTED BY RF-SCORE:    0.00 PKD
ROOT
HETATM    1  N   UNL     1      -6.746   9.269  70.534  1.00  0.00    -0.067 NA 
HETATM    2  C   UNL     1      -6.329  10.578  70.010  1.00  0.00    -0.117 C  
HETATM    3  H2  UNL     1      -6.235   8.512  70.082  1.00  0.00     0.000 HD 
HETATM    4  H1  UNL     1      -6.663   9.215  71.548  1.00  0.00     0.000 HD 
ENDROOT
BRANCH   2   5
HETATM    5  C   UNL     1      -6.455  10.660  68.468  1.00  0.00    -0.054 C  
HETATM    6  O   UNL     1      -7.760  10.277  68.006  1.00  0.00    -0.088 OA 
HETATM    7  C   UNL     1      -8.805  11.176  68.338  1.00  0.00    -0.157 C  
HETATM    8  C   UNL     1      -8.533  12.573  67.689  1.00  0.00    -0.171 C  
HETATM    9  C   UNL     1      -6.049  12.041  67.916  1.00  0.00    -0.062 C  
HETATM   10  N   UNL     1      -8.599  12.538  66.212  1.00  0.00    -0.403 NA 
HETATM   11  C   UNL     1      -7.150  13.086  68.131  1.00  0.00    -0.107 C  
HETATM   12  H   UNL     1      -5.525  12.750  66.175  1.00  0.00     0.000 HD 
HETATM   13  H1  UNL     1      -8.421  13.449  65.787  1.00  0.00     0.000 HD 
HETATM   14  H2  UNL     1      -9.488  12.154  65.894  1.00  0.00     0.000 HD 
HETATM   15  O   UNL     1      -5.775  11.899  66.516  1.00  0.00    -0.265 OA 
BRANCH   7  16
HETATM   16  O   UNL     1     -10.066  10.667  67.873  1.00  0.00    -0.162 OA 
BRANCH  16  17
HETATM   17  C   UNL     1     -10.917  10.018  68.863  1.00  0.00    -0.207 C  
HETATM   18  N   UNL     1     -12.086  12.105  69.536  1.00  0.00    -0.244 NA 
HETATM   19  C   UNL     1     -12.175  10.219  71.047  1.00  0.00    -0.487 C  
HETATM   20  H1  UNL     1     -12.351  12.721  70.305  1.00  0.00     0.000 HD 
HETATM   21  H2  UNL     1     -12.897  11.813  68.992  1.00  0.00     0.000 HD 
HETATM   22  C   UNL     1     -11.450   9.000  71.617  1.00  0.00    -0.361 C  
HETATM   23  C   UNL     1     -11.317  10.949  70.026  1.00  0.00    -0.307 C  
HETATM   24  N   UNL     1     -12.329   8.466  72.671  1.00  0.00    -0.563 NA 
HETATM   25  C   UNL     1     -11.108   7.961  70.503  1.00  0.00    -0.256 C  
HETATM   26  H   UNL     1     -10.056   6.915  68.451  1.00  0.00     0.000 HD 
HETATM   27  H1  UNL     1     -11.845   7.653  73.052  1.00  0.00     0.000 HD 
HETATM   28  C   UNL     1     -10.357   8.641  69.318  1.00  0.00    -0.221 C  
HETATM   29  H2  UNL     1     -13.276   8.264  72.350  1.00  0.00     0.000 HD 
HETATM   30  O   UNL     1     -10.398   7.757  68.173  1.00  0.00    -0.197 OA 
BRANCH  25  31
HETATM   31  O   UNL     1     -10.240   6.883  70.975  1.00  0.00    -0.197 OA 
BRANCH  31  32
HETATM   32  C   UNL     1     -10.838   5.580  70.994  1.00  0.00    -0.173 C  
HETATM   33  O   UNL     1     -10.351   4.736  69.944  1.00  0.00    -0.238 OA 
HETATM   34  C   UNL     1      -8.972   4.368  70.114  1.00  0.00    -0.088 C  
HETATM   35  C   UNL     1      -8.782   3.585  71.422  1.00  0.00    -0.085 C  
HETATM   36  H   UNL     1     -11.035   5.375  74.279  1.00  0.00     0.000 HD 
HETATM   37  C   UNL     1      -9.238   4.440  72.621  1.00  0.00    -0.125 C  
HETATM   38  H1  UNL     1      -9.393   4.247  74.679  1.00  0.00     0.000 HD 
HETATM   39  O   UNL     1      -7.429   3.159  71.607  1.00  0.00    -0.045 OA 
HETATM   40  H   UNL     1      -7.311   2.676  72.416  1.00  0.00     0.000 HD 
HETATM   41  H2  UNL     1      -8.142   3.330  74.010  1.00  0.00     0.000 HD 
HETATM   42  C   UNL     1     -10.683   4.910  72.384  1.00  0.00    -0.175 C  
HETATM   43  N   UNL     1      -9.091   3.681  73.886  1.00  0.00    -0.090 NA 
HETATM   44  O   UNL     1     -11.130   5.785  73.427  1.00  0.00    -0.254 OA 
BRANCH  34  45
HETATM   45  C   UNL     1      -8.551   3.505  68.916  1.00  0.00    -0.086 C  
HETATM   46  O   UNL     1      -8.407   2.138  69.302  1.00  0.00    -0.047 OA 
HETATM   47  H   UNL     1      -8.146   1.604  68.560  1.00  0.00     0.000 HD 
ENDBRANCH  34  45
ENDBRANCH  31  32
ENDBRANCH  25  31
ENDBRANCH  16  17
ENDBRANCH   7  16
ENDBRANCH   2   5
TORSDOF 6
ENDMDL
MODEL      172
REMARK 921   NORMALIZED FREE ENERGY PREDICTED BY IDOCK:   -5.02 KCAL/MOL
REMARK 922        TOTAL FREE ENERGY PREDICTED BY IDOCK:   -7.83 KCAL/MOL
REMARK 923 INTER-LIGAND FREE ENERGY PREDICTED BY IDOCK:   -6.83 KCAL/MOL
REMARK 924 INTRA-LIGAND FREE ENERGY PREDICTED BY IDOCK:   -1.00 KCAL/MOL
REMARK 927      BINDING AFFINITY PREDICTED BY RF-SCORE:    0.00 PKD
ROOT
HETATM    1  N   UNL     1      -9.749   4.083  70.632  1.00  0.00    -0.196 NA 
HETATM    2  C   UNL     1     -10.458   5.349  70.392  1.00  0.00    -0.275 C  
HETATM    3  H2  UNL     1     -10.020   3.672  71.525  1.00  0.00     0.000 HD 
HETATM    4  H1  UNL     1      -9.874   3.420  69.868  1.00  0.00     0.000 HD 
ENDROOT
BRANCH   2   5
HETATM    5  C   UNL     1     -10.266   6.357  71.553  1.00  0.00    -0.194 C  
HETATM    6  O   UNL     1      -9.848   7.650  71.090  1.00  0.00    -0.173 OA 
HETATM    7  C   UNL     1     -10.826   8.373  70.359  1.00  0.00    -0.235 C  
HETATM    8  C   UNL     1     -12.074   8.643  71.261  1.00  0.00    -0.290 C  
HETATM    9  C   UNL     1     -11.512   6.460  72.455  1.00  0.00    -0.247 C  
HETATM   10  N   UNL     1     -11.778   9.556  72.387  1.00  0.00     0.265 NA 
HETATM   11  C   UNL     1     -12.613   7.308  71.808  1.00  0.00    -0.376 C  
HETATM   12  H   UNL     1     -11.881   7.109  74.258  1.00  0.00     0.000 HD 
HETATM   13  H1  UNL     1     -12.592   9.732  72.976  1.00  0.00     0.000 HD 
HETATM   14  H2  UNL     1     -11.372  10.429  72.053  1.00  0.00     0.000 HD 
HETATM   15  O   UNL     1     -11.113   7.045  73.702  1.00  0.00    -0.174 OA 
BRANCH   7  16
HETATM   16  O   UNL     1     -10.282   9.623  69.902  1.00  0.00    -0.212 OA 
BRANCH  16  17
HETATM   17  C   UNL     1     -11.111  10.407  68.996  1.00  0.00    -0.248 C  
HETATM   18  N   UNL     1     -10.976   8.778  67.124  1.00  0.00    -0.328 NA 
HETATM   19  C   UNL     1     -11.634  11.047  66.606  1.00  0.00     0.377 C  
HETATM   20  H1  UNL     1     -10.750   8.630  66.141  1.00  0.00     0.000 HD 
HETATM   21  H2  UNL     1     -11.922   8.466  67.343  1.00  0.00     0.000 HD 
HETATM   22  C   UNL     1     -11.476  12.532  66.932  1.00  0.00    -0.353 C  
HETATM   23  C   UNL     1     -10.768  10.183  67.509  1.00  0.00    -0.290 C  
HETATM   24  N   UNL     1     -12.261  13.253  65.915  1.00  0.00    -0.437 NA 
HETATM   25  C   UNL     1     -11.910  12.849  68.398  1.00  0.00    -0.318 C  
HETATM   26  H   UNL     1     -11.937  12.880  70.929  1.00  0.00     0.000 HD 
HETATM   27  H1  UNL     1     -12.155  14.243  66.133  1.00  0.00     0.000 HD 
HETATM   28  C   UNL     1     -11.193  11.904  69.409  1.00  0.00    -0.211 C  
HETATM   29  H2  UNL     1     -13.234  12.948  65.859  1.00  0.00     0.000 HD 
HETATM   30  O   UNL     1     -11.887  11.966  70.677  1.00  0.00    -0.280 OA 
BRANCH  25  31
HETATM   31  O   UNL     1     -11.583  14.214  68.808  1.00  0.00    -0.285 OA 
BRANCH  31  32
HETATM   32  C   UNL     1     -10.209  14.588  68.647  1.00  0.00    -0.243 C  
HETATM   33  O   UNL     1      -9.848  14.783  67.274  1.00  0.00    -0.227 OA 
HETATM   34  C   UNL     1     -10.478  15.934  66.687  1.00  0.00    -0.306 C  
HETATM   35  C   UNL     1     -10.062  17.213  67.431  1.00  0.00    -0.301 C  
HETATM   36  H   UNL     1     -10.053  16.394  71.401  1.00  0.00     0.000 HD 
HETATM   37  C   UNL     1     -10.457  17.112  68.917  1.00  0.00    -0.346 C  
HETATM   38  H1  UNL     1     -10.290  18.260  70.635  1.00  0.00     0.000 HD 
HETATM   39  O   UNL     1     -10.632  18.388  66.848  1.00  0.00    -0.386 OA 
HETATM   40  H   UNL     1     -10.375  19.178  67.308  1.00  0.00     0.000 HD 
HETATM   41  H2  UNL     1     -10.389  19.178  69.220  1.00  0.00     0.000 HD 
HETATM   42  C   UNL     1      -9.858  15.827  69.512  1.00  0.00    -0.283 C  
HETATM   43  N   UNL     1     -10.028  18.327  69.652  1.00  0.00     0.229 NA 
HETATM   44  O   UNL     1     -10.268  15.635  70.872  1.00  0.00     0.146 OA 
BRANCH  34  45
HETATM   45  C   UNL     1     -10.054  16.018  65.214  1.00  0.00    -0.123 C  
HETATM   46  O   UNL     1      -9.906  14.713  64.655  1.00  0.00    -0.508 OA 
HETATM   47  H   UNL     1      -9.644  14.764  63.743  1.00  0.00     0.000 HD 
ENDBRANCH  34  45
ENDBRANCH  31  32
ENDBRANCH  25  31
ENDBRANCH  16  17
ENDBRANCH   7  16
ENDBRANCH   2   5
TORSDOF 6
ENDMDL
MODEL      173
REMARK 921   NORMALIZED FREE ENERGY PREDICTED BY IDOCK:   -5.01 KCAL/MOL
REMARK 922        TOTAL FREE ENERGY PREDICTED BY IDOCK:   -7.82 KCAL/MOL
REMARK 923 INTER-LIGAND FREE ENERGY PREDICTED BY IDOCK:   -7.08 KCAL/MOL
REMARK 924 INTRA-LIGAND FREE ENERGY PREDICTED BY IDOCK:   -0.74 KCAL/MOL
REMARK 927      BINDING AFFINITY PREDICTED BY RF-SCORE:    0.00 PKD
ROOT
HETATM    1  N   UNL     1     -12.233   6.729  71.202  1.00  0.00    -0.375 NA 
HETATM    2  C   UNL     1     -11.818   6.058  72.443  1.00  0.00    -0.231 C  
HETATM    3  H2  UNL     1     -12.098   6.123  70.394  1.00  0.00     0.000 HD 
HETATM    4  H1  UNL     1     -13.192   7.071  71.250  1.00  0.00     0.000 HD 
ENDROOT
BRANCH   2   5
HETATM    5  C   UNL     1     -10.360   5.538  72.371  1.00  0.00    -0.206 C  
HETATM    6  O   UNL     1      -9.552   6.304  71.464  1.00  0.00    -0.156 OA 
HETATM    7  C   UNL     1      -9.270   7.630  71.882  1.00  0.00    -0.134 C  
HETATM    8  C   UNL     1      -8.469   7.605  73.225  1.00  0.00    -0.160 C  
HETATM    9  C   UNL     1      -9.701   5.437  73.760  1.00  0.00    -0.153 C  
HETATM   10  N   UNL     1      -7.118   7.023  73.074  1.00  0.00    -0.073 NA 
HETATM   11  C   UNL     1      -9.259   6.810  74.281  1.00  0.00    -0.246 C  
HETATM   12  H   UNL     1      -8.160   4.503  74.510  1.00  0.00     0.000 HD 
HETATM   13  H1  UNL     1      -6.595   7.007  73.951  1.00  0.00     0.000 HD 
HETATM   14  H2  UNL     1      -6.592   7.502  72.344  1.00  0.00     0.000 HD 
HETATM   15  O   UNL     1      -8.567   4.566  73.654  1.00  0.00    -0.103 OA 
BRANCH   7  16
HETATM   16  O   UNL     1      -8.503   8.315  70.877  1.00  0.00    -0.118 OA 
BRANCH  16  17
HETATM   17  C   UNL     1      -8.948   8.166  69.497  1.00  0.00    -0.151 C  
HETATM   18  N   UNL     1      -7.467   6.231  69.006  1.00  0.00    -0.089 NA 
HETATM   19  C   UNL     1      -8.365   7.473  67.136  1.00  0.00    -0.121 C  
HETATM   20  H1  UNL     1      -6.752   5.843  68.392  1.00  0.00     0.000 HD 
HETATM   21  H2  UNL     1      -8.272   5.609  69.086  1.00  0.00     0.000 HD 
HETATM   22  C   UNL     1      -8.797   8.836  66.593  1.00  0.00    -0.131 C  
HETATM   23  C   UNL     1      -7.865   7.578  68.568  1.00  0.00    -0.122 C  
HETATM   24  N   UNL     1      -9.134   8.615  65.176  1.00  0.00    -0.426 NA 
HETATM   25  C   UNL     1      -9.969   9.442  67.427  1.00  0.00    -0.199 C  
HETATM   26  H   UNL     1     -11.258  10.442  69.363  1.00  0.00     0.000 HD 
HETATM   27  H1  UNL     1      -9.422   9.524  64.813  1.00  0.00     0.000 HD 
HETATM   28  C   UNL     1      -9.624   9.453  68.947  1.00  0.00    -0.155 C  
HETATM   29  H2  UNL     1      -9.826   7.879  65.031  1.00  0.00     0.000 HD 
HETATM   30  O   UNL     1     -10.844   9.656  69.699  1.00  0.00    -0.230 OA 
BRANCH  25  31
HETATM   31  O   UNL     1     -10.271  10.826  67.064  1.00  0.00    -0.200 OA 
BRANCH  31  32
HETATM   32  C   UNL     1      -9.524  11.345  65.956  1.00  0.00    -0.223 C  
HETATM   33  O   UNL     1     -10.342  11.586  64.804  1.00  0.00    -0.257 OA 
HETATM   34  C   UNL     1     -11.272  12.666  64.992  1.00  0.00    -0.296 C  
HETATM   35  C   UNL     1     -10.522  13.977  65.272  1.00  0.00    -0.382 C  
HETATM   36  H   UNL     1      -7.455  13.143  67.789  1.00  0.00     0.000 HD 
HETATM   37  C   UNL     1      -9.646  13.827  66.531  1.00  0.00    -0.285 C  
HETATM   38  H1  UNL     1      -8.312  14.977  67.625  1.00  0.00     0.000 HD 
HETATM   39  O   UNL     1     -11.411  15.088  65.420  1.00  0.00    -0.347 OA 
HETATM   40  H   UNL     1     -10.947  15.899  65.593  1.00  0.00     0.000 HD 
HETATM   41  H2  UNL     1      -9.507  15.887  66.852  1.00  0.00     0.000 HD 
HETATM   42  C   UNL     1      -8.722  12.610  66.361  1.00  0.00     0.088 C  
HETATM   43  N   UNL     1      -8.891  15.077  66.791  1.00  0.00    -0.256 NA 
HETATM   44  O   UNL     1      -7.946  12.368  67.541  1.00  0.00    -0.151 OA 
BRANCH  34  45
HETATM   45  C   UNL     1     -12.118  12.802  63.719  1.00  0.00    -0.517 C  
HETATM   46  O   UNL     1     -13.300  12.006  63.808  1.00  0.00    -0.681 OA 
HETATM   47  H   UNL     1     -13.823  12.090  63.020  1.00  0.00     0.000 HD 
ENDBRANCH  34  45
ENDBRANCH  31  32
ENDBRANCH  25  31
ENDBRANCH  16  17
ENDBRANCH   7  16
ENDBRANCH   2   5
TORSDOF 6
ENDMDL
MODEL      174
REMARK 921   NORMALIZED FREE ENERGY PREDICTED BY IDOCK:   -4.97 KCAL/MOL
REMARK 922        TOTAL FREE ENERGY PREDICTED BY IDOCK:   -7.77 KCAL/MOL
REMARK 923 INTER-LIGAND FREE ENERGY PREDICTED BY IDOCK:   -6.37 KCAL/MOL
REMARK 924 INTRA-LIGAND FREE ENERGY PREDICTED BY IDOCK:   -1.40 KCAL/MOL
REMARK 927      BINDING AFFINITY PREDICTED BY RF-SCORE:    0.00 PKD
ROOT
HETATM    1  N   UNL     1      -9.305  16.580  66.628  1.00  0.00    -0.241 NA 
HETATM    2  C   UNL     1      -9.073  15.235  66.082  1.00  0.00    -0.279 C  
HETATM    3  H2  UNL     1     -10.271  16.693  66.933  1.00  0.00     0.000 HD 
HETATM    4  H1  UNL     1      -8.653  16.811  67.377  1.00  0.00     0.000 HD 
ENDROOT
BRANCH   2   5
HETATM    5  C   UNL     1     -10.064  14.885  64.944  1.00  0.00    -0.165 C  
HETATM    6  O   UNL     1     -10.048  13.486  64.617  1.00  0.00    -0.344 OA 
HETATM    7  C   UNL     1     -10.581  12.629  65.614  1.00  0.00    -0.273 C  
HETATM    8  C   UNL     1     -12.085  12.975  65.865  1.00  0.00    -0.444 C  
HETATM    9  C   UNL     1     -11.496  15.376  65.236  1.00  0.00    -0.158 C  
HETATM   10  N   UNL     1     -12.943  12.679  64.697  1.00  0.00    -0.844 NA 
HETATM   11  C   UNL     1     -12.215  14.464  66.237  1.00  0.00    -0.366 C  
HETATM   12  H   UNL     1     -13.100  15.713  64.178  1.00  0.00     0.000 HD 
HETATM   13  H1  UNL     1     -13.924  12.905  64.862  1.00  0.00     0.000 HD 
HETATM   14  H2  UNL     1     -12.835  11.709  64.401  1.00  0.00     0.000 HD 
HETATM   15  O   UNL     1     -12.217  15.410  63.998  1.00  0.00    -0.629 OA 
BRANCH   7  16
HETATM   16  O   UNL     1     -10.465  11.257  65.202  1.00  0.00    -0.275 OA 
BRANCH  16  17
HETATM   17  C   UNL     1      -9.147  10.811  64.766  1.00  0.00    -0.200 C  
HETATM   18  N   UNL     1      -9.534  11.325  62.365  1.00  0.00    -0.524 NA 
HETATM   19  C   UNL     1      -7.747   9.795  62.922  1.00  0.00    -0.127 C  
HETATM   20  H1  UNL     1      -9.524  10.973  61.408  1.00  0.00     0.000 HD 
HETATM   21  H2  UNL     1      -8.960  12.163  62.464  1.00  0.00     0.000 HD 
HETATM   22  C   UNL     1      -7.248   8.695  63.859  1.00  0.00    -0.096 C  
HETATM   23  C   UNL     1      -9.133  10.278  63.318  1.00  0.00    -0.265 C  
HETATM   24  N   UNL     1      -5.967   8.236  63.295  1.00  0.00    -0.072 NA 
HETATM   25  C   UNL     1      -7.136   9.201  65.332  1.00  0.00    -0.081 C  
HETATM   26  H   UNL     1      -7.794  10.064  67.620  1.00  0.00     0.000 HD 
HETATM   27  H1  UNL     1      -5.635   7.502  63.920  1.00  0.00     0.000 HD 
HETATM   28  C   UNL     1      -8.468   9.866  65.796  1.00  0.00    -0.135 C  
HETATM   29  H2  UNL     1      -5.292   8.987  63.151  1.00  0.00     0.000 HD 
HETATM   30  O   UNL     1      -8.209  10.641  66.990  1.00  0.00    -0.120 OA 
BRANCH  25  31
HETATM   31  O   UNL     1      -6.859   8.127  66.285  1.00  0.00    -0.057 OA 
BRANCH  31  32
HETATM   32  C   UNL     1      -7.805   7.050  66.284  1.00  0.00    -0.104 C  
HETATM   33  O   UNL     1      -7.402   5.964  65.439  1.00  0.00    -0.072 OA 
HETATM   34  C   UNL     1      -6.246   5.267  65.934  1.00  0.00    -0.034 C  
HETATM   35  C   UNL     1      -6.537   4.657  67.314  1.00  0.00    -0.047 C  
HETATM   36  H   UNL     1      -8.651   7.375  69.454  1.00  0.00     0.000 HD 
HETATM   37  C   UNL     1      -6.934   5.765  68.309  1.00  0.00    -0.069 C  
HETATM   38  H1  UNL     1      -7.513   5.917  70.294  1.00  0.00     0.000 HD 
HETATM   39  O   UNL     1      -5.425   3.915  67.823  1.00  0.00    -0.015 OA 
HETATM   40  H   UNL     1      -5.604   3.538  68.676  1.00  0.00     0.000 HD 
HETATM   41  H2  UNL     1      -6.485   4.611  69.991  1.00  0.00     0.000 HD 
HETATM   42  C   UNL     1      -8.110   6.568  67.727  1.00  0.00    -0.115 C  
HETATM   43  N   UNL     1      -7.250   5.183  69.636  1.00  0.00    -0.055 NA 
HETATM   44  O   UNL     1      -8.464   7.670  68.571  1.00  0.00    -0.128 OA 
BRANCH  34  45
HETATM   45  C   UNL     1      -5.884   4.161  64.933  1.00  0.00    -0.022 C  
HETATM   46  O   UNL     1      -5.483   4.722  63.683  1.00  0.00    -0.012 OA 
HETATM   47  H   UNL     1      -5.259   4.038  63.063  1.00  0.00     0.000 HD 
ENDBRANCH  34  45
ENDBRANCH  31  32
ENDBRANCH  25  31
ENDBRANCH  16  17
ENDBRANCH   7  16
ENDBRANCH   2   5
TORSDOF 6
ENDMDL
MODEL      175
REMARK 921   NORMALIZED FREE ENERGY PREDICTED BY IDOCK:   -4.96 KCAL/MOL
REMARK 922        TOTAL FREE ENERGY PREDICTED BY IDOCK:   -7.76 KCAL/MOL
REMARK 923 INTER-LIGAND FREE ENERGY PREDICTED BY IDOCK:   -7.35 KCAL/MOL
REMARK 924 INTRA-LIGAND FREE ENERGY PREDICTED BY IDOCK:   -0.41 KCAL/MOL
REMARK 927      BINDING AFFINITY PREDICTED BY RF-SCORE:    0.00 PKD
ROOT
HETATM    1  N   UNL     1     -10.783  19.322  65.415  1.00  0.00    -0.454 NA 
HETATM    2  C   UNL     1      -9.841  18.510  66.199  1.00  0.00    -0.283 C  
HETATM    3  H2  UNL     1     -10.302  20.077  64.928  1.00  0.00     0.000 HD 
HETATM    4  H1  UNL     1     -11.333  18.758  64.768  1.00  0.00     0.000 HD 
ENDROOT
BRANCH   2   5
HETATM    5  C   UNL     1      -9.005  19.367  67.182  1.00  0.00    -0.297 C  
HETATM    6  O   UNL     1      -8.619  18.633  68.355  1.00  0.00    -0.319 OA 
HETATM    7  C   UNL     1      -7.670  17.602  68.134  1.00  0.00    -0.244 C  
HETATM    8  C   UNL     1      -6.343  18.210  67.575  1.00  0.00    -0.176 C  
HETATM    9  C   UNL     1      -7.785  20.021  66.504  1.00  0.00    -0.298 C  
HETATM   10  N   UNL     1      -5.652  19.075  68.557  1.00  0.00    -0.195 NA 
HETATM   11  C   UNL     1      -6.643  19.018  66.298  1.00  0.00    -0.228 C  
HETATM   12  H   UNL     1      -6.589  21.508  66.913  1.00  0.00     0.000 HD 
HETATM   13  H1  UNL     1      -4.786  19.472  68.192  1.00  0.00     0.000 HD 
HETATM   14  H2  UNL     1      -5.487  18.576  69.430  1.00  0.00     0.000 HD 
HETATM   15  O   UNL     1      -7.342  21.104  67.331  1.00  0.00    -0.427 OA 
BRANCH   7  16
HETATM   16  O   UNL     1      -7.400  16.904  69.362  1.00  0.00    -0.198 OA 
BRANCH  16  17
HETATM   17  C   UNL     1      -7.463  15.448  69.316  1.00  0.00    -0.207 C  
HETATM   18  N   UNL     1      -5.685  15.109  71.020  1.00  0.00    -0.039 NA 
HETATM   19  C   UNL     1      -6.224  13.257  69.562  1.00  0.00    -0.115 C  
HETATM   20  H1  UNL     1      -4.797  14.661  71.244  1.00  0.00     0.000 HD 
HETATM   21  H2  UNL     1      -6.404  14.884  71.709  1.00  0.00     0.000 HD 
HETATM   22  C   UNL     1      -6.666  12.812  68.167  1.00  0.00    -0.092 C  
HETATM   23  C   UNL     1      -6.118  14.771  69.655  1.00  0.00    -0.121 C  
HETATM   24  N   UNL     1      -6.606  11.340  68.178  1.00  0.00    -0.057 NA 
HETATM   25  C   UNL     1      -8.074  13.378  67.801  1.00  0.00    -0.173 C  
HETATM   26  H   UNL     1      -9.919  15.018  67.239  1.00  0.00     0.000 HD 
HETATM   27  H1  UNL     1      -6.900  11.043  67.247  1.00  0.00     0.000 HD 
HETATM   28  C   UNL     1      -8.127  14.922  68.014  1.00  0.00    -0.136 C  
HETATM   29  H2  UNL     1      -7.147  10.915  68.932  1.00  0.00     0.000 HD 
HETATM   30  O   UNL     1      -9.512  15.341  68.035  1.00  0.00    -0.196 OA 
BRANCH  25  31
HETATM   31  O   UNL     1      -8.438  13.142  66.405  1.00  0.00     0.150 OA 
BRANCH  31  32
HETATM   32  C   UNL     1      -9.409  12.110  66.192  1.00  0.00    -0.195 C  
HETATM   33  O   UNL     1     -10.025  11.674  67.411  1.00  0.00    -0.182 OA 
HETATM   34  C   UNL     1     -10.869  12.676  68.002  1.00  0.00    -0.225 C  
HETATM   35  C   UNL     1     -12.014  13.047  67.047  1.00  0.00    -0.347 C  
HETATM   36  H   UNL     1     -10.480  13.278  63.301  1.00  0.00     0.000 HD 
HETATM   37  C   UNL     1     -11.442  13.576  65.718  1.00  0.00    -0.315 C  
HETATM   38  H1  UNL     1     -12.159  14.256  63.895  1.00  0.00     0.000 HD 
HETATM   39  O   UNL     1     -12.904  14.010  67.618  1.00  0.00    -0.064 OA 
HETATM   40  H   UNL     1     -13.611  14.240  67.028  1.00  0.00     0.000 HD 
HETATM   41  H2  UNL     1     -13.208  14.555  65.185  1.00  0.00     0.000 HD 
HETATM   42  C   UNL     1     -10.465  12.538  65.139  1.00  0.00    -0.293 C  
HETATM   43  N   UNL     1     -12.538  13.905  64.775  1.00  0.00    -0.654 NA 
HETATM   44  O   UNL     1      -9.833  13.016  63.946  1.00  0.00    -0.220 OA 
BRANCH  34  45
HETATM   45  C   UNL     1     -11.435  12.116  69.315  1.00  0.00    -0.302 C  
HETATM   46  O   UNL     1     -11.347  13.085  70.359  1.00  0.00    -0.441 OA 
HETATM   47  H   UNL     1     -11.698  12.739  71.171  1.00  0.00     0.000 HD 
ENDBRANCH  34  45
ENDBRANCH  31  32
ENDBRANCH  25  31
ENDBRANCH  16  17
ENDBRANCH   7  16
ENDBRANCH   2   5
TORSDOF 6
ENDMDL
MODEL      176
REMARK 921   NORMALIZED FREE ENERGY PREDICTED BY IDOCK:   -4.96 KCAL/MOL
REMARK 922        TOTAL FREE ENERGY PREDICTED BY IDOCK:   -7.75 KCAL/MOL
REMARK 923 INTER-LIGAND FREE ENERGY PREDICTED BY IDOCK:   -6.67 KCAL/MOL
REMARK 924 INTRA-LIGAND FREE ENERGY PREDICTED BY IDOCK:   -1.08 KCAL/MOL
REMARK 927      BINDING AFFINITY PREDICTED BY RF-SCORE:    0.00 PKD
ROOT
HETATM    1  N   UNL     1      -6.742  19.657  64.940  1.00  0.00    -0.388 NA 
HETATM    2  C   UNL     1      -7.454  19.945  66.194  1.00  0.00    -0.311 C  
HETATM    3  H2  UNL     1      -7.257  20.013  64.134  1.00  0.00     0.000 HD 
HETATM    4  H1  UNL     1      -5.785  20.007  64.950  1.00  0.00     0.000 HD 
ENDROOT
BRANCH   2   5
HETATM    5  C   UNL     1      -8.909  19.413  66.179  1.00  0.00    -0.283 C  
HETATM    6  O   UNL     1      -8.969  17.995  65.954  1.00  0.00    -0.506 OA 
HETATM    7  C   UNL     1      -8.476  17.196  67.018  1.00  0.00    -0.211 C  
HETATM    8  C   UNL     1      -9.324  17.445  68.308  1.00  0.00    -0.278 C  
HETATM    9  C   UNL     1      -9.697  19.814  67.441  1.00  0.00    -0.373 C  
HETATM   10  N   UNL     1     -10.720  16.973  68.174  1.00  0.00    -0.371 NA 
HETATM   11  C   UNL     1      -9.318  18.947  68.647  1.00  0.00    -0.415 C  
HETATM   12  H   UNL     1     -11.581  19.922  67.936  1.00  0.00     0.000 HD 
HETATM   13  H1  UNL     1     -11.273  17.135  69.016  1.00  0.00     0.000 HD 
HETATM   14  H2  UNL     1     -10.749  15.991  67.900  1.00  0.00     0.000 HD 
HETATM   15  O   UNL     1     -11.095  19.675  67.158  1.00  0.00    -0.420 OA 
BRANCH   7  16
HETATM   16  O   UNL     1      -8.537  15.804  66.662  1.00  0.00    -0.235 OA 
BRANCH  16  17
HETATM   17  C   UNL     1      -7.889  14.866  67.571  1.00  0.00    -0.185 C  
HETATM   18  N   UNL     1      -5.630  15.877  67.342  1.00  0.00    -0.302 NA 
HETATM   19  C   UNL     1      -5.779  13.619  68.193  1.00  0.00    -0.116 C  
HETATM   20  H1  UNL     1      -4.647  15.719  67.124  1.00  0.00     0.000 HD 
HETATM   21  H2  UNL     1      -5.747  16.317  68.255  1.00  0.00     0.000 HD 
HETATM   22  C   UNL     1      -6.517  12.280  68.149  1.00  0.00    -0.062 C  
HETATM   23  C   UNL     1      -6.401  14.628  67.240  1.00  0.00     0.353 C  
HETATM   24  N   UNL     1      -5.745  11.368  69.011  1.00  0.00    -0.043 NA 
HETATM   25  C   UNL     1      -8.010  12.432  68.578  1.00  0.00    -0.110 C  
HETATM   26  H   UNL     1     -10.445  13.126  68.556  1.00  0.00     0.000 HD 
HETATM   27  H1  UNL     1      -6.237  10.475  68.982  1.00  0.00     0.000 HD 
HETATM   28  C   UNL     1      -8.712  13.562  67.766  1.00  0.00    -0.189 C  
HETATM   29  H2  UNL     1      -5.601  11.724  69.957  1.00  0.00     0.000 HD 
HETATM   30  O   UNL     1      -9.942  13.923  68.437  1.00  0.00    -0.225 OA 
BRANCH  25  31
HETATM   31  O   UNL     1      -8.794  11.218  68.355  1.00  0.00    -0.149 OA 
BRANCH  31  32
HETATM   32  C   UNL     1      -9.309  11.057  67.027  1.00  0.00    -0.172 C  
HETATM   33  O   UNL     1      -8.288  10.725  66.077  1.00  0.00    -0.156 OA 
HETATM   34  C   UNL     1      -7.738   9.412  66.281  1.00  0.00    -0.097 C  
HETATM   35  C   UNL     1      -8.832   8.343  66.132  1.00  0.00    -0.165 C  
HETATM   36  H   UNL     1     -12.176   9.725  67.961  1.00  0.00     0.000 HD 
HETATM   37  C   UNL     1      -9.958   8.594  67.155  1.00  0.00    -0.231 C  
HETATM   38  H1  UNL     1     -11.781   7.753  67.674  1.00  0.00     0.000 HD 
HETATM   39  O   UNL     1      -8.317   7.017  66.283  1.00  0.00    -0.117 OA 
HETATM   40  H   UNL     1      -8.993   6.356  66.191  1.00  0.00     0.000 HD 
HETATM   41  H2  UNL     1     -10.677   6.635  67.054  1.00  0.00     0.000 HD 
HETATM   42  C   UNL     1     -10.474  10.034  66.994  1.00  0.00    -0.238 C  
HETATM   43  N   UNL     1     -11.036   7.588  66.997  1.00  0.00    -0.211 NA 
HETATM   44  O   UNL     1     -11.463  10.352  67.981  1.00  0.00    -0.356 OA 
BRANCH  34  45
HETATM   45  C   UNL     1      -6.633   9.185  65.240  1.00  0.00    -0.069 C  
HETATM   46  O   UNL     1      -5.576   8.397  65.788  1.00  0.00    -0.038 OA 
HETATM   47  H   UNL     1      -4.892   8.256  65.144  1.00  0.00     0.000 HD 
ENDBRANCH  34  45
ENDBRANCH  31  32
ENDBRANCH  25  31
ENDBRANCH  16  17
ENDBRANCH   7  16
ENDBRANCH   2   5
TORSDOF 6
ENDMDL
MODEL      177
REMARK 921   NORMALIZED FREE ENERGY PREDICTED BY IDOCK:   -4.93 KCAL/MOL
REMARK 922        TOTAL FREE ENERGY PREDICTED BY IDOCK:   -7.71 KCAL/MOL
REMARK 923 INTER-LIGAND FREE ENERGY PREDICTED BY IDOCK:   -6.29 KCAL/MOL
REMARK 924 INTRA-LIGAND FREE ENERGY PREDICTED BY IDOCK:   -1.41 KCAL/MOL
REMARK 927      BINDING AFFINITY PREDICTED BY RF-SCORE:    0.00 PKD
ROOT
HETATM    1  N   UNL     1      -9.955  14.111  68.560  1.00  0.00    -0.234 NA 
HETATM    2  C   UNL     1     -11.050  14.590  67.704  1.00  0.00    -0.304 C  
HETATM    3  H2  UNL     1      -9.119  14.683  68.444  1.00  0.00     0.000 HD 
HETATM    4  H1  UNL     1     -10.228  14.053  69.540  1.00  0.00     0.000 HD 
ENDROOT
BRANCH   2   5
HETATM    5  C   UNL     1     -10.634  14.678  66.214  1.00  0.00    -0.306 C  
HETATM    6  O   UNL     1     -10.117  13.433  65.716  1.00  0.00    -0.289 OA 
HETATM    7  C   UNL     1     -11.072  12.391  65.595  1.00  0.00    -0.306 C  
HETATM    8  C   UNL     1     -12.188  12.807  64.582  1.00  0.00    -0.447 C  
HETATM    9  C   UNL     1     -11.767  15.213  65.316  1.00  0.00    -0.135 C  
HETATM   10  N   UNL     1     -11.683  12.941  63.198  1.00  0.00    -0.844 NA 
HETATM   11  C   UNL     1     -12.821  14.138  65.030  1.00  0.00    -0.249 C  
HETATM   12  H   UNL     1     -11.884  15.998  63.533  1.00  0.00     0.000 HD 
HETATM   13  H1  UNL     1     -12.412  13.213  62.536  1.00  0.00     0.000 HD 
HETATM   14  H2  UNL     1     -11.215  12.088  62.896  1.00  0.00     0.000 HD 
HETATM   15  O   UNL     1     -11.185  15.668  64.087  1.00  0.00    -0.190 OA 
BRANCH   7  16
HETATM   16  O   UNL     1     -10.435  11.185  65.141  1.00  0.00    -0.276 OA 
BRANCH  16  17
HETATM   17  C   UNL     1      -9.086  10.932  65.629  1.00  0.00    -0.204 C  
HETATM   18  N   UNL     1      -8.027  11.031  63.383  1.00  0.00    -0.327 NA 
HETATM   19  C   UNL     1      -6.805   9.944  65.164  1.00  0.00    -0.124 C  
HETATM   20  H1  UNL     1      -7.434  10.558  62.701  1.00  0.00     0.000 HD 
HETATM   21  H2  UNL     1      -7.678  11.965  63.601  1.00  0.00     0.000 HD 
HETATM   22  C   UNL     1      -6.876   9.093  66.433  1.00  0.00    -0.079 C  
HETATM   23  C   UNL     1      -8.189  10.216  64.598  1.00  0.00    -0.165 C  
HETATM   24  N   UNL     1      -5.480   8.802  66.800  1.00  0.00    -0.039 NA 
HETATM   25  C   UNL     1      -7.684   9.809  67.561  1.00  0.00    -0.095 C  
HETATM   26  H   UNL     1      -9.614  10.844  68.831  1.00  0.00     0.000 HD 
HETATM   27  H1  UNL     1      -5.527   8.234  67.646  1.00  0.00     0.000 HD 
HETATM   28  C   UNL     1      -9.076  10.277  67.039  1.00  0.00    -0.139 C  
HETATM   29  H2  UNL     1      -4.901   9.637  66.901  1.00  0.00     0.000 HD 
HETATM   30  O   UNL     1      -9.620  11.244  67.969  1.00  0.00    -0.169 OA 
BRANCH  25  31
HETATM   31  O   UNL     1      -7.945   8.945  68.712  1.00  0.00    -0.099 OA 
BRANCH  31  32
HETATM   32  C   UNL     1      -8.762   7.799  68.443  1.00  0.00    -0.127 C  
HETATM   33  O   UNL     1      -7.989   6.623  68.169  1.00  0.00    -0.108 OA 
HETATM   34  C   UNL     1      -7.274   6.142  69.319  1.00  0.00    -0.082 C  
HETATM   35  C   UNL     1      -8.253   5.765  70.442  1.00  0.00    -0.107 C  
HETATM   36  H   UNL     1     -11.142   8.605  70.577  1.00  0.00     0.000 HD 
HETATM   37  C   UNL     1      -9.099   6.990  70.838  1.00  0.00    -0.153 C  
HETATM   38  H1  UNL     1     -10.632   7.439  72.160  1.00  0.00     0.000 HD 
HETATM   39  O   UNL     1      -7.582   5.237  71.590  1.00  0.00    -0.096 OA 
HETATM   40  H   UNL     1      -8.187   5.004  72.284  1.00  0.00     0.000 HD 
HETATM   41  H2  UNL     1      -9.614   6.206  72.705  1.00  0.00     0.000 HD 
HETATM   42  C   UNL     1      -9.785   7.557  69.584  1.00  0.00    -0.167 C  
HETATM   43  N   UNL     1     -10.072   6.628  71.898  1.00  0.00    -0.182 NA 
HETATM   44  O   UNL     1     -10.516   8.754  69.878  1.00  0.00    -0.211 OA 
BRANCH  34  45
HETATM   45  C   UNL     1      -6.454   4.915  68.898  1.00  0.00    -0.036 C  
HETATM   46  O   UNL     1      -5.309   4.759  69.736  1.00  0.00    -0.006 OA 
HETATM   47  H   UNL     1      -4.801   3.999  69.476  1.00  0.00     0.000 HD 
ENDBRANCH  34  45
ENDBRANCH  31  32
ENDBRANCH  25  31
ENDBRANCH  16  17
ENDBRANCH   7  16
ENDBRANCH   2   5
TORSDOF 6
ENDMDL
MODEL      178
REMARK 921   NORMALIZED FREE ENERGY PREDICTED BY IDOCK:   -4.91 KCAL/MOL
REMARK 922        TOTAL FREE ENERGY PREDICTED BY IDOCK:   -7.69 KCAL/MOL
REMARK 923 INTER-LIGAND FREE ENERGY PREDICTED BY IDOCK:   -7.32 KCAL/MOL
REMARK 924 INTRA-LIGAND FREE ENERGY PREDICTED BY IDOCK:   -0.37 KCAL/MOL
REMARK 927      BINDING AFFINITY PREDICTED BY RF-SCORE:    0.00 PKD
ROOT
HETATM    1  N   UNL     1      -6.480   6.753  69.932  1.00  0.00    -0.042 NA 
HETATM    2  C   UNL     1      -7.072   6.045  71.077  1.00  0.00    -0.069 C  
HETATM    3  H2  UNL     1      -5.738   7.384  70.232  1.00  0.00     0.000 HD 
HETATM    4  H1  UNL     1      -6.150   6.112  69.212  1.00  0.00     0.000 HD 
ENDROOT
BRANCH   2   5
HETATM    5  C   UNL     1      -7.575   7.020  72.172  1.00  0.00    -0.091 C  
HETATM    6  O   UNL     1      -8.733   7.759  71.755  1.00  0.00    -0.112 OA 
HETATM    7  C   UNL     1      -9.918   6.991  71.613  1.00  0.00    -0.178 C  
HETATM    8  C   UNL     1     -10.309   6.356  72.988  1.00  0.00    -0.214 C  
HETATM    9  C   UNL     1      -7.815   6.316  73.523  1.00  0.00    -0.097 C  
HETATM   10  N   UNL     1     -10.701   7.366  73.994  1.00  0.00    -0.533 NA 
HETATM   11  C   UNL     1      -9.129   5.525  73.525  1.00  0.00    -0.128 C  
HETATM   12  H   UNL     1      -7.992   6.882  75.381  1.00  0.00     0.000 HD 
HETATM   13  H1  UNL     1     -10.956   6.952  74.891  1.00  0.00     0.000 HD 
HETATM   14  H2  UNL     1     -11.449   7.963  73.641  1.00  0.00     0.000 HD 
HETATM   15  O   UNL     1      -7.844   7.316  74.549  1.00  0.00    -0.134 OA 
BRANCH   7  16
HETATM   16  O   UNL     1     -10.994   7.821  71.144  1.00  0.00    -0.234 OA 
BRANCH  16  17
HETATM   17  C   UNL     1     -11.041   8.085  69.711  1.00  0.00    -0.064 C  
HETATM   18  N   UNL     1     -10.791   5.702  69.050  1.00  0.00    -0.242 NA 
HETATM   19  C   UNL     1     -10.298   7.394  67.395  1.00  0.00    -0.340 C  
HETATM   20  H1  UNL     1     -10.267   5.024  68.498  1.00  0.00     0.000 HD 
HETATM   21  H2  UNL     1     -11.788   5.668  68.838  1.00  0.00     0.000 HD 
HETATM   22  C   UNL     1      -9.744   8.792  67.118  1.00  0.00    -0.191 C  
HETATM   23  C   UNL     1     -10.247   7.059  68.876  1.00  0.00    -0.180 C  
HETATM   24  N   UNL     1      -9.734   8.938  65.652  1.00  0.00    -0.470 NA 
HETATM   25  C   UNL     1     -10.571   9.895  67.850  1.00  0.00    -0.254 C  
HETATM   26  H   UNL     1     -11.584  11.285  69.708  1.00  0.00     0.000 HD 
HETATM   27  H1  UNL     1      -9.364   9.870  65.468  1.00  0.00     0.000 HD 
HETATM   28  C   UNL     1     -10.718   9.566  69.367  1.00  0.00    -0.225 C  
HETATM   29  H2  UNL     1     -10.642   8.766  65.219  1.00  0.00     0.000 HD 
HETATM   30  O   UNL     1     -11.781  10.380  69.918  1.00  0.00    -0.258 OA 
BRANCH  25  31
HETATM   31  O   UNL     1      -9.952  11.218  67.774  1.00  0.00    -0.172 OA 
BRANCH  31  32
HETATM   32  C   UNL     1      -9.400  11.562  66.497  1.00  0.00    -0.197 C  
HETATM   33  O   UNL     1     -10.408  11.787  65.504  1.00  0.00    -0.242 OA 
HETATM   34  C   UNL     1     -11.187  12.969  65.753  1.00  0.00    -0.289 C  
HETATM   35  C   UNL     1     -10.289  14.216  65.749  1.00  0.00    -0.325 C  
HETATM   36  H   UNL     1      -6.864  13.286  67.708  1.00  0.00     0.000 HD 
HETATM   37  C   UNL     1      -9.196  14.083  66.827  1.00  0.00    -0.265 C  
HETATM   38  H1  UNL     1      -7.579  15.178  67.522  1.00  0.00     0.000 HD 
HETATM   39  O   UNL     1     -11.034  15.420  65.948  1.00  0.00    -0.325 OA 
HETATM   40  H   UNL     1     -10.479  16.191  65.946  1.00  0.00     0.000 HD 
HETATM   41  H2  UNL     1      -8.823  16.137  66.902  1.00  0.00     0.000 HD 
HETATM   42  C   UNL     1      -8.430  12.767  66.610  1.00  0.00     0.056 C  
HETATM   43  N   UNL     1      -8.302  15.266  66.808  1.00  0.00    -0.245 NA 
HETATM   44  O   UNL     1      -7.458  12.547  67.639  1.00  0.00    -0.115 OA 
BRANCH  34  45
HETATM   45  C   UNL     1     -12.256  13.083  64.657  1.00  0.00    -0.421 C  
HETATM   46  O   UNL     1     -13.217  14.085  64.988  1.00  0.00    -0.720 OA 
HETATM   47  H   UNL     1     -13.878  14.156  64.310  1.00  0.00     0.000 HD 
ENDBRANCH  34  45
ENDBRANCH  31  32
ENDBRANCH  25  31
ENDBRANCH  16  17
ENDBRANCH   7  16
ENDBRANCH   2   5
TORSDOF 6
ENDMDL
MODEL      179
REMARK 921   NORMALIZED FREE ENERGY PREDICTED BY IDOCK:   -4.90 KCAL/MOL
REMARK 922        TOTAL FREE ENERGY PREDICTED BY IDOCK:   -7.67 KCAL/MOL
REMARK 923 INTER-LIGAND FREE ENERGY PREDICTED BY IDOCK:   -6.69 KCAL/MOL
REMARK 924 INTRA-LIGAND FREE ENERGY PREDICTED BY IDOCK:   -0.99 KCAL/MOL
REMARK 927      BINDING AFFINITY PREDICTED BY RF-SCORE:    0.00 PKD
ROOT
HETATM    1  N   UNL     1     -11.902   7.708  70.989  1.00  0.00    -0.305 NA 
HETATM    2  C   UNL     1     -11.468   6.838  72.092  1.00  0.00    -0.282 C  
HETATM    3  H2  UNL     1     -12.087   7.168  70.144  1.00  0.00     0.000 HD 
HETATM    4  H1  UNL     1     -12.707   8.281  71.243  1.00  0.00     0.000 HD 
ENDROOT
BRANCH   2   5
HETATM    5  C   UNL     1     -10.245   5.968  71.706  1.00  0.00    -0.202 C  
HETATM    6  O   UNL     1      -9.450   6.572  70.673  1.00  0.00    -0.165 OA 
HETATM    7  C   UNL     1      -8.747   7.742  71.061  1.00  0.00    -0.136 C  
HETATM    8  C   UNL     1      -7.741   7.402  72.209  1.00  0.00    -0.092 C  
HETATM    9  C   UNL     1      -9.384   5.588  72.926  1.00  0.00    -0.137 C  
HETATM   10  N   UNL     1      -6.651   6.506  71.767  1.00  0.00    -0.053 NA 
HETATM   11  C   UNL     1      -8.498   6.754  73.383  1.00  0.00    -0.132 C  
HETATM   12  H   UNL     1      -8.037   4.231  73.317  1.00  0.00     0.000 HD 
HETATM   13  H1  UNL     1      -5.994   6.285  72.516  1.00  0.00     0.000 HD 
HETATM   14  H2  UNL     1      -6.166   6.892  70.958  1.00  0.00     0.000 HD 
HETATM   15  O   UNL     1      -8.568   4.466  72.565  1.00  0.00    -0.107 OA 
BRANCH   7  16
HETATM   16  O   UNL     1      -8.032   8.285  69.939  1.00  0.00    -0.103 OA 
BRANCH  16  17
HETATM   17  C   UNL     1      -8.808   8.558  68.735  1.00  0.00    -0.139 C  
HETATM   18  N   UNL     1      -8.321   6.366  67.670  1.00  0.00    -0.117 NA 
HETATM   19  C   UNL     1      -9.093   8.166  66.254  1.00  0.00    -0.231 C  
HETATM   20  H1  UNL     1      -7.969   5.881  66.845  1.00  0.00     0.000 HD 
HETATM   21  H2  UNL     1      -9.259   6.049  67.920  1.00  0.00     0.000 HD 
HETATM   22  C   UNL     1      -9.095   9.671  65.981  1.00  0.00    -0.171 C  
HETATM   23  C   UNL     1      -8.273   7.825  67.487  1.00  0.00    -0.124 C  
HETATM   24  N   UNL     1      -9.809   9.848  64.705  1.00  0.00    -0.412 NA 
HETATM   25  C   UNL     1      -9.724  10.470  67.166  1.00  0.00    -0.171 C  
HETATM   26  H   UNL     1     -10.054  11.463  69.471  1.00  0.00     0.000 HD 
HETATM   27  H1  UNL     1      -9.810  10.851  64.523  1.00  0.00     0.000 HD 
HETATM   28  C   UNL     1      -9.058  10.077  68.520  1.00  0.00    -0.127 C  
HETATM   29  H2  UNL     1     -10.741   9.431  64.698  1.00  0.00     0.000 HD 
HETATM   30  O   UNL     1      -9.900  10.535  69.603  1.00  0.00    -0.186 OA 
BRANCH  25  31
HETATM   31  O   UNL     1      -9.558  11.916  67.031  1.00  0.00    -0.185 OA 
BRANCH  31  32
HETATM   32  C   UNL     1     -10.659  12.704  67.502  1.00  0.00    -0.221 C  
HETATM   33  O   UNL     1     -10.252  13.724  68.423  1.00  0.00    -0.238 OA 
HETATM   34  C   UNL     1      -9.466  14.757  67.805  1.00  0.00    -0.204 C  
HETATM   35  C   UNL     1     -10.275  15.464  66.707  1.00  0.00    -0.271 C  
HETATM   36  H   UNL     1     -12.333  12.632  64.662  1.00  0.00     0.000 HD 
HETATM   37  C   UNL     1     -10.718  14.446  65.639  1.00  0.00    -0.320 C  
HETATM   38  H1  UNL     1     -11.822  14.438  63.884  1.00  0.00     0.000 HD 
HETATM   39  O   UNL     1      -9.543  16.531  66.098  1.00  0.00    -0.290 OA 
HETATM   40  H   UNL     1     -10.043  16.968  65.419  1.00  0.00     0.000 HD 
HETATM   41  H2  UNL     1     -11.040  15.905  64.179  1.00  0.00     0.000 HD 
HETATM   42  C   UNL     1     -11.475  13.294  66.321  1.00  0.00    -0.325 C  
HETATM   43  N   UNL     1     -11.529  15.112  64.591  1.00  0.00    -0.392 NA 
HETATM   44  O   UNL     1     -11.833  12.271  65.385  1.00  0.00    -0.387 OA 
BRANCH  34  45
HETATM   45  C   UNL     1      -9.053  15.763  68.889  1.00  0.00    -0.225 C  
HETATM   46  O   UNL     1      -7.957  15.262  69.654  1.00  0.00    -0.238 OA 
HETATM   47  H   UNL     1      -7.702  15.884  70.325  1.00  0.00     0.000 HD 
ENDBRANCH  34  45
ENDBRANCH  31  32
ENDBRANCH  25  31
ENDBRANCH  16  17
ENDBRANCH   7  16
ENDBRANCH   2   5
TORSDOF 6
ENDMDL
MODEL      180
REMARK 921   NORMALIZED FREE ENERGY PREDICTED BY IDOCK:   -4.89 KCAL/MOL
REMARK 922        TOTAL FREE ENERGY PREDICTED BY IDOCK:   -7.66 KCAL/MOL
REMARK 923 INTER-LIGAND FREE ENERGY PREDICTED BY IDOCK:   -7.36 KCAL/MOL
REMARK 924 INTRA-LIGAND FREE ENERGY PREDICTED BY IDOCK:   -0.30 KCAL/MOL
REMARK 927      BINDING AFFINITY PREDICTED BY RF-SCORE:    0.00 PKD
ROOT
HETATM    1  N   UNL     1      -6.556  16.249  69.551  1.00  0.00    -0.202 NA 
HETATM    2  C   UNL     1      -7.513  15.394  68.833  1.00  0.00    -0.152 C  
HETATM    3  H2  UNL     1      -6.824  17.231  69.492  1.00  0.00     0.000 HD 
HETATM    4  H1  UNL     1      -6.431  15.959  70.521  1.00  0.00     0.000 HD 
ENDROOT
BRANCH   2   5
HETATM    5  C   UNL     1      -7.702  15.835  67.360  1.00  0.00    -0.183 C  
HETATM    6  O   UNL     1      -8.723  15.078  66.691  1.00  0.00    -0.265 OA 
HETATM    7  C   UNL     1     -10.046  15.320  67.143  1.00  0.00    -0.240 C  
HETATM    8  C   UNL     1     -10.423  16.819  66.905  1.00  0.00    -0.269 C  
HETATM    9  C   UNL     1      -7.949  17.350  67.225  1.00  0.00    -0.200 C  
HETATM   10  N   UNL     1     -10.507  17.167  65.470  1.00  0.00    -0.619 NA 
HETATM   11  C   UNL     1      -9.389  17.726  67.596  1.00  0.00    -0.250 C  
HETATM   12  H   UNL     1      -7.831  18.662  65.785  1.00  0.00     0.000 HD 
HETATM   13  H1  UNL     1     -10.753  18.145  65.315  1.00  0.00     0.000 HD 
HETATM   14  H2  UNL     1     -11.150  16.545  64.980  1.00  0.00     0.000 HD 
HETATM   15  O   UNL     1      -7.679  17.727  65.869  1.00  0.00    -0.501 OA 
BRANCH   7  16
HETATM   16  O   UNL     1     -10.973  14.473  66.442  1.00  0.00    -0.312 OA 
BRANCH  16  17
HETATM   17  C   UNL     1     -11.411  13.267  67.133  1.00  0.00    -0.317 C  
HETATM   18  N   UNL     1     -11.834  14.408  69.300  1.00  0.00    -0.307 NA 
HETATM   19  C   UNL     1     -11.567  12.006  69.319  1.00  0.00    -0.380 C  
HETATM   20  H1  UNL     1     -11.645  14.427  70.302  1.00  0.00     0.000 HD 
HETATM   21  H2  UNL     1     -12.835  14.379  69.108  1.00  0.00     0.000 HD 
HETATM   22  C   UNL     1     -10.871  10.789  68.707  1.00  0.00    -0.221 C  
HETATM   23  C   UNL     1     -11.124  13.296  68.649  1.00  0.00    -0.268 C  
HETATM   24  N   UNL     1     -11.289   9.635  69.521  1.00  0.00    -0.434 NA 
HETATM   25  C   UNL     1     -11.206  10.638  67.190  1.00  0.00    -0.100 C  
HETATM   26  H   UNL     1     -11.311  11.115  64.706  1.00  0.00     0.000 HD 
HETATM   27  H1  UNL     1     -10.824   8.824  69.113  1.00  0.00     0.000 HD 
HETATM   28  C   UNL     1     -10.936  11.969  66.423  1.00  0.00    -0.296 C  
HETATM   29  H2  UNL     1     -12.301   9.532  69.595  1.00  0.00     0.000 HD 
HETATM   30  O   UNL     1     -11.601  11.909  65.140  1.00  0.00    -0.303 OA 
BRANCH  25  31
HETATM   31  O   UNL     1     -10.403   9.611  66.528  1.00  0.00    -0.239 OA 
BRANCH  31  32
HETATM   32  C   UNL     1      -9.157   9.303  67.167  1.00  0.00    -0.130 C  
HETATM   33  O   UNL     1      -9.032   7.911  67.485  1.00  0.00    -0.126 OA 
HETATM   34  C   UNL     1      -8.915   7.077  66.319  1.00  0.00    -0.151 C  
HETATM   35  C   UNL     1      -7.661   7.452  65.514  1.00  0.00    -0.094 C  
HETATM   36  H   UNL     1      -7.380  11.496  65.465  1.00  0.00     0.000 HD 
HETATM   37  C   UNL     1      -7.731   8.930  65.085  1.00  0.00    -0.102 C  
HETATM   38  H1  UNL     1      -6.556  10.291  64.052  1.00  0.00     0.000 HD 
HETATM   39  O   UNL     1      -7.483   6.614  64.369  1.00  0.00    -0.081 OA 
HETATM   40  H   UNL     1      -6.708   6.846  63.871  1.00  0.00     0.000 HD 
HETATM   41  H2  UNL     1      -6.342   8.695  63.543  1.00  0.00     0.000 HD 
HETATM   42  C   UNL     1      -7.954   9.808  66.329  1.00  0.00    -0.109 C  
HETATM   43  N   UNL     1      -6.509   9.313  64.336  1.00  0.00    -0.080 NA 
HETATM   44  O   UNL     1      -8.117  11.187  65.978  1.00  0.00    -0.145 OA 
BRANCH  34  45
HETATM   45  C   UNL     1      -8.831   5.615  66.778  1.00  0.00    -0.115 C  
HETATM   46  O   UNL     1     -10.068   5.193  67.353  1.00  0.00    -0.170 OA 
HETATM   47  H   UNL     1     -10.016   4.287  67.637  1.00  0.00     0.000 HD 
ENDBRANCH  34  45
ENDBRANCH  31  32
ENDBRANCH  25  31
ENDBRANCH  16  17
ENDBRANCH   7  16
ENDBRANCH   2   5
TORSDOF 6
ENDMDL
MODEL      181
REMARK 921   NORMALIZED FREE ENERGY PREDICTED BY IDOCK:   -4.89 KCAL/MOL
REMARK 922        TOTAL FREE ENERGY PREDICTED BY IDOCK:   -7.65 KCAL/MOL
REMARK 923 INTER-LIGAND FREE ENERGY PREDICTED BY IDOCK:   -7.03 KCAL/MOL
REMARK 924 INTRA-LIGAND FREE ENERGY PREDICTED BY IDOCK:   -0.62 KCAL/MOL
REMARK 927      BINDING AFFINITY PREDICTED BY RF-SCORE:    0.00 PKD
ROOT
HETATM    1  N   UNL     1      -9.197   4.290  68.396  1.00  0.00    -0.129 NA 
HETATM    2  C   UNL     1      -7.924   4.483  67.688  1.00  0.00    -0.096 C  
HETATM    3  H2  UNL     1      -9.702   3.482  68.034  1.00  0.00     0.000 HD 
HETATM    4  H1  UNL     1      -9.071   4.223  69.406  1.00  0.00     0.000 HD 
ENDROOT
BRANCH   2   5
HETATM    5  C   UNL     1      -8.115   4.585  66.153  1.00  0.00    -0.103 C  
HETATM    6  O   UNL     1      -8.858   5.754  65.772  1.00  0.00    -0.149 OA 
HETATM    7  C   UNL     1      -8.185   6.986  65.971  1.00  0.00    -0.129 C  
HETATM    8  C   UNL     1      -6.883   7.027  65.105  1.00  0.00    -0.051 C  
HETATM    9  C   UNL     1      -6.782   4.494  65.385  1.00  0.00    -0.052 C  
HETATM   10  N   UNL     1      -7.163   7.045  63.653  1.00  0.00    -0.065 NA 
HETATM   11  C   UNL     1      -6.000   5.811  65.445  1.00  0.00    -0.025 C  
HETATM   12  H   UNL     1      -6.252   4.103  63.548  1.00  0.00     0.000 HD 
HETATM   13  H1  UNL     1      -6.313   7.072  63.088  1.00  0.00     0.000 HD 
HETATM   14  H2  UNL     1      -7.787   7.814  63.411  1.00  0.00     0.000 HD 
HETATM   15  O   UNL     1      -7.074   4.159  64.022  1.00  0.00    -0.045 OA 
BRANCH   7  16
HETATM   16  O   UNL     1      -9.040   8.083  65.606  1.00  0.00    -0.114 OA 
BRANCH  16  17
HETATM   17  C   UNL     1      -9.452   8.979  66.680  1.00  0.00    -0.194 C  
HETATM   18  N   UNL     1     -10.587   7.210  68.006  1.00  0.00    -0.274 NA 
HETATM   19  C   UNL     1     -11.158   9.513  68.468  1.00  0.00    -0.035 C  
HETATM   20  H1  UNL     1     -11.446   6.914  68.469  1.00  0.00     0.000 HD 
HETATM   21  H2  UNL     1      -9.791   7.192  68.643  1.00  0.00     0.000 HD 
HETATM   22  C   UNL     1     -11.358  10.921  67.906  1.00  0.00    -0.308 C  
HETATM   23  C   UNL     1     -10.752   8.532  67.381  1.00  0.00    -0.145 C  
HETATM   24  N   UNL     1     -11.865  11.733  69.025  1.00  0.00    -0.315 NA 
HETATM   25  C   UNL     1     -10.045  11.480  67.273  1.00  0.00    -0.199 C  
HETATM   26  H   UNL     1      -8.071  11.752  65.710  1.00  0.00     0.000 HD 
HETATM   27  H1  UNL     1     -11.999  12.671  68.650  1.00  0.00     0.000 HD 
HETATM   28  C   UNL     1      -9.447  10.471  66.245  1.00  0.00    -0.177 C  
HETATM   29  H2  UNL     1     -11.269  11.705  69.853  1.00  0.00     0.000 HD 
HETATM   30  O   UNL     1      -8.074  10.840  65.976  1.00  0.00    -0.156 OA 
BRANCH  25  31
HETATM   31  O   UNL     1     -10.249  12.733  66.549  1.00  0.00    -0.244 OA 
BRANCH  31  32
HETATM   32  C   UNL     1     -11.265  13.590  67.084  1.00  0.00    -0.305 C  
HETATM   33  O   UNL     1     -10.722  14.714  67.789  1.00  0.00    -0.258 OA 
HETATM   34  C   UNL     1     -10.053  15.648  66.925  1.00  0.00    -0.263 C  
HETATM   35  C   UNL     1     -11.033  16.220  65.889  1.00  0.00    -0.037 C  
HETATM   36  H   UNL     1     -13.372  13.177  64.582  1.00  0.00     0.000 HD 
HETATM   37  C   UNL     1     -11.634  15.079  65.045  1.00  0.00    -0.332 C  
HETATM   38  H1  UNL     1     -13.005  14.860  63.505  1.00  0.00     0.000 HD 
HETATM   39  O   UNL     1     -10.416  17.189  65.038  1.00  0.00    -0.611 OA 
HETATM   40  H   UNL     1     -11.021  17.542  64.397  1.00  0.00     0.000 HD 
HETATM   41  H2  UNL     1     -12.196  16.343  63.480  1.00  0.00     0.000 HD 
HETATM   42  C   UNL     1     -12.264  14.035  65.983  1.00  0.00    -0.458 C  
HETATM   43  N   UNL     1     -12.608  15.616  64.064  1.00  0.00    -0.607 NA 
HETATM   44  O   UNL     1     -12.761  12.905  65.256  1.00  0.00    -0.577 OA 
BRANCH  34  45
HETATM   45  C   UNL     1      -9.479  16.779  67.790  1.00  0.00    -0.228 C  
HETATM   46  O   UNL     1     -10.497  17.359  68.606  1.00  0.00    -0.352 OA 
HETATM   47  H   UNL     1     -10.142  18.059  69.142  1.00  0.00     0.000 HD 
ENDBRANCH  34  45
ENDBRANCH  31  32
ENDBRANCH  25  31
ENDBRANCH  16  17
ENDBRANCH   7  16
ENDBRANCH   2   5
TORSDOF 6
ENDMDL
MODEL      182
REMARK 921   NORMALIZED FREE ENERGY PREDICTED BY IDOCK:   -4.87 KCAL/MOL
REMARK 922        TOTAL FREE ENERGY PREDICTED BY IDOCK:   -7.64 KCAL/MOL
REMARK 923 INTER-LIGAND FREE ENERGY PREDICTED BY IDOCK:   -6.44 KCAL/MOL
REMARK 924 INTRA-LIGAND FREE ENERGY PREDICTED BY IDOCK:   -1.20 KCAL/MOL
REMARK 927      BINDING AFFINITY PREDICTED BY RF-SCORE:    0.00 PKD
ROOT
HETATM    1  N   UNL     1      -8.247   8.774  72.948  1.00  0.00    -0.387 NA 
HETATM    2  C   UNL     1      -9.039   7.547  72.772  1.00  0.00    -0.152 C  
HETATM    3  H2  UNL     1      -8.805   9.515  73.370  1.00  0.00     0.000 HD 
HETATM    4  H1  UNL     1      -7.392   8.609  73.478  1.00  0.00     0.000 HD 
ENDROOT
BRANCH   2   5
HETATM    5  C   UNL     1     -10.338   7.798  71.966  1.00  0.00    -0.214 C  
HETATM    6  O   UNL     1     -10.073   8.216  70.618  1.00  0.00    -0.192 OA 
HETATM    7  C   UNL     1      -9.508   7.221  69.780  1.00  0.00    -0.149 C  
HETATM    8  C   UNL     1     -10.492   6.013  69.649  1.00  0.00    -0.261 C  
HETATM    9  C   UNL     1     -11.295   6.590  72.000  1.00  0.00    -0.285 C  
HETATM   10  N   UNL     1     -11.738   6.365  68.933  1.00  0.00    -0.388 NA 
HETATM   11  C   UNL     1     -10.838   5.476  71.051  1.00  0.00    -0.243 C  
HETATM   12  H   UNL     1     -13.192   6.301  71.649  1.00  0.00     0.000 HD 
HETATM   13  H1  UNL     1     -12.380   5.577  68.848  1.00  0.00     0.000 HD 
HETATM   14  H2  UNL     1     -11.532   6.770  68.020  1.00  0.00     0.000 HD 
HETATM   15  O   UNL     1     -12.602   7.045  71.628  1.00  0.00    -0.352 OA 
BRANCH   7  16
HETATM   16  O   UNL     1      -9.237   7.765  68.477  1.00  0.00    -0.138 OA 
BRANCH  16  17
HETATM   17  C   UNL     1      -8.193   8.778  68.392  1.00  0.00    -0.118 C  
HETATM   18  N   UNL     1      -6.460   7.387  69.504  1.00  0.00    -0.035 NA 
HETATM   19  C   UNL     1      -6.111   9.778  69.421  1.00  0.00    -0.040 C  
HETATM   20  H1  UNL     1      -5.775   7.323  70.257  1.00  0.00     0.000 HD 
HETATM   21  H2  UNL     1      -6.034   7.210  68.594  1.00  0.00     0.000 HD 
HETATM   22  C   UNL     1      -6.749  11.167  69.449  1.00  0.00    -0.120 C  
HETATM   23  C   UNL     1      -7.158   8.682  69.533  1.00  0.00    -0.055 C  
HETATM   24  N   UNL     1      -5.629  12.124  69.461  1.00  0.00    -0.073 NA 
HETATM   25  C   UNL     1      -7.733  11.372  68.254  1.00  0.00    -0.124 C  
HETATM   26  H   UNL     1      -9.745  11.101  66.740  1.00  0.00     0.000 HD 
HETATM   27  H1  UNL     1      -6.056  13.050  69.480  1.00  0.00     0.000 HD 
HETATM   28  C   UNL     1      -8.766  10.206  68.176  1.00  0.00    -0.122 C  
HETATM   29  H2  UNL     1      -4.971  11.992  68.692  1.00  0.00     0.000 HD 
HETATM   30  O   UNL     1      -9.395  10.228  66.873  1.00  0.00    -0.155 OA 
BRANCH  25  31
HETATM   31  O   UNL     1      -8.511  12.605  68.360  1.00  0.00    -0.168 OA 
BRANCH  31  32
HETATM   32  C   UNL     1      -8.314  13.547  67.298  1.00  0.00    -0.179 C  
HETATM   33  O   UNL     1      -9.427  13.602  66.397  1.00  0.00    -0.273 OA 
HETATM   34  C   UNL     1     -10.606  14.163  66.997  1.00  0.00    -0.276 C  
HETATM   35  C   UNL     1     -10.344  15.608  67.450  1.00  0.00    -0.275 C  
HETATM   36  H   UNL     1      -6.653  15.733  69.123  1.00  0.00     0.000 HD 
HETATM   37  C   UNL     1      -9.185  15.641  68.465  1.00  0.00    -0.197 C  
HETATM   38  H1  UNL     1      -8.133  17.056  69.555  1.00  0.00     0.000 HD 
HETATM   39  O   UNL     1     -11.508  16.219  68.012  1.00  0.00    -0.272 OA 
HETATM   40  H   UNL     1     -11.346  17.112  68.292  1.00  0.00     0.000 HD 
HETATM   41  H2  UNL     1      -9.732  17.501  69.242  1.00  0.00     0.000 HD 
HETATM   42  C   UNL     1      -7.955  14.951  67.850  1.00  0.00    -0.138 C  
HETATM   43  N   UNL     1      -8.900  17.035  68.883  1.00  0.00    -0.245 NA 
HETATM   44  O   UNL     1      -6.872  14.873  68.785  1.00  0.00    -0.094 OA 
BRANCH  34  45
HETATM   45  C   UNL     1     -11.737  14.132  65.959  1.00  0.00    -0.382 C  
HETATM   46  O   UNL     1     -13.013  14.185  66.598  1.00  0.00    -0.335 OA 
HETATM   47  H   UNL     1     -13.713  14.166  65.956  1.00  0.00     0.000 HD 
ENDBRANCH  34  45
ENDBRANCH  31  32
ENDBRANCH  25  31
ENDBRANCH  16  17
ENDBRANCH   7  16
ENDBRANCH   2   5
TORSDOF 6
ENDMDL
MODEL      183
REMARK 921   NORMALIZED FREE ENERGY PREDICTED BY IDOCK:   -4.87 KCAL/MOL
REMARK 922        TOTAL FREE ENERGY PREDICTED BY IDOCK:   -7.63 KCAL/MOL
REMARK 923 INTER-LIGAND FREE ENERGY PREDICTED BY IDOCK:   -7.10 KCAL/MOL
REMARK 924 INTRA-LIGAND FREE ENERGY PREDICTED BY IDOCK:   -0.54 KCAL/MOL
REMARK 927      BINDING AFFINITY PREDICTED BY RF-SCORE:    0.00 PKD
ROOT
HETATM    1  N   UNL     1      -7.826  20.454  65.724  1.00  0.00    -0.539 NA 
HETATM    2  C   UNL     1      -8.639  19.531  66.529  1.00  0.00    -0.348 C  
HETATM    3  H2  UNL     1      -6.834  20.232  65.799  1.00  0.00     0.000 HD 
HETATM    4  H1  UNL     1      -8.125  20.482  64.750  1.00  0.00     0.000 HD 
ENDROOT
BRANCH   2   5
HETATM    5  C   UNL     1      -8.185  19.488  68.010  1.00  0.00    -0.316 C  
HETATM    6  O   UNL     1      -8.580  18.274  68.668  1.00  0.00    -0.320 OA 
HETATM    7  C   UNL     1      -7.914  17.103  68.222  1.00  0.00    -0.236 C  
HETATM    8  C   UNL     1      -6.378  17.232  68.485  1.00  0.00    -0.163 C  
HETATM    9  C   UNL     1      -6.674  19.746  68.171  1.00  0.00    -0.273 C  
HETATM   10  N   UNL     1      -6.046  17.260  69.926  1.00  0.00    -0.233 NA 
HETATM   11  C   UNL     1      -5.844  18.509  67.809  1.00  0.00    -0.167 C  
HETATM   12  H   UNL     1      -5.496  20.278  69.633  1.00  0.00     0.000 HD 
HETATM   13  H1  UNL     1      -5.043  17.344  70.099  1.00  0.00     0.000 HD 
HETATM   14  H2  UNL     1      -6.432  16.448  70.407  1.00  0.00     0.000 HD 
HETATM   15  O   UNL     1      -6.428  20.119  69.533  1.00  0.00    -0.327 OA 
BRANCH   7  16
HETATM   16  O   UNL     1      -8.425  15.948  68.909  1.00  0.00    -0.190 OA 
BRANCH  16  17
HETATM   17  C   UNL     1      -9.281  15.054  68.141  1.00  0.00    -0.183 C  
HETATM   18  N   UNL     1     -11.344  16.399  68.474  1.00  0.00    -0.348 NA 
HETATM   19  C   UNL     1     -11.594  14.088  67.807  1.00  0.00    -0.378 C  
HETATM   20  H1  UNL     1     -12.315  16.403  68.787  1.00  0.00     0.000 HD 
HETATM   21  H2  UNL     1     -11.256  16.751  67.521  1.00  0.00     0.000 HD 
HETATM   22  C   UNL     1     -11.050  12.662  67.900  1.00  0.00    -0.247 C  
HETATM   23  C   UNL     1     -10.750  15.060  68.615  1.00  0.00    -0.244 C  
HETATM   24  N   UNL     1     -12.021  11.814  67.186  1.00  0.00    -0.595 NA 
HETATM   25  C   UNL     1      -9.599  12.562  67.335  1.00  0.00    -0.192 C  
HETATM   26  H   UNL     1      -7.100  12.891  67.092  1.00  0.00     0.000 HD 
HETATM   27  H1  UNL     1     -11.658  10.863  67.249  1.00  0.00     0.000 HD 
HETATM   28  C   UNL     1      -8.671  13.632  67.987  1.00  0.00    -0.176 C  
HETATM   29  H2  UNL     1     -12.204  12.120  66.230  1.00  0.00     0.000 HD 
HETATM   30  O   UNL     1      -7.473  13.760  67.186  1.00  0.00    -0.092 OA 
BRANCH  25  31
HETATM   31  O   UNL     1      -8.974  11.265  67.592  1.00  0.00    -0.138 OA 
BRANCH  31  32
HETATM   32  C   UNL     1      -9.733  10.126  67.166  1.00  0.00    -0.173 C  
HETATM   33  O   UNL     1      -9.280   9.602  65.910  1.00  0.00    -0.166 OA 
HETATM   34  C   UNL     1      -7.976   9.004  65.990  1.00  0.00    -0.103 C  
HETATM   35  C   UNL     1      -7.984   7.824  66.973  1.00  0.00    -0.116 C  
HETATM   36  H   UNL     1     -10.196   8.907  70.194  1.00  0.00     0.000 HD 
HETATM   37  C   UNL     1      -8.414   8.305  68.372  1.00  0.00    -0.129 C  
HETATM   38  H1  UNL     1      -8.744   7.487  70.249  1.00  0.00     0.000 HD 
HETATM   39  O   UNL     1      -6.713   7.172  67.047  1.00  0.00    -0.059 OA 
HETATM   40  H   UNL     1      -6.718   6.442  67.655  1.00  0.00     0.000 HD 
HETATM   41  H2  UNL     1      -7.574   6.662  69.351  1.00  0.00     0.000 HD 
HETATM   42  C   UNL     1      -9.767   9.030  68.263  1.00  0.00    -0.152 C  
HETATM   43  N   UNL     1      -8.460   7.168  69.322  1.00  0.00    -0.132 NA 
HETATM   44  O   UNL     1     -10.175   9.579  69.522  1.00  0.00    -0.191 OA 
BRANCH  34  45
HETATM   45  C   UNL     1      -7.580   8.521  64.587  1.00  0.00    -0.102 C  
HETATM   46  O   UNL     1      -7.353   7.112  64.583  1.00  0.00    -0.068 OA 
HETATM   47  H   UNL     1      -7.109   6.812  63.715  1.00  0.00     0.000 HD 
ENDBRANCH  34  45
ENDBRANCH  31  32
ENDBRANCH  25  31
ENDBRANCH  16  17
ENDBRANCH   7  16
ENDBRANCH   2   5
TORSDOF 6
ENDMDL
MODEL      184
REMARK 921   NORMALIZED FREE ENERGY PREDICTED BY IDOCK:   -4.86 KCAL/MOL
REMARK 922        TOTAL FREE ENERGY PREDICTED BY IDOCK:   -7.62 KCAL/MOL
REMARK 923 INTER-LIGAND FREE ENERGY PREDICTED BY IDOCK:   -6.80 KCAL/MOL
REMARK 924 INTRA-LIGAND FREE ENERGY PREDICTED BY IDOCK:   -0.82 KCAL/MOL
REMARK 927      BINDING AFFINITY PREDICTED BY RF-SCORE:    0.00 PKD
ROOT
HETATM    1  N   UNL     1      -6.677   7.780  68.701  1.00  0.00    -0.056 NA 
HETATM    2  C   UNL     1      -6.170   6.760  67.771  1.00  0.00    -0.040 C  
HETATM    3  H2  UNL     1      -7.536   7.470  69.154  1.00  0.00     0.000 HD 
HETATM    4  H1  UNL     1      -5.978   8.058  69.388  1.00  0.00     0.000 HD 
ENDROOT
BRANCH   2   5
HETATM    5  C   UNL     1      -7.233   6.338  66.726  1.00  0.00    -0.074 C  
HETATM    6  O   UNL     1      -8.253   7.334  66.551  1.00  0.00    -0.110 OA 
HETATM    7  C   UNL     1      -7.823   8.531  65.923  1.00  0.00    -0.099 C  
HETATM    8  C   UNL     1      -7.301   8.220  64.483  1.00  0.00    -0.091 C  
HETATM    9  C   UNL     1      -6.606   5.934  65.377  1.00  0.00    -0.043 C  
HETATM   10  N   UNL     1      -8.371   7.750  63.576  1.00  0.00    -0.369 NA 
HETATM   11  C   UNL     1      -6.186   7.159  64.557  1.00  0.00    -0.037 C  
HETATM   12  H   UNL     1      -7.186   4.916  63.817  1.00  0.00     0.000 HD 
HETATM   13  H1  UNL     1      -8.031   7.547  62.636  1.00  0.00     0.000 HD 
HETATM   14  H2  UNL     1      -9.145   8.414  63.550  1.00  0.00     0.000 HD 
HETATM   15  O   UNL     1      -7.572   5.165  64.649  1.00  0.00    -0.073 OA 
BRANCH   7  16
HETATM   16  O   UNL     1      -8.908   9.471  65.850  1.00  0.00    -0.148 OA 
BRANCH  16  17
HETATM   17  C   UNL     1      -9.383  10.026  67.111  1.00  0.00    -0.149 C  
HETATM   18  N   UNL     1     -10.902   8.125  67.618  1.00  0.00    -0.507 NA 
HETATM   19  C   UNL     1     -11.280  10.217  68.772  1.00  0.00    -0.217 C  
HETATM   20  H1  UNL     1     -11.851   7.835  67.854  1.00  0.00     0.000 HD 
HETATM   21  H2  UNL     1     -10.224   7.778  68.296  1.00  0.00     0.000 HD 
HETATM   22  C   UNL     1     -11.232  11.743  68.704  1.00  0.00    -0.257 C  
HETATM   23  C   UNL     1     -10.819   9.587  67.468  1.00  0.00    -0.170 C  
HETATM   24  N   UNL     1     -11.816  12.220  69.969  1.00  0.00    -0.455 NA 
HETATM   25  C   UNL     1      -9.781  12.262  68.451  1.00  0.00    -0.191 C  
HETATM   26  H   UNL     1      -7.568  12.710  67.306  1.00  0.00     0.000 HD 
HETATM   27  H1  UNL     1     -11.785  13.239  69.924  1.00  0.00     0.000 HD 
HETATM   28  C   UNL     1      -9.145  11.558  67.214  1.00  0.00    -0.164 C  
HETATM   29  H2  UNL     1     -11.365  11.834  70.799  1.00  0.00     0.000 HD 
HETATM   30  O   UNL     1      -7.714  11.773  67.242  1.00  0.00    -0.141 OA 
BRANCH  25  31
HETATM   31  O   UNL     1      -9.728  13.698  68.180  1.00  0.00    -0.217 OA 
BRANCH  31  32
HETATM   32  C   UNL     1     -10.980  14.300  67.826  1.00  0.00    -0.264 C  
HETATM   33  O   UNL     1     -11.643  14.893  68.951  1.00  0.00    -0.284 OA 
HETATM   34  C   UNL     1     -10.957  16.049  69.460  1.00  0.00    -0.326 C  
HETATM   35  C   UNL     1     -10.871  17.142  68.383  1.00  0.00    -0.309 C  
HETATM   36  H   UNL     1      -9.999  15.343  64.857  1.00  0.00     0.000 HD 
HETATM   37  C   UNL     1     -10.126  16.606  67.146  1.00  0.00    -0.276 C  
HETATM   38  H1  UNL     1      -9.574  17.286  65.266  1.00  0.00     0.000 HD 
HETATM   39  O   UNL     1     -10.235  18.328  68.866  1.00  0.00    -0.387 OA 
HETATM   40  H   UNL     1     -10.182  19.004  68.200  1.00  0.00     0.000 HD 
HETATM   41  H2  UNL     1      -9.659  18.511  66.427  1.00  0.00     0.000 HD 
HETATM   42  C   UNL     1     -10.809  15.314  66.665  1.00  0.00    -0.310 C  
HETATM   43  N   UNL     1     -10.068  17.641  66.086  1.00  0.00    -0.457 NA 
HETATM   44  O   UNL     1     -10.103  14.721  65.568  1.00  0.00    -0.337 OA 
BRANCH  34  45
HETATM   45  C   UNL     1     -11.729  16.569  70.681  1.00  0.00     0.192 C  
HETATM   46  O   UNL     1     -12.672  15.599  71.135  1.00  0.00    -0.433 OA 
HETATM   47  H   UNL     1     -13.150  15.920  71.890  1.00  0.00     0.000 HD 
ENDBRANCH  34  45
ENDBRANCH  31  32
ENDBRANCH  25  31
ENDBRANCH  16  17
ENDBRANCH   7  16
ENDBRANCH   2   5
TORSDOF 6
ENDMDL
MODEL      185
REMARK 921   NORMALIZED FREE ENERGY PREDICTED BY IDOCK:   -4.85 KCAL/MOL
REMARK 922        TOTAL FREE ENERGY PREDICTED BY IDOCK:   -7.60 KCAL/MOL
REMARK 923 INTER-LIGAND FREE ENERGY PREDICTED BY IDOCK:   -7.20 KCAL/MOL
REMARK 924 INTRA-LIGAND FREE ENERGY PREDICTED BY IDOCK:   -0.40 KCAL/MOL
REMARK 927      BINDING AFFINITY PREDICTED BY RF-SCORE:    0.00 PKD
ROOT
HETATM    1  N   UNL     1      -7.390  20.804  65.846  1.00  0.00    -0.496 NA 
HETATM    2  C   UNL     1      -8.130  19.741  66.541  1.00  0.00    -0.327 C  
HETATM    3  H2  UNL     1      -6.388  20.728  66.017  1.00  0.00     0.000 HD 
HETATM    4  H1  UNL     1      -7.592  20.826  64.847  1.00  0.00     0.000 HD 
ENDROOT
BRANCH   2   5
HETATM    5  C   UNL     1      -7.822  19.708  68.059  1.00  0.00    -0.306 C  
HETATM    6  O   UNL     1      -8.296  18.506  68.686  1.00  0.00    -0.326 OA 
HETATM    7  C   UNL     1      -7.606  17.322  68.317  1.00  0.00    -0.227 C  
HETATM    8  C   UNL     1      -6.101  17.434  68.728  1.00  0.00    -0.174 C  
HETATM    9  C   UNL     1      -6.331  19.948  68.364  1.00  0.00    -0.273 C  
HETATM   10  N   UNL     1      -5.910  17.472  70.194  1.00  0.00    -0.235 NA 
HETATM   11  C   UNL     1      -5.487  18.696  68.094  1.00  0.00    -0.178 C  
HETATM   12  H   UNL     1      -5.293  20.480  69.928  1.00  0.00     0.000 HD 
HETATM   13  H1  UNL     1      -4.928  17.545  70.462  1.00  0.00     0.000 HD 
HETATM   14  H2  UNL     1      -6.353  16.670  70.642  1.00  0.00     0.000 HD 
HETATM   15  O   UNL     1      -6.212  20.332  69.740  1.00  0.00    -0.340 OA 
BRANCH   7  16
HETATM   16  O   UNL     1      -8.198  16.181  68.962  1.00  0.00    -0.223 OA 
BRANCH  16  17
HETATM   17  C   UNL     1      -9.088  15.359  68.153  1.00  0.00    -0.184 C  
HETATM   18  N   UNL     1     -10.883  17.072  68.008  1.00  0.00    -0.366 NA 
HETATM   19  C   UNL     1     -11.470  14.775  67.536  1.00  0.00    -0.369 C  
HETATM   20  H1  UNL     1     -11.870  17.284  68.154  1.00  0.00     0.000 HD 
HETATM   21  H2  UNL     1     -10.591  17.281  67.053  1.00  0.00     0.000 HD 
HETATM   22  C   UNL     1     -11.227  13.299  67.855  1.00  0.00    -0.272 C  
HETATM   23  C   UNL     1     -10.581  15.679  68.374  1.00  0.00    -0.252 C  
HETATM   24  N   UNL     1     -12.228  12.549  67.076  1.00  0.00    -0.433 NA 
HETATM   25  C   UNL     1      -9.755  12.879  67.551  1.00  0.00    -0.205 C  
HETATM   26  H   UNL     1      -7.231  12.737  67.695  1.00  0.00     0.000 HD 
HETATM   27  H1  UNL     1     -12.066  11.565  67.289  1.00  0.00     0.000 HD 
HETATM   28  C   UNL     1      -8.745  13.846  68.241  1.00  0.00    -0.183 C  
HETATM   29  H2  UNL     1     -12.208  12.759  66.077  1.00  0.00     0.000 HD 
HETATM   30  O   UNL     1      -7.441  13.662  67.641  1.00  0.00    -0.153 OA 
BRANCH  25  31
HETATM   31  O   UNL     1      -9.434  11.536  68.032  1.00  0.00    -0.169 OA 
BRANCH  31  32
HETATM   32  C   UNL     1      -8.142  11.043  67.654  1.00  0.00    -0.116 C  
HETATM   33  O   UNL     1      -7.426  10.472  68.756  1.00  0.00    -0.084 OA 
HETATM   34  C   UNL     1      -8.015   9.252  69.236  1.00  0.00    -0.098 C  
HETATM   35  C   UNL     1      -8.025   8.188  68.128  1.00  0.00    -0.127 C  
HETATM   36  H   UNL     1      -9.065  10.014  64.661  1.00  0.00     0.000 HD 
HETATM   37  C   UNL     1      -8.821   8.699  66.911  1.00  0.00    -0.132 C  
HETATM   38  H1  UNL     1      -9.334   8.032  65.016  1.00  0.00     0.000 HD 
HETATM   39  O   UNL     1      -8.563   6.941  68.579  1.00  0.00    -0.123 OA 
HETATM   40  H   UNL     1      -8.570   6.283  67.894  1.00  0.00     0.000 HD 
HETATM   41  H2  UNL     1      -9.144   6.785  66.140  1.00  0.00     0.000 HD 
HETATM   42  C   UNL     1      -8.244  10.053  66.464  1.00  0.00    -0.119 C  
HETATM   43  N   UNL     1      -8.808   7.693  65.822  1.00  0.00    -0.140 NA 
HETATM   44  O   UNL     1      -9.003  10.621  65.389  1.00  0.00    -0.177 OA 
BRANCH  34  45
HETATM   45  C   UNL     1      -7.194   8.758  70.436  1.00  0.00    -0.050 C  
HETATM   46  O   UNL     1      -7.832   9.107  71.664  1.00  0.00    -0.340 OA 
HETATM   47  H   UNL     1      -7.324   8.802  72.406  1.00  0.00     0.000 HD 
ENDBRANCH  34  45
ENDBRANCH  31  32
ENDBRANCH  25  31
ENDBRANCH  16  17
ENDBRANCH   7  16
ENDBRANCH   2   5
TORSDOF 6
ENDMDL
MODEL      186
REMARK 921   NORMALIZED FREE ENERGY PREDICTED BY IDOCK:   -4.82 KCAL/MOL
REMARK 922        TOTAL FREE ENERGY PREDICTED BY IDOCK:   -7.57 KCAL/MOL
REMARK 923 INTER-LIGAND FREE ENERGY PREDICTED BY IDOCK:   -6.45 KCAL/MOL
REMARK 924 INTRA-LIGAND FREE ENERGY PREDICTED BY IDOCK:   -1.11 KCAL/MOL
REMARK 927      BINDING AFFINITY PREDICTED BY RF-SCORE:    0.00 PKD
ROOT
HETATM    1  N   UNL     1      -8.249  14.926  68.107  1.00  0.00    -0.134 NA 
HETATM    2  C   UNL     1      -8.766  15.076  69.475  1.00  0.00    -0.059 C  
HETATM    3  H2  UNL     1      -8.231  15.821  67.620  1.00  0.00     0.000 HD 
HETATM    4  H1  UNL     1      -7.334  14.477  68.086  1.00  0.00     0.000 HD 
ENDROOT
BRANCH   2   5
HETATM    5  C   UNL     1     -10.157  15.758  69.506  1.00  0.00    -0.279 C  
HETATM    6  O   UNL     1     -11.034  15.256  68.485  1.00  0.00    -0.245 OA 
HETATM    7  C   UNL     1     -11.465  13.917  68.668  1.00  0.00    -0.298 C  
HETATM    8  C   UNL     1     -12.274  13.795  70.001  1.00  0.00    -0.342 C  
HETATM    9  C   UNL     1     -10.817  15.688  70.897  1.00  0.00    -0.183 C  
HETATM   10  N   UNL     1     -13.551  14.541  69.965  1.00  0.00     0.244 NA 
HETATM   11  C   UNL     1     -11.413  14.302  71.173  1.00  0.00     0.146 C  
HETATM   12  H   UNL     1     -12.254  16.641  71.810  1.00  0.00     0.000 HD 
HETATM   13  H1  UNL     1     -14.078  14.461  70.835  1.00  0.00     0.000 HD 
HETATM   14  H2  UNL     1     -14.117  14.257  69.166  1.00  0.00     0.000 HD 
HETATM   15  O   UNL     1     -11.846  16.684  70.953  1.00  0.00     0.048 OA 
BRANCH   7  16
HETATM   16  O   UNL     1     -12.291  13.507  67.564  1.00  0.00    -0.259 OA 
BRANCH  16  17
HETATM   17  C   UNL     1     -11.603  13.108  66.343  1.00  0.00    -0.349 C  
HETATM   18  N   UNL     1     -13.088  14.409  64.832  1.00  0.00    -0.481 NA 
HETATM   19  C   UNL     1     -11.773  12.624  63.867  1.00  0.00    -0.532 C  
HETATM   20  H1  UNL     1     -13.698  14.388  64.015  1.00  0.00     0.000 HD 
HETATM   21  H2  UNL     1     -12.355  15.112  64.736  1.00  0.00     0.000 HD 
HETATM   22  C   UNL     1     -11.158  11.238  64.060  1.00  0.00    -0.240 C  
HETATM   23  C   UNL     1     -12.527  13.076  65.107  1.00  0.00    -0.496 C  
HETATM   24  N   UNL     1     -10.574  10.872  62.758  1.00  0.00    -0.757 NA 
HETATM   25  C   UNL     1     -10.128  11.224  65.233  1.00  0.00    -0.267 C  
HETATM   26  H   UNL     1      -9.167  11.352  67.572  1.00  0.00     0.000 HD 
HETATM   27  H1  UNL     1     -10.164   9.947  62.888  1.00  0.00     0.000 HD 
HETATM   28  C   UNL     1     -10.753  11.821  66.531  1.00  0.00    -0.265 C  
HETATM   29  H2  UNL     1      -9.916  11.564  62.397  1.00  0.00     0.000 HD 
HETATM   30  O   UNL     1      -9.687  12.139  67.457  1.00  0.00    -0.181 OA 
BRANCH  25  31
HETATM   31  O   UNL     1      -9.673   9.878  65.578  1.00  0.00    -0.263 OA 
BRANCH  31  32
HETATM   32  C   UNL     1      -8.251   9.694  65.575  1.00  0.00    -0.126 C  
HETATM   33  O   UNL     1      -7.711   9.558  66.896  1.00  0.00    -0.097 OA 
HETATM   34  C   UNL     1      -8.109   8.337  67.542  1.00  0.00    -0.122 C  
HETATM   35  C   UNL     1      -7.613   7.121  66.745  1.00  0.00    -0.093 C  
HETATM   36  H   UNL     1      -8.172   7.906  62.807  1.00  0.00     0.000 HD 
HETATM   37  C   UNL     1      -8.187   7.157  65.315  1.00  0.00    -0.128 C  
HETATM   38  H1  UNL     1      -8.067   6.030  63.579  1.00  0.00     0.000 HD 
HETATM   39  O   UNL     1      -7.950   5.884  67.379  1.00  0.00    -0.101 OA 
HETATM   40  H   UNL     1      -7.643   5.132  66.886  1.00  0.00     0.000 HD 
HETATM   41  H2  UNL     1      -7.877   5.117  64.987  1.00  0.00     0.000 HD 
HETATM   42  C   UNL     1      -7.839   8.507  64.665  1.00  0.00    -0.131 C  
HETATM   43  N   UNL     1      -7.687   6.006  64.525  1.00  0.00    -0.093 NA 
HETATM   44  O   UNL     1      -8.425   8.633  63.364  1.00  0.00    -0.165 OA 
BRANCH  34  45
HETATM   45  C   UNL     1      -7.512   8.322  68.956  1.00  0.00    -0.091 C  
HETATM   46  O   UNL     1      -8.351   9.029  69.868  1.00  0.00    -0.116 OA 
HETATM   47  H   UNL     1      -7.981   9.019  70.743  1.00  0.00     0.000 HD 
ENDBRANCH  34  45
ENDBRANCH  31  32
ENDBRANCH  25  31
ENDBRANCH  16  17
ENDBRANCH   7  16
ENDBRANCH   2   5
TORSDOF 6
ENDMDL
MODEL      187
REMARK 921   NORMALIZED FREE ENERGY PREDICTED BY IDOCK:   -4.81 KCAL/MOL
REMARK 922        TOTAL FREE ENERGY PREDICTED BY IDOCK:   -7.55 KCAL/MOL
REMARK 923 INTER-LIGAND FREE ENERGY PREDICTED BY IDOCK:   -5.90 KCAL/MOL
REMARK 924 INTRA-LIGAND FREE ENERGY PREDICTED BY IDOCK:   -1.65 KCAL/MOL
REMARK 927      BINDING AFFINITY PREDICTED BY RF-SCORE:    0.00 PKD
ROOT
HETATM    1  N   UNL     1     -12.518  14.895  69.193  1.00  0.00    -0.587 NA 
HETATM    2  C   UNL     1     -11.858  13.609  68.924  1.00  0.00    -0.364 C  
HETATM    3  H2  UNL     1     -12.985  15.251  68.359  1.00  0.00     0.000 HD 
HETATM    4  H1  UNL     1     -13.162  14.842  69.981  1.00  0.00     0.000 HD 
ENDROOT
BRANCH   2   5
HETATM    5  C   UNL     1     -10.880  13.690  67.726  1.00  0.00    -0.253 C  
HETATM    6  O   UNL     1     -10.292  12.417  67.414  1.00  0.00    -0.206 OA 
HETATM    7  C   UNL     1     -11.187  11.458  66.874  1.00  0.00    -0.264 C  
HETATM    8  C   UNL     1     -11.778  11.980  65.524  1.00  0.00    -0.251 C  
HETATM    9  C   UNL     1     -11.524  14.331  66.481  1.00  0.00    -0.360 C  
HETATM   10  N   UNL     1     -10.757  12.098  64.461  1.00  0.00    -0.292 NA 
HETATM   11  C   UNL     1     -12.447  13.349  65.750  1.00  0.00    -0.496 C  
HETATM   12  H   UNL     1     -10.870  15.154  64.837  1.00  0.00     0.000 HD 
HETATM   13  H1  UNL     1     -11.142  12.439  63.580  1.00  0.00     0.000 HD 
HETATM   14  H2  UNL     1     -10.264  11.215  64.327  1.00  0.00     0.000 HD 
HETATM   15  O   UNL     1     -10.473  14.759  65.605  1.00  0.00    -0.306 OA 
BRANCH   7  16
HETATM   16  O   UNL     1     -10.504  10.212  66.651  1.00  0.00    -0.228 OA 
BRANCH  16  17
HETATM   17  C   UNL     1      -9.204  10.054  67.290  1.00  0.00    -0.141 C  
HETATM   18  N   UNL     1      -7.934  11.159  65.461  1.00  0.00    -0.367 NA 
HETATM   19  C   UNL     1      -6.711   9.745  66.995  1.00  0.00    -0.075 C  
HETATM   20  H1  UNL     1      -7.165  11.085  64.796  1.00  0.00     0.000 HD 
HETATM   21  H2  UNL     1      -7.853  11.996  66.038  1.00  0.00     0.000 HD 
HETATM   22  C   UNL     1      -6.727   8.493  67.873  1.00  0.00    -0.066 C  
HETATM   23  C   UNL     1      -8.040   9.942  66.283  1.00  0.00    -0.114 C  
HETATM   24  N   UNL     1      -5.358   8.353  68.397  1.00  0.00    -0.033 NA 
HETATM   25  C   UNL     1      -7.817   8.586  68.987  1.00  0.00    -0.104 C  
HETATM   26  H   UNL     1     -10.082   8.710  70.111  1.00  0.00     0.000 HD 
HETATM   27  H1  UNL     1      -5.368   7.517  68.982  1.00  0.00     0.000 HD 
HETATM   28  C   UNL     1      -9.207   8.945  68.379  1.00  0.00    -0.140 C  
HETATM   29  H2  UNL     1      -5.018   9.185  68.879  1.00  0.00     0.000 HD 
HETATM   30  O   UNL     1     -10.080   9.387  69.445  1.00  0.00    -0.182 OA 
BRANCH  25  31
HETATM   31  O   UNL     1      -7.997   7.330  69.714  1.00  0.00    -0.117 OA 
BRANCH  31  32
HETATM   32  C   UNL     1      -8.617   6.275  68.967  1.00  0.00    -0.123 C  
HETATM   33  O   UNL     1      -7.678   5.537  68.175  1.00  0.00    -0.084 OA 
HETATM   34  C   UNL     1      -6.762   4.763  68.966  1.00  0.00    -0.049 C  
HETATM   35  C   UNL     1      -7.522   3.729  69.811  1.00  0.00    -0.052 C  
HETATM   36  H   UNL     1     -10.847   5.526  71.277  1.00  0.00     0.000 HD 
HETATM   37  C   UNL     1      -8.528   4.440  70.737  1.00  0.00    -0.079 C  
HETATM   38  H1  UNL     1      -9.957   3.920  72.146  1.00  0.00     0.000 HD 
HETATM   39  O   UNL     1      -6.641   2.906  70.581  1.00  0.00    -0.030 OA 
HETATM   40  H   UNL     1      -7.111   2.267  71.104  1.00  0.00     0.000 HD 
HETATM   41  H2  UNL     1      -8.676   2.823  72.051  1.00  0.00     0.000 HD 
HETATM   42  C   UNL     1      -9.443   5.341  69.891  1.00  0.00    -0.155 C  
HETATM   43  N   UNL     1      -9.292   3.449  71.533  1.00  0.00    -0.128 NA 
HETATM   44  O   UNL     1     -10.342   6.098  70.711  1.00  0.00    -0.197 OA 
BRANCH  34  45
HETATM   45  C   UNL     1      -5.784   4.055  68.018  1.00  0.00    -0.022 C  
HETATM   46  O   UNL     1      -6.489   3.259  67.065  1.00  0.00    -0.035 OA 
HETATM   47  H   UNL     1      -5.884   2.821  66.478  1.00  0.00     0.000 HD 
ENDBRANCH  34  45
ENDBRANCH  31  32
ENDBRANCH  25  31
ENDBRANCH  16  17
ENDBRANCH   7  16
ENDBRANCH   2   5
TORSDOF 6
ENDMDL
MODEL      188
REMARK 921   NORMALIZED FREE ENERGY PREDICTED BY IDOCK:   -4.76 KCAL/MOL
REMARK 922        TOTAL FREE ENERGY PREDICTED BY IDOCK:   -7.48 KCAL/MOL
REMARK 923 INTER-LIGAND FREE ENERGY PREDICTED BY IDOCK:   -7.02 KCAL/MOL
REMARK 924 INTRA-LIGAND FREE ENERGY PREDICTED BY IDOCK:   -0.46 KCAL/MOL
REMARK 927      BINDING AFFINITY PREDICTED BY RF-SCORE:    0.00 PKD
ROOT
HETATM    1  N   UNL     1     -13.175  10.875  72.081  1.00  0.00    -0.586 NA 
HETATM    2  C   UNL     1     -13.667  12.254  72.217  1.00  0.00    -0.093 C  
HETATM    3  H2  UNL     1     -12.453  10.672  72.773  1.00  0.00     0.000 HD 
HETATM    4  H1  UNL     1     -13.928  10.190  72.123  1.00  0.00     0.000 HD 
ENDROOT
BRANCH   2   5
HETATM    5  C   UNL     1     -12.521  13.295  72.153  1.00  0.00     0.235 C  
HETATM    6  O   UNL     1     -11.934  13.381  70.846  1.00  0.00    -0.259 OA 
HETATM    7  C   UNL     1     -12.769  13.944  69.846  1.00  0.00     0.025 C  
HETATM    8  C   UNL     1     -13.140  15.414  70.228  1.00  0.00    -0.071 C  
HETATM    9  C   UNL     1     -12.956  14.683  72.665  1.00  0.00    -0.443 C  
HETATM   10  N   UNL     1     -11.970  16.320  70.215  1.00  0.00    -0.346 NA 
HETATM   11  C   UNL     1     -13.792  15.435  71.623  1.00  0.00    -0.606 C  
HETATM   12  H   UNL     1     -12.043  16.288  73.295  1.00  0.00     0.000 HD 
HETATM   13  H1  UNL     1     -12.212  17.280  70.464  1.00  0.00     0.000 HD 
HETATM   14  H2  UNL     1     -11.491  16.285  69.315  1.00  0.00     0.000 HD 
HETATM   15  O   UNL     1     -11.776  15.432  72.980  1.00  0.00    -0.446 OA 
BRANCH   7  16
HETATM   16  O   UNL     1     -12.100  13.931  68.574  1.00  0.00    -0.362 OA 
BRANCH  16  17
HETATM   17  C   UNL     1     -10.657  13.720  68.594  1.00  0.00    -0.253 C  
HETATM   18  N   UNL     1     -10.090  16.120  68.284  1.00  0.00    -0.228 NA 
HETATM   19  C   UNL     1      -8.385  14.480  67.786  1.00  0.00    -0.173 C  
HETATM   20  H1  UNL     1      -9.575  16.808  67.734  1.00  0.00     0.000 HD 
HETATM   21  H2  UNL     1      -9.858  16.182  69.275  1.00  0.00     0.000 HD 
HETATM   22  C   UNL     1      -8.069  13.082  67.252  1.00  0.00    -0.161 C  
HETATM   23  C   UNL     1      -9.879  14.760  67.762  1.00  0.00    -0.214 C  
HETATM   24  N   UNL     1      -6.600  12.990  67.212  1.00  0.00    -0.401 NA 
HETATM   25  C   UNL     1      -8.742  11.970  68.117  1.00  0.00    -0.177 C  
HETATM   26  H   UNL     1     -10.525  10.534  69.198  1.00  0.00     0.000 HD 
HETATM   27  H1  UNL     1      -6.389  12.058  66.856  1.00  0.00     0.000 HD 
HETATM   28  C   UNL     1     -10.267  12.247  68.292  1.00  0.00    -0.220 C  
HETATM   29  H2  UNL     1      -6.153  13.196  68.107  1.00  0.00     0.000 HD 
HETATM   30  O   UNL     1     -10.764  11.435  69.382  1.00  0.00    -0.196 OA 
BRANCH  25  31
HETATM   31  O   UNL     1      -8.631  10.639  67.522  1.00  0.00    -0.122 OA 
BRANCH  31  32
HETATM   32  C   UNL     1      -9.730  10.249  66.688  1.00  0.00    -0.185 C  
HETATM   33  O   UNL     1      -9.508  10.556  65.305  1.00  0.00    -0.195 OA 
HETATM   34  C   UNL     1      -8.466   9.763  64.714  1.00  0.00    -0.164 C  
HETATM   35  C   UNL     1      -8.827   8.270  64.773  1.00  0.00     0.179 C  
HETATM   36  H   UNL     1     -10.474   7.534  68.404  1.00  0.00     0.000 HD 
HETATM   37  C   UNL     1      -9.038   7.835  66.236  1.00  0.00    -0.178 C  
HETATM   38  H1  UNL     1      -9.560   6.116  67.271  1.00  0.00     0.000 HD 
HETATM   39  O   UNL     1      -7.834   7.448  64.153  1.00  0.00    -0.122 OA 
HETATM   40  H   UNL     1      -8.058   6.526  64.190  1.00  0.00     0.000 HD 
HETATM   41  H2  UNL     1      -8.747   5.808  65.823  1.00  0.00     0.000 HD 
HETATM   42  C   UNL     1     -10.086   8.752  66.890  1.00  0.00    -0.278 C  
HETATM   43  N   UNL     1      -9.421   6.404  66.303  1.00  0.00    -0.136 NA 
HETATM   44  O   UNL     1     -10.257   8.450  68.280  1.00  0.00    -0.194 OA 
BRANCH  34  45
HETATM   45  C   UNL     1      -8.289  10.207  63.255  1.00  0.00    -0.170 C  
HETATM   46  O   UNL     1      -9.009  11.413  63.003  1.00  0.00    -0.480 OA 
HETATM   47  H   UNL     1      -8.900  11.688  62.100  1.00  0.00     0.000 HD 
ENDBRANCH  34  45
ENDBRANCH  31  32
ENDBRANCH  25  31
ENDBRANCH  16  17
ENDBRANCH   7  16
ENDBRANCH   2   5
TORSDOF 6
ENDMDL
MODEL      189
REMARK 921   NORMALIZED FREE ENERGY PREDICTED BY IDOCK:   -4.75 KCAL/MOL
REMARK 922        TOTAL FREE ENERGY PREDICTED BY IDOCK:   -7.47 KCAL/MOL
REMARK 923 INTER-LIGAND FREE ENERGY PREDICTED BY IDOCK:   -5.60 KCAL/MOL
REMARK 924 INTRA-LIGAND FREE ENERGY PREDICTED BY IDOCK:   -1.88 KCAL/MOL
REMARK 927      BINDING AFFINITY PREDICTED BY RF-SCORE:    0.00 PKD
ROOT
HETATM    1  N   UNL     1      -6.890   4.498  70.706  1.00  0.00    -0.035 NA 
HETATM    2  C   UNL     1      -7.176   5.820  70.129  1.00  0.00    -0.072 C  
HETATM    3  H2  UNL     1      -6.445   3.886  70.022  1.00  0.00     0.000 HD 
HETATM    4  H1  UNL     1      -6.335   4.561  71.559  1.00  0.00     0.000 HD 
ENDROOT
BRANCH   2   5
HETATM    5  C   UNL     1      -8.018   5.724  68.832  1.00  0.00    -0.098 C  
HETATM    6  O   UNL     1      -8.178   6.998  68.190  1.00  0.00    -0.118 OA 
HETATM    7  C   UNL     1      -6.996   7.537  67.619  1.00  0.00    -0.080 C  
HETATM    8  C   UNL     1      -6.458   6.580  66.506  1.00  0.00    -0.043 C  
HETATM    9  C   UNL     1      -7.473   4.666  67.852  1.00  0.00    -0.077 C  
HETATM   10  N   UNL     1      -7.364   6.492  65.340  1.00  0.00    -0.073 NA 
HETATM   11  C   UNL     1      -6.240   5.174  67.096  1.00  0.00    -0.032 C  
HETATM   12  H   UNL     1      -8.180   3.687  66.320  1.00  0.00     0.000 HD 
HETATM   13  H1  UNL     1      -7.013   5.868  64.614  1.00  0.00     0.000 HD 
HETATM   14  H2  UNL     1      -7.564   7.418  64.962  1.00  0.00     0.000 HD 
HETATM   15  O   UNL     1      -8.516   4.339  66.924  1.00  0.00    -0.104 OA 
BRANCH   7  16
HETATM   16  O   UNL     1      -7.263   8.832  67.053  1.00  0.00    -0.078 OA 
BRANCH  16  17
HETATM   17  C   UNL     1      -8.519   9.467  67.433  1.00  0.00    -0.125 C  
HETATM   18  N   UNL     1      -9.917   8.103  65.897  1.00  0.00    -0.369 NA 
HETATM   19  C   UNL     1     -10.842  10.175  66.731  1.00  0.00    -0.129 C  
HETATM   20  H1  UNL     1     -10.609   8.107  65.148  1.00  0.00     0.000 HD 
HETATM   21  H2  UNL     1     -10.230   7.547  66.693  1.00  0.00     0.000 HD 
HETATM   22  C   UNL     1     -10.571  11.617  67.162  1.00  0.00    -0.232 C  
HETATM   23  C   UNL     1      -9.565   9.474  66.299  1.00  0.00    -0.226 C  
HETATM   24  N   UNL     1     -11.892  12.211  67.431  1.00  0.00    -0.565 NA 
HETATM   25  C   UNL     1      -9.598  11.679  68.381  1.00  0.00    -0.195 C  
HETATM   26  H   UNL     1      -7.494  11.468  69.774  1.00  0.00     0.000 HD 
HETATM   27  H1  UNL     1     -11.710  13.173  67.718  1.00  0.00     0.000 HD 
HETATM   28  C   UNL     1      -8.305  10.851  68.106  1.00  0.00    -0.123 C  
HETATM   29  H2  UNL     1     -12.449  11.682  68.102  1.00  0.00     0.000 HD 
HETATM   30  O   UNL     1      -7.624  10.622  69.362  1.00  0.00    -0.129 OA 
BRANCH  25  31
HETATM   31  O   UNL     1      -9.157  13.038  68.691  1.00  0.00    -0.094 OA 
BRANCH  31  32
HETATM   32  C   UNL     1      -8.278  13.631  67.728  1.00  0.00    -0.179 C  
HETATM   33  O   UNL     1      -8.976  14.421  66.757  1.00  0.00    -0.246 OA 
HETATM   34  C   UNL     1      -9.556  15.612  67.315  1.00  0.00    -0.217 C  
HETATM   35  C   UNL     1      -8.462  16.517  67.904  1.00  0.00    -0.181 C  
HETATM   36  H   UNL     1      -5.802  14.150  69.842  1.00  0.00     0.000 HD 
HETATM   37  C   UNL     1      -7.684  15.762  68.999  1.00  0.00    -0.202 C  
HETATM   38  H1  UNL     1      -6.088  16.114  70.275  1.00  0.00     0.000 HD 
HETATM   39  O   UNL     1      -8.993  17.736  68.430  1.00  0.00    -0.270 OA 
HETATM   40  H   UNL     1      -8.317  18.296  68.794  1.00  0.00     0.000 HD 
HETATM   41  H2  UNL     1      -6.959  17.508  69.887  1.00  0.00     0.000 HD 
HETATM   42  C   UNL     1      -7.149  14.441  68.418  1.00  0.00    -0.106 C  
HETATM   43  N   UNL     1      -6.603  16.614  69.550  1.00  0.00    -0.225 NA 
HETATM   44  O   UNL     1      -6.492  13.653  69.419  1.00  0.00    -0.104 OA 
BRANCH  34  45
HETATM   45  C   UNL     1     -10.309  16.351  66.201  1.00  0.00    -0.344 C  
HETATM   46  O   UNL     1      -9.539  17.448  65.709  1.00  0.00    -0.526 OA 
HETATM   47  H   UNL     1     -10.005  17.905  65.019  1.00  0.00     0.000 HD 
ENDBRANCH  34  45
ENDBRANCH  31  32
ENDBRANCH  25  31
ENDBRANCH  16  17
ENDBRANCH   7  16
ENDBRANCH   2   5
TORSDOF 6
ENDMDL
MODEL      190
REMARK 921   NORMALIZED FREE ENERGY PREDICTED BY IDOCK:   -4.74 KCAL/MOL
REMARK 922        TOTAL FREE ENERGY PREDICTED BY IDOCK:   -7.45 KCAL/MOL
REMARK 923 INTER-LIGAND FREE ENERGY PREDICTED BY IDOCK:   -6.23 KCAL/MOL
REMARK 924 INTRA-LIGAND FREE ENERGY PREDICTED BY IDOCK:   -1.22 KCAL/MOL
REMARK 927      BINDING AFFINITY PREDICTED BY RF-SCORE:    0.00 PKD
ROOT
HETATM    1  N   UNL     1      -7.433   9.931  70.741  1.00  0.00    -0.367 NA 
HETATM    2  C   UNL     1      -6.604  10.856  69.956  1.00  0.00    -0.151 C  
HETATM    3  H2  UNL     1      -7.206   8.960  70.528  1.00  0.00     0.000 HD 
HETATM    4  H1  UNL     1      -7.372  10.112  71.743  1.00  0.00     0.000 HD 
ENDROOT
BRANCH   2   5
HETATM    5  C   UNL     1      -6.697  10.581  68.434  1.00  0.00    -0.060 C  
HETATM    6  O   UNL     1      -8.011  10.160  68.035  1.00  0.00    -0.100 OA 
HETATM    7  C   UNL     1      -9.014  11.160  68.118  1.00  0.00    -0.159 C  
HETATM    8  C   UNL     1      -8.658  12.352  67.170  1.00  0.00    -0.189 C  
HETATM    9  C   UNL     1      -6.209  11.774  67.589  1.00  0.00    -0.078 C  
HETATM   10  N   UNL     1      -8.699  11.976  65.740  1.00  0.00    -0.389 NA 
HETATM   11  C   UNL     1      -7.258  12.890  67.522  1.00  0.00    -0.149 C  
HETATM   12  H   UNL     1      -5.618  12.031  65.747  1.00  0.00     0.000 HD 
HETATM   13  H1  UNL     1      -8.466  12.753  65.121  1.00  0.00     0.000 HD 
HETATM   14  H2  UNL     1      -9.601  11.570  65.494  1.00  0.00     0.000 HD 
HETATM   15  O   UNL     1      -5.918  11.296  66.269  1.00  0.00    -0.144 OA 
BRANCH   7  16
HETATM   16  O   UNL     1     -10.291  10.615  67.747  1.00  0.00    -0.185 OA 
BRANCH  16  17
HETATM   17  C   UNL     1     -11.035   9.919  68.789  1.00  0.00    -0.179 C  
HETATM   18  N   UNL     1     -11.917  11.992  69.838  1.00  0.00    -0.328 NA 
HETATM   19  C   UNL     1     -11.933   9.963  71.153  1.00  0.00    -0.473 C  
HETATM   20  H1  UNL     1     -12.014  12.536  70.695  1.00  0.00     0.000 HD 
HETATM   21  H2  UNL     1     -12.822  11.815  69.401  1.00  0.00     0.000 HD 
HETATM   22  C   UNL     1     -11.234   8.643  71.480  1.00  0.00    -0.290 C  
HETATM   23  C   UNL     1     -11.181  10.742  70.086  1.00  0.00    -0.267 C  
HETATM   24  N   UNL     1     -11.987   8.056  72.602  1.00  0.00    -0.578 NA 
HETATM   25  C   UNL     1     -11.147   7.712  70.230  1.00  0.00    -0.244 C  
HETATM   26  H   UNL     1     -10.501   6.830  67.946  1.00  0.00     0.000 HD 
HETATM   27  H1  UNL     1     -11.520   7.176  72.820  1.00  0.00     0.000 HD 
HETATM   28  C   UNL     1     -10.528   8.467  69.014  1.00  0.00    -0.201 C  
HETATM   29  H2  UNL     1     -12.985   7.953  72.414  1.00  0.00     0.000 HD 
HETATM   30  O   UNL     1     -10.811   7.718  67.809  1.00  0.00    -0.160 OA 
BRANCH  25  31
HETATM   31  O   UNL     1     -10.309   6.534  70.453  1.00  0.00    -0.190 OA 
BRANCH  31  32
HETATM   32  C   UNL     1      -9.513   6.567  71.644  1.00  0.00    -0.156 C  
HETATM   33  O   UNL     1      -9.989   5.662  72.649  1.00  0.00    -0.170 OA 
HETATM   34  C   UNL     1      -9.821   4.282  72.286  1.00  0.00    -0.166 C  
HETATM   35  C   UNL     1      -8.333   3.957  72.082  1.00  0.00    -0.092 C  
HETATM   36  H   UNL     1      -6.647   7.061  70.091  1.00  0.00     0.000 HD 
HETATM   37  C   UNL     1      -7.743   4.855  70.977  1.00  0.00    -0.082 C  
HETATM   38  H1  UNL     1      -5.909   5.169  70.063  1.00  0.00     0.000 HD 
HETATM   39  O   UNL     1      -8.118   2.579  71.764  1.00  0.00    -0.055 OA 
HETATM   40  H   UNL     1      -7.198   2.379  71.638  1.00  0.00     0.000 HD 
HETATM   41  H2  UNL     1      -6.124   3.586  70.615  1.00  0.00     0.000 HD 
HETATM   42  C   UNL     1      -8.014   6.329  71.326  1.00  0.00    -0.116 C  
HETATM   43  N   UNL     1      -6.298   4.575  70.795  1.00  0.00    -0.025 NA 
HETATM   44  O   UNL     1      -7.565   7.207  70.286  1.00  0.00    -0.087 OA 
BRANCH  34  45
HETATM   45  C   UNL     1     -10.402   3.413  73.411  1.00  0.00    -0.162 C  
HETATM   46  O   UNL     1     -10.996   4.225  74.423  1.00  0.00    -0.241 OA 
HETATM   47  H   UNL     1     -11.355   3.688  75.119  1.00  0.00     0.000 HD 
ENDBRANCH  34  45
ENDBRANCH  31  32
ENDBRANCH  25  31
ENDBRANCH  16  17
ENDBRANCH   7  16
ENDBRANCH   2   5
TORSDOF 6
ENDMDL
MODEL      191
REMARK 921   NORMALIZED FREE ENERGY PREDICTED BY IDOCK:   -4.73 KCAL/MOL
REMARK 922        TOTAL FREE ENERGY PREDICTED BY IDOCK:   -7.44 KCAL/MOL
REMARK 923 INTER-LIGAND FREE ENERGY PREDICTED BY IDOCK:   -7.49 KCAL/MOL
REMARK 924 INTRA-LIGAND FREE ENERGY PREDICTED BY IDOCK:    0.05 KCAL/MOL
REMARK 927      BINDING AFFINITY PREDICTED BY RF-SCORE:    0.00 PKD
ROOT
HETATM    1  N   UNL     1     -11.564   6.691  67.338  1.00  0.00    -0.643 NA 
HETATM    2  C   UNL     1     -10.539   5.751  66.860  1.00  0.00    -0.308 C  
HETATM    3  H2  UNL     1     -11.963   7.225  66.566  1.00  0.00     0.000 HD 
HETATM    4  H1  UNL     1     -12.292   6.226  67.879  1.00  0.00     0.000 HD 
ENDROOT
BRANCH   2   5
HETATM    5  C   UNL     1      -9.432   6.459  66.038  1.00  0.00     0.038 C  
HETATM    6  O   UNL     1      -8.856   7.571  66.741  1.00  0.00    -0.129 OA 
HETATM    7  C   UNL     1      -8.074   7.227  67.873  1.00  0.00    -0.119 C  
HETATM    8  C   UNL     1      -6.859   6.346  67.433  1.00  0.00    -0.069 C  
HETATM    9  C   UNL     1      -8.345   5.481  65.549  1.00  0.00    -0.136 C  
HETATM   10  N   UNL     1      -5.894   7.083  66.589  1.00  0.00    -0.028 NA 
HETATM   11  C   UNL     1      -7.370   5.108  66.672  1.00  0.00    -0.086 C  
HETATM   12  H   UNL     1      -6.966   5.503  64.170  1.00  0.00     0.000 HD 
HETATM   13  H1  UNL     1      -5.101   6.508  66.302  1.00  0.00     0.000 HD 
HETATM   14  H2  UNL     1      -5.579   7.935  67.052  1.00  0.00     0.000 HD 
HETATM   15  O   UNL     1      -7.636   6.106  64.471  1.00  0.00    -0.080 OA 
BRANCH   7  16
HETATM   16  O   UNL     1      -7.595   8.416  68.525  1.00  0.00    -0.092 OA 
BRANCH  16  17
HETATM   17  C   UNL     1      -8.592   9.249  69.186  1.00  0.00    -0.134 C  
HETATM   18  N   UNL     1      -9.420   7.441  70.678  1.00  0.00    -0.164 NA 
HETATM   19  C   UNL     1     -10.841   9.367  70.335  1.00  0.00    -0.321 C  
HETATM   20  H1  UNL     1     -10.229   6.916  71.007  1.00  0.00     0.000 HD 
HETATM   21  H2  UNL     1      -8.901   7.858  71.451  1.00  0.00     0.000 HD 
HETATM   22  C   UNL     1     -11.316  10.452  69.368  1.00  0.00    -0.250 C  
HETATM   23  C   UNL     1      -9.816   8.453  69.684  1.00  0.00    -0.184 C  
HETATM   24  N   UNL     1     -12.385  11.180  70.075  1.00  0.00    -0.298 NA 
HETATM   25  C   UNL     1     -10.139  11.366  68.905  1.00  0.00    -0.150 C  
HETATM   26  H   UNL     1      -7.991  12.119  67.796  1.00  0.00     0.000 HD 
HETATM   27  H1  UNL     1     -12.702  11.903  69.430  1.00  0.00     0.000 HD 
HETATM   28  C   UNL     1      -8.953  10.514  68.359  1.00  0.00    -0.141 C  
HETATM   29  H2  UNL     1     -12.099  11.541  70.986  1.00  0.00     0.000 HD 
HETATM   30  O   UNL     1      -7.770  11.346  68.301  1.00  0.00    -0.109 OA 
BRANCH  25  31
HETATM   31  O   UNL     1     -10.516  12.282  67.829  1.00  0.00    -0.203 OA 
BRANCH  31  32
HETATM   32  C   UNL     1      -9.550  12.426  66.781  1.00  0.00    -0.224 C  
HETATM   33  O   UNL     1     -10.056  12.014  65.505  1.00  0.00    -0.241 OA 
HETATM   34  C   UNL     1     -11.085  12.883  65.002  1.00  0.00    -0.292 C  
HETATM   35  C   UNL     1     -10.539  14.307  64.812  1.00  0.00    -0.412 C  
HETATM   36  H   UNL     1      -8.179  15.168  67.994  1.00  0.00     0.000 HD 
HETATM   37  C   UNL     1     -10.013  14.855  66.153  1.00  0.00    -0.303 C  
HETATM   38  H1  UNL     1      -9.105  16.578  66.862  1.00  0.00     0.000 HD 
HETATM   39  O   UNL     1     -11.521  15.195  64.269  1.00  0.00    -0.648 OA 
HETATM   40  H   UNL     1     -11.184  16.075  64.152  1.00  0.00     0.000 HD 
HETATM   41  H2  UNL     1     -10.125  16.850  65.544  1.00  0.00     0.000 HD 
HETATM   42  C   UNL     1      -8.983  13.869  66.731  1.00  0.00    -0.188 C  
HETATM   43  N   UNL     1      -9.453  16.216  65.974  1.00  0.00    -0.327 NA 
HETATM   44  O   UNL     1      -8.525  14.284  68.024  1.00  0.00    -0.147 OA 
BRANCH  34  45
HETATM   45  C   UNL     1     -11.578  12.322  63.661  1.00  0.00    -0.496 C  
HETATM   46  O   UNL     1     -12.820  12.918  63.289  1.00  0.00    -0.605 OA 
HETATM   47  H   UNL     1     -13.125  12.571  62.459  1.00  0.00     0.000 HD 
ENDBRANCH  34  45
ENDBRANCH  31  32
ENDBRANCH  25  31
ENDBRANCH  16  17
ENDBRANCH   7  16
ENDBRANCH   2   5
TORSDOF 6
ENDMDL
MODEL      192
REMARK 921   NORMALIZED FREE ENERGY PREDICTED BY IDOCK:   -4.71 KCAL/MOL
REMARK 922        TOTAL FREE ENERGY PREDICTED BY IDOCK:   -7.42 KCAL/MOL
REMARK 923 INTER-LIGAND FREE ENERGY PREDICTED BY IDOCK:   -6.55 KCAL/MOL
REMARK 924 INTRA-LIGAND FREE ENERGY PREDICTED BY IDOCK:   -0.87 KCAL/MOL
REMARK 927      BINDING AFFINITY PREDICTED BY RF-SCORE:    0.00 PKD
ROOT
HETATM    1  N   UNL     1      -9.600   9.946  70.091  1.00  0.00    -0.361 NA 
HETATM    2  C   UNL     1      -9.496   8.494  69.881  1.00  0.00    -0.163 C  
HETATM    3  H2  UNL     1     -10.568  10.259  70.029  1.00  0.00     0.000 HD 
HETATM    4  H1  UNL     1      -9.173  10.241  70.968  1.00  0.00     0.000 HD 
ENDROOT
BRANCH   2   5
HETATM    5  C   UNL     1     -10.145   8.046  68.547  1.00  0.00    -0.199 C  
HETATM    6  O   UNL     1      -9.843   8.941  67.465  1.00  0.00    -0.164 OA 
HETATM    7  C   UNL     1      -8.490   8.935  67.039  1.00  0.00    -0.112 C  
HETATM    8  C   UNL     1      -8.103   7.513  66.517  1.00  0.00    -0.120 C  
HETATM    9  C   UNL     1      -9.799   6.589  68.183  1.00  0.00    -0.131 C  
HETATM   10  N   UNL     1      -8.828   7.141  65.283  1.00  0.00    -0.370 NA 
HETATM   11  C   UNL     1      -8.380   6.468  67.614  1.00  0.00    -0.121 C  
HETATM   12  H   UNL     1     -10.541   5.233  66.993  1.00  0.00     0.000 HD 
HETATM   13  H1  UNL     1      -8.575   6.213  64.942  1.00  0.00     0.000 HD 
HETATM   14  H2  UNL     1      -8.699   7.845  64.557  1.00  0.00     0.000 HD 
HETATM   15  O   UNL     1     -10.754   6.131  67.218  1.00  0.00    -0.258 OA 
BRANCH   7  16
HETATM   16  O   UNL     1      -8.294   9.902  65.994  1.00  0.00    -0.119 OA 
BRANCH  16  17
HETATM   17  C   UNL     1      -9.418  10.780  65.693  1.00  0.00    -0.209 C  
HETATM   18  N   UNL     1     -10.257   9.407  63.798  1.00  0.00     0.951 NA 
HETATM   19  C   UNL     1     -10.981  11.710  63.936  1.00  0.00    -0.478 C  
HETATM   20  H1  UNL     1     -10.529   9.391  62.816  1.00  0.00     0.000 HD 
HETATM   21  H2  UNL     1     -10.999   9.051  64.400  1.00  0.00     0.000 HD 
HETATM   22  C   UNL     1     -10.623  13.144  64.327  1.00  0.00    -0.412 C  
HETATM   23  C   UNL     1      -9.830  10.756  64.206  1.00  0.00    -0.326 C  
HETATM   24  N   UNL     1     -11.764  13.974  63.902  1.00  0.00    -0.660 NA 
HETATM   25  C   UNL     1     -10.298  13.262  65.849  1.00  0.00    -0.292 C  
HETATM   26  H   UNL     1      -9.123  12.968  68.073  1.00  0.00     0.000 HD 
HETATM   27  H1  UNL     1     -11.524  14.930  64.162  1.00  0.00     0.000 HD 
HETATM   28  C   UNL     1      -9.229  12.209  66.275  1.00  0.00    -0.183 C  
HETATM   29  H2  UNL     1     -12.659  13.660  64.277  1.00  0.00     0.000 HD 
HETATM   30  O   UNL     1      -9.238  12.094  67.717  1.00  0.00    -0.176 OA 
BRANCH  25  31
HETATM   31  O   UNL     1      -9.757  14.569  66.218  1.00  0.00    -0.281 OA 
BRANCH  31  32
HETATM   32  C   UNL     1      -9.425  14.725  67.604  1.00  0.00    -0.204 C  
HETATM   33  O   UNL     1      -8.020  14.917  67.815  1.00  0.00    -0.128 OA 
HETATM   34  C   UNL     1      -7.544  16.177  67.312  1.00  0.00    -0.184 C  
HETATM   35  C   UNL     1      -8.252  17.341  68.023  1.00  0.00    -0.223 C  
HETATM   36  H   UNL     1     -12.170  16.369  68.399  1.00  0.00     0.000 HD 
HETATM   37  C   UNL     1      -9.774  17.244  67.807  1.00  0.00    -0.270 C  
HETATM   38  H1  UNL     1     -11.479  18.280  68.375  1.00  0.00     0.000 HD 
HETATM   39  O   UNL     1      -7.772  18.615  67.583  1.00  0.00    -0.229 OA 
HETATM   40  H   UNL     1      -8.210  19.335  68.021  1.00  0.00     0.000 HD 
HETATM   41  H2  UNL     1     -10.107  19.258  68.250  1.00  0.00     0.000 HD 
HETATM   42  C   UNL     1     -10.261  15.856  68.259  1.00  0.00    -0.227 C  
HETATM   43  N   UNL     1     -10.471  18.344  68.518  1.00  0.00    -0.273 NA 
HETATM   44  O   UNL     1     -11.658  15.677  67.998  1.00  0.00    -0.332 OA 
BRANCH  34  45
HETATM   45  C   UNL     1      -6.030  16.252  67.554  1.00  0.00    -0.160 C  
HETATM   46  O   UNL     1      -5.744  16.960  68.760  1.00  0.00    -0.136 OA 
HETATM   47  H   UNL     1      -4.807  17.007  68.910  1.00  0.00     0.000 HD 
ENDBRANCH  34  45
ENDBRANCH  31  32
ENDBRANCH  25  31
ENDBRANCH  16  17
ENDBRANCH   7  16
ENDBRANCH   2   5
TORSDOF 6
ENDMDL
MODEL      193
REMARK 921   NORMALIZED FREE ENERGY PREDICTED BY IDOCK:   -4.71 KCAL/MOL
REMARK 922        TOTAL FREE ENERGY PREDICTED BY IDOCK:   -7.41 KCAL/MOL
REMARK 923 INTER-LIGAND FREE ENERGY PREDICTED BY IDOCK:   -7.24 KCAL/MOL
REMARK 924 INTRA-LIGAND FREE ENERGY PREDICTED BY IDOCK:   -0.18 KCAL/MOL
REMARK 927      BINDING AFFINITY PREDICTED BY RF-SCORE:    0.00 PKD
ROOT
HETATM    1  N   UNL     1     -12.353  11.595  62.937  1.00  0.00    -0.861 NA 
HETATM    2  C   UNL     1     -11.387  11.788  64.029  1.00  0.00    -0.381 C  
HETATM    3  H2  UNL     1     -12.859  12.458  62.737  1.00  0.00     0.000 HD 
HETATM    4  H1  UNL     1     -11.915  11.221  62.096  1.00  0.00     0.000 HD 
ENDROOT
BRANCH   2   5
HETATM    5  C   UNL     1     -12.053  12.357  65.308  1.00  0.00    -0.391 C  
HETATM    6  O   UNL     1     -11.505  11.788  66.508  1.00  0.00    -0.395 OA 
HETATM    7  C   UNL     1     -10.168  12.164  66.796  1.00  0.00    -0.203 C  
HETATM    8  C   UNL     1     -10.082  13.713  66.998  1.00  0.00    -0.248 C  
HETATM    9  C   UNL     1     -12.022  13.897  65.353  1.00  0.00    -0.381 C  
HETATM   10  N   UNL     1     -10.810  14.173  68.201  1.00  0.00    -0.243 NA 
HETATM   11  C   UNL     1     -10.640  14.427  65.753  1.00  0.00    -0.326 C  
HETATM   12  H   UNL     1     -12.989  15.285  66.326  1.00  0.00     0.000 HD 
HETATM   13  H1  UNL     1     -10.754  15.183  68.333  1.00  0.00     0.000 HD 
HETATM   14  H2  UNL     1     -10.492  13.677  69.033  1.00  0.00     0.000 HD 
HETATM   15  O   UNL     1     -13.007  14.335  66.298  1.00  0.00    -0.136 OA 
BRANCH   7  16
HETATM   16  O   UNL     1      -9.710  11.497  67.984  1.00  0.00    -0.174 OA 
BRANCH  16  17
HETATM   17  C   UNL     1     -10.500  10.363  68.446  1.00  0.00    -0.189 C  
HETATM   18  N   UNL     1     -11.669  11.636  70.233  1.00  0.00    -0.492 NA 
HETATM   19  C   UNL     1     -11.653   9.223  70.386  1.00  0.00    -0.215 C  
HETATM   20  H1  UNL     1     -11.907  11.688  71.223  1.00  0.00     0.000 HD 
HETATM   21  H2  UNL     1     -12.501  11.676  69.644  1.00  0.00     0.000 HD 
HETATM   22  C   UNL     1     -10.882   7.929  70.129  1.00  0.00    -0.243 C  
HETATM   23  C   UNL     1     -10.859  10.442  69.945  1.00  0.00    -0.298 C  
HETATM   24  N   UNL     1     -11.700   6.851  70.711  1.00  0.00    -0.351 NA 
HETATM   25  C   UNL     1     -10.577   7.732  68.611  1.00  0.00    -0.120 C  
HETATM   26  H   UNL     1      -9.610   8.098  66.300  1.00  0.00     0.000 HD 
HETATM   27  H1  UNL     1     -11.185   5.987  70.540  1.00  0.00     0.000 HD 
HETATM   28  C   UNL     1      -9.896   9.000  68.010  1.00  0.00    -0.166 C  
HETATM   29  H2  UNL     1     -12.658   6.831  70.361  1.00  0.00     0.000 HD 
HETATM   30  O   UNL     1      -9.979   8.931  66.566  1.00  0.00    -0.250 OA 
BRANCH  25  31
HETATM   31  O   UNL     1      -9.670   6.615  68.350  1.00  0.00    -0.126 OA 
BRANCH  31  32
HETATM   32  C   UNL     1      -9.006   6.650  67.081  1.00  0.00    -0.118 C  
HETATM   33  O   UNL     1      -7.624   7.015  67.192  1.00  0.00    -0.102 OA 
HETATM   34  C   UNL     1      -6.831   6.012  67.849  1.00  0.00    -0.063 C  
HETATM   35  C   UNL     1      -6.869   4.694  67.060  1.00  0.00    -0.056 C  
HETATM   36  H   UNL     1     -10.674   4.119  65.785  1.00  0.00     0.000 HD 
HETATM   37  C   UNL     1      -8.321   4.197  66.931  1.00  0.00    -0.100 C  
HETATM   38  H1  UNL     1      -9.335   2.615  66.055  1.00  0.00     0.000 HD 
HETATM   39  O   UNL     1      -6.053   3.682  67.657  1.00  0.00    -0.027 OA 
HETATM   40  H   UNL     1      -6.077   2.867  67.169  1.00  0.00     0.000 HD 
HETATM   41  H2  UNL     1      -7.760   2.226  66.526  1.00  0.00     0.000 HD 
HETATM   42  C   UNL     1      -9.184   5.313  66.315  1.00  0.00    -0.149 C  
HETATM   43  N   UNL     1      -8.373   2.944  66.140  1.00  0.00    -0.092 NA 
HETATM   44  O   UNL     1     -10.565   4.938  66.254  1.00  0.00    -0.306 OA 
BRANCH  34  45
HETATM   45  C   UNL     1      -5.388   6.527  67.949  1.00  0.00    -0.008 C  
HETATM   46  O   UNL     1      -5.257   7.794  67.306  1.00  0.00    -0.025 OA 
HETATM   47  H   UNL     1      -4.364   8.113  67.369  1.00  0.00     0.000 HD 
ENDBRANCH  34  45
ENDBRANCH  31  32
ENDBRANCH  25  31
ENDBRANCH  16  17
ENDBRANCH   7  16
ENDBRANCH   2   5
TORSDOF 6
ENDMDL
MODEL      194
REMARK 921   NORMALIZED FREE ENERGY PREDICTED BY IDOCK:   -4.70 KCAL/MOL
REMARK 922        TOTAL FREE ENERGY PREDICTED BY IDOCK:   -7.41 KCAL/MOL
REMARK 923 INTER-LIGAND FREE ENERGY PREDICTED BY IDOCK:   -6.08 KCAL/MOL
REMARK 924 INTRA-LIGAND FREE ENERGY PREDICTED BY IDOCK:   -1.33 KCAL/MOL
REMARK 927      BINDING AFFINITY PREDICTED BY RF-SCORE:    0.00 PKD
ROOT
HETATM    1  N   UNL     1     -11.298   9.269  70.957  1.00  0.00    -0.293 NA 
HETATM    2  C   UNL     1     -10.076   9.822  70.355  1.00  0.00    -0.252 C  
HETATM    3  H2  UNL     1     -11.260   8.251  70.997  1.00  0.00     0.000 HD 
HETATM    4  H1  UNL     1     -11.490   9.666  71.876  1.00  0.00     0.000 HD 
ENDROOT
BRANCH   2   5
HETATM    5  C   UNL     1      -9.785   9.218  68.958  1.00  0.00    -0.162 C  
HETATM    6  O   UNL     1      -8.557   9.707  68.396  1.00  0.00    -0.118 OA 
HETATM    7  C   UNL     1      -7.378   9.269  69.052  1.00  0.00    -0.072 C  
HETATM    8  C   UNL     1      -7.273   7.711  68.974  1.00  0.00    -0.080 C  
HETATM    9  C   UNL     1      -9.824   7.677  68.963  1.00  0.00    -0.168 C  
HETATM   10  N   UNL     1      -7.072   7.220  67.593  1.00  0.00    -0.082 NA 
HETATM   11  C   UNL     1      -8.547   7.078  69.565  1.00  0.00    -0.134 C  
HETATM   12  H   UNL     1     -10.007   6.280  67.613  1.00  0.00     0.000 HD 
HETATM   13  H1  UNL     1      -7.004   6.203  67.542  1.00  0.00     0.000 HD 
HETATM   14  H2  UNL     1      -6.261   7.663  67.162  1.00  0.00     0.000 HD 
HETATM   15  O   UNL     1      -9.983   7.230  67.610  1.00  0.00    -0.145 OA 
BRANCH   7  16
HETATM   16  O   UNL     1      -6.220   9.861  68.440  1.00  0.00    -0.049 OA 
BRANCH  16  17
HETATM   17  C   UNL     1      -5.985  11.274  68.709  1.00  0.00    -0.043 C  
HETATM   18  N   UNL     1      -5.314  10.928  71.077  1.00  0.00    -0.147 NA 
HETATM   19  C   UNL     1      -6.001  13.147  70.407  1.00  0.00    -0.115 C  
HETATM   20  H1  UNL     1      -5.472  11.184  72.051  1.00  0.00     0.000 HD 
HETATM   21  H2  UNL     1      -4.338  11.059  70.808  1.00  0.00     0.000 HD 
HETATM   22  C   UNL     1      -6.916  13.991  69.519  1.00  0.00    -0.007 C  
HETATM   23  C   UNL     1      -6.225  11.661  70.184  1.00  0.00    -0.121 C  
HETATM   24  N   UNL     1      -6.689  15.390  69.923  1.00  0.00    -0.159 NA 
HETATM   25  C   UNL     1      -6.651  13.727  68.004  1.00  0.00    -0.142 C  
HETATM   26  H   UNL     1      -6.524  12.541  65.770  1.00  0.00     0.000 HD 
HETATM   27  H1  UNL     1      -7.300  15.952  69.330  1.00  0.00     0.000 HD 
HETATM   28  C   UNL     1      -6.700  12.201  67.687  1.00  0.00    -0.118 C  
HETATM   29  H2  UNL     1      -5.710  15.672  69.884  1.00  0.00     0.000 HD 
HETATM   30  O   UNL     1      -6.088  11.974  66.395  1.00  0.00    -0.091 OA 
BRANCH  25  31
HETATM   31  O   UNL     1      -7.639  14.360  67.132  1.00  0.00    -0.157 OA 
BRANCH  31  32
HETATM   32  C   UNL     1      -8.984  14.358  67.629  1.00  0.00    -0.192 C  
HETATM   33  O   UNL     1      -9.381  15.634  68.147  1.00  0.00    -0.191 OA 
HETATM   34  C   UNL     1      -9.505  16.639  67.127  1.00  0.00    -0.230 C  
HETATM   35  C   UNL     1     -10.576  16.236  66.102  1.00  0.00    -0.267 C  
HETATM   36  H   UNL     1     -10.153  12.273  65.360  1.00  0.00     0.000 HD 
HETATM   37  C   UNL     1     -10.205  14.888  65.454  1.00  0.00    -0.379 C  
HETATM   38  H1  UNL     1     -11.004  13.580  64.058  1.00  0.00     0.000 HD 
HETATM   39  O   UNL     1     -10.763  17.233  65.094  1.00  0.00    -0.687 OA 
HETATM   40  H   UNL     1     -11.425  16.983  64.460  1.00  0.00     0.000 HD 
HETATM   41  H2  UNL     1     -11.430  15.192  63.789  1.00  0.00     0.000 HD 
HETATM   42  C   UNL     1      -9.979  13.841  66.558  1.00  0.00    -0.288 C  
HETATM   43  N   UNL     1     -11.250  14.472  64.487  1.00  0.00    -0.334 NA 
HETATM   44  O   UNL     1      -9.543  12.589  66.016  1.00  0.00    -0.248 OA 
BRANCH  34  45
HETATM   45  C   UNL     1      -9.890  17.964  67.800  1.00  0.00    -0.300 C  
HETATM   46  O   UNL     1      -9.723  19.058  66.898  1.00  0.00    -0.301 OA 
HETATM   47  H   UNL     1      -9.961  19.878  67.314  1.00  0.00     0.000 HD 
ENDBRANCH  34  45
ENDBRANCH  31  32
ENDBRANCH  25  31
ENDBRANCH  16  17
ENDBRANCH   7  16
ENDBRANCH   2   5
TORSDOF 6
ENDMDL
MODEL      195
REMARK 921   NORMALIZED FREE ENERGY PREDICTED BY IDOCK:   -4.70 KCAL/MOL
REMARK 922        TOTAL FREE ENERGY PREDICTED BY IDOCK:   -7.41 KCAL/MOL
REMARK 923 INTER-LIGAND FREE ENERGY PREDICTED BY IDOCK:   -7.16 KCAL/MOL
REMARK 924 INTRA-LIGAND FREE ENERGY PREDICTED BY IDOCK:   -0.25 KCAL/MOL
REMARK 927      BINDING AFFINITY PREDICTED BY RF-SCORE:    0.00 PKD
ROOT
HETATM    1  N   UNL     1     -10.445  17.143  65.304  1.00  0.00    -0.662 NA 
HETATM    2  C   UNL     1     -11.288  16.177  64.585  1.00  0.00    -0.282 C  
HETATM    3  H2  UNL     1      -9.474  17.082  65.001  1.00  0.00     0.000 HD 
HETATM    4  H1  UNL     1     -10.797  18.097  65.224  1.00  0.00     0.000 HD 
ENDROOT
BRANCH   2   5
HETATM    5  C   UNL     1     -10.753  14.727  64.706  1.00  0.00    -0.358 C  
HETATM    6  O   UNL     1     -10.461  14.365  66.065  1.00  0.00    -0.283 OA 
HETATM    7  C   UNL     1     -11.594  14.230  66.909  1.00  0.00    -0.387 C  
HETATM    8  C   UNL     1     -12.526  13.095  66.371  1.00  0.00    -0.079 C  
HETATM    9  C   UNL     1     -11.685  13.697  64.040  1.00  0.00    -0.364 C  
HETATM   10  N   UNL     1     -11.902  11.756  66.457  1.00  0.00    -0.515 NA 
HETATM   11  C   UNL     1     -12.910  13.392  64.910  1.00  0.00    -0.292 C  
HETATM   12  H   UNL     1     -11.509  11.861  63.402  1.00  0.00     0.000 HD 
HETATM   13  H1  UNL     1     -12.510  11.015  66.106  1.00  0.00     0.000 HD 
HETATM   14  H2  UNL     1     -11.593  11.556  67.408  1.00  0.00     0.000 HD 
HETATM   15  O   UNL     1     -10.935  12.497  63.813  1.00  0.00    -0.388 OA 
BRANCH   7  16
HETATM   16  O   UNL     1     -11.181  13.919  68.250  1.00  0.00    -0.249 OA 
BRANCH  16  17
HETATM   17  C   UNL     1      -9.769  13.618  68.448  1.00  0.00    -0.217 C  
HETATM   18  N   UNL     1      -9.051  15.996  68.501  1.00  0.00    -0.195 NA 
HETATM   19  C   UNL     1      -7.369  14.316  68.060  1.00  0.00    -0.145 C  
HETATM   20  H1  UNL     1      -8.429  16.706  68.113  1.00  0.00     0.000 HD 
HETATM   21  H2  UNL     1      -8.964  15.936  69.516  1.00  0.00     0.000 HD 
HETATM   22  C   UNL     1      -7.044  12.967  67.417  1.00  0.00    -0.117 C  
HETATM   23  C   UNL     1      -8.829  14.691  67.859  1.00  0.00    -0.170 C  
HETATM   24  N   UNL     1      -5.591  12.787  67.574  1.00  0.00    -0.226 NA 
HETATM   25  C   UNL     1      -7.888  11.813  68.044  1.00  0.00    -0.134 C  
HETATM   26  H   UNL     1      -9.875  10.383  68.689  1.00  0.00     0.000 HD 
HETATM   27  H1  UNL     1      -5.374  11.888  67.144  1.00  0.00     0.000 HD 
HETATM   28  C   UNL     1      -9.407  12.164  68.034  1.00  0.00    -0.197 C  
HETATM   29  H2  UNL     1      -5.271  12.866  68.540  1.00  0.00     0.000 HD 
HETATM   30  O   UNL     1     -10.096  11.271  68.942  1.00  0.00    -0.204 OA 
BRANCH  25  31
HETATM   31  O   UNL     1      -7.753  10.549  67.320  1.00  0.00    -0.104 OA 
BRANCH  31  32
HETATM   32  C   UNL     1      -8.583  10.419  66.158  1.00  0.00    -0.144 C  
HETATM   33  O   UNL     1      -7.887  10.734  64.946  1.00  0.00    -0.017 OA 
HETATM   34  C   UNL     1      -6.867   9.775  64.619  1.00  0.00    -0.123 C  
HETATM   35  C   UNL     1      -7.484   8.383  64.415  1.00  0.00    -0.104 C  
HETATM   36  H   UNL     1     -10.293   7.835  67.286  1.00  0.00     0.000 HD 
HETATM   37  C   UNL     1      -8.217   7.937  65.695  1.00  0.00    -0.137 C  
HETATM   38  H1  UNL     1      -9.331   6.313  66.345  1.00  0.00     0.000 HD 
HETATM   39  O   UNL     1      -6.506   7.407  64.043  1.00  0.00    -0.047 OA 
HETATM   40  H   UNL     1      -6.887   6.546  63.917  1.00  0.00     0.000 HD 
HETATM   41  H2  UNL     1      -8.170   5.912  65.186  1.00  0.00     0.000 HD 
HETATM   42  C   UNL     1      -9.241   9.015  66.091  1.00  0.00    -0.216 C  
HETATM   43  N   UNL     1      -8.846   6.608  65.497  1.00  0.00    -0.046 NA 
HETATM   44  O   UNL     1      -9.891   8.695  67.327  1.00  0.00    -0.167 OA 
BRANCH  34  45
HETATM   45  C   UNL     1      -6.165  10.236  63.334  1.00  0.00    -0.132 C  
HETATM   46  O   UNL     1      -5.226  11.274  63.614  1.00  0.00    -0.457 OA 
HETATM   47  H   UNL     1      -4.791  11.559  62.819  1.00  0.00     0.000 HD 
ENDBRANCH  34  45
ENDBRANCH  31  32
ENDBRANCH  25  31
ENDBRANCH  16  17
ENDBRANCH   7  16
ENDBRANCH   2   5
TORSDOF 6
ENDMDL
MODEL      196
REMARK 921   NORMALIZED FREE ENERGY PREDICTED BY IDOCK:   -4.65 KCAL/MOL
REMARK 922        TOTAL FREE ENERGY PREDICTED BY IDOCK:   -7.33 KCAL/MOL
REMARK 923 INTER-LIGAND FREE ENERGY PREDICTED BY IDOCK:   -7.92 KCAL/MOL
REMARK 924 INTRA-LIGAND FREE ENERGY PREDICTED BY IDOCK:    0.59 KCAL/MOL
REMARK 927      BINDING AFFINITY PREDICTED BY RF-SCORE:    0.00 PKD
ROOT
HETATM    1  N   UNL     1      -7.174   6.552  67.144  1.00  0.00    -0.079 NA 
HETATM    2  C   UNL     1      -7.339   7.965  66.772  1.00  0.00    -0.089 C  
HETATM    3  H2  UNL     1      -8.077   6.102  67.290  1.00  0.00     0.000 HD 
HETATM    4  H1  UNL     1      -6.611   6.038  66.467  1.00  0.00     0.000 HD 
ENDROOT
BRANCH   2   5
HETATM    5  C   UNL     1      -8.194   8.746  67.801  1.00  0.00    -0.111 C  
HETATM    6  O   UNL     1      -8.472  10.089  67.372  1.00  0.00    -0.121 OA 
HETATM    7  C   UNL     1      -9.348  10.197  66.262  1.00  0.00    -0.172 C  
HETATM    8  C   UNL     1     -10.741   9.584  66.622  1.00  0.00    -0.016 C  
HETATM    9  C   UNL     1      -9.488   8.000  68.179  1.00  0.00    -0.143 C  
HETATM   10  N   UNL     1     -11.452  10.354  67.666  1.00  0.00    -0.592 NA 
HETATM   11  C   UNL     1     -10.558   8.128  67.088  1.00  0.00    -0.355 C  
HETATM   12  H   UNL     1     -10.774   8.089  69.644  1.00  0.00     0.000 HD 
HETATM   13  H1  UNL     1     -12.361   9.954  67.901  1.00  0.00     0.000 HD 
HETATM   14  H2  UNL     1     -11.541  11.334  67.401  1.00  0.00     0.000 HD 
HETATM   15  O   UNL     1      -9.976   8.549  69.410  1.00  0.00    -0.185 OA 
BRANCH   7  16
HETATM   16  O   UNL     1      -9.511  11.577  65.891  1.00  0.00    -0.221 OA 
BRANCH  16  17
HETATM   17  C   UNL     1     -10.251  12.423  66.818  1.00  0.00    -0.219 C  
HETATM   18  N   UNL     1     -12.399  12.265  65.579  1.00  0.00    -0.566 NA 
HETATM   19  C   UNL     1     -12.128  14.085  67.148  1.00  0.00    -0.436 C  
HETATM   20  H1  UNL     1     -13.165  12.773  65.137  1.00  0.00     0.000 HD 
HETATM   21  H2  UNL     1     -12.740  11.604  66.277  1.00  0.00     0.000 HD 
HETATM   22  C   UNL     1     -11.172  15.090  67.790  1.00  0.00    -0.321 C  
HETATM   23  C   UNL     1     -11.409  13.192  66.149  1.00  0.00    -0.312 C  
HETATM   24  N   UNL     1     -12.011  15.963  68.629  1.00  0.00    -0.470 NA 
HETATM   25  C   UNL     1     -10.029  14.376  68.578  1.00  0.00    -0.237 C  
HETATM   26  H   UNL     1      -7.978  12.975  69.069  1.00  0.00     0.000 HD 
HETATM   27  H1  UNL     1     -11.373  16.634  69.057  1.00  0.00     0.000 HD 
HETATM   28  C   UNL     1      -9.318  13.313  67.686  1.00  0.00    -0.212 C  
HETATM   29  H2  UNL     1     -12.581  15.454  69.305  1.00  0.00     0.000 HD 
HETATM   30  O   UNL     1      -8.549  12.431  68.538  1.00  0.00    -0.148 OA 
BRANCH  25  31
HETATM   31  O   UNL     1      -8.987  15.296  69.031  1.00  0.00    -0.197 OA 
BRANCH  31  32
HETATM   32  C   UNL     1      -7.993  15.625  68.053  1.00  0.00    -0.132 C  
HETATM   33  O   UNL     1      -8.460  16.583  67.094  1.00  0.00    -0.168 OA 
HETATM   34  C   UNL     1      -8.676  17.886  67.663  1.00  0.00    -0.242 C  
HETATM   35  C   UNL     1      -7.364  18.448  68.233  1.00  0.00    -0.273 C  
HETATM   36  H   UNL     1      -5.436  15.424  70.124  1.00  0.00     0.000 HD 
HETATM   37  C   UNL     1      -6.810  17.500  69.314  1.00  0.00    -0.196 C  
HETATM   38  H1  UNL     1      -5.158  17.388  70.562  1.00  0.00     0.000 HD 
HETATM   39  O   UNL     1      -7.527  19.764  68.768  1.00  0.00    -0.332 OA 
HETATM   40  H   UNL     1      -6.716  20.111  69.120  1.00  0.00     0.000 HD 
HETATM   41  H2  UNL     1      -5.613  18.972  70.189  1.00  0.00     0.000 HD 
HETATM   42  C   UNL     1      -6.673  16.086  68.724  1.00  0.00    -0.129 C  
HETATM   43  N   UNL     1      -5.525  18.016  69.846  1.00  0.00    -0.220 NA 
HETATM   44  O   UNL     1      -6.245  15.142  69.713  1.00  0.00    -0.127 OA 
BRANCH  34  45
HETATM   45  C   UNL     1      -9.213  18.810  66.561  1.00  0.00    -0.331 C  
HETATM   46  O   UNL     1     -10.149  18.121  65.733  1.00  0.00    -0.563 OA 
HETATM   47  H   UNL     1     -10.481  18.693  65.051  1.00  0.00     0.000 HD 
ENDBRANCH  34  45
ENDBRANCH  31  32
ENDBRANCH  25  31
ENDBRANCH  16  17
ENDBRANCH   7  16
ENDBRANCH   2   5
TORSDOF 6
ENDMDL
MODEL      197
REMARK 921   NORMALIZED FREE ENERGY PREDICTED BY IDOCK:   -4.64 KCAL/MOL
REMARK 922        TOTAL FREE ENERGY PREDICTED BY IDOCK:   -7.32 KCAL/MOL
REMARK 923 INTER-LIGAND FREE ENERGY PREDICTED BY IDOCK:   -6.28 KCAL/MOL
REMARK 924 INTRA-LIGAND FREE ENERGY PREDICTED BY IDOCK:   -1.04 KCAL/MOL
REMARK 927      BINDING AFFINITY PREDICTED BY RF-SCORE:    0.00 PKD
ROOT
HETATM    1  N   UNL     1      -9.102   8.784  66.986  1.00  0.00    -0.130 NA 
HETATM    2  C   UNL     1      -8.614   8.072  65.795  1.00  0.00    -0.153 C  
HETATM    3  H2  UNL     1      -8.333   9.029  67.609  1.00  0.00     0.000 HD 
HETATM    4  H1  UNL     1      -9.657   9.604  66.745  1.00  0.00     0.000 HD 
ENDROOT
BRANCH   2   5
HETATM    5  C   UNL     1      -7.771   6.825  66.161  1.00  0.00    -0.091 C  
HETATM    6  O   UNL     1      -8.458   5.947  67.066  1.00  0.00    -0.109 OA 
HETATM    7  C   UNL     1      -9.580   5.274  66.517  1.00  0.00    -0.156 C  
HETATM    8  C   UNL     1      -9.125   4.365  65.329  1.00  0.00    -0.146 C  
HETATM    9  C   UNL     1      -7.270   6.066  64.916  1.00  0.00    -0.066 C  
HETATM   10  N   UNL     1      -8.262   3.246  65.763  1.00  0.00    -0.093 NA 
HETATM   11  C   UNL     1      -8.379   5.217  64.285  1.00  0.00    -0.134 C  
HETATM   12  H   UNL     1      -5.869   4.760  64.547  1.00  0.00     0.000 HD 
HETATM   13  H1  UNL     1      -7.965   2.652  64.987  1.00  0.00     0.000 HD 
HETATM   14  H2  UNL     1      -8.715   2.696  66.492  1.00  0.00     0.000 HD 
HETATM   15  O   UNL     1      -6.178   5.228  65.314  1.00  0.00    -0.032 OA 
BRANCH   7  16
HETATM   16  O   UNL     1     -10.217   4.469  67.523  1.00  0.00    -0.091 OA 
BRANCH  16  17
HETATM   17  C   UNL     1      -9.879   4.763  68.910  1.00  0.00    -0.160 C  
HETATM   18  N   UNL     1      -8.398   2.787  69.189  1.00  0.00    -0.058 NA 
HETATM   19  C   UNL     1      -9.248   3.856  71.184  1.00  0.00    -0.201 C  
HETATM   20  H1  UNL     1      -8.187   1.953  69.738  1.00  0.00     0.000 HD 
HETATM   21  H2  UNL     1      -7.585   3.398  69.108  1.00  0.00     0.000 HD 
HETATM   22  C   UNL     1     -10.410   4.600  71.842  1.00  0.00    -0.150 C  
HETATM   23  C   UNL     1      -9.561   3.501  69.740  1.00  0.00    -0.136 C  
HETATM   24  N   UNL     1     -10.031   4.769  73.256  1.00  0.00    -0.151 NA 
HETATM   25  C   UNL     1     -10.718   5.946  71.113  1.00  0.00    -0.265 C  
HETATM   26  H   UNL     1     -11.430   7.584  69.319  1.00  0.00     0.000 HD 
HETATM   27  H1  UNL     1     -10.807   5.265  73.694  1.00  0.00     0.000 HD 
HETATM   28  C   UNL     1     -10.902   5.721  69.581  1.00  0.00    -0.348 C  
HETATM   29  H2  UNL     1      -9.128   5.226  73.385  1.00  0.00     0.000 HD 
HETATM   30  O   UNL     1     -10.805   6.998  68.908  1.00  0.00    -0.215 OA 
BRANCH  25  31
HETATM   31  O   UNL     1     -11.946   6.583  71.586  1.00  0.00    -0.322 OA 
BRANCH  31  32
HETATM   32  C   UNL     1     -11.756   7.708  72.455  1.00  0.00    -0.317 C  
HETATM   33  O   UNL     1     -10.380   7.908  72.802  1.00  0.00    -0.280 OA 
HETATM   34  C   UNL     1      -9.576   8.329  71.688  1.00  0.00    -0.198 C  
HETATM   35  C   UNL     1     -10.083   9.670  71.135  1.00  0.00    -0.050 C  
HETATM   36  H   UNL     1     -14.135   9.550  71.107  1.00  0.00     0.000 HD 
HETATM   37  C   UNL     1     -11.551   9.536  70.688  1.00  0.00    -0.283 C  
HETATM   38  H1  UNL     1     -13.034  10.745  69.888  1.00  0.00     0.000 HD 
HETATM   39  O   UNL     1      -9.279  10.147  70.052  1.00  0.00    -0.376 OA 
HETATM   40  H   UNL     1      -9.593  10.976  69.710  1.00  0.00     0.000 HD 
HETATM   41  H2  UNL     1     -11.472  11.212  69.443  1.00  0.00     0.000 HD 
HETATM   42  C   UNL     1     -12.388   8.993  71.859  1.00  0.00    -0.384 C  
HETATM   43  N   UNL     1     -12.061  10.834  70.184  1.00  0.00    -0.319 NA 
HETATM   44  O   UNL     1     -13.748   8.763  71.472  1.00  0.00    -0.372 OA 
BRANCH  34  45
HETATM   45  C   UNL     1      -8.124   8.469  72.166  1.00  0.00    -0.101 C  
HETATM   46  O   UNL     1      -8.077   8.767  73.561  1.00  0.00    -0.396 OA 
HETATM   47  H   UNL     1      -7.178   8.854  73.857  1.00  0.00     0.000 HD 
ENDBRANCH  34  45
ENDBRANCH  31  32
ENDBRANCH  25  31
ENDBRANCH  16  17
ENDBRANCH   7  16
ENDBRANCH   2   5
TORSDOF 6
ENDMDL
MODEL      198
REMARK 921   NORMALIZED FREE ENERGY PREDICTED BY IDOCK:   -4.62 KCAL/MOL
REMARK 922        TOTAL FREE ENERGY PREDICTED BY IDOCK:   -7.29 KCAL/MOL
REMARK 923 INTER-LIGAND FREE ENERGY PREDICTED BY IDOCK:   -6.93 KCAL/MOL
REMARK 924 INTRA-LIGAND FREE ENERGY PREDICTED BY IDOCK:   -0.36 KCAL/MOL
REMARK 927      BINDING AFFINITY PREDICTED BY RF-SCORE:    0.00 PKD
ROOT
HETATM    1  N   UNL     1     -12.376  11.047  68.754  1.00  0.00    -0.731 NA 
HETATM    2  C   UNL     1     -11.141  11.555  69.370  1.00  0.00    -0.226 C  
HETATM    3  H2  UNL     1     -12.286  10.994  67.739  1.00  0.00     0.000 HD 
HETATM    4  H1  UNL     1     -12.663  10.151  69.145  1.00  0.00     0.000 HD 
ENDROOT
BRANCH   2   5
HETATM    5  C   UNL     1     -10.705  12.917  68.775  1.00  0.00    -0.218 C  
HETATM    6  O   UNL     1      -9.332  12.915  68.355  1.00  0.00    -0.204 OA 
HETATM    7  C   UNL     1      -9.049  12.105  67.225  1.00  0.00    -0.181 C  
HETATM    8  C   UNL     1      -9.856  12.617  65.988  1.00  0.00    -0.254 C  
HETATM    9  C   UNL     1     -11.637  13.391  67.642  1.00  0.00    -0.340 C  
HETATM   10  N   UNL     1      -9.423  13.957  65.536  1.00  0.00    -0.511 NA 
HETATM   11  C   UNL     1     -11.358  12.649  66.329  1.00  0.00    -0.376 C  
HETATM   12  H   UNL     1     -12.013  15.091  66.761  1.00  0.00     0.000 HD 
HETATM   13  H1  UNL     1      -9.949  14.291  64.729  1.00  0.00     0.000 HD 
HETATM   14  H2  UNL     1      -8.420  13.974  65.352  1.00  0.00     0.000 HD 
HETATM   15  O   UNL     1     -11.439  14.799  67.460  1.00  0.00    -0.331 OA 
BRANCH   7  16
HETATM   16  O   UNL     1      -7.642  12.138  66.930  1.00  0.00    -0.122 OA 
BRANCH  16  17
HETATM   17  C   UNL     1      -6.759  12.594  67.996  1.00  0.00    -0.095 C  
HETATM   18  N   UNL     1      -6.641  10.385  69.129  1.00  0.00    -0.050 NA 
HETATM   19  C   UNL     1      -6.026  12.346  70.403  1.00  0.00    -0.095 C  
HETATM   20  H1  UNL     1      -6.762   9.869  70.000  1.00  0.00     0.000 HD 
HETATM   21  H2  UNL     1      -5.710  10.246  68.737  1.00  0.00     0.000 HD 
HETATM   22  C   UNL     1      -6.275  13.831  70.669  1.00  0.00    -0.031 C  
HETATM   23  C   UNL     1      -6.943  11.813  69.314  1.00  0.00    -0.065 C  
HETATM   24  N   UNL     1      -5.422  14.183  71.816  1.00  0.00    -0.211 NA 
HETATM   25  C   UNL     1      -6.002  14.696  69.398  1.00  0.00    -0.101 C  
HETATM   26  H   UNL     1      -6.229  15.658  67.067  1.00  0.00     0.000 HD 
HETATM   27  H1  UNL     1      -5.589  15.173  71.994  1.00  0.00     0.000 HD 
HETATM   28  C   UNL     1      -6.779  14.139  68.166  1.00  0.00    -0.124 C  
HETATM   29  H2  UNL     1      -4.437  13.952  71.679  1.00  0.00     0.000 HD 
HETATM   30  O   UNL     1      -6.218  14.714  66.963  1.00  0.00    -0.080 OA 
BRANCH  25  31
HETATM   31  O   UNL     1      -6.423  16.088  69.554  1.00  0.00    -0.168 OA 
BRANCH  31  32
HETATM   32  C   UNL     1      -5.460  17.067  69.146  1.00  0.00    -0.141 C  
HETATM   33  O   UNL     1      -5.704  17.562  67.824  1.00  0.00    -0.135 OA 
HETATM   34  C   UNL     1      -6.901  18.353  67.733  1.00  0.00    -0.208 C  
HETATM   35  C   UNL     1      -6.802  19.585  68.645  1.00  0.00    -0.308 C  
HETATM   36  H   UNL     1      -5.100  18.415  72.134  1.00  0.00     0.000 HD 
HETATM   37  C   UNL     1      -6.585  19.145  70.106  1.00  0.00     0.097 C  
HETATM   38  H1  UNL     1      -6.310  20.037  71.958  1.00  0.00     0.000 HD 
HETATM   39  O   UNL     1      -7.957  20.424  68.549  1.00  0.00     0.030 OA 
HETATM   40  H   UNL     1      -7.895  21.186  69.114  1.00  0.00     0.000 HD 
HETATM   41  H2  UNL     1      -7.248  20.961  70.899  1.00  0.00     0.000 HD 
HETATM   42  C   UNL     1      -5.358  18.221  70.178  1.00  0.00    -0.240 C  
HETATM   43  N   UNL     1      -6.453  20.328  70.991  1.00  0.00    -0.425 NA 
HETATM   44  O   UNL     1      -5.162  17.708  71.502  1.00  0.00    -0.415 OA 
BRANCH  34  45
HETATM   45  C   UNL     1      -7.082  18.789  66.272  1.00  0.00    -0.246 C  
HETATM   46  O   UNL     1      -8.421  19.221  66.035  1.00  0.00    -0.427 OA 
HETATM   47  H   UNL     1      -8.533  19.492  65.131  1.00  0.00     0.000 HD 
ENDBRANCH  34  45
ENDBRANCH  31  32
ENDBRANCH  25  31
ENDBRANCH  16  17
ENDBRANCH   7  16
ENDBRANCH   2   5
TORSDOF 6
ENDMDL
MODEL      199
REMARK 921   NORMALIZED FREE ENERGY PREDICTED BY IDOCK:   -4.62 KCAL/MOL
REMARK 922        TOTAL FREE ENERGY PREDICTED BY IDOCK:   -7.29 KCAL/MOL
REMARK 923 INTER-LIGAND FREE ENERGY PREDICTED BY IDOCK:   -7.54 KCAL/MOL
REMARK 924 INTRA-LIGAND FREE ENERGY PREDICTED BY IDOCK:    0.25 KCAL/MOL
REMARK 927      BINDING AFFINITY PREDICTED BY RF-SCORE:    0.00 PKD
ROOT
HETATM    1  N   UNL     1      -6.136   7.571  67.987  1.00  0.00    -0.035 NA 
HETATM    2  C   UNL     1      -5.674   6.303  68.571  1.00  0.00    -0.015 C  
HETATM    3  H2  UNL     1      -6.910   7.963  68.523  1.00  0.00     0.000 HD 
HETATM    4  H1  UNL     1      -5.380   8.247  67.884  1.00  0.00     0.000 HD 
ENDROOT
BRANCH   2   5
HETATM    5  C   UNL     1      -6.823   5.276  68.729  1.00  0.00    -0.055 C  
HETATM    6  O   UNL     1      -8.118   5.898  68.711  1.00  0.00    -0.101 OA 
HETATM    7  C   UNL     1      -8.507   6.442  67.460  1.00  0.00    -0.116 C  
HETATM    8  C   UNL     1      -8.582   5.307  66.386  1.00  0.00    -0.114 C  
HETATM    9  C   UNL     1      -6.737   4.132  67.698  1.00  0.00    -0.047 C  
HETATM   10  N   UNL     1      -9.659   4.331  66.660  1.00  0.00    -0.188 NA 
HETATM   11  C   UNL     1      -7.228   4.575  66.315  1.00  0.00    -0.076 C  
HETATM   12  H   UNL     1      -7.482   2.336  67.541  1.00  0.00     0.000 HD 
HETATM   13  H1  UNL     1      -9.708   3.591  65.959  1.00  0.00     0.000 HD 
HETATM   14  H2  UNL     1     -10.559   4.799  66.761  1.00  0.00     0.000 HD 
HETATM   15  O   UNL     1      -7.535   3.041  68.175  1.00  0.00    -0.053 OA 
BRANCH   7  16
HETATM   16  O   UNL     1      -9.790   7.082  67.574  1.00  0.00    -0.136 OA 
BRANCH  16  17
HETATM   17  C   UNL     1      -9.845   8.304  68.365  1.00  0.00    -0.172 C  
HETATM   18  N   UNL     1     -10.164   7.136  70.536  1.00  0.00    -0.195 NA 
HETATM   19  C   UNL     1     -10.761   9.475  70.411  1.00  0.00    -0.341 C  
HETATM   20  H1  UNL     1     -10.734   7.046  71.377  1.00  0.00     0.000 HD 
HETATM   21  H2  UNL     1      -9.185   7.312  70.762  1.00  0.00     0.000 HD 
HETATM   22  C   UNL     1     -11.321  10.610  69.552  1.00  0.00    -0.277 C  
HETATM   23  C   UNL     1     -10.707   8.168  69.638  1.00  0.00    -0.195 C  
HETATM   24  N   UNL     1     -11.436  11.773  70.449  1.00  0.00    -0.457 NA 
HETATM   25  C   UNL     1     -10.433  10.875  68.297  1.00  0.00    -0.179 C  
HETATM   26  H   UNL     1      -9.274  10.529  66.072  1.00  0.00     0.000 HD 
HETATM   27  H1  UNL     1     -11.811  12.530  69.877  1.00  0.00     0.000 HD 
HETATM   28  C   UNL     1     -10.178   9.555  67.506  1.00  0.00    -0.228 C  
HETATM   29  H2  UNL     1     -10.564  12.012  70.923  1.00  0.00     0.000 HD 
HETATM   30  O   UNL     1      -9.070   9.764  66.598  1.00  0.00    -0.143 OA 
BRANCH  25  31
HETATM   31  O   UNL     1     -11.043  11.809  67.352  1.00  0.00    -0.247 OA 
BRANCH  31  32
HETATM   32  C   UNL     1     -10.213  12.193  66.248  1.00  0.00    -0.223 C  
HETATM   33  O   UNL     1     -10.783  11.838  64.982  1.00  0.00    -0.274 OA 
HETATM   34  C   UNL     1     -11.963  12.595  64.667  1.00  0.00    -0.402 C  
HETATM   35  C   UNL     1     -11.636  14.095  64.590  1.00  0.00    -0.406 C  
HETATM   36  H   UNL     1      -9.110  14.972  67.637  1.00  0.00     0.000 HD 
HETATM   37  C   UNL     1     -11.058  14.579  65.934  1.00  0.00    -0.327 C  
HETATM   38  H1  UNL     1     -10.324  16.338  66.750  1.00  0.00     0.000 HD 
HETATM   39  O   UNL     1     -12.777  14.880  64.233  1.00  0.00    -0.678 OA 
HETATM   40  H   UNL     1     -12.575  15.807  64.186  1.00  0.00     0.000 HD 
HETATM   41  H2  UNL     1     -11.498  16.586  65.561  1.00  0.00     0.000 HD 
HETATM   42  C   UNL     1      -9.853  13.700  66.311  1.00  0.00    -0.301 C  
HETATM   43  N   UNL     1     -10.706  16.017  65.860  1.00  0.00    -0.309 NA 
HETATM   44  O   UNL     1      -9.330  14.048  67.599  1.00  0.00    -0.192 OA 
BRANCH  34  45
HETATM   45  C   UNL     1     -12.507  12.103  63.318  1.00  0.00    -0.411 C  
HETATM   46  O   UNL     1     -11.652  11.104  62.762  1.00  0.00    -0.640 OA 
HETATM   47  H   UNL     1     -11.988  10.799  61.927  1.00  0.00     0.000 HD 
ENDBRANCH  34  45
ENDBRANCH  31  32
ENDBRANCH  25  31
ENDBRANCH  16  17
ENDBRANCH   7  16
ENDBRANCH   2   5
TORSDOF 6
ENDMDL
MODEL      200
REMARK 921   NORMALIZED FREE ENERGY PREDICTED BY IDOCK:   -4.61 KCAL/MOL
REMARK 922        TOTAL FREE ENERGY PREDICTED BY IDOCK:   -7.29 KCAL/MOL
REMARK 923 INTER-LIGAND FREE ENERGY PREDICTED BY IDOCK:   -7.37 KCAL/MOL
REMARK 924 INTRA-LIGAND FREE ENERGY PREDICTED BY IDOCK:    0.08 KCAL/MOL
REMARK 927      BINDING AFFINITY PREDICTED BY RF-SCORE:    0.00 PKD
ROOT
HETATM    1  N   UNL     1      -7.749  17.355  67.954  1.00  0.00    -0.195 NA 
HETATM    2  C   UNL     1      -8.575  16.499  68.820  1.00  0.00    -0.262 C  
HETATM    3  H2  UNL     1      -8.077  18.320  67.971  1.00  0.00     0.000 HD 
HETATM    4  H1  UNL     1      -6.759  17.298  68.187  1.00  0.00     0.000 HD 
ENDROOT
BRANCH   2   5
HETATM    5  C   UNL     1     -10.081  16.586  68.466  1.00  0.00    -0.255 C  
HETATM    6  O   UNL     1     -10.368  16.049  67.165  1.00  0.00    -0.284 OA 
HETATM    7  C   UNL     1     -10.216  14.643  67.047  1.00  0.00    -0.261 C  
HETATM    8  C   UNL     1     -11.205  13.918  68.018  1.00  0.00    -0.271 C  
HETATM    9  C   UNL     1     -10.978  15.948  69.546  1.00  0.00    -0.311 C  
HETATM   10  N   UNL     1     -12.622  14.119  67.646  1.00  0.00    -0.367 NA 
HETATM   11  C   UNL     1     -10.973  14.418  69.457  1.00  0.00    -0.230 C  
HETATM   12  H   UNL     1     -12.864  16.052  70.034  1.00  0.00     0.000 HD 
HETATM   13  H1  UNL     1     -13.267  13.646  68.280  1.00  0.00     0.000 HD 
HETATM   14  H2  UNL     1     -12.789  13.841  66.680  1.00  0.00     0.000 HD 
HETATM   15  O   UNL     1     -12.310  16.445  69.369  1.00  0.00     0.111 OA 
BRANCH   7  16
HETATM   16  O   UNL     1     -10.477  14.227  65.696  1.00  0.00    -0.294 OA 
BRANCH  16  17
HETATM   17  C   UNL     1      -9.892  12.960  65.276  1.00  0.00    -0.095 C  
HETATM   18  N   UNL     1     -11.290  12.751  63.231  1.00  0.00    -0.761 NA 
HETATM   19  C   UNL     1     -10.225  10.755  64.083  1.00  0.00    -0.412 C  
HETATM   20  H1  UNL     1     -11.934  12.168  62.698  1.00  0.00     0.000 HD 
HETATM   21  H2  UNL     1     -10.489  13.038  62.668  1.00  0.00     0.000 HD 
HETATM   22  C   UNL     1      -9.758   9.978  65.315  1.00  0.00    -0.306 C  
HETATM   23  C   UNL     1     -10.868  12.077  64.469  1.00  0.00    -0.314 C  
HETATM   24  N   UNL     1      -9.277   8.680  64.813  1.00  0.00    -0.353 NA 
HETATM   25  C   UNL     1      -8.685  10.773  66.123  1.00  0.00    -0.180 C  
HETATM   26  H   UNL     1      -7.612  12.567  67.552  1.00  0.00     0.000 HD 
HETATM   27  H1  UNL     1      -8.966   8.162  65.635  1.00  0.00     0.000 HD 
HETATM   28  C   UNL     1      -9.182  12.216  66.441  1.00  0.00    -0.207 C  
HETATM   29  H2  UNL     1      -8.564   8.762  64.087  1.00  0.00     0.000 HD 
HETATM   30  O   UNL     1      -8.047  13.021  66.840  1.00  0.00    -0.085 OA 
BRANCH  25  31
HETATM   31  O   UNL     1      -8.366  10.155  67.410  1.00  0.00    -0.118 OA 
BRANCH  31  32
HETATM   32  C   UNL     1      -8.578  10.987  68.557  1.00  0.00    -0.158 C  
HETATM   33  O   UNL     1      -9.827  10.719  69.209  1.00  0.00    -0.205 OA 
HETATM   34  C   UNL     1      -9.864   9.429  69.840  1.00  0.00    -0.210 C  
HETATM   35  C   UNL     1      -8.780   9.329  70.924  1.00  0.00    -0.173 C  
HETATM   36  H   UNL     1      -5.413  11.063  69.477  1.00  0.00     0.000 HD 
HETATM   37  C   UNL     1      -7.388   9.557  70.302  1.00  0.00    -0.133 C  
HETATM   38  H1  UNL     1      -5.416   9.648  70.934  1.00  0.00     0.000 HD 
HETATM   39  O   UNL     1      -8.813   8.073  71.609  1.00  0.00    -0.123 OA 
HETATM   40  H   UNL     1      -8.142   8.011  72.279  1.00  0.00     0.000 HD 
HETATM   41  H2  UNL     1      -6.377   8.627  71.876  1.00  0.00     0.000 HD 
HETATM   42  C   UNL     1      -7.387  10.897  69.546  1.00  0.00    -0.093 C  
HETATM   43  N   UNL     1      -6.337   9.497  71.346  1.00  0.00    -0.252 NA 
HETATM   44  O   UNL     1      -6.143  11.119  68.871  1.00  0.00    -0.043 OA 
BRANCH  34  45
HETATM   45  C   UNL     1     -11.254   9.236  70.463  1.00  0.00    -0.265 C  
HETATM   46  O   UNL     1     -11.392   7.919  70.996  1.00  0.00    -0.266 OA 
HETATM   47  H   UNL     1     -12.252   7.800  71.382  1.00  0.00     0.000 HD 
ENDBRANCH  34  45
ENDBRANCH  31  32
ENDBRANCH  25  31
ENDBRANCH  16  17
ENDBRANCH   7  16
ENDBRANCH   2   5
TORSDOF 6
ENDMDL
MODEL      201
REMARK 921   NORMALIZED FREE ENERGY PREDICTED BY IDOCK:   -4.56 KCAL/MOL
REMARK 922        TOTAL FREE ENERGY PREDICTED BY IDOCK:   -7.21 KCAL/MOL
REMARK 923 INTER-LIGAND FREE ENERGY PREDICTED BY IDOCK:   -5.73 KCAL/MOL
REMARK 924 INTRA-LIGAND FREE ENERGY PREDICTED BY IDOCK:   -1.49 KCAL/MOL
REMARK 927      BINDING AFFINITY PREDICTED BY RF-SCORE:    0.00 PKD
ROOT
HETATM    1  N   UNL     1      -8.551  10.154  70.266  1.00  0.00    -0.342 NA 
HETATM    2  C   UNL     1      -7.365   9.334  70.552  1.00  0.00    -0.116 C  
HETATM    3  H2  UNL     1      -9.266  10.030  70.983  1.00  0.00     0.000 HD 
HETATM    4  H1  UNL     1      -8.320  11.139  70.143  1.00  0.00     0.000 HD 
ENDROOT
BRANCH   2   5
HETATM    5  C   UNL     1      -7.717   7.837  70.740  1.00  0.00    -0.084 C  
HETATM    6  O   UNL     1      -8.487   7.316  69.645  1.00  0.00    -0.131 OA 
HETATM    7  C   UNL     1      -7.787   7.203  68.417  1.00  0.00    -0.122 C  
HETATM    8  C   UNL     1      -6.583   6.218  68.578  1.00  0.00    -0.059 C  
HETATM    9  C   UNL     1      -6.473   6.969  71.013  1.00  0.00    -0.044 C  
HETATM   10  N   UNL     1      -7.015   4.825  68.830  1.00  0.00    -0.051 NA 
HETATM   11  C   UNL     1      -5.679   6.693  69.731  1.00  0.00    -0.015 C  
HETATM   12  H   UNL     1      -6.144   5.198  71.762  1.00  0.00     0.000 HD 
HETATM   13  H1  UNL     1      -6.229   4.182  68.935  1.00  0.00     0.000 HD 
HETATM   14  H2  UNL     1      -7.655   4.504  68.104  1.00  0.00     0.000 HD 
HETATM   15  O   UNL     1      -6.910   5.733  71.594  1.00  0.00    -0.063 OA 
BRANCH   7  16
HETATM   16  O   UNL     1      -8.667   6.723  67.386  1.00  0.00    -0.119 OA 
BRANCH  16  17
HETATM   17  C   UNL     1      -8.795   7.553  66.195  1.00  0.00    -0.159 C  
HETATM   18  N   UNL     1      -7.018   6.371  64.922  1.00  0.00    -0.050 NA 
HETATM   19  C   UNL     1      -7.655   8.585  64.187  1.00  0.00    -0.123 C  
HETATM   20  H1  UNL     1      -6.148   6.458  64.396  1.00  0.00     0.000 HD 
HETATM   21  H2  UNL     1      -7.738   5.893  64.381  1.00  0.00     0.000 HD 
HETATM   22  C   UNL     1      -8.131   9.981  64.591  1.00  0.00    -0.155 C  
HETATM   23  C   UNL     1      -7.480   7.685  65.399  1.00  0.00    -0.078 C  
HETATM   24  N   UNL     1      -8.138  10.777  63.351  1.00  0.00    -0.359 NA 
HETATM   25  C   UNL     1      -9.516   9.931  65.309  1.00  0.00    -0.268 C  
HETATM   26  H   UNL     1     -11.290   9.445  67.049  1.00  0.00     0.000 HD 
HETATM   27  H1  UNL     1      -8.455  11.708  63.620  1.00  0.00     0.000 HD 
HETATM   28  C   UNL     1      -9.497   8.909  66.487  1.00  0.00    -0.211 C  
HETATM   29  H2  UNL     1      -8.689  10.359  62.600  1.00  0.00     0.000 HD 
HETATM   30  O   UNL     1     -10.861   8.617  66.870  1.00  0.00    -0.178 OA 
BRANCH  25  31
HETATM   31  O   UNL     1      -9.905  11.217  65.887  1.00  0.00    -0.213 OA 
BRANCH  31  32
HETATM   32  C   UNL     1      -9.715  11.334  67.303  1.00  0.00    -0.174 C  
HETATM   33  O   UNL     1      -8.478  11.975  67.641  1.00  0.00    -0.144 OA 
HETATM   34  C   UNL     1      -8.451  13.367  67.281  1.00  0.00    -0.200 C  
HETATM   35  C   UNL     1      -9.555  14.135  68.024  1.00  0.00    -0.218 C  
HETATM   36  H   UNL     1     -12.896  11.838  68.006  1.00  0.00     0.000 HD 
HETATM   37  C   UNL     1     -10.935  13.542  67.680  1.00  0.00    -0.263 C  
HETATM   38  H1  UNL     1     -12.919  13.861  68.191  1.00  0.00     0.000 HD 
HETATM   39  O   UNL     1      -9.533  15.535  67.727  1.00  0.00    -0.203 OA 
HETATM   40  H   UNL     1     -10.216  16.010  68.186  1.00  0.00     0.000 HD 
HETATM   41  H2  UNL     1     -11.974  15.260  68.255  1.00  0.00     0.000 HD 
HETATM   42  C   UNL     1     -10.924  12.033  67.978  1.00  0.00    -0.223 C  
HETATM   43  N   UNL     1     -12.006  14.254  68.419  1.00  0.00    -0.333 NA 
HETATM   44  O   UNL     1     -12.155  11.410  67.592  1.00  0.00    -0.630 OA 
BRANCH  34  45
HETATM   45  C   UNL     1      -7.073  13.934  67.648  1.00  0.00    -0.177 C  
HETATM   46  O   UNL     1      -6.920  15.260  67.143  1.00  0.00    -0.222 OA 
HETATM   47  H   UNL     1      -6.067  15.611  67.370  1.00  0.00     0.000 HD 
ENDBRANCH  34  45
ENDBRANCH  31  32
ENDBRANCH  25  31
ENDBRANCH  16  17
ENDBRANCH   7  16
ENDBRANCH   2   5
TORSDOF 6
ENDMDL
MODEL      202
REMARK 921   NORMALIZED FREE ENERGY PREDICTED BY IDOCK:   -4.54 KCAL/MOL
REMARK 922        TOTAL FREE ENERGY PREDICTED BY IDOCK:   -7.19 KCAL/MOL
REMARK 923 INTER-LIGAND FREE ENERGY PREDICTED BY IDOCK:   -6.33 KCAL/MOL
REMARK 924 INTRA-LIGAND FREE ENERGY PREDICTED BY IDOCK:   -0.85 KCAL/MOL
REMARK 927      BINDING AFFINITY PREDICTED BY RF-SCORE:    0.00 PKD
ROOT
HETATM    1  N   UNL     1     -11.308  14.239  70.734  1.00  0.00    -0.513 NA 
HETATM    2  C   UNL     1     -11.532  13.286  69.637  1.00  0.00    -0.198 C  
HETATM    3  H2  UNL     1     -11.753  15.136  70.539  1.00  0.00     0.000 HD 
HETATM    4  H1  UNL     1     -11.606  13.868  71.635  1.00  0.00     0.000 HD 
ENDROOT
BRANCH   2   5
HETATM    5  C   UNL     1     -11.078  13.851  68.267  1.00  0.00    -0.258 C  
HETATM    6  O   UNL     1      -9.687  13.605  68.009  1.00  0.00    -0.212 OA 
HETATM    7  C   UNL     1      -9.347  12.246  67.785  1.00  0.00    -0.194 C  
HETATM    8  C   UNL     1     -10.100  11.709  66.525  1.00  0.00    -0.207 C  
HETATM    9  C   UNL     1     -11.960  13.355  67.104  1.00  0.00    -0.366 C  
HETATM   10  N   UNL     1      -9.656  12.360  65.273  1.00  0.00    -0.450 NA 
HETATM   11  C   UNL     1     -11.616  11.916  66.703  1.00  0.00    -0.337 C  
HETATM   12  H   UNL     1     -12.307  13.930  65.272  1.00  0.00     0.000 HD 
HETATM   13  H1  UNL     1     -10.147  12.009  64.450  1.00  0.00     0.000 HD 
HETATM   14  H2  UNL     1      -8.646  12.279  65.158  1.00  0.00     0.000 HD 
HETATM   15  O   UNL     1     -11.764  14.235  65.989  1.00  0.00    -0.358 OA 
BRANCH   7  16
HETATM   16  O   UNL     1      -7.929  12.114  67.591  1.00  0.00    -0.136 OA 
BRANCH  16  17
HETATM   17  C   UNL     1      -7.379  10.766  67.667  1.00  0.00    -0.094 C  
HETATM   18  N   UNL     1      -6.926  10.587  65.229  1.00  0.00    -0.293 NA 
HETATM   19  C   UNL     1      -7.033   8.542  66.515  1.00  0.00    -0.075 C  
HETATM   20  H1  UNL     1      -7.067  10.046  64.376  1.00  0.00     0.000 HD 
HETATM   21  H2  UNL     1      -5.936  10.748  65.412  1.00  0.00     0.000 HD 
HETATM   22  C   UNL     1      -7.676   7.797  67.685  1.00  0.00    -0.121 C  
HETATM   23  C   UNL     1      -7.592   9.948  66.376  1.00  0.00    -0.101 C  
HETATM   24  N   UNL     1      -7.143   6.424  67.629  1.00  0.00    -0.081 NA 
HETATM   25  C   UNL     1      -7.406   8.517  69.044  1.00  0.00    -0.081 C  
HETATM   26  H   UNL     1      -7.455  10.267  70.873  1.00  0.00     0.000 HD 
HETATM   27  H1  UNL     1      -7.573   5.927  68.409  1.00  0.00     0.000 HD 
HETATM   28  C   UNL     1      -7.801  10.023  68.965  1.00  0.00    -0.101 C  
HETATM   29  H2  UNL     1      -6.124   6.382  67.629  1.00  0.00     0.000 HD 
HETATM   30  O   UNL     1      -7.197  10.721  70.079  1.00  0.00    -0.121 OA 
BRANCH  25  31
HETATM   31  O   UNL     1      -8.171   7.949  70.152  1.00  0.00    -0.120 OA 
BRANCH  31  32
HETATM   32  C   UNL     1      -9.503   7.530  69.825  1.00  0.00    -0.156 C  
HETATM   33  O   UNL     1      -9.533   6.255  69.171  1.00  0.00    -0.133 OA 
HETATM   34  C   UNL     1      -9.147   5.172  70.033  1.00  0.00    -0.123 C  
HETATM   35  C   UNL     1     -10.108   5.068  71.228  1.00  0.00    -0.206 C  
HETATM   36  H   UNL     1     -10.908   8.830  72.509  1.00  0.00     0.000 HD 
HETATM   37  C   UNL     1     -10.104   6.387  72.025  1.00  0.00    -0.178 C  
HETATM   38  H1  UNL     1     -11.051   7.183  73.689  1.00  0.00     0.000 HD 
HETATM   39  O   UNL     1      -9.784   3.972  72.089  1.00  0.00    -0.141 OA 
HETATM   40  H   UNL     1     -10.378   3.908  72.828  1.00  0.00     0.000 HD 
HETATM   41  H2  UNL     1     -10.866   5.505  73.759  1.00  0.00     0.000 HD 
HETATM   42  C   UNL     1     -10.423   7.553  71.074  1.00  0.00    -0.215 C  
HETATM   43  N   UNL     1     -11.054   6.310  73.161  1.00  0.00    -0.216 NA 
HETATM   44  O   UNL     1     -10.345   8.817  71.744  1.00  0.00    -0.286 OA 
BRANCH  34  45
HETATM   45  C   UNL     1      -9.175   3.871  69.218  1.00  0.00    -0.157 C  
HETATM   46  O   UNL     1      -8.884   4.129  67.844  1.00  0.00    -0.103 OA 
HETATM   47  H   UNL     1      -8.901   3.324  67.340  1.00  0.00     0.000 HD 
ENDBRANCH  34  45
ENDBRANCH  31  32
ENDBRANCH  25  31
ENDBRANCH  16  17
ENDBRANCH   7  16
ENDBRANCH   2   5
TORSDOF 6
ENDMDL
MODEL      203
REMARK 921   NORMALIZED FREE ENERGY PREDICTED BY IDOCK:   -4.49 KCAL/MOL
REMARK 922        TOTAL FREE ENERGY PREDICTED BY IDOCK:   -7.11 KCAL/MOL
REMARK 923 INTER-LIGAND FREE ENERGY PREDICTED BY IDOCK:   -5.82 KCAL/MOL
REMARK 924 INTRA-LIGAND FREE ENERGY PREDICTED BY IDOCK:   -1.30 KCAL/MOL
REMARK 927      BINDING AFFINITY PREDICTED BY RF-SCORE:    0.00 PKD
ROOT
HETATM    1  N   UNL     1      -8.024   4.306  64.914  1.00  0.00    -0.092 NA 
HETATM    2  C   UNL     1      -8.929   4.700  66.003  1.00  0.00    -0.123 C  
HETATM    3  H2  UNL     1      -7.392   3.563  65.210  1.00  0.00     0.000 HD 
HETATM    4  H1  UNL     1      -8.528   4.045  64.067  1.00  0.00     0.000 HD 
ENDROOT
BRANCH   2   5
HETATM    5  C   UNL     1      -8.162   5.096  67.290  1.00  0.00    -0.107 C  
HETATM    6  O   UNL     1      -8.624   6.340  67.840  1.00  0.00    -0.116 OA 
HETATM    7  C   UNL     1      -9.931   6.305  68.391  1.00  0.00    -0.140 C  
HETATM    8  C   UNL     1      -9.982   5.287  69.576  1.00  0.00    -0.227 C  
HETATM    9  C   UNL     1      -8.170   3.977  68.350  1.00  0.00    -0.083 C  
HETATM   10  N   UNL     1      -9.160   5.712  70.730  1.00  0.00    -0.146 NA 
HETATM   11  C   UNL     1      -9.511   3.904  69.089  1.00  0.00    -0.246 C  
HETATM   12  H   UNL     1      -7.116   3.547  69.934  1.00  0.00     0.000 HD 
HETATM   13  H1  UNL     1      -9.193   5.048  71.504  1.00  0.00     0.000 HD 
HETATM   14  H2  UNL     1      -9.420   6.648  71.040  1.00  0.00     0.000 HD 
HETATM   15  O   UNL     1      -7.111   4.237  69.281  1.00  0.00    -0.049 OA 
BRANCH   7  16
HETATM   16  O   UNL     1     -10.306   7.611  68.861  1.00  0.00    -0.206 OA 
BRANCH  16  17
HETATM   17  C   UNL     1      -9.331   8.679  68.678  1.00  0.00    -0.142 C  
HETATM   18  N   UNL     1      -8.078   8.180  70.765  1.00  0.00    -0.098 NA 
HETATM   19  C   UNL     1      -7.791  10.363  69.767  1.00  0.00    -0.108 C  
HETATM   20  H1  UNL     1      -7.711   8.544  71.644  1.00  0.00     0.000 HD 
HETATM   21  H2  UNL     1      -7.348   7.737  70.208  1.00  0.00     0.000 HD 
HETATM   22  C   UNL     1      -8.435  11.509  68.987  1.00  0.00     0.116 C  
HETATM   23  C   UNL     1      -8.776   9.231  70.008  1.00  0.00    -0.195 C  
HETATM   24  N   UNL     1      -7.423  12.578  68.934  1.00  0.00    -0.283 NA 
HETATM   25  C   UNL     1      -8.926  11.043  67.580  1.00  0.00    -0.137 C  
HETATM   26  H   UNL     1     -10.246   9.837  65.787  1.00  0.00     0.000 HD 
HETATM   27  H1  UNL     1      -7.853  13.343  68.414  1.00  0.00     0.000 HD 
HETATM   28  C   UNL     1      -9.828   9.776  67.695  1.00  0.00    -0.165 C  
HETATM   29  H2  UNL     1      -6.528  12.274  68.549  1.00  0.00     0.000 HD 
HETATM   30  O   UNL     1      -9.943   9.167  66.388  1.00  0.00    -0.259 OA 
BRANCH  25  31
HETATM   31  O   UNL     1      -9.725  12.055  66.890  1.00  0.00    -0.197 OA 
BRANCH  31  32
HETATM   32  C   UNL     1     -11.006  12.325  67.473  1.00  0.00    -0.254 C  
HETATM   33  O   UNL     1     -10.921  13.195  68.610  1.00  0.00    -0.248 OA 
HETATM   34  C   UNL     1     -10.529  14.534  68.264  1.00  0.00    -0.242 C  
HETATM   35  C   UNL     1     -11.556  15.165  67.311  1.00  0.00    -0.223 C  
HETATM   36  H   UNL     1     -12.652  12.341  64.617  1.00  0.00     0.000 HD 
HETATM   37  C   UNL     1     -11.679  14.318  66.030  1.00  0.00    -0.379 C  
HETATM   38  H1  UNL     1     -12.775  14.339  64.270  1.00  0.00     0.000 HD 
HETATM   39  O   UNL     1     -11.226  16.517  66.978  1.00  0.00     0.016 OA 
HETATM   40  H   UNL     1     -11.860  16.907  66.389  1.00  0.00     0.000 HD 
HETATM   41  H2  UNL     1     -12.498  15.878  64.908  1.00  0.00     0.000 HD 
HETATM   42  C   UNL     1     -12.004  12.864  66.415  1.00  0.00    -0.395 C  
HETATM   43  N   UNL     1     -12.694  14.900  65.118  1.00  0.00    -0.100 NA 
HETATM   44  O   UNL     1     -12.041  12.010  65.265  1.00  0.00    -0.404 OA 
BRANCH  34  45
HETATM   45  C   UNL     1     -10.430  15.357  69.556  1.00  0.00    -0.261 C  
HETATM   46  O   UNL     1     -11.648  16.059  69.803  1.00  0.00    -0.323 OA 
HETATM   47  H   UNL     1     -11.587  16.568  70.603  1.00  0.00     0.000 HD 
ENDBRANCH  34  45
ENDBRANCH  31  32
ENDBRANCH  25  31
ENDBRANCH  16  17
ENDBRANCH   7  16
ENDBRANCH   2   5
TORSDOF 6
ENDMDL
MODEL      204
REMARK 921   NORMALIZED FREE ENERGY PREDICTED BY IDOCK:   -4.48 KCAL/MOL
REMARK 922        TOTAL FREE ENERGY PREDICTED BY IDOCK:   -7.11 KCAL/MOL
REMARK 923 INTER-LIGAND FREE ENERGY PREDICTED BY IDOCK:   -8.23 KCAL/MOL
REMARK 924 INTRA-LIGAND FREE ENERGY PREDICTED BY IDOCK:    1.12 KCAL/MOL
REMARK 927      BINDING AFFINITY PREDICTED BY RF-SCORE:    0.00 PKD
ROOT
HETATM    1  N   UNL     1     -10.971  16.891  64.642  1.00  0.00    -0.963 NA 
HETATM    2  C   UNL     1     -10.076  16.208  65.587  1.00  0.00    -0.337 C  
HETATM    3  H2  UNL     1     -11.920  16.526  64.703  1.00  0.00     0.000 HD 
HETATM    4  H1  UNL     1     -10.957  17.904  64.760  1.00  0.00     0.000 HD 
ENDROOT
BRANCH   2   5
HETATM    5  C   UNL     1     -10.096  14.670  65.407  1.00  0.00    -0.372 C  
HETATM    6  O   UNL     1      -9.771  13.973  66.621  1.00  0.00    -0.269 OA 
HETATM    7  C   UNL     1     -10.747  14.066  67.647  1.00  0.00    -0.257 C  
HETATM    8  C   UNL     1     -12.093  13.437  67.160  1.00  0.00    -0.318 C  
HETATM    9  C   UNL     1     -11.423  14.163  64.809  1.00  0.00    -0.383 C  
HETATM   10  N   UNL     1     -11.997  11.978  66.942  1.00  0.00    -0.609 NA 
HETATM   11  C   UNL     1     -12.541  14.125  65.857  1.00  0.00    -0.447 C  
HETATM   12  H   UNL     1     -12.020  12.537  63.911  1.00  0.00     0.000 HD 
HETATM   13  H1  UNL     1     -12.875  11.567  66.624  1.00  0.00     0.000 HD 
HETATM   14  H2  UNL     1     -11.653  11.505  67.777  1.00  0.00     0.000 HD 
HETATM   15  O   UNL     1     -11.202  12.849  64.280  1.00  0.00    -0.329 OA 
BRANCH   7  16
HETATM   16  O   UNL     1     -10.293  13.379  68.826  1.00  0.00    -0.227 OA 
BRANCH  16  17
HETATM   17  C   UNL     1     -11.024  12.177  69.207  1.00  0.00    -0.110 C  
HETATM   18  N   UNL     1     -12.860  13.401  70.351  1.00  0.00    -0.047 NA 
HETATM   19  C   UNL     1     -12.560  11.060  70.877  1.00  0.00    -0.488 C  
HETATM   20  H1  UNL     1     -13.402  13.513  71.207  1.00  0.00     0.000 HD 
HETATM   21  H2  UNL     1     -13.462  13.228  69.545  1.00  0.00     0.000 HD 
HETATM   22  C   UNL     1     -11.574   9.905  71.062  1.00  0.00    -0.389 C  
HETATM   23  C   UNL     1     -11.843  12.348  70.503  1.00  0.00    -0.062 C  
HETATM   24  N   UNL     1     -12.377   8.765  71.539  1.00  0.00    -0.316 NA 
HETATM   25  C   UNL     1     -10.783   9.607  69.750  1.00  0.00    -0.245 C  
HETATM   26  H   UNL     1      -9.198   9.894  67.796  1.00  0.00     0.000 HD 
HETATM   27  H1  UNL     1     -11.719   7.995  71.663  1.00  0.00     0.000 HD 
HETATM   28  C   UNL     1     -10.131  10.906  69.185  1.00  0.00    -0.177 C  
HETATM   29  H2  UNL     1     -13.164   8.537  70.931  1.00  0.00     0.000 HD 
HETATM   30  O   UNL     1      -9.744  10.672  67.810  1.00  0.00    -0.158 OA 
BRANCH  25  31
HETATM   31  O   UNL     1      -9.695   8.650  69.944  1.00  0.00    -0.170 OA 
BRANCH  31  32
HETATM   32  C   UNL     1      -9.975   7.583  70.858  1.00  0.00    -0.180 C  
HETATM   33  O   UNL     1     -10.191   6.331  70.194  1.00  0.00    -0.177 OA 
HETATM   34  C   UNL     1      -9.002   5.811  69.577  1.00  0.00    -0.124 C  
HETATM   35  C   UNL     1      -7.915   5.558  70.633  1.00  0.00    -0.103 C  
HETATM   36  H   UNL     1      -7.962   8.668  73.233  1.00  0.00     0.000 HD 
HETATM   37  C   UNL     1      -7.580   6.869  71.371  1.00  0.00    -0.087 C  
HETATM   38  H1  UNL     1      -6.335   7.497  72.905  1.00  0.00     0.000 HD 
HETATM   39  O   UNL     1      -6.729   4.996  70.065  1.00  0.00    -0.035 OA 
HETATM   40  H   UNL     1      -6.057   4.840  70.717  1.00  0.00     0.000 HD 
HETATM   41  H2  UNL     1      -5.722   6.185  72.036  1.00  0.00     0.000 HD 
HETATM   42  C   UNL     1      -8.875   7.469  71.946  1.00  0.00    -0.114 C  
HETATM   43  N   UNL     1      -6.557   6.629  72.417  1.00  0.00    -0.058 NA 
HETATM   44  O   UNL     1      -8.636   8.738  72.568  1.00  0.00    -0.403 OA 
BRANCH  34  45
HETATM   45  C   UNL     1      -9.362   4.500  68.864  1.00  0.00    -0.147 C  
HETATM   46  O   UNL     1      -9.366   4.678  67.447  1.00  0.00    -0.128 OA 
HETATM   47  H   UNL     1      -9.589   3.867  67.006  1.00  0.00     0.000 HD 
ENDBRANCH  34  45
ENDBRANCH  31  32
ENDBRANCH  25  31
ENDBRANCH  16  17
ENDBRANCH   7  16
ENDBRANCH   2   5
TORSDOF 6
ENDMDL
MODEL      205
REMARK 921   NORMALIZED FREE ENERGY PREDICTED BY IDOCK:   -4.47 KCAL/MOL
REMARK 922        TOTAL FREE ENERGY PREDICTED BY IDOCK:   -7.08 KCAL/MOL
REMARK 923 INTER-LIGAND FREE ENERGY PREDICTED BY IDOCK:   -5.83 KCAL/MOL
REMARK 924 INTRA-LIGAND FREE ENERGY PREDICTED BY IDOCK:   -1.26 KCAL/MOL
REMARK 927      BINDING AFFINITY PREDICTED BY RF-SCORE:    0.00 PKD
ROOT
HETATM    1  N   UNL     1     -11.703  12.090  70.095  1.00  0.00    -0.511 NA 
HETATM    2  C   UNL     1     -12.619  11.421  71.030  1.00  0.00    -0.386 C  
HETATM    3  H2  UNL     1     -12.041  12.022  69.136  1.00  0.00     0.000 HD 
HETATM    4  H1  UNL     1     -11.527  13.060  70.356  1.00  0.00     0.000 HD 
ENDROOT
BRANCH   2   5
HETATM    5  C   UNL     1     -12.887   9.947  70.634  1.00  0.00    -0.137 C  
HETATM    6  O   UNL     1     -11.675   9.184  70.519  1.00  0.00    -0.247 OA 
HETATM    7  C   UNL     1     -10.998   8.941  71.742  1.00  0.00    -0.361 C  
HETATM    8  C   UNL     1     -11.914   8.115  72.703  1.00  0.00    -0.292 C  
HETATM    9  C   UNL     1     -13.896   9.258  71.574  1.00  0.00    -0.265 C  
HETATM   10  N   UNL     1     -12.178   6.747  72.206  1.00  0.00    -0.509 NA 
HETATM   11  C   UNL     1     -13.249   8.856  72.905  1.00  0.00    -0.018 C  
HETATM   12  H   UNL     1     -15.028   7.671  71.486  1.00  0.00     0.000 HD 
HETATM   13  H1  UNL     1     -12.775   6.208  72.834  1.00  0.00     0.000 HD 
HETATM   14  H2  UNL     1     -11.306   6.253  72.017  1.00  0.00     0.000 HD 
HETATM   15  O   UNL     1     -14.406   8.096  70.907  1.00  0.00    -0.099 OA 
BRANCH   7  16
HETATM   16  O   UNL     1      -9.779   8.218  71.499  1.00  0.00    -0.165 OA 
BRANCH  16  17
HETATM   17  C   UNL     1      -9.383   8.049  70.107  1.00  0.00    -0.156 C  
HETATM   18  N   UNL     1     -10.399   5.792  69.873  1.00  0.00    -0.236 NA 
HETATM   19  C   UNL     1      -8.719   6.450  68.264  1.00  0.00    -0.116 C  
HETATM   20  H1  UNL     1     -10.253   4.817  69.612  1.00  0.00     0.000 HD 
HETATM   21  H2  UNL     1     -11.175   6.207  69.357  1.00  0.00     0.000 HD 
HETATM   22  C   UNL     1      -7.429   7.230  68.005  1.00  0.00    -0.102 C  
HETATM   23  C   UNL     1      -9.162   6.573  69.712  1.00  0.00    -0.145 C  
HETATM   24  N   UNL     1      -7.048   6.926  66.615  1.00  0.00    -0.069 NA 
HETATM   25  C   UNL     1      -7.614   8.755  68.283  1.00  0.00    -0.096 C  
HETATM   26  H   UNL     1      -8.008  10.929  69.520  1.00  0.00     0.000 HD 
HETATM   27  H1  UNL     1      -6.188   7.446  66.442  1.00  0.00     0.000 HD 
HETATM   28  C   UNL     1      -8.219   8.995  69.700  1.00  0.00    -0.116 C  
HETATM   29  H2  UNL     1      -7.786   7.121  65.937  1.00  0.00     0.000 HD 
HETATM   30  O   UNL     1      -8.719  10.351  69.769  1.00  0.00    -0.114 OA 
BRANCH  25  31
HETATM   31  O   UNL     1      -6.356   9.499  68.242  1.00  0.00    -0.052 OA 
BRANCH  31  32
HETATM   32  C   UNL     1      -6.086  10.178  67.009  1.00  0.00    -0.055 C  
HETATM   33  O   UNL     1      -7.005   9.817  65.970  1.00  0.00    -0.092 OA 
HETATM   34  C   UNL     1      -8.341  10.287  66.215  1.00  0.00    -0.134 C  
HETATM   35  C   UNL     1      -8.364  11.822  66.299  1.00  0.00     0.024 C  
HETATM   36  H   UNL     1      -5.110  12.997  68.412  1.00  0.00     0.000 HD 
HETATM   37  C   UNL     1      -7.435  12.302  67.431  1.00  0.00    -0.160 C  
HETATM   38  H1  UNL     1      -6.807  14.101  68.248  1.00  0.00     0.000 HD 
HETATM   39  O   UNL     1      -9.686  12.333  66.497  1.00  0.00    -0.222 OA 
HETATM   40  H   UNL     1      -9.700  13.281  66.550  1.00  0.00     0.000 HD 
HETATM   41  H2  UNL     1      -8.363  14.167  67.592  1.00  0.00     0.000 HD 
HETATM   42  C   UNL     1      -6.030  11.715  67.213  1.00  0.00    -0.112 C  
HETATM   43  N   UNL     1      -7.423  13.783  67.499  1.00  0.00    -0.176 NA 
HETATM   44  O   UNL     1      -5.144  12.056  68.287  1.00  0.00    -0.047 OA 
BRANCH  34  45
HETATM   45  C   UNL     1      -9.240   9.808  65.066  1.00  0.00    -0.249 C  
HETATM   46  O   UNL     1      -8.980   8.439  64.757  1.00  0.00    -0.410 OA 
HETATM   47  H   UNL     1      -9.536   8.142  64.047  1.00  0.00     0.000 HD 
ENDBRANCH  34  45
ENDBRANCH  31  32
ENDBRANCH  25  31
ENDBRANCH  16  17
ENDBRANCH   7  16
ENDBRANCH   2   5
TORSDOF 6
ENDMDL
MODEL      206
REMARK 921   NORMALIZED FREE ENERGY PREDICTED BY IDOCK:   -4.45 KCAL/MOL
REMARK 922        TOTAL FREE ENERGY PREDICTED BY IDOCK:   -7.06 KCAL/MOL
REMARK 923 INTER-LIGAND FREE ENERGY PREDICTED BY IDOCK:   -7.14 KCAL/MOL
REMARK 924 INTRA-LIGAND FREE ENERGY PREDICTED BY IDOCK:    0.07 KCAL/MOL
REMARK 927      BINDING AFFINITY PREDICTED BY RF-SCORE:    0.00 PKD
ROOT
HETATM    1  N   UNL     1     -12.187  14.743  69.414  1.00  0.00    -0.513 NA 
HETATM    2  C   UNL     1     -11.421  15.953  69.082  1.00  0.00    -0.377 C  
HETATM    3  H2  UNL     1     -11.975  14.421  70.358  1.00  0.00     0.000 HD 
HETATM    4  H1  UNL     1     -13.189  14.873  69.286  1.00  0.00     0.000 HD 
ENDROOT
BRANCH   2   5
HETATM    5  C   UNL     1      -9.896  15.755  69.278  1.00  0.00    -0.265 C  
HETATM    6  O   UNL     1      -9.455  14.457  68.850  1.00  0.00    -0.188 OA 
HETATM    7  C   UNL     1      -9.507  14.235  67.450  1.00  0.00    -0.211 C  
HETATM    8  C   UNL     1      -8.571  15.249  66.715  1.00  0.00    -0.265 C  
HETATM    9  C   UNL     1      -9.067  16.874  68.617  1.00  0.00    -0.265 C  
HETATM   10  N   UNL     1      -7.140  15.032  67.021  1.00  0.00    -0.323 NA 
HETATM   11  C   UNL     1      -8.967  16.687  67.099  1.00  0.00    -0.225 C  
HETATM   12  H   UNL     1      -7.246  17.551  68.793  1.00  0.00     0.000 HD 
HETATM   13  H1  UNL     1      -6.529  15.694  66.542  1.00  0.00     0.000 HD 
HETATM   14  H2  UNL     1      -6.865  14.070  66.822  1.00  0.00     0.000 HD 
HETATM   15  O   UNL     1      -7.757  16.862  69.200  1.00  0.00    -0.227 OA 
BRANCH   7  16
HETATM   16  O   UNL     1      -9.094  12.892  67.145  1.00  0.00    -0.204 OA 
BRANCH  16  17
HETATM   17  C   UNL     1      -9.912  11.815  67.690  1.00  0.00    -0.194 C  
HETATM   18  N   UNL     1     -12.067  12.766  66.898  1.00  0.00    -0.468 NA 
HETATM   19  C   UNL     1     -12.138  11.120  68.667  1.00  0.00    -0.180 C  
HETATM   20  H1  UNL     1     -13.009  13.064  67.152  1.00  0.00     0.000 HD 
HETATM   21  H2  UNL     1     -12.081  12.079  66.145  1.00  0.00     0.000 HD 
HETATM   22  C   UNL     1     -11.452  10.539  69.905  1.00  0.00    -0.310 C  
HETATM   23  C   UNL     1     -11.337  12.267  68.074  1.00  0.00    -0.293 C  
HETATM   24  N   UNL     1     -12.384   9.535  70.446  1.00  0.00    -0.477 NA 
HETATM   25  C   UNL     1     -10.042   9.964  69.565  1.00  0.00    -0.221 C  
HETATM   26  H   UNL     1      -7.611   9.852  68.866  1.00  0.00     0.000 HD 
HETATM   27  H1  UNL     1     -11.927   9.148  71.272  1.00  0.00     0.000 HD 
HETATM   28  C   UNL     1      -9.179  11.016  68.804  1.00  0.00    -0.162 C  
HETATM   29  H2  UNL     1     -12.664   8.828  69.765  1.00  0.00     0.000 HD 
HETATM   30  O   UNL     1      -8.059  10.340  68.186  1.00  0.00    -0.107 OA 
BRANCH  25  31
HETATM   31  O   UNL     1      -9.277   9.587  70.753  1.00  0.00    -0.236 OA 
BRANCH  31  32
HETATM   32  C   UNL     1      -9.484   8.245  71.212  1.00  0.00    -0.172 C  
HETATM   33  O   UNL     1      -9.525   7.296  70.138  1.00  0.00    -0.165 OA 
HETATM   34  C   UNL     1      -8.256   7.132  69.485  1.00  0.00    -0.132 C  
HETATM   35  C   UNL     1      -7.202   6.616  70.478  1.00  0.00    -0.073 C  
HETATM   36  H   UNL     1      -7.727   8.589  73.981  1.00  0.00     0.000 HD 
HETATM   37  C   UNL     1      -7.053   7.605  71.650  1.00  0.00    -0.063 C  
HETATM   38  H1  UNL     1      -5.965   7.754  73.409  1.00  0.00     0.000 HD 
HETATM   39  O   UNL     1      -5.934   6.396  69.855  1.00  0.00    -0.021 OA 
HETATM   40  H   UNL     1      -5.282   6.078  70.469  1.00  0.00     0.000 HD 
HETATM   41  H2  UNL     1      -5.167   6.892  72.195  1.00  0.00     0.000 HD 
HETATM   42  C   UNL     1      -8.434   7.849  72.284  1.00  0.00    -0.140 C  
HETATM   43  N   UNL     1      -6.064   7.100  72.633  1.00  0.00    -0.044 NA 
HETATM   44  O   UNL     1      -8.370   8.831  73.325  1.00  0.00    -0.389 OA 
BRANCH  34  45
HETATM   45  C   UNL     1      -8.431   6.132  68.333  1.00  0.00    -0.114 C  
HETATM   46  O   UNL     1      -9.109   6.740  67.234  1.00  0.00    -0.118 OA 
HETATM   47  H   UNL     1      -9.217   6.121  66.521  1.00  0.00     0.000 HD 
ENDBRANCH  34  45
ENDBRANCH  31  32
ENDBRANCH  25  31
ENDBRANCH  16  17
ENDBRANCH   7  16
ENDBRANCH   2   5
TORSDOF 6
ENDMDL
MODEL      207
REMARK 921   NORMALIZED FREE ENERGY PREDICTED BY IDOCK:   -4.43 KCAL/MOL
REMARK 922        TOTAL FREE ENERGY PREDICTED BY IDOCK:   -7.04 KCAL/MOL
REMARK 923 INTER-LIGAND FREE ENERGY PREDICTED BY IDOCK:   -6.83 KCAL/MOL
REMARK 924 INTRA-LIGAND FREE ENERGY PREDICTED BY IDOCK:   -0.21 KCAL/MOL
REMARK 927      BINDING AFFINITY PREDICTED BY RF-SCORE:    0.00 PKD
ROOT
HETATM    1  N   UNL     1      -6.464   3.349  64.459  1.00  0.00    -0.033 NA 
HETATM    2  C   UNL     1      -7.349   4.510  64.632  1.00  0.00    -0.071 C  
HETATM    3  H2  UNL     1      -6.688   2.612  65.127  1.00  0.00     0.000 HD 
HETATM    4  H1  UNL     1      -6.473   2.995  63.503  1.00  0.00     0.000 HD 
ENDROOT
BRANCH   2   5
HETATM    5  C   UNL     1      -7.334   5.048  66.085  1.00  0.00    -0.078 C  
HETATM    6  O   UNL     1      -7.267   6.482  66.136  1.00  0.00    -0.069 OA 
HETATM    7  C   UNL     1      -8.432   7.155  65.687  1.00  0.00    -0.134 C  
HETATM    8  C   UNL     1      -9.651   6.768  66.587  1.00  0.00    -0.163 C  
HETATM    9  C   UNL     1      -8.511   4.512  66.924  1.00  0.00    -0.105 C  
HETATM   10  N   UNL     1      -9.514   7.259  67.976  1.00  0.00    -0.136 NA 
HETATM   11  C   UNL     1      -9.821   5.238  66.595  1.00  0.00    -0.198 C  
HETATM   12  H   UNL     1      -8.914   4.358  68.827  1.00  0.00     0.000 HD 
HETATM   13  H1  UNL     1     -10.309   7.006  68.563  1.00  0.00     0.000 HD 
HETATM   14  H2  UNL     1      -9.350   8.265  67.994  1.00  0.00     0.000 HD 
HETATM   15  O   UNL     1      -8.188   4.688  68.310  1.00  0.00    -0.090 OA 
BRANCH   7  16
HETATM   16  O   UNL     1      -8.232   8.578  65.733  1.00  0.00    -0.111 OA 
BRANCH  16  17
HETATM   17  C   UNL     1      -9.263   9.406  65.118  1.00  0.00    -0.225 C  
HETATM   18  N   UNL     1      -8.764   8.673  62.796  1.00  0.00    -0.428 NA 
HETATM   19  C   UNL     1     -10.004  10.728  63.094  1.00  0.00    -0.341 C  
HETATM   20  H1  UNL     1      -8.536   8.961  61.845  1.00  0.00     0.000 HD 
HETATM   21  H2  UNL     1      -9.590   8.075  62.820  1.00  0.00     0.000 HD 
HETATM   22  C   UNL     1     -10.227  11.976  63.949  1.00  0.00    -0.398 C  
HETATM   23  C   UNL     1      -8.916   9.841  63.679  1.00  0.00    -0.240 C  
HETATM   24  N   UNL     1     -11.202  12.798  63.212  1.00  0.00    -0.715 NA 
HETATM   25  C   UNL     1     -10.686  11.609  65.395  1.00  0.00    -0.287 C  
HETATM   26  H   UNL     1     -10.646  10.695  67.756  1.00  0.00     0.000 HD 
HETATM   27  H1  UNL     1     -11.351  13.631  63.781  1.00  0.00     0.000 HD 
HETATM   28  C   UNL     1      -9.718  10.571  66.041  1.00  0.00    -0.205 C  
HETATM   29  H2  UNL     1     -12.064  12.302  62.981  1.00  0.00     0.000 HD 
HETATM   30  O   UNL     1     -10.367   9.983  67.193  1.00  0.00    -0.214 OA 
BRANCH  25  31
HETATM   31  O   UNL     1     -10.713  12.761  66.295  1.00  0.00    -0.265 OA 
BRANCH  31  32
HETATM   32  C   UNL     1     -10.178  12.527  67.604  1.00  0.00    -0.219 C  
HETATM   33  O   UNL     1      -8.854  13.053  67.760  1.00  0.00    -0.167 OA 
HETATM   34  C   UNL     1      -8.815  14.490  67.740  1.00  0.00    -0.183 C  
HETATM   35  C   UNL     1      -9.648  15.067  68.894  1.00  0.00    -0.221 C  
HETATM   36  H   UNL     1     -13.051  12.882  69.182  1.00  0.00     0.000 HD 
HETATM   37  C   UNL     1     -11.109  14.591  68.780  1.00  0.00    -0.251 C  
HETATM   38  H1  UNL     1     -12.883  14.799  69.834  1.00  0.00     0.000 HD 
HETATM   39  O   UNL     1      -9.598  16.496  68.937  1.00  0.00    -0.243 OA 
HETATM   40  H   UNL     1     -10.114  16.852  69.650  1.00  0.00     0.000 HD 
HETATM   41  H2  UNL     1     -11.852  16.129  69.983  1.00  0.00     0.000 HD 
HETATM   42  C   UNL     1     -11.135  13.054  68.706  1.00  0.00    -0.270 C  
HETATM   43  N   UNL     1     -11.916  15.114  69.910  1.00  0.00    -0.317 NA 
HETATM   44  O   UNL     1     -12.465  12.559  68.508  1.00  0.00     0.086 OA 
BRANCH  34  45
HETATM   45  C   UNL     1      -7.351  14.934  67.870  1.00  0.00    -0.147 C  
HETATM   46  O   UNL     1      -6.497  14.102  67.086  1.00  0.00    -0.387 OA 
HETATM   47  H   UNL     1      -5.591  14.378  67.167  1.00  0.00     0.000 HD 
ENDBRANCH  34  45
ENDBRANCH  31  32
ENDBRANCH  25  31
ENDBRANCH  16  17
ENDBRANCH   7  16
ENDBRANCH   2   5
TORSDOF 6
ENDMDL
MODEL      208
REMARK 921   NORMALIZED FREE ENERGY PREDICTED BY IDOCK:   -4.39 KCAL/MOL
REMARK 922        TOTAL FREE ENERGY PREDICTED BY IDOCK:   -6.99 KCAL/MOL
REMARK 923 INTER-LIGAND FREE ENERGY PREDICTED BY IDOCK:   -6.03 KCAL/MOL
REMARK 924 INTRA-LIGAND FREE ENERGY PREDICTED BY IDOCK:   -0.96 KCAL/MOL
REMARK 927      BINDING AFFINITY PREDICTED BY RF-SCORE:    0.00 PKD
ROOT
HETATM    1  N   UNL     1      -8.577  15.476  68.664  1.00  0.00    -0.168 NA 
HETATM    2  C   UNL     1      -9.162  15.614  70.006  1.00  0.00     0.274 C  
HETATM    3  H2  UNL     1      -8.705  16.328  68.118  1.00  0.00     0.000 HD 
HETATM    4  H1  UNL     1      -7.596  15.203  68.696  1.00  0.00     0.000 HD 
ENDROOT
BRANCH   2   5
HETATM    5  C   UNL     1     -10.654  16.029  69.956  1.00  0.00    -0.296 C  
HETATM    6  O   UNL     1     -11.379  15.339  68.926  1.00  0.00    -0.268 OA 
HETATM    7  C   UNL     1     -11.567  13.951  69.150  1.00  0.00    -0.313 C  
HETATM    8  C   UNL     1     -12.397  13.729  70.456  1.00  0.00    -0.359 C  
HETATM    9  C   UNL     1     -11.351  15.887  71.324  1.00  0.00    -0.365 C  
HETATM   10  N   UNL     1     -13.786  14.226  70.342  1.00  0.00    -0.057 NA 
HETATM   11  C   UNL     1     -11.696  14.427  71.636  1.00  0.00    -0.004 C  
HETATM   12  H   UNL     1     -12.976  16.591  72.142  1.00  0.00     0.000 HD 
HETATM   13  H1  UNL     1     -14.328  14.081  71.194  1.00  0.00     0.000 HD 
HETATM   14  H2  UNL     1     -14.256  13.815  69.535  1.00  0.00     0.000 HD 
HETATM   15  O   UNL     1     -12.546  16.679  71.300  1.00  0.00     0.669 OA 
BRANCH   7  16
HETATM   16  O   UNL     1     -12.255  13.358  68.035  1.00  0.00    -0.289 OA 
BRANCH  16  17
HETATM   17  C   UNL     1     -11.493  13.200  66.803  1.00  0.00    -0.343 C  
HETATM   18  N   UNL     1     -13.185  14.317  65.365  1.00  0.00    -0.584 NA 
HETATM   19  C   UNL     1     -11.546  12.899  64.292  1.00  0.00    -0.434 C  
HETATM   20  H1  UNL     1     -13.773  14.248  64.535  1.00  0.00     0.000 HD 
HETATM   21  H2  UNL     1     -12.600  15.151  65.343  1.00  0.00     0.000 HD 
HETATM   22  C   UNL     1     -10.679  11.644  64.390  1.00  0.00    -0.330 C  
HETATM   23  C   UNL     1     -12.383  13.096  65.546  1.00  0.00    -0.474 C  
HETATM   24  N   UNL     1     -10.025  11.505  63.077  1.00  0.00    -0.586 NA 
HETATM   25  C   UNL     1      -9.676  11.728  65.582  1.00  0.00    -0.233 C  
HETATM   26  H   UNL     1      -8.777  11.841  67.947  1.00  0.00     0.000 HD 
HETATM   27  H1  UNL     1      -9.447  10.667  63.142  1.00  0.00     0.000 HD 
HETATM   28  C   UNL     1     -10.414  12.086  66.908  1.00  0.00    -0.223 C  
HETATM   29  H2  UNL     1      -9.508  12.336  62.788  1.00  0.00     0.000 HD 
HETATM   30  O   UNL     1      -9.437  12.521  67.882  1.00  0.00    -0.183 OA 
BRANCH  25  31
HETATM   31  O   UNL     1      -8.975  10.469  65.829  1.00  0.00    -0.167 OA 
BRANCH  31  32
HETATM   32  C   UNL     1      -9.657   9.291  65.379  1.00  0.00    -0.167 C  
HETATM   33  O   UNL     1      -9.005   8.669  64.264  1.00  0.00     0.051 OA 
HETATM   34  C   UNL     1      -7.735   8.092  64.609  1.00  0.00    -0.126 C  
HETATM   35  C   UNL     1      -7.912   6.997  65.672  1.00  0.00    -0.123 C  
HETATM   36  H   UNL     1     -10.623   8.324  68.379  1.00  0.00     0.000 HD 
HETATM   37  C   UNL     1      -8.566   7.589  66.935  1.00  0.00    -0.124 C  
HETATM   38  H1  UNL     1      -9.207   6.926  68.793  1.00  0.00     0.000 HD 
HETATM   39  O   UNL     1      -6.674   6.365  66.010  1.00  0.00    -0.046 OA 
HETATM   40  H   UNL     1      -6.783   5.689  66.668  1.00  0.00     0.000 HD 
HETATM   41  H2  UNL     1      -7.908   6.041  68.174  1.00  0.00     0.000 HD 
HETATM   42  C   UNL     1      -9.879   8.289  66.543  1.00  0.00    -0.253 C  
HETATM   43  N   UNL     1      -8.774   6.534  67.956  1.00  0.00    -0.117 NA 
HETATM   44  O   UNL     1     -10.487   8.937  67.667  1.00  0.00    -0.246 OA 
BRANCH  34  45
HETATM   45  C   UNL     1      -7.114   7.497  63.336  1.00  0.00    -0.074 C  
HETATM   46  O   UNL     1      -7.544   6.150  63.146  1.00  0.00    -0.069 OA 
HETATM   47  H   UNL     1      -7.160   5.782  62.358  1.00  0.00     0.000 HD 
ENDBRANCH  34  45
ENDBRANCH  31  32
ENDBRANCH  25  31
ENDBRANCH  16  17
ENDBRANCH   7  16
ENDBRANCH   2   5
TORSDOF 6
ENDMDL
MODEL      209
REMARK 921   NORMALIZED FREE ENERGY PREDICTED BY IDOCK:   -4.39 KCAL/MOL
REMARK 922        TOTAL FREE ENERGY PREDICTED BY IDOCK:   -6.98 KCAL/MOL
REMARK 923 INTER-LIGAND FREE ENERGY PREDICTED BY IDOCK:   -6.53 KCAL/MOL
REMARK 924 INTRA-LIGAND FREE ENERGY PREDICTED BY IDOCK:   -0.45 KCAL/MOL
REMARK 927      BINDING AFFINITY PREDICTED BY RF-SCORE:    0.00 PKD
ROOT
HETATM    1  N   UNL     1      -7.156  13.328  69.198  1.00  0.00    -0.274 NA 
HETATM    2  C   UNL     1      -7.073  12.427  68.039  1.00  0.00    -0.099 C  
HETATM    3  H2  UNL     1      -8.069  13.266  69.648  1.00  0.00     0.000 HD 
HETATM    4  H1  UNL     1      -6.404  13.167  69.867  1.00  0.00     0.000 HD 
ENDROOT
BRANCH   2   5
HETATM    5  C   UNL     1      -8.216  12.673  67.023  1.00  0.00    -0.108 C  
HETATM    6  O   UNL     1      -9.182  11.610  67.020  1.00  0.00    -0.175 OA 
HETATM    7  C   UNL     1      -9.976  11.517  68.193  1.00  0.00    -0.192 C  
HETATM    8  C   UNL     1     -10.807  12.828  68.379  1.00  0.00    -0.249 C  
HETATM    9  C   UNL     1      -8.892  14.045  67.215  1.00  0.00    -0.218 C  
HETATM   10  N   UNL     1     -11.822  13.017  67.320  1.00  0.00    -0.372 NA 
HETATM   11  C   UNL     1      -9.858  14.040  68.406  1.00  0.00    -0.232 C  
HETATM   12  H   UNL     1     -10.016  15.212  66.129  1.00  0.00     0.000 HD 
HETATM   13  H1  UNL     1     -12.365  13.873  67.442  1.00  0.00     0.000 HD 
HETATM   14  H2  UNL     1     -12.433  12.204  67.250  1.00  0.00     0.000 HD 
HETATM   15  O   UNL     1      -9.600  14.366  66.011  1.00  0.00    -0.302 OA 
BRANCH   7  16
HETATM   16  O   UNL     1     -10.867  10.391  68.101  1.00  0.00    -0.224 OA 
BRANCH  16  17
HETATM   17  C   UNL     1     -10.252   9.070  68.071  1.00  0.00    -0.212 C  
HETATM   18  N   UNL     1      -9.753   9.124  65.637  1.00  0.00    -0.447 NA 
HETATM   19  C   UNL     1      -9.780   6.973  66.740  1.00  0.00    -0.241 C  
HETATM   20  H1  UNL     1      -9.854   8.653  64.738  1.00  0.00     0.000 HD 
HETATM   21  H2  UNL     1      -8.775   9.316  65.853  1.00  0.00     0.000 HD 
HETATM   22  C   UNL     1     -10.404   6.099  67.828  1.00  0.00    -0.198 C  
HETATM   23  C   UNL     1     -10.405   8.358  66.711  1.00  0.00    -0.287 C  
HETATM   24  N   UNL     1      -9.804   4.764  67.665  1.00  0.00    -0.165 NA 
HETATM   25  C   UNL     1     -10.192   6.711  69.249  1.00  0.00    -0.183 C  
HETATM   26  H   UNL     1     -10.355   8.291  71.220  1.00  0.00     0.000 HD 
HETATM   27  H1  UNL     1     -10.221   4.181  68.391  1.00  0.00     0.000 HD 
HETATM   28  C   UNL     1     -10.658   8.198  69.292  1.00  0.00    -0.182 C  
HETATM   29  H2  UNL     1      -8.784   4.769  67.682  1.00  0.00     0.000 HD 
HETATM   30  O   UNL     1     -10.107   8.824  70.474  1.00  0.00    -0.182 OA 
BRANCH  25  31
HETATM   31  O   UNL     1     -10.946   6.013  70.289  1.00  0.00    -0.301 OA 
BRANCH  31  32
HETATM   32  C   UNL     1     -10.184   5.097  71.087  1.00  0.00    -0.221 C  
HETATM   33  O   UNL     1      -8.787   5.116  70.764  1.00  0.00    -0.128 OA 
HETATM   34  C   UNL     1      -8.143   6.347  71.132  1.00  0.00    -0.117 C  
HETATM   35  C   UNL     1      -8.240   6.572  72.649  1.00  0.00    -0.110 C  
HETATM   36  H   UNL     1     -11.971   5.508  73.827  1.00  0.00     0.000 HD 
HETATM   37  C   UNL     1      -9.718   6.615  73.084  1.00  0.00    -0.160 C  
HETATM   38  H1  UNL     1     -10.801   6.825  74.840  1.00  0.00     0.000 HD 
HETATM   39  O   UNL     1      -7.570   7.766  73.064  1.00  0.00    -0.096 OA 
HETATM   40  H   UNL     1      -7.630   7.905  74.001  1.00  0.00     0.000 HD 
HETATM   41  H2  UNL     1      -9.310   7.618  74.870  1.00  0.00     0.000 HD 
HETATM   42  C   UNL     1     -10.423   5.336  72.601  1.00  0.00    -0.218 C  
HETATM   43  N   UNL     1      -9.822   6.796  74.552  1.00  0.00    -0.283 NA 
HETATM   44  O   UNL     1     -11.824   5.362  72.900  1.00  0.00    -0.263 OA 
BRANCH  34  45
HETATM   45  C   UNL     1      -6.672   6.270  70.702  1.00  0.00    -0.061 C  
HETATM   46  O   UNL     1      -5.847   5.857  71.791  1.00  0.00    -0.028 OA 
HETATM   47  H   UNL     1      -4.936   5.809  71.525  1.00  0.00     0.000 HD 
ENDBRANCH  34  45
ENDBRANCH  31  32
ENDBRANCH  25  31
ENDBRANCH  16  17
ENDBRANCH   7  16
ENDBRANCH   2   5
TORSDOF 6
ENDMDL
MODEL      210
REMARK 921   NORMALIZED FREE ENERGY PREDICTED BY IDOCK:   -4.39 KCAL/MOL
REMARK 922        TOTAL FREE ENERGY PREDICTED BY IDOCK:   -6.98 KCAL/MOL
REMARK 923 INTER-LIGAND FREE ENERGY PREDICTED BY IDOCK:   -6.67 KCAL/MOL
REMARK 924 INTRA-LIGAND FREE ENERGY PREDICTED BY IDOCK:   -0.31 KCAL/MOL
REMARK 927      BINDING AFFINITY PREDICTED BY RF-SCORE:    0.00 PKD
ROOT
HETATM    1  N   UNL     1      -7.765   9.115  72.032  1.00  0.00    -0.284 NA 
HETATM    2  C   UNL     1      -8.495   7.847  72.179  1.00  0.00    -0.132 C  
HETATM    3  H2  UNL     1      -8.288   9.890  72.439  1.00  0.00     0.000 HD 
HETATM    4  H1  UNL     1      -6.822   9.065  72.417  1.00  0.00     0.000 HD 
ENDROOT
BRANCH   2   5
HETATM    5  C   UNL     1      -9.927   7.924  71.594  1.00  0.00    -0.181 C  
HETATM    6  O   UNL     1      -9.936   8.369  70.228  1.00  0.00    -0.183 OA 
HETATM    7  C   UNL     1      -9.389   7.453  69.293  1.00  0.00    -0.154 C  
HETATM    8  C   UNL     1     -10.218   6.128  69.299  1.00  0.00    -0.201 C  
HETATM    9  C   UNL     1     -10.703   6.602  71.757  1.00  0.00    -0.227 C  
HETATM   10  N   UNL     1     -11.596   6.313  68.795  1.00  0.00    -0.348 NA 
HETATM   11  C   UNL     1     -10.264   5.555  70.728  1.00  0.00    -0.302 C  
HETATM   12  H   UNL     1     -12.579   6.068  71.706  1.00  0.00     0.000 HD 
HETATM   13  H1  UNL     1     -12.137   5.447  68.799  1.00  0.00     0.000 HD 
HETATM   14  H2  UNL     1     -11.593   6.738  67.869  1.00  0.00     0.000 HD 
HETATM   15  O   UNL     1     -12.100   6.883  71.605  1.00  0.00    -0.315 OA 
BRANCH   7  16
HETATM   16  O   UNL     1      -9.402   8.024  67.973  1.00  0.00    -0.138 OA 
BRANCH  16  17
HETATM   17  C   UNL     1      -8.633   9.246  67.779  1.00  0.00    -0.117 C  
HETATM   18  N   UNL     1      -6.422   8.111  67.812  1.00  0.00    -0.052 NA 
HETATM   19  C   UNL     1      -6.477  10.494  68.213  1.00  0.00    -0.055 C  
HETATM   20  H1  UNL     1      -5.493   8.072  68.229  1.00  0.00     0.000 HD 
HETATM   21  H2  UNL     1      -6.375   8.198  66.797  1.00  0.00     0.000 HD 
HETATM   22  C   UNL     1      -7.240  11.675  68.814  1.00  0.00    -0.116 C  
HETATM   23  C   UNL     1      -7.226   9.187  68.412  1.00  0.00    -0.077 C  
HETATM   24  N   UNL     1      -6.356  12.843  68.665  1.00  0.00    -0.070 NA 
HETATM   25  C   UNL     1      -8.637  11.859  68.141  1.00  0.00    -0.165 C  
HETATM   26  H   UNL     1     -11.025  11.411  67.429  1.00  0.00     0.000 HD 
HETATM   27  H1  UNL     1      -6.865  13.631  69.067  1.00  0.00     0.000 HD 
HETATM   28  C   UNL     1      -9.440  10.522  68.148  1.00  0.00    -0.151 C  
HETATM   29  H2  UNL     1      -6.047  13.003  67.706  1.00  0.00     0.000 HD 
HETATM   30  O   UNL     1     -10.532  10.631  67.205  1.00  0.00    -0.219 OA 
BRANCH  25  31
HETATM   31  O   UNL     1      -9.474  12.845  68.824  1.00  0.00    -0.051 OA 
BRANCH  31  32
HETATM   32  C   UNL     1     -10.651  13.247  68.111  1.00  0.00    -0.249 C  
HETATM   33  O   UNL     1     -11.831  13.190  68.922  1.00  0.00    -0.300 OA 
HETATM   34  C   UNL     1     -11.840  14.173  69.971  1.00  0.00    -0.323 C  
HETATM   35  C   UNL     1     -11.788  15.591  69.379  1.00  0.00    -0.374 C  
HETATM   36  H   UNL     1      -9.147  15.557  66.303  1.00  0.00     0.000 HD 
HETATM   37  C   UNL     1     -10.517  15.761  68.524  1.00  0.00    -0.236 C  
HETATM   38  H1  UNL     1      -9.633  17.226  67.354  1.00  0.00     0.000 HD 
HETATM   39  O   UNL     1     -11.841  16.601  70.390  1.00  0.00    -0.262 OA 
HETATM   40  H   UNL     1     -11.809  17.477  70.024  1.00  0.00     0.000 HD 
HETATM   41  H2  UNL     1     -10.559  17.847  68.624  1.00  0.00     0.000 HD 
HETATM   42  C   UNL     1     -10.468  14.645  67.466  1.00  0.00    -0.247 C  
HETATM   43  N   UNL     1     -10.475  17.114  67.920  1.00  0.00    -0.355 NA 
HETATM   44  O   UNL     1      -9.259  14.701  66.698  1.00  0.00    -0.246 OA 
BRANCH  34  45
HETATM   45  C   UNL     1     -13.122  13.990  70.794  1.00  0.00    -0.180 C  
HETATM   46  O   UNL     1     -12.970  12.933  71.741  1.00  0.00    -0.362 OA 
HETATM   47  H   UNL     1     -13.764  12.820  72.250  1.00  0.00     0.000 HD 
ENDBRANCH  34  45
ENDBRANCH  31  32
ENDBRANCH  25  31
ENDBRANCH  16  17
ENDBRANCH   7  16
ENDBRANCH   2   5
TORSDOF 6
ENDMDL
MODEL      211
REMARK 921   NORMALIZED FREE ENERGY PREDICTED BY IDOCK:   -4.36 KCAL/MOL
REMARK 922        TOTAL FREE ENERGY PREDICTED BY IDOCK:   -6.95 KCAL/MOL
REMARK 923 INTER-LIGAND FREE ENERGY PREDICTED BY IDOCK:   -5.30 KCAL/MOL
REMARK 924 INTRA-LIGAND FREE ENERGY PREDICTED BY IDOCK:   -1.65 KCAL/MOL
REMARK 927      BINDING AFFINITY PREDICTED BY RF-SCORE:    0.00 PKD
ROOT
HETATM    1  N   UNL     1      -6.360   9.791  65.187  1.00  0.00    -0.087 NA 
HETATM    2  C   UNL     1      -7.521   9.255  65.913  1.00  0.00    -0.095 C  
HETATM    3  H2  UNL     1      -6.449  10.795  65.039  1.00  0.00     0.000 HD 
HETATM    4  H1  UNL     1      -5.479   9.563  65.648  1.00  0.00     0.000 HD 
ENDROOT
BRANCH   2   5
HETATM    5  C   UNL     1      -8.860   9.601  65.213  1.00  0.00    -0.171 C  
HETATM    6  O   UNL     1     -10.000   9.269  66.021  1.00  0.00    -0.290 OA 
HETATM    7  C   UNL     1     -10.169  10.070  67.180  1.00  0.00    -0.228 C  
HETATM    8  C   UNL     1     -10.377  11.564  66.769  1.00  0.00    -0.226 C  
HETATM    9  C   UNL     1      -8.916  11.066  64.739  1.00  0.00    -0.087 C  
HETATM   10  N   UNL     1     -11.645  11.785  66.040  1.00  0.00    -0.404 NA 
HETATM   11  C   UNL     1      -9.194  12.029  65.900  1.00  0.00    -0.106 C  
HETATM   12  H   UNL     1      -9.986  12.080  63.460  1.00  0.00     0.000 HD 
HETATM   13  H1  UNL     1     -11.781  12.761  65.772  1.00  0.00     0.000 HD 
HETATM   14  H2  UNL     1     -12.440  11.439  66.576  1.00  0.00     0.000 HD 
HETATM   15  O   UNL     1      -9.950  11.177  63.753  1.00  0.00    -0.283 OA 
BRANCH   7  16
HETATM   16  O   UNL     1     -11.305   9.616  67.936  1.00  0.00    -0.040 OA 
BRANCH  16  17
HETATM   17  C   UNL     1     -11.027   8.957  69.206  1.00  0.00    -0.006 C  
HETATM   18  N   UNL     1     -11.381  10.997  70.582  1.00  0.00    -0.377 NA 
HETATM   19  C   UNL     1     -10.136   9.171  71.563  1.00  0.00    -0.381 C  
HETATM   20  H1  UNL     1     -10.993  11.626  71.285  1.00  0.00     0.000 HD 
HETATM   21  H2  UNL     1     -12.292  10.635  70.863  1.00  0.00     0.000 HD 
HETATM   22  C   UNL     1      -9.155   8.020  71.334  1.00  0.00    -0.141 C  
HETATM   23  C   UNL     1     -10.440   9.909  70.270  1.00  0.00    -0.291 C  
HETATM   24  N   UNL     1      -8.853   7.478  72.670  1.00  0.00    -0.131 NA 
HETATM   25  C   UNL     1      -9.733   6.960  70.345  1.00  0.00    -0.172 C  
HETATM   26  H   UNL     1     -10.594   5.898  68.213  1.00  0.00     0.000 HD 
HETATM   27  H1  UNL     1      -8.198   6.710  72.517  1.00  0.00     0.000 HD 
HETATM   28  C   UNL     1     -10.228   7.636  69.029  1.00  0.00    -0.206 C  
HETATM   29  H2  UNL     1      -9.683   7.207  73.198  1.00  0.00     0.000 HD 
HETATM   30  O   UNL     1     -11.081   6.706  68.321  1.00  0.00    -0.255 OA 
BRANCH  25  31
HETATM   31  O   UNL     1      -8.749   5.955  69.946  1.00  0.00    -0.126 OA 
BRANCH  31  32
HETATM   32  C   UNL     1      -9.067   4.607  70.315  1.00  0.00    -0.109 C  
HETATM   33  O   UNL     1      -9.522   3.825  69.204  1.00  0.00    -0.165 OA 
HETATM   34  C   UNL     1      -8.490   3.570  68.237  1.00  0.00    -0.088 C  
HETATM   35  C   UNL     1      -7.336   2.782  68.877  1.00  0.00    -0.048 C  
HETATM   36  H   UNL     1      -6.674   4.328  72.566  1.00  0.00     0.000 HD 
HETATM   37  C   UNL     1      -6.748   3.575  70.059  1.00  0.00    -0.034 C  
HETATM   38  H1  UNL     1      -5.266   3.334  71.489  1.00  0.00     0.000 HD 
HETATM   39  O   UNL     1      -6.307   2.468  67.934  1.00  0.00    -0.028 OA 
HETATM   40  H   UNL     1      -5.594   1.982  68.329  1.00  0.00     0.000 HD 
HETATM   41  H2  UNL     1      -4.936   2.536  70.038  1.00  0.00     0.000 HD 
HETATM   42  C   UNL     1      -7.877   3.927  71.043  1.00  0.00    -0.059 C  
HETATM   43  N   UNL     1      -5.656   2.809  70.707  1.00  0.00    -0.012 NA 
HETATM   44  O   UNL     1      -7.402   4.744  72.120  1.00  0.00    -0.076 OA 
BRANCH  34  45
HETATM   45  C   UNL     1      -9.101   2.766  67.080  1.00  0.00    -0.159 C  
HETATM   46  O   UNL     1      -9.973   3.584  66.300  1.00  0.00    -0.416 OA 
HETATM   47  H   UNL     1     -10.351   3.087  65.584  1.00  0.00     0.000 HD 
ENDBRANCH  34  45
ENDBRANCH  31  32
ENDBRANCH  25  31
ENDBRANCH  16  17
ENDBRANCH   7  16
ENDBRANCH   2   5
TORSDOF 6
ENDMDL
MODEL      212
REMARK 921   NORMALIZED FREE ENERGY PREDICTED BY IDOCK:   -4.34 KCAL/MOL
REMARK 922        TOTAL FREE ENERGY PREDICTED BY IDOCK:   -6.91 KCAL/MOL
REMARK 923 INTER-LIGAND FREE ENERGY PREDICTED BY IDOCK:   -6.94 KCAL/MOL
REMARK 924 INTRA-LIGAND FREE ENERGY PREDICTED BY IDOCK:    0.03 KCAL/MOL
REMARK 927      BINDING AFFINITY PREDICTED BY RF-SCORE:    0.00 PKD
ROOT
HETATM    1  N   UNL     1     -10.892   5.766  72.153  1.00  0.00    -0.234 NA 
HETATM    2  C   UNL     1     -10.040   4.711  71.585  1.00  0.00    -0.188 C  
HETATM    3  H2  UNL     1     -11.763   5.857  71.630  1.00  0.00     0.000 HD 
HETATM    4  H1  UNL     1     -11.071   5.624  73.146  1.00  0.00     0.000 HD 
ENDROOT
BRANCH   2   5
HETATM    5  C   UNL     1      -9.767   4.926  70.075  1.00  0.00    -0.215 C  
HETATM    6  O   UNL     1      -9.151   6.195  69.807  1.00  0.00    -0.139 OA 
HETATM    7  C   UNL     1      -7.817   6.327  70.270  1.00  0.00    -0.103 C  
HETATM    8  C   UNL     1      -6.903   5.270  69.568  1.00  0.00    -0.053 C  
HETATM    9  C   UNL     1      -8.962   3.769  69.451  1.00  0.00    -0.115 C  
HETATM   10  N   UNL     1      -6.762   5.511  68.116  1.00  0.00    -0.053 NA 
HETATM   11  C   UNL     1      -7.472   3.859  69.803  1.00  0.00    -0.052 C  
HETATM   12  H   UNL     1      -8.636   3.111  67.643  1.00  0.00     0.000 HD 
HETATM   13  H1  UNL     1      -6.165   4.822  67.657  1.00  0.00     0.000 HD 
HETATM   14  H2  UNL     1      -6.433   6.459  67.932  1.00  0.00     0.000 HD 
HETATM   15  O   UNL     1      -9.132   3.824  68.028  1.00  0.00    -0.119 OA 
BRANCH   7  16
HETATM   16  O   UNL     1      -7.324   7.649  69.995  1.00  0.00    -0.076 OA 
BRANCH  16  17
HETATM   17  C   UNL     1      -8.294   8.735  70.048  1.00  0.00    -0.127 C  
HETATM   18  N   UNL     1      -9.051   8.228  72.360  1.00  0.00    -0.215 NA 
HETATM   19  C   UNL     1     -10.492   9.582  70.969  1.00  0.00    -0.377 C  
HETATM   20  H1  UNL     1      -9.843   8.030  72.971  1.00  0.00     0.000 HD 
HETATM   21  H2  UNL     1      -8.501   9.016  72.702  1.00  0.00     0.000 HD 
HETATM   22  C   UNL     1     -11.012   9.866  69.559  1.00  0.00    -0.242 C  
HETATM   23  C   UNL     1      -9.493   8.436  70.972  1.00  0.00    -0.170 C  
HETATM   24  N   UNL     1     -12.051  10.898  69.715  1.00  0.00    -0.330 NA 
HETATM   25  C   UNL     1      -9.859  10.281  68.593  1.00  0.00    -0.173 C  
HETATM   26  H   UNL     1      -7.763  10.154  67.178  1.00  0.00     0.000 HD 
HETATM   27  H1  UNL     1     -12.399  11.088  68.775  1.00  0.00     0.000 HD 
HETATM   28  C   UNL     1      -8.694   9.245  68.636  1.00  0.00    -0.132 C  
HETATM   29  H2  UNL     1     -11.728  11.732  70.207  1.00  0.00     0.000 HD 
HETATM   30  O   UNL     1      -7.518   9.842  68.041  1.00  0.00    -0.084 OA 
BRANCH  25  31
HETATM   31  O   UNL     1     -10.285  10.363  67.197  1.00  0.00    -0.201 OA 
BRANCH  31  32
HETATM   32  C   UNL     1      -9.735  11.457  66.452  1.00  0.00    -0.204 C  
HETATM   33  O   UNL     1      -8.563  11.086  65.714  1.00  0.00    -0.180 OA 
HETATM   34  C   UNL     1      -8.844  10.180  64.634  1.00  0.00    -0.196 C  
HETATM   35  C   UNL     1      -9.805  10.828  63.625  1.00  0.00    -0.350 C  
HETATM   36  H   UNL     1     -12.641  12.830  65.719  1.00  0.00     0.000 HD 
HETATM   37  C   UNL     1     -11.121  11.218  64.324  1.00  0.00    -0.222 C  
HETATM   38  H1  UNL     1     -12.915  12.134  63.830  1.00  0.00     0.000 HD 
HETATM   39  O   UNL     1     -10.075   9.973  62.509  1.00  0.00    -0.588 OA 
HETATM   40  H   UNL     1     -10.669  10.374  61.886  1.00  0.00     0.000 HD 
HETATM   41  H2  UNL     1     -12.208  11.299  62.542  1.00  0.00     0.000 HD 
HETATM   42  C   UNL     1     -10.803  12.110  65.537  1.00  0.00    -0.283 C  
HETATM   43  N   UNL     1     -12.043  11.876  63.367  1.00  0.00    -0.492 NA 
HETATM   44  O   UNL     1     -11.986  12.431  66.279  1.00  0.00    -0.553 OA 
BRANCH  34  45
HETATM   45  C   UNL     1      -7.519   9.821  63.947  1.00  0.00    -0.130 C  
HETATM   46  O   UNL     1      -7.000  10.942  63.232  1.00  0.00    -0.342 OA 
HETATM   47  H   UNL     1      -6.179  10.721  62.808  1.00  0.00     0.000 HD 
ENDBRANCH  34  45
ENDBRANCH  31  32
ENDBRANCH  25  31
ENDBRANCH  16  17
ENDBRANCH   7  16
ENDBRANCH   2   5
TORSDOF 6
ENDMDL
MODEL      213
REMARK 921   NORMALIZED FREE ENERGY PREDICTED BY IDOCK:   -4.30 KCAL/MOL
REMARK 922        TOTAL FREE ENERGY PREDICTED BY IDOCK:   -6.87 KCAL/MOL
REMARK 923 INTER-LIGAND FREE ENERGY PREDICTED BY IDOCK:   -6.07 KCAL/MOL
REMARK 924 INTRA-LIGAND FREE ENERGY PREDICTED BY IDOCK:   -0.79 KCAL/MOL
REMARK 927      BINDING AFFINITY PREDICTED BY RF-SCORE:    0.00 PKD
ROOT
HETATM    1  N   UNL     1      -9.895   4.122  74.391  1.00  0.00    -0.127 NA 
HETATM    2  C   UNL     1     -10.387   5.075  73.386  1.00  0.00    -0.202 C  
HETATM    3  H2  UNL     1      -8.890   3.979  74.303  1.00  0.00     0.000 HD 
HETATM    4  H1  UNL     1     -10.146   4.398  75.340  1.00  0.00     0.000 HD 
ENDROOT
BRANCH   2   5
HETATM    5  C   UNL     1     -10.006   4.656  71.944  1.00  0.00    -0.189 C  
HETATM    6  O   UNL     1     -10.718   5.408  70.949  1.00  0.00    -0.238 OA 
HETATM    7  C   UNL     1     -10.359   6.778  70.859  1.00  0.00    -0.199 C  
HETATM    8  C   UNL     1      -8.851   6.908  70.470  1.00  0.00    -0.155 C  
HETATM    9  C   UNL     1      -8.484   4.703  71.698  1.00  0.00    -0.112 C  
HETATM   10  N   UNL     1      -8.568   6.413  69.105  1.00  0.00    -0.124 NA 
HETATM   11  C   UNL     1      -7.988   6.138  71.486  1.00  0.00    -0.110 C  
HETATM   12  H   UNL     1      -7.257   3.937  70.389  1.00  0.00     0.000 HD 
HETATM   13  H1  UNL     1      -7.583   6.498  68.850  1.00  0.00     0.000 HD 
HETATM   14  H2  UNL     1      -9.164   6.873  68.418  1.00  0.00     0.000 HD 
HETATM   15  O   UNL     1      -8.194   3.908  70.541  1.00  0.00    -0.057 OA 
BRANCH   7  16
HETATM   16  O   UNL     1     -11.170   7.440  69.873  1.00  0.00    -0.228 OA 
BRANCH  16  17
HETATM   17  C   UNL     1     -10.980   8.877  69.726  1.00  0.00    -0.156 C  
HETATM   18  N   UNL     1     -11.634   9.416  72.063  1.00  0.00    -0.269 NA 
HETATM   19  C   UNL     1     -11.688  11.200  70.432  1.00  0.00    -0.415 C  
HETATM   20  H1  UNL     1     -12.240   9.967  72.670  1.00  0.00     0.000 HD 
HETATM   21  H2  UNL     1     -10.649   9.547  72.296  1.00  0.00     0.000 HD 
HETATM   22  C   UNL     1     -11.949  11.599  68.979  1.00  0.00    -0.305 C  
HETATM   23  C   UNL     1     -11.899   9.710  70.645  1.00  0.00    -0.256 C  
HETATM   24  N   UNL     1     -11.835  13.068  68.939  1.00  0.00    -0.317 NA 
HETATM   25  C   UNL     1     -10.977  10.870  67.998  1.00  0.00    -0.265 C  
HETATM   26  H   UNL     1      -9.842   9.023  66.690  1.00  0.00     0.000 HD 
HETATM   27  H1  UNL     1     -12.009  13.334  67.970  1.00  0.00     0.000 HD 
HETATM   28  C   UNL     1     -10.993   9.330  68.239  1.00  0.00     0.008 C  
HETATM   29  H2  UNL     1     -10.950  13.419  69.306  1.00  0.00     0.000 HD 
HETATM   30  O   UNL     1      -9.834   8.746  67.599  1.00  0.00    -0.162 OA 
BRANCH  25  31
HETATM   31  O   UNL     1     -11.327  11.071  66.593  1.00  0.00    -0.278 OA 
BRANCH  31  32
HETATM   32  C   UNL     1     -10.583  12.092  65.917  1.00  0.00    -0.258 C  
HETATM   33  O   UNL     1      -9.722  12.822  66.800  1.00  0.00    -0.230 OA 
HETATM   34  C   UNL     1      -8.635  12.029  67.305  1.00  0.00    -0.177 C  
HETATM   35  C   UNL     1      -7.750  11.533  66.151  1.00  0.00     0.154 C  
HETATM   36  H   UNL     1     -10.189  10.392  63.120  1.00  0.00     0.000 HD 
HETATM   37  C   UNL     1      -8.587  10.691  65.169  1.00  0.00    -0.167 C  
HETATM   38  H1  UNL     1      -8.305   9.677  63.382  1.00  0.00     0.000 HD 
HETATM   39  O   UNL     1      -6.629  10.776  66.616  1.00  0.00    -0.094 OA 
HETATM   40  H   UNL     1      -6.082  10.469  65.902  1.00  0.00     0.000 HD 
HETATM   41  H2  UNL     1      -6.921   9.734  64.349  1.00  0.00     0.000 HD 
HETATM   42  C   UNL     1      -9.803  11.513  64.708  1.00  0.00    -0.249 C  
HETATM   43  N   UNL     1      -7.751  10.235  64.032  1.00  0.00    -0.134 NA 
HETATM   44  O   UNL     1     -10.667  10.747  63.860  1.00  0.00    -0.259 OA 
BRANCH  34  45
HETATM   45  C   UNL     1      -7.811  12.897  68.267  1.00  0.00    -0.142 C  
HETATM   46  O   UNL     1      -8.655  13.789  68.994  1.00  0.00    -0.362 OA 
HETATM   47  H   UNL     1      -8.146  14.326  69.589  1.00  0.00     0.000 HD 
ENDBRANCH  34  45
ENDBRANCH  31  32
ENDBRANCH  25  31
ENDBRANCH  16  17
ENDBRANCH   7  16
ENDBRANCH   2   5
TORSDOF 6
ENDMDL
MODEL      214
REMARK 921   NORMALIZED FREE ENERGY PREDICTED BY IDOCK:   -4.30 KCAL/MOL
REMARK 922        TOTAL FREE ENERGY PREDICTED BY IDOCK:   -6.87 KCAL/MOL
REMARK 923 INTER-LIGAND FREE ENERGY PREDICTED BY IDOCK:   -6.03 KCAL/MOL
REMARK 924 INTRA-LIGAND FREE ENERGY PREDICTED BY IDOCK:   -0.84 KCAL/MOL
REMARK 927      BINDING AFFINITY PREDICTED BY RF-SCORE:    0.00 PKD
ROOT
HETATM    1  N   UNL     1      -9.907  10.787  62.516  1.00  0.00    -0.667 NA 
HETATM    2  C   UNL     1      -9.832  11.590  63.745  1.00  0.00    -0.319 C  
HETATM    3  H2  UNL     1     -10.649  11.122  61.901  1.00  0.00     0.000 HD 
HETATM    4  H1  UNL     1      -9.014  10.746  62.026  1.00  0.00     0.000 HD 
ENDROOT
BRANCH   2   5
HETATM    5  C   UNL     1     -11.190  11.652  64.489  1.00  0.00    -0.269 C  
HETATM    6  O   UNL     1     -11.132  12.476  65.664  1.00  0.00    -0.285 OA 
HETATM    7  C   UNL     1     -10.977  13.865  65.417  1.00  0.00    -0.316 C  
HETATM    8  C   UNL     1     -12.197  14.400  64.600  1.00  0.00    -0.464 C  
HETATM    9  C   UNL     1     -12.350  12.074  63.565  1.00  0.00    -0.551 C  
HETATM   10  N   UNL     1     -13.463  14.350  65.364  1.00  0.00    -0.430 NA 
HETATM   11  C   UNL     1     -12.346  13.584  63.302  1.00  0.00    -0.150 C  
HETATM   12  H   UNL     1     -14.296  11.949  63.621  1.00  0.00     0.000 HD 
HETATM   13  H1  UNL     1     -14.260  14.700  64.830  1.00  0.00     0.000 HD 
HETATM   14  H2  UNL     1     -13.373  14.843  66.252  1.00  0.00     0.000 HD 
HETATM   15  O   UNL     1     -13.581  11.689  64.191  1.00  0.00    -0.151 OA 
BRANCH   7  16
HETATM   16  O   UNL     1     -10.878  14.581  66.660  1.00  0.00    -0.300 OA 
BRANCH  16  17
HETATM   17  C   UNL     1      -9.553  14.671  67.262  1.00  0.00    -0.221 C  
HETATM   18  N   UNL     1      -8.842  16.634  65.914  1.00  0.00    -0.502 NA 
HETATM   19  C   UNL     1      -7.122  15.303  66.971  1.00  0.00     0.067 C  
HETATM   20  H1  UNL     1      -8.140  17.025  65.286  1.00  0.00     0.000 HD 
HETATM   21  H2  UNL     1      -8.994  17.233  66.726  1.00  0.00     0.000 HD 
HETATM   22  C   UNL     1      -6.671  13.911  67.413  1.00  0.00     0.029 C  
HETATM   23  C   UNL     1      -8.491  15.261  66.311  1.00  0.00     0.072 C  
HETATM   24  N   UNL     1      -5.296  14.075  67.914  1.00  0.00    -0.234 NA 
HETATM   25  C   UNL     1      -7.650  13.295  68.462  1.00  0.00    -0.128 C  
HETATM   26  H   UNL     1      -9.747  12.319  69.491  1.00  0.00     0.000 HD 
HETATM   27  H1  UNL     1      -4.995  13.146  68.209  1.00  0.00     0.000 HD 
HETATM   28  C   UNL     1      -9.121  13.346  67.950  1.00  0.00    -0.208 C  
HETATM   29  H2  UNL     1      -5.208  14.783  68.643  1.00  0.00     0.000 HD 
HETATM   30  O   UNL     1     -10.012  13.129  69.070  1.00  0.00     0.021 OA 
BRANCH  25  31
HETATM   31  O   UNL     1      -7.364  11.892  68.755  1.00  0.00    -0.108 OA 
BRANCH  31  32
HETATM   32  C   UNL     1      -8.229  10.945  68.114  1.00  0.00    -0.121 C  
HETATM   33  O   UNL     1      -7.814  10.636  66.778  1.00  0.00    -0.116 OA 
HETATM   34  C   UNL     1      -6.580   9.902  66.729  1.00  0.00    -0.071 C  
HETATM   35  C   UNL     1      -6.725   8.557  67.459  1.00  0.00    -0.063 C  
HETATM   36  H   UNL     1      -8.862   9.206  70.843  1.00  0.00     0.000 HD 
HETATM   37  C   UNL     1      -7.125   8.794  68.928  1.00  0.00    -0.066 C  
HETATM   38  H1  UNL     1      -7.566   7.659  70.606  1.00  0.00     0.000 HD 
HETATM   39  O   UNL     1      -5.530   7.774  67.394  1.00  0.00    -0.033 OA 
HETATM   40  H   UNL     1      -5.620   6.943  67.845  1.00  0.00     0.000 HD 
HETATM   41  H2  UNL     1      -6.474   6.911  69.556  1.00  0.00     0.000 HD 
HETATM   42  C   UNL     1      -8.394   9.663  68.972  1.00  0.00    -0.122 C  
HETATM   43  N   UNL     1      -7.302   7.502  69.633  1.00  0.00    -0.087 NA 
HETATM   44  O   UNL     1      -8.761   9.991  70.318  1.00  0.00    -0.114 OA 
BRANCH  34  45
HETATM   45  C   UNL     1      -6.216   9.667  65.256  1.00  0.00    -0.079 C  
HETATM   46  O   UNL     1      -5.841   8.307  65.038  1.00  0.00    -0.044 OA 
HETATM   47  H   UNL     1      -5.616   8.162  64.126  1.00  0.00     0.000 HD 
ENDBRANCH  34  45
ENDBRANCH  31  32
ENDBRANCH  25  31
ENDBRANCH  16  17
ENDBRANCH   7  16
ENDBRANCH   2   5
TORSDOF 6
ENDMDL
MODEL      215
REMARK 921   NORMALIZED FREE ENERGY PREDICTED BY IDOCK:   -4.25 KCAL/MOL
REMARK 922        TOTAL FREE ENERGY PREDICTED BY IDOCK:   -6.80 KCAL/MOL
REMARK 923 INTER-LIGAND FREE ENERGY PREDICTED BY IDOCK:   -6.07 KCAL/MOL
REMARK 924 INTRA-LIGAND FREE ENERGY PREDICTED BY IDOCK:   -0.72 KCAL/MOL
REMARK 927      BINDING AFFINITY PREDICTED BY RF-SCORE:    0.00 PKD
ROOT
HETATM    1  N   UNL     1      -6.554   7.922  69.359  1.00  0.00    -0.035 NA 
HETATM    2  C   UNL     1      -6.977   7.273  70.608  1.00  0.00    -0.057 C  
HETATM    3  H2  UNL     1      -6.049   8.788  69.547  1.00  0.00     0.000 HD 
HETATM    4  H1  UNL     1      -6.007   7.299  68.766  1.00  0.00     0.000 HD 
ENDROOT
BRANCH   2   5
HETATM    5  C   UNL     1      -7.807   8.221  71.510  1.00  0.00    -0.117 C  
HETATM    6  O   UNL     1      -8.954   8.755  70.831  1.00  0.00    -0.163 OA 
HETATM    7  C   UNL     1      -9.975   7.813  70.541  1.00  0.00    -0.187 C  
HETATM    8  C   UNL     1     -10.530   7.204  71.869  1.00  0.00    -0.197 C  
HETATM    9  C   UNL     1      -8.203   7.565  72.848  1.00  0.00    -0.118 C  
HETATM   10  N   UNL     1     -11.241   8.199  72.701  1.00  0.00    -0.385 NA 
HETATM   11  C   UNL     1      -9.373   6.589  72.678  1.00  0.00    -0.145 C  
HETATM   12  H   UNL     1      -8.807   8.202  74.591  1.00  0.00     0.000 HD 
HETATM   13  H1  UNL     1     -11.604   7.802  73.568  1.00  0.00     0.000 HD 
HETATM   14  H2  UNL     1     -11.982   8.657  72.171  1.00  0.00     0.000 HD 
HETATM   15  O   UNL     1      -8.563   8.606  73.766  1.00  0.00    -0.292 OA 
BRANCH   7  16
HETATM   16  O   UNL     1     -11.044   8.446  69.817  1.00  0.00    -0.185 OA 
BRANCH  16  17
HETATM   17  C   UNL     1     -10.779   8.792  68.426  1.00  0.00    -0.062 C  
HETATM   18  N   UNL     1      -9.844   6.568  67.830  1.00  0.00    -0.121 NA 
HETATM   19  C   UNL     1      -9.333   8.436  66.383  1.00  0.00    -0.274 C  
HETATM   20  H1  UNL     1      -9.058   6.056  67.430  1.00  0.00     0.000 HD 
HETATM   21  H2  UNL     1     -10.720   6.337  67.361  1.00  0.00     0.000 HD 
HETATM   22  C   UNL     1      -9.051   9.935  66.278  1.00  0.00    -0.155 C  
HETATM   23  C   UNL     1      -9.590   8.017  67.822  1.00  0.00    -0.151 C  
HETATM   24  N   UNL     1      -8.699  10.180  64.869  1.00  0.00    -0.169 NA 
HETATM   25  C   UNL     1     -10.263  10.784  66.777  1.00  0.00    -0.230 C  
HETATM   26  H   UNL     1     -12.002  11.797  68.314  1.00  0.00     0.000 HD 
HETATM   27  H1  UNL     1      -8.511  11.180  64.799  1.00  0.00     0.000 HD 
HETATM   28  C   UNL     1     -10.718  10.328  68.197  1.00  0.00    -0.246 C  
HETATM   29  H2  UNL     1      -9.404   9.850  64.209  1.00  0.00     0.000 HD 
HETATM   30  O   UNL     1     -12.039  10.858  68.454  1.00  0.00    -0.559 OA 
BRANCH  25  31
HETATM   31  O   UNL     1      -9.956  12.210  66.881  1.00  0.00    -0.201 OA 
BRANCH  31  32
HETATM   32  C   UNL     1      -9.478  12.640  68.163  1.00  0.00    -0.218 C  
HETATM   33  O   UNL     1      -8.066  12.449  68.316  1.00  0.00    -0.154 OA 
HETATM   34  C   UNL     1      -7.288  13.310  67.470  1.00  0.00    -0.152 C  
HETATM   35  C   UNL     1      -7.563  14.785  67.804  1.00  0.00    -0.160 C  
HETATM   36  H   UNL     1     -11.549  15.192  68.427  1.00  0.00     0.000 HD 
HETATM   37  C   UNL     1      -9.061  15.097  67.619  1.00  0.00    -0.180 C  
HETATM   38  H1  UNL     1     -10.336  16.716  67.849  1.00  0.00     0.000 HD 
HETATM   39  O   UNL     1      -6.772  15.676  67.013  1.00  0.00    -0.267 OA 
HETATM   40  H   UNL     1      -6.943  16.588  67.220  1.00  0.00     0.000 HD 
HETATM   41  H2  UNL     1      -8.754  17.157  67.451  1.00  0.00     0.000 HD 
HETATM   42  C   UNL     1      -9.891  14.107  68.454  1.00  0.00    -0.231 C  
HETATM   43  N   UNL     1      -9.344  16.509  67.972  1.00  0.00    -0.216 NA 
HETATM   44  O   UNL     1     -11.297  14.294  68.249  1.00  0.00    -0.262 OA 
BRANCH  34  45
HETATM   45  C   UNL     1      -5.803  12.988  67.687  1.00  0.00    -0.133 C  
HETATM   46  O   UNL     1      -5.563  11.587  67.551  1.00  0.00    -0.049 OA 
HETATM   47  H   UNL     1      -4.644  11.387  67.685  1.00  0.00     0.000 HD 
ENDBRANCH  34  45
ENDBRANCH  31  32
ENDBRANCH  25  31
ENDBRANCH  16  17
ENDBRANCH   7  16
ENDBRANCH   2   5
TORSDOF 6
ENDMDL
MODEL      216
REMARK 921   NORMALIZED FREE ENERGY PREDICTED BY IDOCK:   -4.21 KCAL/MOL
REMARK 922        TOTAL FREE ENERGY PREDICTED BY IDOCK:   -6.74 KCAL/MOL
REMARK 923 INTER-LIGAND FREE ENERGY PREDICTED BY IDOCK:   -6.30 KCAL/MOL
REMARK 924 INTRA-LIGAND FREE ENERGY PREDICTED BY IDOCK:   -0.44 KCAL/MOL
REMARK 927      BINDING AFFINITY PREDICTED BY RF-SCORE:    0.00 PKD
ROOT
HETATM    1  N   UNL     1      -9.876  18.619  65.643  1.00  0.00    -0.334 NA 
HETATM    2  C   UNL     1     -10.274  17.398  66.359  1.00  0.00    -0.338 C  
HETATM    3  H2  UNL     1      -8.862  18.685  65.562  1.00  0.00     0.000 HD 
HETATM    4  H1  UNL     1     -10.325  18.695  64.731  1.00  0.00     0.000 HD 
ENDROOT
BRANCH   2   5
HETATM    5  C   UNL     1      -9.592  17.283  67.746  1.00  0.00    -0.262 C  
HETATM    6  O   UNL     1      -9.806  16.000  68.355  1.00  0.00    -0.207 OA 
HETATM    7  C   UNL     1      -9.149  14.915  67.720  1.00  0.00    -0.185 C  
HETATM    8  C   UNL     1      -7.601  15.135  67.758  1.00  0.00    -0.155 C  
HETATM    9  C   UNL     1      -8.092  17.637  67.697  1.00  0.00    -0.216 C  
HETATM   10  N   UNL     1      -7.050  15.084  69.130  1.00  0.00    -0.136 NA 
HETATM   11  C   UNL     1      -7.257  16.491  67.114  1.00  0.00    -0.223 C  
HETATM   12  H   UNL     1      -6.734  18.147  69.002  1.00  0.00     0.000 HD 
HETATM   13  H1  UNL     1      -6.040  15.228  69.155  1.00  0.00     0.000 HD 
HETATM   14  H2  UNL     1      -7.307  14.215  69.596  1.00  0.00     0.000 HD 
HETATM   15  O   UNL     1      -7.659  17.929  69.032  1.00  0.00    -0.243 OA 
BRANCH   7  16
HETATM   16  O   UNL     1      -9.476  13.681  68.381  1.00  0.00    -0.208 OA 
BRANCH  16  17
HETATM   17  C   UNL     1      -9.173  12.451  67.661  1.00  0.00    -0.185 C  
HETATM   18  N   UNL     1      -9.432  13.460  65.404  1.00  0.00    -0.442 NA 
HETATM   19  C   UNL     1      -9.549  11.052  65.588  1.00  0.00    -0.265 C  
HETATM   20  H1  UNL     1      -9.891  13.402  64.495  1.00  0.00     0.000 HD 
HETATM   21  H2  UNL     1      -8.417  13.487  65.312  1.00  0.00     0.000 HD 
HETATM   22  C   UNL     1      -9.974   9.851  66.434  1.00  0.00    -0.244 C  
HETATM   23  C   UNL     1      -9.868  12.364  66.285  1.00  0.00    -0.247 C  
HETATM   24  N   UNL     1      -9.728   8.663  65.598  1.00  0.00    -0.438 NA 
HETATM   25  C   UNL     1      -9.226   9.818  67.804  1.00  0.00    -0.130 C  
HETATM   26  H   UNL     1      -8.471  10.467  70.131  1.00  0.00     0.000 HD 
HETATM   27  H1  UNL     1     -10.012   7.862  66.162  1.00  0.00     0.000 HD 
HETATM   28  C   UNL     1      -9.355  11.184  68.543  1.00  0.00    -0.190 C  
HETATM   29  H2  UNL     1      -8.770   8.599  65.251  1.00  0.00     0.000 HD 
HETATM   30  O   UNL     1      -8.360  11.241  69.592  1.00  0.00     0.350 OA 
BRANCH  25  31
HETATM   31  O   UNL     1      -9.753   8.805  68.717  1.00  0.00    -0.160 OA 
BRANCH  31  32
HETATM   32  C   UNL     1      -8.764   8.023  69.399  1.00  0.00    -0.137 C  
HETATM   33  O   UNL     1      -8.800   8.207  70.820  1.00  0.00    -0.134 OA 
HETATM   34  C   UNL     1      -9.988   7.670  71.425  1.00  0.00    -0.181 C  
HETATM   35  C   UNL     1     -10.077   6.155  71.183  1.00  0.00    -0.190 C  
HETATM   36  H   UNL     1      -8.944   5.441  67.357  1.00  0.00     0.000 HD 
HETATM   37  C   UNL     1     -10.093   5.863  69.670  1.00  0.00    -0.200 C  
HETATM   38  H1  UNL     1     -10.155   4.207  68.423  1.00  0.00     0.000 HD 
HETATM   39  O   UNL     1     -11.223   5.574  71.810  1.00  0.00    -0.206 OA 
HETATM   40  H   UNL     1     -11.279   4.637  71.660  1.00  0.00     0.000 HD 
HETATM   41  H2  UNL     1     -10.930   3.963  69.904  1.00  0.00     0.000 HD 
HETATM   42  C   UNL     1      -8.868   6.523  69.015  1.00  0.00    -0.130 C  
HETATM   43  N   UNL     1     -10.144   4.401  69.425  1.00  0.00    -0.089 NA 
HETATM   44  O   UNL     1      -8.879   6.359  67.592  1.00  0.00    -0.114 OA 
BRANCH  34  45
HETATM   45  C   UNL     1      -9.936   7.963  72.932  1.00  0.00    -0.294 C  
HETATM   46  O   UNL     1      -8.610   7.803  73.434  1.00  0.00    -0.166 OA 
HETATM   47  H   UNL     1      -8.578   7.984  74.366  1.00  0.00     0.000 HD 
ENDBRANCH  34  45
ENDBRANCH  31  32
ENDBRANCH  25  31
ENDBRANCH  16  17
ENDBRANCH   7  16
ENDBRANCH   2   5
TORSDOF 6
ENDMDL
MODEL      217
REMARK 921   NORMALIZED FREE ENERGY PREDICTED BY IDOCK:   -4.19 KCAL/MOL
REMARK 922        TOTAL FREE ENERGY PREDICTED BY IDOCK:   -6.71 KCAL/MOL
REMARK 923 INTER-LIGAND FREE ENERGY PREDICTED BY IDOCK:   -7.01 KCAL/MOL
REMARK 924 INTRA-LIGAND FREE ENERGY PREDICTED BY IDOCK:    0.29 KCAL/MOL
REMARK 927      BINDING AFFINITY PREDICTED BY RF-SCORE:    0.00 PKD
ROOT
HETATM    1  N   UNL     1     -10.529  10.804  63.963  1.00  0.00    -0.474 NA 
HETATM    2  C   UNL     1     -11.196  11.719  64.901  1.00  0.00    -0.266 C  
HETATM    3  H2  UNL     1     -10.773   9.834  64.159  1.00  0.00     0.000 HD 
HETATM    4  H1  UNL     1     -10.720  11.043  62.990  1.00  0.00     0.000 HD 
ENDROOT
BRANCH   2   5
HETATM    5  C   UNL     1     -10.907  11.356  66.380  1.00  0.00    -0.271 C  
HETATM    6  O   UNL     1      -9.697  10.597  66.529  1.00  0.00    -0.182 OA 
HETATM    7  C   UNL     1      -8.501  11.312  66.262  1.00  0.00    -0.156 C  
HETATM    8  C   UNL     1      -8.361  12.508  67.260  1.00  0.00    -0.185 C  
HETATM    9  C   UNL     1     -10.910  12.592  67.301  1.00  0.00    -0.248 C  
HETATM   10  N   UNL     1      -8.164  12.066  68.658  1.00  0.00    -0.306 NA 
HETATM   11  C   UNL     1      -9.613  13.400  67.173  1.00  0.00    -0.241 C  
HETATM   12  H   UNL     1     -11.076  12.902  69.220  1.00  0.00     0.000 HD 
HETATM   13  H1  UNL     1      -8.073  12.846  69.309  1.00  0.00     0.000 HD 
HETATM   14  H2  UNL     1      -7.369  11.432  68.732  1.00  0.00     0.000 HD 
HETATM   15  O   UNL     1     -11.074  12.141  68.652  1.00  0.00    -0.221 OA 
BRANCH   7  16
HETATM   16  O   UNL     1      -7.363  10.442  66.391  1.00  0.00    -0.107 OA 
BRANCH  16  17
HETATM   17  C   UNL     1      -7.639   9.017  66.527  1.00  0.00    -0.089 C  
HETATM   18  N   UNL     1      -7.068   8.466  64.172  1.00  0.00    -0.081 NA 
HETATM   19  C   UNL     1      -8.411   6.883  65.411  1.00  0.00    -0.122 C  
HETATM   20  H1  UNL     1      -7.375   8.030  63.302  1.00  0.00     0.000 HD 
HETATM   21  H2  UNL     1      -6.176   8.085  64.489  1.00  0.00     0.000 HD 
HETATM   22  C   UNL     1      -9.488   6.675  66.477  1.00  0.00    -0.152 C  
HETATM   23  C   UNL     1      -8.104   8.359  65.211  1.00  0.00    -0.140 C  
HETATM   24  N   UNL     1      -9.776   5.231  66.480  1.00  0.00    -0.154 NA 
HETATM   25  C   UNL     1      -9.037   7.226  67.866  1.00  0.00    -0.132 C  
HETATM   26  H   UNL     1      -8.354   8.845  69.688  1.00  0.00     0.000 HD 
HETATM   27  H1  UNL     1     -10.495   5.092  67.190  1.00  0.00     0.000 HD 
HETATM   28  C   UNL     1      -8.546   8.701  67.749  1.00  0.00    -0.136 C  
HETATM   29  H2  UNL     1      -8.948   4.650  66.617  1.00  0.00     0.000 HD 
HETATM   30  O   UNL     1      -7.799   9.039  68.941  1.00  0.00    -0.092 OA 
BRANCH  25  31
HETATM   31  O   UNL     1     -10.114   7.228  68.856  1.00  0.00    -0.170 OA 
BRANCH  31  32
HETATM   32  C   UNL     1      -9.763   7.761  70.139  1.00  0.00    -0.183 C  
HETATM   33  O   UNL     1     -10.478   8.965  70.449  1.00  0.00    -0.194 OA 
HETATM   34  C   UNL     1     -11.883   8.746  70.657  1.00  0.00    -0.112 C  
HETATM   35  C   UNL     1     -12.109   7.791  71.840  1.00  0.00    -0.304 C  
HETATM   36  H   UNL     1      -9.350   4.831  71.592  1.00  0.00     0.000 HD 
HETATM   37  C   UNL     1     -11.412   6.443  71.572  1.00  0.00    -0.306 C  
HETATM   38  H1  UNL     1     -11.133   4.634  72.546  1.00  0.00     0.000 HD 
HETATM   39  O   UNL     1     -13.498   7.583  72.110  1.00  0.00    -0.510 OA 
HETATM   40  H   UNL     1     -13.637   6.993  72.841  1.00  0.00     0.000 HD 
HETATM   41  H2  UNL     1     -12.578   5.404  72.959  1.00  0.00     0.000 HD 
HETATM   42  C   UNL     1      -9.928   6.696  71.255  1.00  0.00    -0.180 C  
HETATM   43  N   UNL     1     -11.594   5.527  72.723  1.00  0.00    -0.290 NA 
HETATM   44  O   UNL     1      -9.249   5.483  70.909  1.00  0.00    -0.147 OA 
BRANCH  34  45
HETATM   45  C   UNL     1     -12.547  10.101  70.937  1.00  0.00    -0.360 C  
HETATM   46  O   UNL     1     -13.212  10.589  69.772  1.00  0.00    -0.497 OA 
HETATM   47  H   UNL     1     -13.623  11.428  69.946  1.00  0.00     0.000 HD 
ENDBRANCH  34  45
ENDBRANCH  31  32
ENDBRANCH  25  31
ENDBRANCH  16  17
ENDBRANCH   7  16
ENDBRANCH   2   5
TORSDOF 6
ENDMDL
MODEL      218
REMARK 921   NORMALIZED FREE ENERGY PREDICTED BY IDOCK:   -4.18 KCAL/MOL
REMARK 922        TOTAL FREE ENERGY PREDICTED BY IDOCK:   -6.70 KCAL/MOL
REMARK 923 INTER-LIGAND FREE ENERGY PREDICTED BY IDOCK:   -5.76 KCAL/MOL
REMARK 924 INTRA-LIGAND FREE ENERGY PREDICTED BY IDOCK:   -0.95 KCAL/MOL
REMARK 927      BINDING AFFINITY PREDICTED BY RF-SCORE:    0.00 PKD
ROOT
HETATM    1  N   UNL     1      -8.745  11.186  68.394  1.00  0.00    -0.151 NA 
HETATM    2  C   UNL     1      -8.419  10.915  66.986  1.00  0.00    -0.134 C  
HETATM    3  H2  UNL     1      -7.904  11.392  68.934  1.00  0.00     0.000 HD 
HETATM    4  H1  UNL     1      -9.438  11.926  68.495  1.00  0.00     0.000 HD 
ENDROOT
BRANCH   2   5
HETATM    5  C   UNL     1      -7.366   9.789  66.834  1.00  0.00    -0.091 C  
HETATM    6  O   UNL     1      -7.939   8.481  66.980  1.00  0.00    -0.098 OA 
HETATM    7  C   UNL     1      -8.808   8.084  65.931  1.00  0.00    -0.153 C  
HETATM    8  C   UNL     1      -8.024   8.039  64.579  1.00  0.00    -0.151 C  
HETATM    9  C   UNL     1      -6.564   9.906  65.522  1.00  0.00    -0.092 C  
HETATM   10  N   UNL     1      -6.988   6.984  64.553  1.00  0.00    -0.049 NA 
HETATM   11  C   UNL     1      -7.371   9.409  64.317  1.00  0.00    -0.109 C  
HETATM   12  H   UNL     1      -4.871   9.203  64.853  1.00  0.00     0.000 HD 
HETATM   13  H1  UNL     1      -6.477   6.955  63.670  1.00  0.00     0.000 HD 
HETATM   14  H2  UNL     1      -7.389   6.073  64.773  1.00  0.00     0.000 HD 
HETATM   15  O   UNL     1      -5.366   9.132  65.661  1.00  0.00    -0.039 OA 
BRANCH   7  16
HETATM   16  O   UNL     1      -9.362   6.786  66.209  1.00  0.00    -0.161 OA 
BRANCH  16  17
HETATM   17  C   UNL     1      -9.151   6.257  67.551  1.00  0.00    -0.110 C  
HETATM   18  N   UNL     1      -7.357   4.675  66.873  1.00  0.00    -0.080 NA 
HETATM   19  C   UNL     1      -8.481   4.279  68.977  1.00  0.00    -0.099 C  
HETATM   20  H1  UNL     1      -7.029   3.710  66.878  1.00  0.00     0.000 HD 
HETATM   21  H2  UNL     1      -6.663   5.310  67.269  1.00  0.00     0.000 HD 
HETATM   22  C   UNL     1      -9.789   4.361  69.766  1.00  0.00    -0.214 C  
HETATM   23  C   UNL     1      -8.654   4.796  67.558  1.00  0.00    -0.104 C  
HETATM   24  N   UNL     1      -9.516   3.720  71.064  1.00  0.00    -0.156 NA 
HETATM   25  C   UNL     1     -10.294   5.833  69.890  1.00  0.00    -0.262 C  
HETATM   26  H   UNL     1     -11.197   8.112  69.256  1.00  0.00     0.000 HD 
HETATM   27  H1  UNL     1     -10.388   3.774  71.589  1.00  0.00     0.000 HD 
HETATM   28  C   UNL     1     -10.360   6.520  68.491  1.00  0.00    -0.192 C  
HETATM   29  H2  UNL     1      -8.716   4.119  71.556  1.00  0.00     0.000 HD 
HETATM   30  O   UNL     1     -10.458   7.951  68.681  1.00  0.00    -0.203 OA 
BRANCH  25  31
HETATM   31  O   UNL     1     -11.638   5.928  70.458  1.00  0.00    -0.177 OA 
BRANCH  31  32
HETATM   32  C   UNL     1     -11.707   6.501  71.770  1.00  0.00    -0.324 C  
HETATM   33  O   UNL     1     -10.450   7.036  72.204  1.00  0.00    -0.205 OA 
HETATM   34  C   UNL     1     -10.047   8.196  71.458  1.00  0.00    -0.188 C  
HETATM   35  C   UNL     1     -11.076   9.325  71.620  1.00  0.00    -0.368 C  
HETATM   36  H   UNL     1     -14.773   7.669  71.440  1.00  0.00     0.000 HD 
HETATM   37  C   UNL     1     -12.459   8.854  71.129  1.00  0.00    -0.214 C  
HETATM   38  H1  UNL     1     -14.384   9.612  70.988  1.00  0.00     0.000 HD 
HETATM   39  O   UNL     1     -10.688  10.516  70.929  1.00  0.00    -0.231 OA 
HETATM   40  H   UNL     1     -11.325  11.213  71.029  1.00  0.00     0.000 HD 
HETATM   41  H2  UNL     1     -13.184  10.795  70.866  1.00  0.00     0.000 HD 
HETATM   42  C   UNL     1     -12.840   7.557  71.865  1.00  0.00    -0.277 C  
HETATM   43  N   UNL     1     -13.469   9.924  71.314  1.00  0.00    -0.338 NA 
HETATM   44  O   UNL     1     -14.079   7.023  71.382  1.00  0.00    -0.317 OA 
BRANCH  34  45
HETATM   45  C   UNL     1      -8.676   8.652  71.979  1.00  0.00    -0.165 C  
HETATM   46  O   UNL     1      -8.007   9.456  71.007  1.00  0.00    -0.303 OA 
HETATM   47  H   UNL     1      -7.159   9.738  71.329  1.00  0.00     0.000 HD 
ENDBRANCH  34  45
ENDBRANCH  31  32
ENDBRANCH  25  31
ENDBRANCH  16  17
ENDBRANCH   7  16
ENDBRANCH   2   5
TORSDOF 6
ENDMDL
MODEL      219
REMARK 921   NORMALIZED FREE ENERGY PREDICTED BY IDOCK:   -4.18 KCAL/MOL
REMARK 922        TOTAL FREE ENERGY PREDICTED BY IDOCK:   -6.70 KCAL/MOL
REMARK 923 INTER-LIGAND FREE ENERGY PREDICTED BY IDOCK:   -7.02 KCAL/MOL
REMARK 924 INTRA-LIGAND FREE ENERGY PREDICTED BY IDOCK:    0.32 KCAL/MOL
REMARK 927      BINDING AFFINITY PREDICTED BY RF-SCORE:    0.00 PKD
ROOT
HETATM    1  N   UNL     1      -8.772  14.943  69.285  1.00  0.00    -0.369 NA 
HETATM    2  C   UNL     1     -10.002  15.055  68.488  1.00  0.00    -0.219 C  
HETATM    3  H2  UNL     1      -7.988  15.400  68.820  1.00  0.00     0.000 HD 
HETATM    4  H1  UNL     1      -8.893  15.296  70.234  1.00  0.00     0.000 HD 
ENDROOT
BRANCH   2   5
HETATM    5  C   UNL     1      -9.817  14.518  67.046  1.00  0.00    -0.249 C  
HETATM    6  O   UNL     1      -9.497  13.118  67.022  1.00  0.00    -0.225 OA 
HETATM    7  C   UNL     1     -10.548  12.253  67.422  1.00  0.00    -0.222 C  
HETATM    8  C   UNL     1     -11.767  12.413  66.456  1.00  0.00    -0.379 C  
HETATM    9  C   UNL     1     -11.024  14.833  66.140  1.00  0.00    -0.332 C  
HETATM   10  N   UNL     1     -11.474  11.945  65.084  1.00  0.00    -0.284 NA 
HETATM   11  C   UNL     1     -12.201  13.890  66.415  1.00  0.00    -0.487 C  
HETATM   12  H   UNL     1     -11.346  14.900  64.217  1.00  0.00     0.000 HD 
HETATM   13  H1  UNL     1     -12.269  12.050  64.453  1.00  0.00     0.000 HD 
HETATM   14  H2  UNL     1     -11.136  10.983  65.090  1.00  0.00     0.000 HD 
HETATM   15  O   UNL     1     -10.603  14.706  64.776  1.00  0.00    -0.421 OA 
BRANCH   7  16
HETATM   16  O   UNL     1     -10.100  10.887  67.410  1.00  0.00    -0.182 OA 
BRANCH  16  17
HETATM   17  C   UNL     1     -10.730   9.981  68.362  1.00  0.00    -0.234 C  
HETATM   18  N   UNL     1     -11.335  11.766  69.982  1.00  0.00    -0.501 NA 
HETATM   19  C   UNL     1     -11.285   9.483  70.778  1.00  0.00    -0.383 C  
HETATM   20  H1  UNL     1     -11.280  12.093  70.946  1.00  0.00     0.000 HD 
HETATM   21  H2  UNL     1     -12.301  11.719  69.656  1.00  0.00     0.000 HD 
HETATM   22  C   UNL     1     -10.624   8.108  70.682  1.00  0.00    -0.215 C  
HETATM   23  C   UNL     1     -10.645  10.476  69.821  1.00  0.00    -0.227 C  
HETATM   24  N   UNL     1     -11.246   7.289  71.737  1.00  0.00    -0.242 NA 
HETATM   25  C   UNL     1     -10.767   7.499  69.252  1.00  0.00    -0.176 C  
HETATM   26  H   UNL     1     -10.499   7.170  66.756  1.00  0.00     0.000 HD 
HETATM   27  H1  UNL     1     -10.805   6.372  71.674  1.00  0.00     0.000 HD 
HETATM   28  C   UNL     1     -10.281   8.506  68.166  1.00  0.00    -0.208 C  
HETATM   29  H2  UNL     1     -12.265   7.257  71.682  1.00  0.00     0.000 HD 
HETATM   30  O   UNL     1     -10.773   8.072  66.876  1.00  0.00    -0.322 OA 
BRANCH  25  31
HETATM   31  O   UNL     1      -9.976   6.283  69.068  1.00  0.00    -0.138 OA 
BRANCH  31  32
HETATM   32  C   UNL     1      -9.028   6.326  67.994  1.00  0.00    -0.114 C  
HETATM   33  O   UNL     1      -7.677   6.445  68.457  1.00  0.00    -0.100 OA 
HETATM   34  C   UNL     1      -7.212   5.267  69.138  1.00  0.00    -0.058 C  
HETATM   35  C   UNL     1      -7.242   4.054  68.196  1.00  0.00    -0.059 C  
HETATM   36  H   UNL     1     -10.671   4.239  66.042  1.00  0.00     0.000 HD 
HETATM   37  C   UNL     1      -8.675   3.819  67.683  1.00  0.00    -0.105 C  
HETATM   38  H1  UNL     1      -9.659   2.515  66.406  1.00  0.00     0.000 HD 
HETATM   39  O   UNL     1      -6.742   2.869  68.823  1.00  0.00    -0.036 OA 
HETATM   40  H   UNL     1      -6.761   2.119  68.241  1.00  0.00     0.000 HD 
HETATM   41  H2  UNL     1      -8.313   1.829  67.161  1.00  0.00     0.000 HD 
HETATM   42  C   UNL     1      -9.201   5.114  67.041  1.00  0.00    -0.117 C  
HETATM   43  N   UNL     1      -8.710   2.671  66.745  1.00  0.00    -0.116 NA 
HETATM   44  O   UNL     1     -10.566   4.981  66.626  1.00  0.00    -0.274 OA 
BRANCH  34  45
HETATM   45  C   UNL     1      -5.778   5.525  69.624  1.00  0.00    -0.012 C  
HETATM   46  O   UNL     1      -5.626   5.128  70.986  1.00  0.00    -0.011 OA 
HETATM   47  H   UNL     1      -4.739   5.287  71.286  1.00  0.00     0.000 HD 
ENDBRANCH  34  45
ENDBRANCH  31  32
ENDBRANCH  25  31
ENDBRANCH  16  17
ENDBRANCH   7  16
ENDBRANCH   2   5
TORSDOF 6
ENDMDL
MODEL      220
REMARK 921   NORMALIZED FREE ENERGY PREDICTED BY IDOCK:   -4.15 KCAL/MOL
REMARK 922        TOTAL FREE ENERGY PREDICTED BY IDOCK:   -6.66 KCAL/MOL
REMARK 923 INTER-LIGAND FREE ENERGY PREDICTED BY IDOCK:   -5.72 KCAL/MOL
REMARK 924 INTRA-LIGAND FREE ENERGY PREDICTED BY IDOCK:   -0.94 KCAL/MOL
REMARK 927      BINDING AFFINITY PREDICTED BY RF-SCORE:    0.00 PKD
ROOT
HETATM    1  N   UNL     1     -11.689   6.458  71.109  1.00  0.00    -0.326 NA 
HETATM    2  C   UNL     1     -10.403   6.229  70.433  1.00  0.00    -0.208 C  
HETATM    3  H2  UNL     1     -12.471   6.179  70.517  1.00  0.00     0.000 HD 
HETATM    4  H1  UNL     1     -11.733   6.001  72.019  1.00  0.00     0.000 HD 
ENDROOT
BRANCH   2   5
HETATM    5  C   UNL     1     -10.336   6.925  69.050  1.00  0.00    -0.192 C  
HETATM    6  O   UNL     1      -8.992   7.270  68.678  1.00  0.00    -0.129 OA 
HETATM    7  C   UNL     1      -8.146   6.169  68.388  1.00  0.00    -0.108 C  
HETATM    8  C   UNL     1      -8.715   5.366  67.174  1.00  0.00    -0.107 C  
HETATM    9  C   UNL     1     -11.031   6.106  67.944  1.00  0.00    -0.304 C  
HETATM   10  N   UNL     1      -8.680   6.136  65.912  1.00  0.00    -0.153 NA 
HETATM   11  C   UNL     1     -10.162   4.933  67.474  1.00  0.00    -0.152 C  
HETATM   12  H   UNL     1     -11.732   6.480  66.162  1.00  0.00     0.000 HD 
HETATM   13  H1  UNL     1      -9.051   5.612  65.119  1.00  0.00     0.000 HD 
HETATM   14  H2  UNL     1      -7.739   6.476  65.717  1.00  0.00     0.000 HD 
HETATM   15  O   UNL     1     -11.304   6.984  66.844  1.00  0.00    -0.199 OA 
BRANCH   7  16
HETATM   16  O   UNL     1      -6.819   6.630  68.081  1.00  0.00    -0.069 OA 
BRANCH  16  17
HETATM   17  C   UNL     1      -6.519   8.022  68.395  1.00  0.00    -0.058 C  
HETATM   18  N   UNL     1      -5.288   7.505  70.491  1.00  0.00    -0.023 NA 
HETATM   19  C   UNL     1      -6.109   9.759  70.187  1.00  0.00    -0.058 C  
HETATM   20  H1  UNL     1      -5.201   7.683  71.491  1.00  0.00     0.000 HD 
HETATM   21  H2  UNL     1      -4.408   7.671  70.002  1.00  0.00     0.000 HD 
HETATM   22  C   UNL     1      -7.211  10.655  69.619  1.00  0.00    -0.139 C  
HETATM   23  C   UNL     1      -6.388   8.291  69.909  1.00  0.00    -0.032 C  
HETATM   24  N   UNL     1      -6.886  12.021  70.063  1.00  0.00    -0.383 NA 
HETATM   25  C   UNL     1      -7.327  10.512  68.069  1.00  0.00    -0.089 C  
HETATM   26  H   UNL     1      -7.758   9.504  65.786  1.00  0.00     0.000 HD 
HETATM   27  H1  UNL     1      -7.621  12.619  69.684  1.00  0.00     0.000 HD 
HETATM   28  C   UNL     1      -7.459   9.014  67.655  1.00  0.00    -0.085 C  
HETATM   29  H2  UNL     1      -5.944  12.320  69.807  1.00  0.00     0.000 HD 
HETATM   30  O   UNL     1      -7.184   8.897  66.239  1.00  0.00    -0.084 OA 
BRANCH  25  31
HETATM   31  O   UNL     1      -8.496  11.196  67.519  1.00  0.00    -0.123 OA 
BRANCH  31  32
HETATM   32  C   UNL     1      -8.208  12.258  66.600  1.00  0.00     0.025 C  
HETATM   33  O   UNL     1      -8.545  11.923  65.248  1.00  0.00     0.385 OA 
HETATM   34  C   UNL     1      -9.961  11.802  65.036  1.00  0.00    -0.254 C  
HETATM   35  C   UNL     1     -10.666  13.133  65.340  1.00  0.00    -0.294 C  
HETATM   36  H   UNL     1      -8.985  14.692  68.684  1.00  0.00     0.000 HD 
HETATM   37  C   UNL     1     -10.398  13.550  66.799  1.00  0.00    -0.264 C  
HETATM   38  H1  UNL     1     -10.869  15.128  68.060  1.00  0.00     0.000 HD 
HETATM   39  O   UNL     1     -12.074  13.067  65.097  1.00  0.00    -0.378 OA 
HETATM   40  H   UNL     1     -12.510  13.890  65.285  1.00  0.00     0.000 HD 
HETATM   41  H2  UNL     1     -12.043  14.836  66.881  1.00  0.00     0.000 HD 
HETATM   42  C   UNL     1      -8.880  13.584  67.044  1.00  0.00    -0.211 C  
HETATM   43  N   UNL     1     -11.046  14.852  67.094  1.00  0.00    -0.324 NA 
HETATM   44  O   UNL     1      -8.574  13.880  68.412  1.00  0.00    -0.171 OA 
BRANCH  34  45
HETATM   45  C   UNL     1     -10.197  11.401  63.573  1.00  0.00    -0.413 C  
HETATM   46  O   UNL     1     -11.593  11.268  63.303  1.00  0.00    -0.805 OA 
HETATM   47  H   UNL     1     -11.739  11.020  62.398  1.00  0.00     0.000 HD 
ENDBRANCH  34  45
ENDBRANCH  31  32
ENDBRANCH  25  31
ENDBRANCH  16  17
ENDBRANCH   7  16
ENDBRANCH   2   5
TORSDOF 6
ENDMDL
MODEL      221
REMARK 921   NORMALIZED FREE ENERGY PREDICTED BY IDOCK:   -4.14 KCAL/MOL
REMARK 922        TOTAL FREE ENERGY PREDICTED BY IDOCK:   -6.64 KCAL/MOL
REMARK 923 INTER-LIGAND FREE ENERGY PREDICTED BY IDOCK:   -6.19 KCAL/MOL
REMARK 924 INTRA-LIGAND FREE ENERGY PREDICTED BY IDOCK:   -0.45 KCAL/MOL
REMARK 927      BINDING AFFINITY PREDICTED BY RF-SCORE:    0.00 PKD
ROOT
HETATM    1  N   UNL     1      -9.576  14.281  67.695  1.00  0.00    -0.215 NA 
HETATM    2  C   UNL     1      -8.159  13.912  67.561  1.00  0.00    -0.182 C  
HETATM    3  H2  UNL     1      -9.857  14.313  68.675  1.00  0.00     0.000 HD 
HETATM    4  H1  UNL     1      -9.794  15.156  67.220  1.00  0.00     0.000 HD 
ENDROOT
BRANCH   2   5
HETATM    5  C   UNL     1      -7.828  12.582  68.282  1.00  0.00    -0.144 C  
HETATM    6  O   UNL     1      -8.792  11.554  68.002  1.00  0.00    -0.146 OA 
HETATM    7  C   UNL     1      -8.781  11.066  66.670  1.00  0.00    -0.160 C  
HETATM    8  C   UNL     1      -7.391  10.424  66.350  1.00  0.00    -0.120 C  
HETATM    9  C   UNL     1      -6.393  12.097  67.997  1.00  0.00    -0.068 C  
HETATM   10  N   UNL     1      -7.130   9.202  67.141  1.00  0.00    -0.082 NA 
HETATM   11  C   UNL     1      -6.276  11.454  66.609  1.00  0.00    -0.137 C  
HETATM   12  H   UNL     1      -5.148  10.848  68.832  1.00  0.00     0.000 HD 
HETATM   13  H1  UNL     1      -6.223   8.783  66.932  1.00  0.00     0.000 HD 
HETATM   14  H2  UNL     1      -7.882   8.523  67.024  1.00  0.00     0.000 HD 
HETATM   15  O   UNL     1      -6.033  11.147  69.008  1.00  0.00    -0.040 OA 
BRANCH   7  16
HETATM   16  O   UNL     1      -9.816  10.084  66.493  1.00  0.00    -0.188 OA 
BRANCH  16  17
HETATM   17  C   UNL     1     -10.720   9.874  67.616  1.00  0.00    -0.281 C  
HETATM   18  N   UNL     1     -12.005  11.969  67.248  1.00  0.00    -0.590 NA 
HETATM   19  C   UNL     1     -12.151  10.920  69.421  1.00  0.00    -0.362 C  
HETATM   20  H1  UNL     1     -12.350  12.838  67.655  1.00  0.00     0.000 HD 
HETATM   21  H2  UNL     1     -12.762  11.420  66.840  1.00  0.00     0.000 HD 
HETATM   22  C   UNL     1     -11.433  10.114  70.504  1.00  0.00    -0.337 C  
HETATM   23  C   UNL     1     -11.241  11.189  68.234  1.00  0.00    -0.279 C  
HETATM   24  N   UNL     1     -12.375  10.033  71.635  1.00  0.00    -0.399 NA 
HETATM   25  C   UNL     1     -10.972   8.720  69.975  1.00  0.00    -0.209 C  
HETATM   26  H   UNL     1      -9.730   6.959  68.645  1.00  0.00     0.000 HD 
HETATM   27  H1  UNL     1     -11.896   9.497  72.358  1.00  0.00     0.000 HD 
HETATM   28  C   UNL     1     -10.153   8.867  68.656  1.00  0.00    -0.188 C  
HETATM   29  H2  UNL     1     -13.287   9.653  71.380  1.00  0.00     0.000 HD 
HETATM   30  O   UNL     1     -10.076   7.575  68.010  1.00  0.00    -0.168 OA 
BRANCH  25  31
HETATM   31  O   UNL     1     -10.109   8.009  70.917  1.00  0.00    -0.190 OA 
BRANCH  31  32
HETATM   32  C   UNL     1     -10.596   6.731  71.347  1.00  0.00    -0.221 C  
HETATM   33  O   UNL     1     -10.221   5.671  70.458  1.00  0.00    -0.200 OA 
HETATM   34  C   UNL     1      -8.809   5.404  70.468  1.00  0.00    -0.134 C  
HETATM   35  C   UNL     1      -8.353   4.974  71.871  1.00  0.00    -0.120 C  
HETATM   36  H   UNL     1     -10.247   7.333  74.570  1.00  0.00     0.000 HD 
HETATM   37  C   UNL     1      -8.674   6.081  72.893  1.00  0.00    -0.123 C  
HETATM   38  H1  UNL     1      -8.482   6.396  74.934  1.00  0.00     0.000 HD 
HETATM   39  O   UNL     1      -6.960   4.654  71.913  1.00  0.00    -0.054 OA 
HETATM   40  H   UNL     1      -6.678   4.388  72.780  1.00  0.00     0.000 HD 
HETATM   41  H2  UNL     1      -7.289   5.385  74.294  1.00  0.00     0.000 HD 
HETATM   42  C   UNL     1     -10.170   6.429  72.808  1.00  0.00    -0.186 C  
HETATM   43  N   UNL     1      -8.270   5.662  74.257  1.00  0.00    -0.104 NA 
HETATM   44  O   UNL     1     -10.508   7.518  73.676  1.00  0.00    -0.349 OA 
BRANCH  34  45
HETATM   45  C   UNL     1      -8.522   4.288  69.454  1.00  0.00    -0.072 C  
HETATM   46  O   UNL     1      -9.293   3.124  69.750  1.00  0.00    -0.142 OA 
HETATM   47  H   UNL     1      -9.116   2.433  69.122  1.00  0.00     0.000 HD 
ENDBRANCH  34  45
ENDBRANCH  31  32
ENDBRANCH  25  31
ENDBRANCH  16  17
ENDBRANCH   7  16
ENDBRANCH   2   5
TORSDOF 6
ENDMDL
MODEL      222
REMARK 921   NORMALIZED FREE ENERGY PREDICTED BY IDOCK:   -4.13 KCAL/MOL
REMARK 922        TOTAL FREE ENERGY PREDICTED BY IDOCK:   -6.64 KCAL/MOL
REMARK 923 INTER-LIGAND FREE ENERGY PREDICTED BY IDOCK:   -5.10 KCAL/MOL
REMARK 924 INTRA-LIGAND FREE ENERGY PREDICTED BY IDOCK:   -1.54 KCAL/MOL
REMARK 927      BINDING AFFINITY PREDICTED BY RF-SCORE:    0.00 PKD
ROOT
HETATM    1  N   UNL     1     -13.293   9.967  70.662  1.00  0.00    -0.585 NA 
HETATM    2  C   UNL     1     -13.624  11.020  71.634  1.00  0.00     0.103 C  
HETATM    3  H2  UNL     1     -12.417   9.505  70.905  1.00  0.00     0.000 HD 
HETATM    4  H1  UNL     1     -14.049   9.292  70.553  1.00  0.00     0.000 HD 
ENDROOT
BRANCH   2   5
HETATM    5  C   UNL     1     -12.476  12.047  71.800  1.00  0.00     0.132 C  
HETATM    6  O   UNL     1     -11.685  12.180  70.608  1.00  0.00    -0.127 OA 
HETATM    7  C   UNL     1     -12.346  12.795  69.513  1.00  0.00     0.040 C  
HETATM    8  C   UNL     1     -12.762  14.253  69.894  1.00  0.00    -0.046 C  
HETATM    9  C   UNL     1     -12.977  13.418  72.295  1.00  0.00    -0.289 C  
HETATM   10  N   UNL     1     -11.600  15.143  70.108  1.00  0.00    -0.270 NA 
HETATM   11  C   UNL     1     -13.630  14.225  71.166  1.00  0.00    -0.300 C  
HETATM   12  H   UNL     1     -12.167  14.983  73.132  1.00  0.00     0.000 HD 
HETATM   13  H1  UNL     1     -11.872  16.095  70.356  1.00  0.00     0.000 HD 
HETATM   14  H2  UNL     1     -10.983  15.139  69.296  1.00  0.00     0.000 HD 
HETATM   15  O   UNL     1     -11.858  14.137  72.827  1.00  0.00     0.364 OA 
BRANCH   7  16
HETATM   16  O   UNL     1     -11.481  12.826  68.365  1.00  0.00    -0.265 OA 
BRANCH  16  17
HETATM   17  C   UNL     1     -10.149  12.257  68.532  1.00  0.00    -0.187 C  
HETATM   18  N   UNL     1      -9.066  14.420  69.102  1.00  0.00    -0.392 NA 
HETATM   19  C   UNL     1      -7.650  12.605  68.362  1.00  0.00    -0.132 C  
HETATM   20  H1  UNL     1      -8.317  15.078  68.887  1.00  0.00     0.000 HD 
HETATM   21  H2  UNL     1      -9.051  14.141  70.083  1.00  0.00     0.000 HD 
HETATM   22  C   UNL     1      -7.506  11.379  67.458  1.00  0.00    -0.113 C  
HETATM   23  C   UNL     1      -9.016  13.253  68.206  1.00  0.00    -0.176 C  
HETATM   24  N   UNL     1      -6.112  10.929  67.611  1.00  0.00    -0.047 NA 
HETATM   25  C   UNL     1      -8.560  10.281  67.807  1.00  0.00    -0.118 C  
HETATM   26  H   UNL     1     -10.785   9.106  68.086  1.00  0.00     0.000 HD 
HETATM   27  H1  UNL     1      -6.016  10.112  67.008  1.00  0.00     0.000 HD 
HETATM   28  C   UNL     1     -10.000  10.878  67.832  1.00  0.00    -0.176 C  
HETATM   29  H2  UNL     1      -5.843  10.756  68.580  1.00  0.00     0.000 HD 
HETATM   30  O   UNL     1     -10.876   9.949  68.513  1.00  0.00    -0.229 OA 
BRANCH  25  31
HETATM   31  O   UNL     1      -8.585   9.186  66.837  1.00  0.00    -0.121 OA 
BRANCH  31  32
HETATM   32  C   UNL     1      -8.085   7.932  67.318  1.00  0.00    -0.118 C  
HETATM   33  O   UNL     1      -8.979   7.302  68.244  1.00  0.00    -0.127 OA 
HETATM   34  C   UNL     1     -10.198   6.853  67.629  1.00  0.00    -0.185 C  
HETATM   35  C   UNL     1      -9.899   5.812  66.540  1.00  0.00    -0.161 C  
HETATM   36  H   UNL     1      -6.636   7.066  64.486  1.00  0.00     0.000 HD 
HETATM   37  C   UNL     1      -8.976   6.421  65.466  1.00  0.00     0.058 C  
HETATM   38  H1  UNL     1      -8.042   5.817  63.717  1.00  0.00     0.000 HD 
HETATM   39  O   UNL     1     -11.092   5.305  65.933  1.00  0.00    -0.773 OA 
HETATM   40  H   UNL     1     -10.907   4.662  65.259  1.00  0.00     0.000 HD 
HETATM   41  H2  UNL     1      -9.494   5.008  64.018  1.00  0.00     0.000 HD 
HETATM   42  C   UNL     1      -7.717   6.986  66.146  1.00  0.00    -0.095 C  
HETATM   43  N   UNL     1      -8.653   5.414  64.427  1.00  0.00    -0.105 NA 
HETATM   44  O   UNL     1      -6.861   7.646  65.204  1.00  0.00    -0.047 OA 
BRANCH  34  45
HETATM   45  C   UNL     1     -11.090   6.238  68.717  1.00  0.00    -0.346 C  
HETATM   46  O   UNL     1     -11.084   7.047  69.894  1.00  0.00    -0.265 OA 
HETATM   47  H   UNL     1     -11.636   6.667  70.567  1.00  0.00     0.000 HD 
ENDBRANCH  34  45
ENDBRANCH  31  32
ENDBRANCH  25  31
ENDBRANCH  16  17
ENDBRANCH   7  16
ENDBRANCH   2   5
TORSDOF 6
ENDMDL
MODEL      223
REMARK 921   NORMALIZED FREE ENERGY PREDICTED BY IDOCK:   -4.11 KCAL/MOL
REMARK 922        TOTAL FREE ENERGY PREDICTED BY IDOCK:   -6.61 KCAL/MOL
REMARK 923 INTER-LIGAND FREE ENERGY PREDICTED BY IDOCK:   -4.97 KCAL/MOL
REMARK 924 INTRA-LIGAND FREE ENERGY PREDICTED BY IDOCK:   -1.64 KCAL/MOL
REMARK 927      BINDING AFFINITY PREDICTED BY RF-SCORE:    0.00 PKD
ROOT
HETATM    1  N   UNL     1      -6.062   2.410  71.601  1.00  0.00    -0.014 NA 
HETATM    2  C   UNL     1      -6.483   3.591  70.834  1.00  0.00    -0.030 C  
HETATM    3  H2  UNL     1      -6.221   1.552  71.074  1.00  0.00     0.000 HD 
HETATM    4  H1  UNL     1      -5.093   2.477  71.912  1.00  0.00     0.000 HD 
ENDROOT
BRANCH   2   5
HETATM    5  C   UNL     1      -7.956   3.490  70.362  1.00  0.00    -0.046 C  
HETATM    6  O   UNL     1      -8.401   4.684  69.700  1.00  0.00    -0.070 OA 
HETATM    7  C   UNL     1      -7.804   4.929  68.436  1.00  0.00    -0.082 C  
HETATM    8  C   UNL     1      -8.144   3.762  67.452  1.00  0.00    -0.090 C  
HETATM    9  C   UNL     1      -8.213   2.240  69.498  1.00  0.00    -0.044 C  
HETATM   10  N   UNL     1      -9.583   3.695  67.119  1.00  0.00    -0.291 NA 
HETATM   11  C   UNL     1      -7.694   2.423  68.066  1.00  0.00    -0.055 C  
HETATM   12  H   UNL     1      -9.784   1.222  68.946  1.00  0.00     0.000 HD 
HETATM   13  H1  UNL     1      -9.804   2.934  66.476  1.00  0.00     0.000 HD 
HETATM   14  H2  UNL     1      -9.916   4.588  66.756  1.00  0.00     0.000 HD 
HETATM   15  O   UNL     1      -9.625   1.993  69.479  1.00  0.00    -0.082 OA 
BRANCH   7  16
HETATM   16  O   UNL     1      -8.283   6.171  67.893  1.00  0.00    -0.115 OA 
BRANCH  16  17
HETATM   17  C   UNL     1      -8.819   7.138  68.843  1.00  0.00    -0.130 C  
HETATM   18  N   UNL     1     -11.007   5.989  69.104  1.00  0.00    -0.357 NA 
HETATM   19  C   UNL     1     -10.862   8.311  69.762  1.00  0.00    -0.186 C  
HETATM   20  H1  UNL     1     -12.022   6.074  69.062  1.00  0.00     0.000 HD 
HETATM   21  H2  UNL     1     -10.697   5.627  70.006  1.00  0.00     0.000 HD 
HETATM   22  C   UNL     1     -10.239   9.681  69.495  1.00  0.00    -0.218 C  
HETATM   23  C   UNL     1     -10.355   7.268  68.779  1.00  0.00    -0.200 C  
HETATM   24  N   UNL     1     -10.902  10.612  70.424  1.00  0.00    -0.442 NA 
HETATM   25  C   UNL     1      -8.685   9.646  69.649  1.00  0.00    -0.197 C  
HETATM   26  H   UNL     1      -6.253   9.090  69.221  1.00  0.00     0.000 HD 
HETATM   27  H1  UNL     1     -10.487  11.526  70.245  1.00  0.00     0.000 HD 
HETATM   28  C   UNL     1      -8.066   8.497  68.796  1.00  0.00    -0.120 C  
HETATM   29  H2  UNL     1     -10.848  10.322  71.401  1.00  0.00     0.000 HD 
HETATM   30  O   UNL     1      -6.713   8.259  69.249  1.00  0.00    -0.042 OA 
BRANCH  25  31
HETATM   31  O   UNL     1      -8.040  10.881  69.205  1.00  0.00    -0.149 OA 
BRANCH  31  32
HETATM   32  C   UNL     1      -8.277  11.237  67.837  1.00  0.00    -0.123 C  
HETATM   33  O   UNL     1      -9.578  11.803  67.632  1.00  0.00    -0.177 OA 
HETATM   34  C   UNL     1      -9.731  13.094  68.244  1.00  0.00    -0.223 C  
HETATM   35  C   UNL     1      -8.726  14.093  67.650  1.00  0.00    -0.187 C  
HETATM   36  H   UNL     1      -5.178  12.179  67.220  1.00  0.00     0.000 HD 
HETATM   37  C   UNL     1      -7.287  13.588  67.869  1.00  0.00    -0.149 C  
HETATM   38  H1  UNL     1      -5.357  14.194  67.413  1.00  0.00     0.000 HD 
HETATM   39  O   UNL     1      -8.876  15.405  68.201  1.00  0.00    -0.166 OA 
HETATM   40  H   UNL     1      -8.255  16.022  67.834  1.00  0.00     0.000 HD 
HETATM   41  H2  UNL     1      -6.434  15.479  67.616  1.00  0.00     0.000 HD 
HETATM   42  C   UNL     1      -7.158  12.166  67.295  1.00  0.00    -0.144 C  
HETATM   43  N   UNL     1      -6.309  14.528  67.268  1.00  0.00    -0.237 NA 
HETATM   44  O   UNL     1      -5.863  11.610  67.551  1.00  0.00    -0.056 OA 
BRANCH  34  45
HETATM   45  C   UNL     1     -11.167  13.578  67.997  1.00  0.00    -0.271 C  
HETATM   46  O   UNL     1     -12.100  12.796  68.742  1.00  0.00    -0.276 OA 
HETATM   47  H   UNL     1     -12.988  13.095  68.589  1.00  0.00     0.000 HD 
ENDBRANCH  34  45
ENDBRANCH  31  32
ENDBRANCH  25  31
ENDBRANCH  16  17
ENDBRANCH   7  16
ENDBRANCH   2   5
TORSDOF 6
ENDMDL
MODEL      224
REMARK 921   NORMALIZED FREE ENERGY PREDICTED BY IDOCK:   -4.09 KCAL/MOL
REMARK 922        TOTAL FREE ENERGY PREDICTED BY IDOCK:   -6.58 KCAL/MOL
REMARK 923 INTER-LIGAND FREE ENERGY PREDICTED BY IDOCK:   -6.11 KCAL/MOL
REMARK 924 INTRA-LIGAND FREE ENERGY PREDICTED BY IDOCK:   -0.47 KCAL/MOL
REMARK 927      BINDING AFFINITY PREDICTED BY RF-SCORE:    0.00 PKD
ROOT
HETATM    1  N   UNL     1     -11.848  15.367  68.609  1.00  0.00    -0.499 NA 
HETATM    2  C   UNL     1     -12.244  14.277  67.706  1.00  0.00    -0.164 C  
HETATM    3  H2  UNL     1     -12.176  16.269  68.264  1.00  0.00     0.000 HD 
HETATM    4  H1  UNL     1     -12.156  15.206  69.567  1.00  0.00     0.000 HD 
ENDROOT
BRANCH   2   5
HETATM    5  C   UNL     1     -11.776  14.522  66.249  1.00  0.00    -0.358 C  
HETATM    6  O   UNL     1     -10.523  13.880  65.963  1.00  0.00    -0.285 OA 
HETATM    7  C   UNL     1     -10.569  12.463  65.920  1.00  0.00    -0.258 C  
HETATM    8  C   UNL     1     -11.540  11.995  64.787  1.00  0.00    -0.281 C  
HETATM    9  C   UNL     1     -12.851  14.141  65.213  1.00  0.00    -0.344 C  
HETATM   10  N   UNL     1     -11.048  12.340  63.435  1.00  0.00    -0.623 NA 
HETATM   11  C   UNL     1     -12.929  12.624  65.006  1.00  0.00    -0.028 C  
HETATM   12  H   UNL     1     -13.190  14.553  63.336  1.00  0.00     0.000 HD 
HETATM   13  H1  UNL     1     -11.682  12.034  62.695  1.00  0.00     0.000 HD 
HETATM   14  H2  UNL     1     -10.108  11.976  63.284  1.00  0.00     0.000 HD 
HETATM   15  O   UNL     1     -12.527  14.788  63.975  1.00  0.00    -0.803 OA 
BRANCH   7  16
HETATM   16  O   UNL     1      -9.256  11.930  65.679  1.00  0.00    -0.173 OA 
BRANCH  16  17
HETATM   17  C   UNL     1      -8.535  11.413  66.836  1.00  0.00    -0.157 C  
HETATM   18  N   UNL     1      -6.894  13.278  66.912  1.00  0.00    -0.322 NA 
HETATM   19  C   UNL     1      -6.330  11.225  68.059  1.00  0.00    -0.053 C  
HETATM   20  H1  UNL     1      -5.909  13.543  66.925  1.00  0.00     0.000 HD 
HETATM   21  H2  UNL     1      -7.401  13.677  67.702  1.00  0.00     0.000 HD 
HETATM   22  C   UNL     1      -6.432   9.700  68.079  1.00  0.00    -0.057 C  
HETATM   23  C   UNL     1      -7.046  11.815  66.855  1.00  0.00    -0.097 C  
HETATM   24  N   UNL     1      -5.601   9.257  69.212  1.00  0.00    -0.035 NA 
HETATM   25  C   UNL     1      -7.915   9.223  68.168  1.00  0.00    -0.099 C  
HETATM   26  H   UNL     1     -10.334   8.807  67.546  1.00  0.00     0.000 HD 
HETATM   27  H1  UNL     1      -5.668   8.239  69.225  1.00  0.00     0.000 HD 
HETATM   28  C   UNL     1      -8.785   9.896  67.063  1.00  0.00    -0.131 C  
HETATM   29  H2  UNL     1      -5.852   9.694  70.099  1.00  0.00     0.000 HD 
HETATM   30  O   UNL     1     -10.181   9.734  67.407  1.00  0.00    -0.200 OA 
BRANCH  25  31
HETATM   31  O   UNL     1      -8.063   7.780  67.985  1.00  0.00    -0.120 OA 
BRANCH  31  32
HETATM   32  C   UNL     1      -7.053   6.978  68.611  1.00  0.00    -0.092 C  
HETATM   33  O   UNL     1      -7.449   6.506  69.906  1.00  0.00    -0.083 OA 
HETATM   34  C   UNL     1      -8.516   5.545  69.851  1.00  0.00    -0.116 C  
HETATM   35  C   UNL     1      -8.084   4.306  69.052  1.00  0.00    -0.071 C  
HETATM   36  H   UNL     1      -5.991   5.579  65.821  1.00  0.00     0.000 HD 
HETATM   37  C   UNL     1      -7.684   4.713  67.621  1.00  0.00    -0.086 C  
HETATM   38  H1  UNL     1      -6.966   3.799  65.903  1.00  0.00     0.000 HD 
HETATM   39  O   UNL     1      -9.104   3.304  69.012  1.00  0.00    -0.117 OA 
HETATM   40  H   UNL     1      -8.837   2.538  68.518  1.00  0.00     0.000 HD 
HETATM   41  H2  UNL     1      -7.929   2.786  66.853  1.00  0.00     0.000 HD 
HETATM   42  C   UNL     1      -6.609   5.811  67.690  1.00  0.00    -0.053 C  
HETATM   43  N   UNL     1      -7.231   3.529  66.851  1.00  0.00    -0.062 NA 
HETATM   44  O   UNL     1      -6.263   6.293  66.386  1.00  0.00    -0.034 OA 
BRANCH  34  45
HETATM   45  C   UNL     1      -8.882   5.147  71.287  1.00  0.00    -0.135 C  
HETATM   46  O   UNL     1     -10.169   4.530  71.330  1.00  0.00    -0.173 OA 
HETATM   47  H   UNL     1     -10.395   4.284  72.219  1.00  0.00     0.000 HD 
ENDBRANCH  34  45
ENDBRANCH  31  32
ENDBRANCH  25  31
ENDBRANCH  16  17
ENDBRANCH   7  16
ENDBRANCH   2   5
TORSDOF 6
ENDMDL
MODEL      225
REMARK 921   NORMALIZED FREE ENERGY PREDICTED BY IDOCK:   -4.09 KCAL/MOL
REMARK 922        TOTAL FREE ENERGY PREDICTED BY IDOCK:   -6.58 KCAL/MOL
REMARK 923 INTER-LIGAND FREE ENERGY PREDICTED BY IDOCK:   -6.02 KCAL/MOL
REMARK 924 INTRA-LIGAND FREE ENERGY PREDICTED BY IDOCK:   -0.56 KCAL/MOL
REMARK 927      BINDING AFFINITY PREDICTED BY RF-SCORE:    0.00 PKD
ROOT
HETATM    1  N   UNL     1     -11.873   6.693  69.854  1.00  0.00    -0.653 NA 
HETATM    2  C   UNL     1     -10.568   7.077  69.295  1.00  0.00    -0.224 C  
HETATM    3  H2  UNL     1     -12.106   5.730  69.617  1.00  0.00     0.000 HD 
HETATM    4  H1  UNL     1     -11.922   6.848  70.861  1.00  0.00     0.000 HD 
ENDROOT
BRANCH   2   5
HETATM    5  C   UNL     1     -10.494   6.842  67.765  1.00  0.00    -0.223 C  
HETATM    6  O   UNL     1      -9.382   7.523  67.162  1.00  0.00    -0.132 OA 
HETATM    7  C   UNL     1      -8.105   7.009  67.504  1.00  0.00    -0.113 C  
HETATM    8  C   UNL     1      -7.984   5.524  67.030  1.00  0.00    -0.102 C  
HETATM    9  C   UNL     1     -10.501   5.345  67.397  1.00  0.00    -0.189 C  
HETATM   10  N   UNL     1      -7.998   5.391  65.557  1.00  0.00    -0.105 NA 
HETATM   11  C   UNL     1      -9.133   4.696  67.633  1.00  0.00    -0.133 C  
HETATM   12  H   UNL     1     -10.872   4.305  65.789  1.00  0.00     0.000 HD 
HETATM   13  H1  UNL     1      -7.919   4.422  65.247  1.00  0.00     0.000 HD 
HETATM   14  H2  UNL     1      -7.276   5.972  65.130  1.00  0.00     0.000 HD 
HETATM   15  O   UNL     1     -10.868   5.227  66.016  1.00  0.00    -0.208 OA 
BRANCH   7  16
HETATM   16  O   UNL     1      -7.072   7.797  66.887  1.00  0.00    -0.077 OA 
BRANCH  16  17
HETATM   17  C   UNL     1      -6.568   8.932  67.651  1.00  0.00    -0.061 C  
HETATM   18  N   UNL     1      -6.275   7.651  69.761  1.00  0.00    -0.030 NA 
HETATM   19  C   UNL     1      -6.377  10.063  69.905  1.00  0.00    -0.066 C  
HETATM   20  H1  UNL     1      -6.488   7.593  70.757  1.00  0.00     0.000 HD 
HETATM   21  H2  UNL     1      -5.269   7.621  69.590  1.00  0.00     0.000 HD 
HETATM   22  C   UNL     1      -6.974  11.355  69.346  1.00  0.00    -0.092 C  
HETATM   23  C   UNL     1      -6.892   8.843  69.158  1.00  0.00    -0.055 C  
HETATM   24  N   UNL     1      -6.497  12.433  70.230  1.00  0.00    -0.448 NA 
HETATM   25  C   UNL     1      -6.594  11.562  67.846  1.00  0.00    -0.064 C  
HETATM   26  H   UNL     1      -6.465  11.210  65.342  1.00  0.00     0.000 HD 
HETATM   27  H1  UNL     1      -6.895  13.295  69.857  1.00  0.00     0.000 HD 
HETATM   28  C   UNL     1      -6.937  10.296  67.004  1.00  0.00    -0.089 C  
HETATM   29  H2  UNL     1      -5.481  12.461  70.328  1.00  0.00     0.000 HD 
HETATM   30  O   UNL     1      -6.240  10.377  65.738  1.00  0.00    -0.102 OA 
BRANCH  25  31
HETATM   31  O   UNL     1      -7.310  12.676  67.225  1.00  0.00    -0.148 OA 
BRANCH  31  32
HETATM   32  C   UNL     1      -8.244  13.352  68.076  1.00  0.00    -0.161 C  
HETATM   33  O   UNL     1      -7.790  14.654  68.467  1.00  0.00    -0.120 OA 
HETATM   34  C   UNL     1      -7.745  15.585  67.373  1.00  0.00    -0.194 C  
HETATM   35  C   UNL     1      -9.147  15.779  66.774  1.00  0.00    -0.249 C  
HETATM   36  H   UNL     1     -10.936  12.145  66.605  1.00  0.00     0.000 HD 
HETATM   37  C   UNL     1      -9.700  14.429  66.278  1.00  0.00    -0.310 C  
HETATM   38  H1  UNL     1     -11.433  13.703  65.400  1.00  0.00     0.000 HD 
HETATM   39  O   UNL     1      -9.154  16.734  65.710  1.00  0.00    -0.515 OA 
HETATM   40  H   UNL     1     -10.020  16.853  65.339  1.00  0.00     0.000 HD 
HETATM   41  H2  UNL     1     -11.098  15.310  65.001  1.00  0.00     0.000 HD 
HETATM   42  C   UNL     1      -9.654  13.410  67.430  1.00  0.00    -0.223 C  
HETATM   43  N   UNL     1     -11.067  14.597  65.729  1.00  0.00    -0.324 NA 
HETATM   44  O   UNL     1     -10.073  12.109  67.000  1.00  0.00    -0.203 OA 
BRANCH  34  45
HETATM   45  C   UNL     1      -7.206  16.923  67.900  1.00  0.00    -0.149 C  
HETATM   46  O   UNL     1      -8.090  17.477  68.874  1.00  0.00    -0.254 OA 
HETATM   47  H   UNL     1      -7.757  18.305  69.200  1.00  0.00     0.000 HD 
ENDBRANCH  34  45
ENDBRANCH  31  32
ENDBRANCH  25  31
ENDBRANCH  16  17
ENDBRANCH   7  16
ENDBRANCH   2   5
TORSDOF 6
ENDMDL
MODEL      226
REMARK 921   NORMALIZED FREE ENERGY PREDICTED BY IDOCK:   -4.06 KCAL/MOL
REMARK 922        TOTAL FREE ENERGY PREDICTED BY IDOCK:   -6.54 KCAL/MOL
REMARK 923 INTER-LIGAND FREE ENERGY PREDICTED BY IDOCK:   -6.31 KCAL/MOL
REMARK 924 INTRA-LIGAND FREE ENERGY PREDICTED BY IDOCK:   -0.23 KCAL/MOL
REMARK 927      BINDING AFFINITY PREDICTED BY RF-SCORE:    0.00 PKD
ROOT
HETATM    1  N   UNL     1     -12.722  10.401  69.909  1.00  0.00    -0.537 NA 
HETATM    2  C   UNL     1     -11.454  10.872  69.334  1.00  0.00    -0.302 C  
HETATM    3  H2  UNL     1     -12.711   9.391  70.048  1.00  0.00     0.000 HD 
HETATM    4  H1  UNL     1     -12.959  10.888  70.772  1.00  0.00     0.000 HD 
ENDROOT
BRANCH   2   5
HETATM    5  C   UNL     1     -11.093  10.131  68.022  1.00  0.00    -0.240 C  
HETATM    6  O   UNL     1     -10.188  10.884  67.200  1.00  0.00    -0.194 OA 
HETATM    7  C   UNL     1      -8.874  11.019  67.719  1.00  0.00    -0.133 C  
HETATM    8  C   UNL     1      -8.215   9.610  67.872  1.00  0.00    -0.106 C  
HETATM    9  C   UNL     1     -10.565   8.705  68.277  1.00  0.00    -0.128 C  
HETATM   10  N   UNL     1      -7.977   8.946  66.572  1.00  0.00    -0.102 NA 
HETATM   11  C   UNL     1      -9.107   8.716  68.753  1.00  0.00    -0.142 C  
HETATM   12  H   UNL     1     -10.349   7.085  67.211  1.00  0.00     0.000 HD 
HETATM   13  H1  UNL     1      -7.547   8.026  66.672  1.00  0.00     0.000 HD 
HETATM   14  H2  UNL     1      -7.429   9.541  65.952  1.00  0.00     0.000 HD 
HETATM   15  O   UNL     1     -10.675   7.964  67.055  1.00  0.00    -0.339 OA 
BRANCH   7  16
HETATM   16  O   UNL     1      -8.075  11.832  66.843  1.00  0.00    -0.163 OA 
BRANCH  16  17
HETATM   17  C   UNL     1      -7.404  12.979  67.443  1.00  0.00    -0.116 C  
HETATM   18  N   UNL     1      -5.303  11.751  67.948  1.00  0.00    -0.047 NA 
HETATM   19  C   UNL     1      -5.724  13.812  69.139  1.00  0.00    -0.083 C  
HETATM   20  H1  UNL     1      -4.621  11.491  68.660  1.00  0.00     0.000 HD 
HETATM   21  H2  UNL     1      -4.858  12.205  67.150  1.00  0.00     0.000 HD 
HETATM   22  C   UNL     1      -6.766  14.739  69.767  1.00  0.00    -0.173 C  
HETATM   23  C   UNL     1      -6.372  12.585  68.520  1.00  0.00    -0.069 C  
HETATM   24  N   UNL     1      -6.003  15.810  70.431  1.00  0.00    -0.095 NA 
HETATM   25  C   UNL     1      -7.784  15.263  68.706  1.00  0.00    -0.147 C  
HETATM   26  H   UNL     1      -9.633  15.291  66.977  1.00  0.00     0.000 HD 
HETATM   27  H1  UNL     1      -6.698  16.427  70.850  1.00  0.00     0.000 HD 
HETATM   28  C   UNL     1      -8.400  14.083  67.893  1.00  0.00    -0.168 C  
HETATM   29  H2  UNL     1      -5.349  16.290  69.812  1.00  0.00     0.000 HD 
HETATM   30  O   UNL     1      -9.025  14.615  66.702  1.00  0.00    -0.256 OA 
BRANCH  25  31
HETATM   31  O   UNL     1      -8.908  15.984  69.301  1.00  0.00    -0.248 OA 
BRANCH  31  32
HETATM   32  C   UNL     1      -8.806  17.414  69.262  1.00  0.00     0.212 C  
HETATM   33  O   UNL     1      -7.464  17.864  69.037  1.00  0.00    -0.251 OA 
HETATM   34  C   UNL     1      -6.983  17.555  67.718  1.00  0.00    -0.172 C  
HETATM   35  C   UNL     1      -7.854  18.240  66.654  1.00  0.00    -0.251 C  
HETATM   36  H   UNL     1     -11.725  17.895  67.808  1.00  0.00     0.000 HD 
HETATM   37  C   UNL     1      -9.317  17.775  66.789  1.00  0.00    -0.280 C  
HETATM   38  H1  UNL     1     -11.142  18.148  65.878  1.00  0.00     0.000 HD 
HETATM   39  O   UNL     1      -7.380  17.995  65.327  1.00  0.00    -0.357 OA 
HETATM   40  H   UNL     1      -7.919  18.418  64.669  1.00  0.00     0.000 HD 
HETATM   41  H2  UNL     1      -9.822  18.330  64.840  1.00  0.00     0.000 HD 
HETATM   42  C   UNL     1      -9.793  18.021  68.231  1.00  0.00    -0.355 C  
HETATM   43  N   UNL     1     -10.173  18.456  65.789  1.00  0.00    -0.578 NA 
HETATM   44  O   UNL     1     -11.121  17.524  68.439  1.00  0.00    -0.178 OA 
BRANCH  34  45
HETATM   45  C   UNL     1      -5.532  18.044  67.608  1.00  0.00    -0.145 C  
HETATM   46  O   UNL     1      -5.487  19.450  67.366  1.00  0.00    -0.166 OA 
HETATM   47  H   UNL     1      -4.589  19.752  67.298  1.00  0.00     0.000 HD 
ENDBRANCH  34  45
ENDBRANCH  31  32
ENDBRANCH  25  31
ENDBRANCH  16  17
ENDBRANCH   7  16
ENDBRANCH   2   5
TORSDOF 6
ENDMDL
MODEL      227
REMARK 921   NORMALIZED FREE ENERGY PREDICTED BY IDOCK:   -4.05 KCAL/MOL
REMARK 922        TOTAL FREE ENERGY PREDICTED BY IDOCK:   -6.53 KCAL/MOL
REMARK 923 INTER-LIGAND FREE ENERGY PREDICTED BY IDOCK:   -6.27 KCAL/MOL
REMARK 924 INTRA-LIGAND FREE ENERGY PREDICTED BY IDOCK:   -0.25 KCAL/MOL
REMARK 927      BINDING AFFINITY PREDICTED BY RF-SCORE:    0.00 PKD
ROOT
HETATM    1  N   UNL     1     -11.204  10.356  67.749  1.00  0.00    -0.428 NA 
HETATM    2  C   UNL     1     -10.494   9.462  66.821  1.00  0.00    -0.195 C  
HETATM    3  H2  UNL     1     -10.935  11.328  67.602  1.00  0.00     0.000 HD 
HETATM    4  H1  UNL     1     -12.216  10.242  67.696  1.00  0.00     0.000 HD 
ENDROOT
BRANCH   2   5
HETATM    5  C   UNL     1      -8.957   9.635  66.901  1.00  0.00    -0.134 C  
HETATM    6  O   UNL     1      -8.521  10.899  66.374  1.00  0.00    -0.151 OA 
HETATM    7  C   UNL     1      -8.889  12.031  67.145  1.00  0.00    -0.188 C  
HETATM    8  C   UNL     1      -8.249  11.937  68.569  1.00  0.00    -0.126 C  
HETATM    9  C   UNL     1      -8.410   9.404  68.324  1.00  0.00    -0.119 C  
HETATM   10  N   UNL     1      -6.773  12.036  68.540  1.00  0.00    -0.061 NA 
HETATM   11  C   UNL     1      -8.664  10.612  69.234  1.00  0.00    -0.090 C  
HETATM   12  H   UNL     1      -6.666   9.008  69.103  1.00  0.00     0.000 HD 
HETATM   13  H1  UNL     1      -6.355  11.974  69.468  1.00  0.00     0.000 HD 
HETATM   14  H2  UNL     1      -6.473  12.883  68.059  1.00  0.00     0.000 HD 
HETATM   15  O   UNL     1      -7.003   9.151  68.226  1.00  0.00    -0.073 OA 
BRANCH   7  16
HETATM   16  O   UNL     1      -8.448  13.237  66.498  1.00  0.00     0.056 OA 
BRANCH  16  17
HETATM   17  C   UNL     1      -9.215  14.446  66.771  1.00  0.00    -0.268 C  
HETATM   18  N   UNL     1      -7.383  16.003  66.139  1.00  0.00     0.121 NA 
HETATM   19  C   UNL     1      -9.182  16.865  67.506  1.00  0.00    -0.223 C  
HETATM   20  H1  UNL     1      -6.803  16.792  66.423  1.00  0.00     0.000 HD 
HETATM   21  H2  UNL     1      -7.857  16.184  65.254  1.00  0.00     0.000 HD 
HETATM   22  C   UNL     1     -10.202  16.580  68.608  1.00  0.00    -0.264 C  
HETATM   23  C   UNL     1      -8.336  15.640  67.200  1.00  0.00    -0.208 C  
HETATM   24  N   UNL     1     -10.860  17.868  68.890  1.00  0.00    -0.185 NA 
HETATM   25  C   UNL     1     -11.196  15.449  68.194  1.00  0.00    -0.325 C  
HETATM   26  H   UNL     1     -12.090  13.167  67.563  1.00  0.00     0.000 HD 
HETATM   27  H1  UNL     1     -11.540  17.678  69.626  1.00  0.00     0.000 HD 
HETATM   28  C   UNL     1     -10.427  14.183  67.707  1.00  0.00    -0.246 C  
HETATM   29  H2  UNL     1     -11.264  18.310  68.064  1.00  0.00     0.000 HD 
HETATM   30  O   UNL     1     -11.349  13.327  66.991  1.00  0.00    -0.289 OA 
BRANCH  25  31
HETATM   31  O   UNL     1     -12.053  15.012  69.295  1.00  0.00    -0.298 OA 
BRANCH  31  32
HETATM   32  C   UNL     1     -11.364  14.470  70.429  1.00  0.00    -0.144 C  
HETATM   33  O   UNL     1     -11.205  15.426  71.485  1.00  0.00    -0.384 OA 
HETATM   34  C   UNL     1     -12.449  15.783  72.110  1.00  0.00    -0.455 C  
HETATM   35  C   UNL     1     -13.108  14.547  72.741  1.00  0.00    -0.497 C  
HETATM   36  H   UNL     1     -12.656  11.448  70.166  1.00  0.00     0.000 HD 
HETATM   37  C   UNL     1     -13.363  13.476  71.663  1.00  0.00    -0.340 C  
HETATM   38  H1  UNL     1     -14.136  11.555  71.553  1.00  0.00     0.000 HD 
HETATM   39  O   UNL     1     -14.328  14.868  73.414  1.00  0.00     0.368 OA 
HETATM   40  H   UNL     1     -14.736  14.104  73.804  1.00  0.00     0.000 HD 
HETATM   41  H2  UNL     1     -14.814  12.483  72.791  1.00  0.00     0.000 HD 
HETATM   42  C   UNL     1     -12.044  13.170  70.933  1.00  0.00    -0.119 C  
HETATM   43  N   UNL     1     -13.967  12.264  72.267  1.00  0.00    -0.018 NA 
HETATM   44  O   UNL     1     -12.239  12.244  69.857  1.00  0.00    -0.250 OA 
BRANCH  34  45
HETATM   45  C   UNL     1     -12.162  16.838  73.188  1.00  0.00    -0.067 C  
HETATM   46  O   UNL     1     -12.299  16.277  74.494  1.00  0.00    -0.674 OA 
HETATM   47  H   UNL     1     -12.121  16.930  75.161  1.00  0.00     0.000 HD 
ENDBRANCH  34  45
ENDBRANCH  31  32
ENDBRANCH  25  31
ENDBRANCH  16  17
ENDBRANCH   7  16
ENDBRANCH   2   5
TORSDOF 6
ENDMDL
MODEL      228
REMARK 921   NORMALIZED FREE ENERGY PREDICTED BY IDOCK:   -4.05 KCAL/MOL
REMARK 922        TOTAL FREE ENERGY PREDICTED BY IDOCK:   -6.52 KCAL/MOL
REMARK 923 INTER-LIGAND FREE ENERGY PREDICTED BY IDOCK:   -7.40 KCAL/MOL
REMARK 924 INTRA-LIGAND FREE ENERGY PREDICTED BY IDOCK:    0.88 KCAL/MOL
REMARK 927      BINDING AFFINITY PREDICTED BY RF-SCORE:    0.00 PKD
ROOT
HETATM    1  N   UNL     1     -10.517  15.733  67.963  1.00  0.00    -0.263 NA 
HETATM    2  C   UNL     1      -9.977  16.722  68.907  1.00  0.00    -0.271 C  
HETATM    3  H2  UNL     1     -10.452  14.788  68.342  1.00  0.00     0.000 HD 
HETATM    4  H1  UNL     1     -11.471  15.951  67.679  1.00  0.00     0.000 HD 
ENDROOT
BRANCH   2   5
HETATM    5  C   UNL     1      -8.526  16.391  69.339  1.00  0.00     0.030 C  
HETATM    6  O   UNL     1      -8.095  15.106  68.862  1.00  0.00    -0.152 OA 
HETATM    7  C   UNL     1      -7.910  15.016  67.458  1.00  0.00    -0.182 C  
HETATM    8  C   UNL     1      -6.799  16.018  67.003  1.00  0.00    -0.145 C  
HETATM    9  C   UNL     1      -7.527  17.498  68.948  1.00  0.00    -0.234 C  
HETATM   10  N   UNL     1      -5.461  15.665  67.524  1.00  0.00    -0.310 NA 
HETATM   11  C   UNL     1      -7.171  17.442  67.458  1.00  0.00    -0.184 C  
HETATM   12  H   UNL     1      -5.729  18.014  69.501  1.00  0.00     0.000 HD 
HETATM   13  H1  UNL     1      -4.736  16.319  67.227  1.00  0.00     0.000 HD 
HETATM   14  H2  UNL     1      -5.214  14.707  67.277  1.00  0.00     0.000 HD 
HETATM   15  O   UNL     1      -6.345  17.332  69.741  1.00  0.00    -0.235 OA 
BRANCH   7  16
HETATM   16  O   UNL     1      -7.531  13.679  67.092  1.00  0.00    -0.094 OA 
BRANCH  16  17
HETATM   17  C   UNL     1      -8.579  12.667  67.130  1.00  0.00    -0.199 C  
HETATM   18  N   UNL     1     -10.103  13.886  65.590  1.00  0.00    -0.365 NA 
HETATM   19  C   UNL     1     -11.053  12.160  66.992  1.00  0.00    -0.347 C  
HETATM   20  H1  UNL     1     -11.038  14.268  65.446  1.00  0.00     0.000 HD 
HETATM   21  H2  UNL     1      -9.839  13.247  64.840  1.00  0.00     0.000 HD 
HETATM   22  C   UNL     1     -11.016  11.441  68.341  1.00  0.00    -0.215 C  
HETATM   23  C   UNL     1      -9.993  13.246  66.911  1.00  0.00    -0.250 C  
HETATM   24  N   UNL     1     -12.160  10.513  68.334  1.00  0.00    -0.774 NA 
HETATM   25  C   UNL     1      -9.642  10.738  68.581  1.00  0.00    -0.187 C  
HETATM   26  H   UNL     1      -7.164  10.406  68.979  1.00  0.00     0.000 HD 
HETATM   27  H1  UNL     1     -12.135  10.034  69.234  1.00  0.00     0.000 HD 
HETATM   28  C   UNL     1      -8.461  11.733  68.367  1.00  0.00    -0.155 C  
HETATM   29  H2  UNL     1     -12.167   9.879  67.534  1.00  0.00     0.000 HD 
HETATM   30  O   UNL     1      -7.236  10.977  68.223  1.00  0.00    -0.079 OA 
BRANCH  25  31
HETATM   31  O   UNL     1      -9.498  10.215  69.939  1.00  0.00    -0.204 OA 
BRANCH  31  32
HETATM   32  C   UNL     1      -8.940   8.898  70.031  1.00  0.00    -0.165 C  
HETATM   33  O   UNL     1      -8.380   8.627  71.323  1.00  0.00    -0.139 OA 
HETATM   34  C   UNL     1      -9.373   8.539  72.358  1.00  0.00    -0.278 C  
HETATM   35  C   UNL     1     -10.355   7.395  72.064  1.00  0.00    -0.193 C  
HETATM   36  H   UNL     1     -11.195   7.467  68.099  1.00  0.00     0.000 HD 
HETATM   37  C   UNL     1     -11.047   7.628  70.707  1.00  0.00    -0.264 C  
HETATM   38  H1  UNL     1     -12.431   6.667  69.499  1.00  0.00     0.000 HD 
HETATM   39  O   UNL     1     -11.334   7.244  73.096  1.00  0.00    -0.546 OA 
HETATM   40  H   UNL     1     -11.942   6.537  72.914  1.00  0.00     0.000 HD 
HETATM   41  H2  UNL     1     -12.648   6.360  71.145  1.00  0.00     0.000 HD 
HETATM   42  C   UNL     1      -9.975   7.818  69.620  1.00  0.00    -0.190 C  
HETATM   43  N   UNL     1     -11.973   6.512  70.397  1.00  0.00    -0.343 NA 
HETATM   44  O   UNL     1     -10.562   8.129  68.350  1.00  0.00    -0.185 OA 
BRANCH  34  45
HETATM   45  C   UNL     1      -8.657   8.291  73.693  1.00  0.00    -0.191 C  
HETATM   46  O   UNL     1      -7.691   7.248  73.564  1.00  0.00    -0.090 OA 
HETATM   47  H   UNL     1      -7.248   7.095  74.390  1.00  0.00     0.000 HD 
ENDBRANCH  34  45
ENDBRANCH  31  32
ENDBRANCH  25  31
ENDBRANCH  16  17
ENDBRANCH   7  16
ENDBRANCH   2   5
TORSDOF 6
ENDMDL
MODEL      229
REMARK 921   NORMALIZED FREE ENERGY PREDICTED BY IDOCK:   -4.03 KCAL/MOL
REMARK 922        TOTAL FREE ENERGY PREDICTED BY IDOCK:   -6.50 KCAL/MOL
REMARK 923 INTER-LIGAND FREE ENERGY PREDICTED BY IDOCK:   -5.54 KCAL/MOL
REMARK 924 INTRA-LIGAND FREE ENERGY PREDICTED BY IDOCK:   -0.97 KCAL/MOL
REMARK 927      BINDING AFFINITY PREDICTED BY RF-SCORE:    0.00 PKD
ROOT
HETATM    1  N   UNL     1      -9.639   4.301  67.456  1.00  0.00    -0.177 NA 
HETATM    2  C   UNL     1      -8.408   4.121  66.672  1.00  0.00    -0.101 C  
HETATM    3  H2  UNL     1     -10.445   3.907  66.972  1.00  0.00     0.000 HD 
HETATM    4  H1  UNL     1      -9.555   3.923  68.399  1.00  0.00     0.000 HD 
ENDROOT
BRANCH   2   5
HETATM    5  C   UNL     1      -8.536   4.695  65.239  1.00  0.00    -0.128 C  
HETATM    6  O   UNL     1      -9.024   6.046  65.233  1.00  0.00    -0.065 OA 
HETATM    7  C   UNL     1      -8.127   7.013  65.756  1.00  0.00    -0.123 C  
HETATM    8  C   UNL     1      -6.821   7.045  64.897  1.00  0.00    -0.047 C  
HETATM    9  C   UNL     1      -7.227   4.570  64.435  1.00  0.00    -0.062 C  
HETATM   10  N   UNL     1      -7.053   7.535  63.521  1.00  0.00    -0.066 NA 
HETATM   11  C   UNL     1      -6.203   5.635  64.845  1.00  0.00    -0.032 C  
HETATM   12  H   UNL     1      -6.736   4.629  62.547  1.00  0.00     0.000 HD 
HETATM   13  H1  UNL     1      -6.200   7.556  62.961  1.00  0.00     0.000 HD 
HETATM   14  H2  UNL     1      -7.508   8.448  63.530  1.00  0.00     0.000 HD 
HETATM   15  O   UNL     1      -7.543   4.706  63.043  1.00  0.00    -0.055 OA 
BRANCH   7  16
HETATM   16  O   UNL     1      -8.740   8.313  65.749  1.00  0.00    -0.155 OA 
BRANCH  16  17
HETATM   17  C   UNL     1      -9.210   8.824  67.031  1.00  0.00    -0.142 C  
HETATM   18  N   UNL     1     -10.953   7.077  67.326  1.00  0.00    -0.537 NA 
HETATM   19  C   UNL     1     -11.152   9.107  68.626  1.00  0.00     0.113 C  
HETATM   20  H1  UNL     1     -11.939   6.881  67.501  1.00  0.00     0.000 HD 
HETATM   21  H2  UNL     1     -10.351   6.606  68.001  1.00  0.00     0.000 HD 
HETATM   22  C   UNL     1     -10.931  10.619  68.681  1.00  0.00    -0.246 C  
HETATM   23  C   UNL     1     -10.701   8.527  67.295  1.00  0.00    -0.149 C  
HETATM   24  N   UNL     1     -11.519  11.064  69.956  1.00  0.00    -0.327 NA 
HETATM   25  C   UNL     1      -9.422  10.986  68.527  1.00  0.00    -0.188 C  
HETATM   26  H   UNL     1      -7.120  11.261  67.508  1.00  0.00     0.000 HD 
HETATM   27  H1  UNL     1     -11.372  12.073  69.993  1.00  0.00     0.000 HD 
HETATM   28  C   UNL     1      -8.808  10.307  67.264  1.00  0.00    -0.132 C  
HETATM   29  H2  UNL     1     -11.154  10.568  70.770  1.00  0.00     0.000 HD 
HETATM   30  O   UNL     1      -7.366  10.354  67.365  1.00  0.00    -0.091 OA 
BRANCH  25  31
HETATM   31  O   UNL     1      -9.197  12.422  68.372  1.00  0.00    -0.197 OA 
BRANCH  31  32
HETATM   32  C   UNL     1      -8.776  12.838  67.066  1.00  0.00    -0.197 C  
HETATM   33  O   UNL     1      -9.879  13.165  66.211  1.00  0.00    -0.275 OA 
HETATM   34  C   UNL     1     -10.578  14.350  66.626  1.00  0.00    -0.282 C  
HETATM   35  C   UNL     1      -9.637  15.565  66.602  1.00  0.00    -0.253 C  
HETATM   36  H   UNL     1      -6.055  14.390  68.093  1.00  0.00     0.000 HD 
HETATM   37  C   UNL     1      -8.437  15.322  67.538  1.00  0.00    -0.177 C  
HETATM   38  H1  UNL     1      -6.710  16.313  68.116  1.00  0.00     0.000 HD 
HETATM   39  O   UNL     1     -10.307  16.776  66.965  1.00  0.00    -0.298 OA 
HETATM   40  H   UNL     1      -9.726  17.527  66.951  1.00  0.00     0.000 HD 
HETATM   41  H2  UNL     1      -7.977  17.353  67.707  1.00  0.00     0.000 HD 
HETATM   42  C   UNL     1      -7.753  14.001  67.148  1.00  0.00     0.022 C  
HETATM   43  N   UNL     1      -7.504  16.474  67.497  1.00  0.00    -0.139 NA 
HETATM   44  O   UNL     1      -6.682  13.678  68.043  1.00  0.00    -0.106 OA 
BRANCH  34  45
HETATM   45  C   UNL     1     -11.757  14.576  65.668  1.00  0.00    -0.335 C  
HETATM   46  O   UNL     1     -11.335  14.454  64.310  1.00  0.00    -0.589 OA 
HETATM   47  H   UNL     1     -12.064  14.594  63.717  1.00  0.00     0.000 HD 
ENDBRANCH  34  45
ENDBRANCH  31  32
ENDBRANCH  25  31
ENDBRANCH  16  17
ENDBRANCH   7  16
ENDBRANCH   2   5
TORSDOF 6
ENDMDL
MODEL      230
REMARK 921   NORMALIZED FREE ENERGY PREDICTED BY IDOCK:   -4.02 KCAL/MOL
REMARK 922        TOTAL FREE ENERGY PREDICTED BY IDOCK:   -6.48 KCAL/MOL
REMARK 923 INTER-LIGAND FREE ENERGY PREDICTED BY IDOCK:   -6.03 KCAL/MOL
REMARK 924 INTRA-LIGAND FREE ENERGY PREDICTED BY IDOCK:   -0.46 KCAL/MOL
REMARK 927      BINDING AFFINITY PREDICTED BY RF-SCORE:    0.00 PKD
ROOT
HETATM    1  N   UNL     1     -11.457   6.828  70.516  1.00  0.00    -0.338 NA 
HETATM    2  C   UNL     1     -10.953   5.546  71.032  1.00  0.00    -0.123 C  
HETATM    3  H2  UNL     1     -10.771   7.275  69.908  1.00  0.00     0.000 HD 
HETATM    4  H1  UNL     1     -12.356   6.728  70.046  1.00  0.00     0.000 HD 
ENDROOT
BRANCH   2   5
HETATM    5  C   UNL     1      -9.587   5.698  71.746  1.00  0.00    -0.156 C  
HETATM    6  O   UNL     1      -8.869   6.863  71.310  1.00  0.00    -0.134 OA 
HETATM    7  C   UNL     1      -9.437   8.102  71.704  1.00  0.00    -0.177 C  
HETATM    8  C   UNL     1      -9.472   8.201  73.264  1.00  0.00    -0.220 C  
HETATM    9  C   UNL     1      -9.717   5.662  73.282  1.00  0.00    -0.151 C  
HETATM   10  N   UNL     1      -8.121   8.264  73.863  1.00  0.00    -0.306 NA 
HETATM   11  C   UNL     1     -10.235   6.993  73.839  1.00  0.00    -0.388 C  
HETATM   12  H   UNL     1      -8.507   5.347  74.779  1.00  0.00     0.000 HD 
HETATM   13  H1  UNL     1      -8.144   8.328  74.881  1.00  0.00     0.000 HD 
HETATM   14  H2  UNL     1      -7.578   9.027  73.460  1.00  0.00     0.000 HD 
HETATM   15  O   UNL     1      -8.427   5.369  73.832  1.00  0.00    -0.113 OA 
BRANCH   7  16
HETATM   16  O   UNL     1      -8.667   9.193  71.169  1.00  0.00    -0.214 OA 
BRANCH  16  17
HETATM   17  C   UNL     1      -8.721   9.388  69.726  1.00  0.00    -0.181 C  
HETATM   18  N   UNL     1      -6.703   8.017  69.253  1.00  0.00    -0.039 NA 
HETATM   19  C   UNL     1      -7.438   9.573  67.555  1.00  0.00    -0.091 C  
HETATM   20  H1  UNL     1      -5.786   7.979  68.807  1.00  0.00     0.000 HD 
HETATM   21  H2  UNL     1      -7.306   7.258  68.936  1.00  0.00     0.000 HD 
HETATM   22  C   UNL     1      -8.080  10.927  67.250  1.00  0.00    -0.123 C  
HETATM   23  C   UNL     1      -7.334   9.331  69.052  1.00  0.00    -0.072 C  
HETATM   24  N   UNL     1      -8.005  11.087  65.788  1.00  0.00    -0.340 NA 
HETATM   25  C   UNL     1      -9.534  11.014  67.814  1.00  0.00    -0.162 C  
HETATM   26  H   UNL     1     -11.459  11.110  69.455  1.00  0.00     0.000 HD 
HETATM   27  H1  UNL     1      -8.433  11.990  65.585  1.00  0.00     0.000 HD 
HETATM   28  C   UNL     1      -9.570  10.627  69.324  1.00  0.00    -0.144 C  
HETATM   29  H2  UNL     1      -8.420  10.312  65.270  1.00  0.00     0.000 HD 
HETATM   30  O   UNL     1     -10.940  10.353  69.701  1.00  0.00    -0.239 OA 
BRANCH  25  31
HETATM   31  O   UNL     1     -10.103  12.358  67.720  1.00  0.00    -0.195 OA 
BRANCH  31  32
HETATM   32  C   UNL     1      -9.562  13.316  68.638  1.00  0.00    -0.048 C  
HETATM   33  O   UNL     1      -8.563  14.151  68.038  1.00  0.00    -0.154 OA 
HETATM   34  C   UNL     1      -9.099  15.044  67.048  1.00  0.00    -0.230 C  
HETATM   35  C   UNL     1     -10.130  15.991  67.681  1.00  0.00    -0.245 C  
HETATM   36  H   UNL     1     -12.387  13.824  70.260  1.00  0.00     0.000 HD 
HETATM   37  C   UNL     1     -11.276  15.177  68.314  1.00  0.00    -0.308 C  
HETATM   38  H1  UNL     1     -13.018  15.542  69.377  1.00  0.00     0.000 HD 
HETATM   39  O   UNL     1     -10.656  16.929  66.737  1.00  0.00    -0.290 OA 
HETATM   40  H   UNL     1     -11.294  17.514  67.128  1.00  0.00     0.000 HD 
HETATM   41  H2  UNL     1     -12.609  16.786  68.310  1.00  0.00     0.000 HD 
HETATM   42  C   UNL     1     -10.684  14.157  69.302  1.00  0.00    -0.144 C  
HETATM   43  N   UNL     1     -12.260  16.080  68.959  1.00  0.00    -0.051 NA 
HETATM   44  O   UNL     1     -11.699  13.309  69.855  1.00  0.00    -0.297 OA 
BRANCH  34  45
HETATM   45  C   UNL     1      -7.940  15.851  66.447  1.00  0.00    -0.090 C  
HETATM   46  O   UNL     1      -6.695  15.458  67.026  1.00  0.00    -0.261 OA 
HETATM   47  H   UNL     1      -5.978  15.957  66.654  1.00  0.00     0.000 HD 
ENDBRANCH  34  45
ENDBRANCH  31  32
ENDBRANCH  25  31
ENDBRANCH  16  17
ENDBRANCH   7  16
ENDBRANCH   2   5
TORSDOF 6
ENDMDL
MODEL      231
REMARK 921   NORMALIZED FREE ENERGY PREDICTED BY IDOCK:   -4.01 KCAL/MOL
REMARK 922        TOTAL FREE ENERGY PREDICTED BY IDOCK:   -6.47 KCAL/MOL
REMARK 923 INTER-LIGAND FREE ENERGY PREDICTED BY IDOCK:   -5.34 KCAL/MOL
REMARK 924 INTRA-LIGAND FREE ENERGY PREDICTED BY IDOCK:   -1.12 KCAL/MOL
REMARK 927      BINDING AFFINITY PREDICTED BY RF-SCORE:    0.00 PKD
ROOT
HETATM    1  N   UNL     1      -6.027   9.536  66.990  1.00  0.00    -0.055 NA 
HETATM    2  C   UNL     1      -6.296   9.409  65.550  1.00  0.00    -0.065 C  
HETATM    3  H2  UNL     1      -5.030   9.453  67.187  1.00  0.00     0.000 HD 
HETATM    4  H1  UNL     1      -6.409  10.397  67.380  1.00  0.00     0.000 HD 
ENDROOT
BRANCH   2   5
HETATM    5  C   UNL     1      -5.715   8.101  64.958  1.00  0.00    -0.044 C  
HETATM    6  O   UNL     1      -6.044   6.949  65.750  1.00  0.00    -0.034 OA 
HETATM    7  C   UNL     1      -7.415   6.582  65.737  1.00  0.00    -0.082 C  
HETATM    8  C   UNL     1      -7.855   6.219  64.281  1.00  0.00    -0.115 C  
HETATM    9  C   UNL     1      -6.108   7.897  63.481  1.00  0.00    -0.063 C  
HETATM   10  N   UNL     1      -7.192   4.999  63.771  1.00  0.00    -0.049 NA 
HETATM   11  C   UNL     1      -7.552   7.401  63.341  1.00  0.00    -0.114 C  
HETATM   12  H   UNL     1      -5.448   6.817  61.996  1.00  0.00     0.000 HD 
HETATM   13  H1  UNL     1      -7.479   4.762  62.821  1.00  0.00     0.000 HD 
HETATM   14  H2  UNL     1      -7.336   4.212  64.404  1.00  0.00     0.000 HD 
HETATM   15  O   UNL     1      -5.205   6.943  62.907  1.00  0.00    -0.030 OA 
BRANCH   7  16
HETATM   16  O   UNL     1      -7.635   5.454  66.602  1.00  0.00    -0.086 OA 
BRANCH  16  17
HETATM   17  C   UNL     1      -7.461   5.681  68.031  1.00  0.00    -0.074 C  
HETATM   18  N   UNL     1      -5.962   3.728  68.373  1.00  0.00    -0.026 NA 
HETATM   19  C   UNL     1      -7.059   4.666  70.312  1.00  0.00    -0.049 C  
HETATM   20  H1  UNL     1      -5.789   2.871  68.898  1.00  0.00     0.000 HD 
HETATM   21  H2  UNL     1      -5.164   4.362  68.414  1.00  0.00     0.000 HD 
HETATM   22  C   UNL     1      -8.309   5.346  70.873  1.00  0.00    -0.118 C  
HETATM   23  C   UNL     1      -7.199   4.384  68.825  1.00  0.00    -0.056 C  
HETATM   24  N   UNL     1      -8.093   5.446  72.327  1.00  0.00    -0.107 NA 
HETATM   25  C   UNL     1      -8.573   6.722  70.184  1.00  0.00    -0.140 C  
HETATM   26  H   UNL     1      -9.131   8.438  68.408  1.00  0.00     0.000 HD 
HETATM   27  H1  UNL     1      -8.927   5.899  72.701  1.00  0.00     0.000 HD 
HETATM   28  C   UNL     1      -8.580   6.576  68.632  1.00  0.00    -0.124 C  
HETATM   29  H2  UNL     1      -7.224   5.917  72.580  1.00  0.00     0.000 HD 
HETATM   30  O   UNL     1      -8.447   7.890  68.041  1.00  0.00    -0.122 OA 
BRANCH  25  31
HETATM   31  O   UNL     1      -9.864   7.304  70.549  1.00  0.00    -0.183 OA 
BRANCH  31  32
HETATM   32  C   UNL     1      -9.796   8.507  71.324  1.00  0.00    -0.216 C  
HETATM   33  O   UNL     1      -9.632   9.677  70.512  1.00  0.00    -0.258 OA 
HETATM   34  C   UNL     1     -10.791   9.972  69.714  1.00  0.00    -0.273 C  
HETATM   35  C   UNL     1     -12.009  10.236  70.613  1.00  0.00    -0.342 C  
HETATM   36  H   UNL     1     -11.944   7.521  73.623  1.00  0.00     0.000 HD 
HETATM   37  C   UNL     1     -12.292   9.004  71.494  1.00  0.00    -0.331 C  
HETATM   38  H1  UNL     1     -13.633   8.445  72.974  1.00  0.00     0.000 HD 
HETATM   39  O   UNL     1     -13.174  10.580  69.858  1.00  0.00    -0.470 OA 
HETATM   40  H   UNL     1     -13.927  10.743  70.413  1.00  0.00     0.000 HD 
HETATM   41  H2  UNL     1     -14.272   9.553  71.871  1.00  0.00     0.000 HD 
HETATM   42  C   UNL     1     -11.017   8.636  72.272  1.00  0.00    -0.322 C  
HETATM   43  N   UNL     1     -13.445   9.261  72.391  1.00  0.00    -0.471 NA 
HETATM   44  O   UNL     1     -11.196   7.441  73.042  1.00  0.00    -0.336 OA 
BRANCH  34  45
HETATM   45  C   UNL     1     -10.486  11.211  68.860  1.00  0.00    -0.207 C  
HETATM   46  O   UNL     1      -9.210  11.756  69.196  1.00  0.00    -0.382 OA 
HETATM   47  H   UNL     1      -9.021  12.522  68.668  1.00  0.00     0.000 HD 
ENDBRANCH  34  45
ENDBRANCH  31  32
ENDBRANCH  25  31
ENDBRANCH  16  17
ENDBRANCH   7  16
ENDBRANCH   2   5
TORSDOF 6
ENDMDL
MODEL      232
REMARK 921   NORMALIZED FREE ENERGY PREDICTED BY IDOCK:   -4.01 KCAL/MOL
REMARK 922        TOTAL FREE ENERGY PREDICTED BY IDOCK:   -6.46 KCAL/MOL
REMARK 923 INTER-LIGAND FREE ENERGY PREDICTED BY IDOCK:   -5.92 KCAL/MOL
REMARK 924 INTRA-LIGAND FREE ENERGY PREDICTED BY IDOCK:   -0.55 KCAL/MOL
REMARK 927      BINDING AFFINITY PREDICTED BY RF-SCORE:    0.00 PKD
ROOT
HETATM    1  N   UNL     1     -13.116  10.619  71.404  1.00  0.00    -0.405 NA 
HETATM    2  C   UNL     1     -13.502  11.833  72.137  1.00  0.00    -0.168 C  
HETATM    3  H2  UNL     1     -12.193  10.293  71.692  1.00  0.00     0.000 HD 
HETATM    4  H1  UNL     1     -13.811   9.878  71.490  1.00  0.00     0.000 HD 
ENDROOT
BRANCH   2   5
HETATM    5  C   UNL     1     -12.445  12.959  72.007  1.00  0.00     0.310 C  
HETATM    6  O   UNL     1     -12.105  13.233  70.638  1.00  0.00    -0.348 OA 
HETATM    7  C   UNL     1     -13.135  13.838  69.872  1.00  0.00     0.717 C  
HETATM    8  C   UNL     1     -13.512  15.225  70.488  1.00  0.00    -0.080 C  
HETATM    9  C   UNL     1     -12.858  14.245  72.750  1.00  0.00    -0.387 C  
HETATM   10  N   UNL     1     -12.415  16.212  70.386  1.00  0.00    -0.430 NA 
HETATM   11  C   UNL     1     -13.906  15.043  71.965  1.00  0.00    -0.578 C  
HETATM   12  H   UNL     1     -11.938  15.835  73.407  1.00  0.00     0.000 HD 
HETATM   13  H1  UNL     1     -12.661  17.118  70.788  1.00  0.00     0.000 HD 
HETATM   14  H2  UNL     1     -12.102  16.313  69.421  1.00  0.00     0.000 HD 
HETATM   15  O   UNL     1     -11.684  15.042  72.949  1.00  0.00    -0.340 OA 
BRANCH   7  16
HETATM   16  O   UNL     1     -12.702  14.016  68.512  1.00  0.00     0.309 OA 
BRANCH  16  17
HETATM   17  C   UNL     1     -11.365  13.540  68.182  1.00  0.00    -0.286 C  
HETATM   18  N   UNL     1     -12.019  11.145  68.060  1.00  0.00    -0.700 NA 
HETATM   19  C   UNL     1      -9.674  11.666  68.340  1.00  0.00    -0.199 C  
HETATM   20  H1  UNL     1     -11.837  10.196  68.388  1.00  0.00     0.000 HD 
HETATM   21  H2  UNL     1     -11.995  11.202  67.042  1.00  0.00     0.000 HD 
HETATM   22  C   UNL     1      -8.636  12.608  68.950  1.00  0.00     0.325 C  
HETATM   23  C   UNL     1     -11.090  12.105  68.678  1.00  0.00    -0.251 C  
HETATM   24  N   UNL     1      -7.324  12.004  68.656  1.00  0.00    -0.108 NA 
HETATM   25  C   UNL     1      -8.789  14.063  68.406  1.00  0.00    -0.180 C  
HETATM   26  H   UNL     1      -9.766  16.355  67.952  1.00  0.00     0.000 HD 
HETATM   27  H1  UNL     1      -6.631  12.632  69.063  1.00  0.00     0.000 HD 
HETATM   28  C   UNL     1     -10.258  14.563  68.559  1.00  0.00    -0.240 C  
HETATM   29  H2  UNL     1      -7.174  11.817  67.664  1.00  0.00     0.000 HD 
HETATM   30  O   UNL     1     -10.442  15.729  67.722  1.00  0.00    -0.269 OA 
BRANCH  25  31
HETATM   31  O   UNL     1      -7.950  15.028  69.114  1.00  0.00    -0.174 OA 
BRANCH  31  32
HETATM   32  C   UNL     1      -6.766  15.436  68.417  1.00  0.00    -0.116 C  
HETATM   33  O   UNL     1      -7.053  16.245  67.270  1.00  0.00    -0.153 OA 
HETATM   34  C   UNL     1      -7.585  17.536  67.612  1.00  0.00    -0.195 C  
HETATM   35  C   UNL     1      -6.574  18.327  68.457  1.00  0.00    -0.222 C  
HETATM   36  H   UNL     1      -4.909  15.765  71.122  1.00  0.00     0.000 HD 
HETATM   37  C   UNL     1      -6.239  17.550  69.745  1.00  0.00    -0.183 C  
HETATM   38  H1  UNL     1      -5.017  17.774  71.405  1.00  0.00     0.000 HD 
HETATM   39  O   UNL     1      -7.047  19.637  68.781  1.00  0.00    -0.322 OA 
HETATM   40  H   UNL     1      -6.422  20.126  69.304  1.00  0.00     0.000 HD 
HETATM   41  H2  UNL     1      -5.539  19.241  70.752  1.00  0.00     0.000 HD 
HETATM   42  C   UNL     1      -5.763  16.135  69.372  1.00  0.00    -0.128 C  
HETATM   43  N   UNL     1      -5.238  18.288  70.552  1.00  0.00    -0.244 NA 
HETATM   44  O   UNL     1      -5.523  15.336  70.537  1.00  0.00    -0.130 OA 
BRANCH  34  45
HETATM   45  C   UNL     1      -7.893  18.292  66.312  1.00  0.00    -0.245 C  
HETATM   46  O   UNL     1      -9.139  17.865  65.761  1.00  0.00    -0.495 OA 
HETATM   47  H   UNL     1      -9.330  18.333  64.957  1.00  0.00     0.000 HD 
ENDBRANCH  34  45
ENDBRANCH  31  32
ENDBRANCH  25  31
ENDBRANCH  16  17
ENDBRANCH   7  16
ENDBRANCH   2   5
TORSDOF 6
ENDMDL
MODEL      233
REMARK 921   NORMALIZED FREE ENERGY PREDICTED BY IDOCK:   -4.00 KCAL/MOL
REMARK 922        TOTAL FREE ENERGY PREDICTED BY IDOCK:   -6.46 KCAL/MOL
REMARK 923 INTER-LIGAND FREE ENERGY PREDICTED BY IDOCK:   -7.53 KCAL/MOL
REMARK 924 INTRA-LIGAND FREE ENERGY PREDICTED BY IDOCK:    1.07 KCAL/MOL
REMARK 927      BINDING AFFINITY PREDICTED BY RF-SCORE:    0.00 PKD
ROOT
HETATM    1  N   UNL     1      -7.511  16.442  68.665  1.00  0.00    -0.181 NA 
HETATM    2  C   UNL     1      -8.312  15.720  69.664  1.00  0.00    -0.013 C  
HETATM    3  H2  UNL     1      -7.516  17.446  68.845  1.00  0.00     0.000 HD 
HETATM    4  H1  UNL     1      -6.559  16.084  68.601  1.00  0.00     0.000 HD 
ENDROOT
BRANCH   2   5
HETATM    5  C   UNL     1      -9.760  16.265  69.760  1.00  0.00     0.082 C  
HETATM    6  O   UNL     1     -10.396  16.354  68.476  1.00  0.00    -0.243 OA 
HETATM    7  C   UNL     1     -10.693  15.110  67.863  1.00  0.00    -0.268 C  
HETATM    8  C   UNL     1     -11.686  14.299  68.758  1.00  0.00    -0.343 C  
HETATM    9  C   UNL     1     -10.623  15.470  70.759  1.00  0.00    -0.050 C  
HETATM   10  N   UNL     1     -13.018  14.934  68.854  1.00  0.00     0.259 NA 
HETATM   11  C   UNL     1     -11.091  14.134  70.169  1.00  0.00     0.044 C  
HETATM   12  H   UNL     1     -12.290  15.785  71.724  1.00  0.00     0.000 HD 
HETATM   13  H1  UNL     1     -13.667  14.405  69.438  1.00  0.00     0.000 HD 
HETATM   14  H2  UNL     1     -13.412  15.099  67.927  1.00  0.00     0.000 HD 
HETATM   15  O   UNL     1     -11.757  16.275  71.108  1.00  0.00    -0.416 OA 
BRANCH   7  16
HETATM   16  O   UNL     1     -11.276  15.322  66.566  1.00  0.00    -0.316 OA 
BRANCH  16  17
HETATM   17  C   UNL     1     -10.867  14.410  65.506  1.00  0.00    -0.331 C  
HETATM   18  N   UNL     1     -12.504  15.269  63.845  1.00  0.00    -0.983 NA 
HETATM   19  C   UNL     1     -11.542  13.085  63.460  1.00  0.00    -0.468 C  
HETATM   20  H1  UNL     1     -13.258  15.040  63.198  1.00  0.00     0.000 HD 
HETATM   21  H2  UNL     1     -11.750  15.775  63.380  1.00  0.00     0.000 HD 
HETATM   22  C   UNL     1     -11.012  11.791  64.081  1.00  0.00    -0.374 C  
HETATM   23  C   UNL     1     -12.008  14.063  64.526  1.00  0.00    -0.448 C  
HETATM   24  N   UNL     1     -10.717  10.895  62.950  1.00  0.00    -0.745 NA 
HETATM   25  C   UNL     1      -9.782  12.058  65.004  1.00  0.00    -0.121 C  
HETATM   26  H   UNL     1      -8.387  12.890  66.946  1.00  0.00     0.000 HD 
HETATM   27  H1  UNL     1     -10.364  10.032  63.363  1.00  0.00     0.000 HD 
HETATM   28  C   UNL     1     -10.100  13.172  66.049  1.00  0.00    -0.286 C  
HETATM   29  H2  UNL     1     -10.087  11.304  62.258  1.00  0.00     0.000 HD 
HETATM   30  O   UNL     1      -8.856  13.647  66.615  1.00  0.00    -0.181 OA 
BRANCH  25  31
HETATM   31  O   UNL     1      -9.377  10.880  65.770  1.00  0.00    -0.187 OA 
BRANCH  31  32
HETATM   32  C   UNL     1      -8.662  11.154  66.981  1.00  0.00    -0.148 C  
HETATM   33  O   UNL     1      -9.534  11.380  68.096  1.00  0.00    -0.168 OA 
HETATM   34  C   UNL     1     -10.245  10.199  68.501  1.00  0.00    -0.174 C  
HETATM   35  C   UNL     1      -9.261   9.102  68.937  1.00  0.00    -0.139 C  
HETATM   36  H   UNL     1      -6.155   9.114  66.332  1.00  0.00     0.000 HD 
HETATM   37  C   UNL     1      -8.308   8.756  67.777  1.00  0.00    -0.118 C  
HETATM   38  H1  UNL     1      -6.701   7.493  67.429  1.00  0.00     0.000 HD 
HETATM   39  O   UNL     1      -9.932   7.923  69.391  1.00  0.00    -0.181 OA 
HETATM   40  H   UNL     1      -9.323   7.245  69.660  1.00  0.00     0.000 HD 
HETATM   41  H2  UNL     1      -7.793   6.893  68.568  1.00  0.00     0.000 HD 
HETATM   42  C   UNL     1      -7.623  10.043  67.285  1.00  0.00    -0.095 C  
HETATM   43  N   UNL     1      -7.331   7.723  68.197  1.00  0.00    -0.103 NA 
HETATM   44  O   UNL     1      -6.791   9.795  66.145  1.00  0.00    -0.084 OA 
BRANCH  34  45
HETATM   45  C   UNL     1     -11.173  10.570  69.666  1.00  0.00    -0.282 C  
HETATM   46  O   UNL     1     -11.927   9.435  70.094  1.00  0.00    -0.467 OA 
HETATM   47  H   UNL     1     -12.501   9.665  70.815  1.00  0.00     0.000 HD 
ENDBRANCH  34  45
ENDBRANCH  31  32
ENDBRANCH  25  31
ENDBRANCH  16  17
ENDBRANCH   7  16
ENDBRANCH   2   5
TORSDOF 6
ENDMDL
MODEL      234
REMARK 921   NORMALIZED FREE ENERGY PREDICTED BY IDOCK:   -3.98 KCAL/MOL
REMARK 922        TOTAL FREE ENERGY PREDICTED BY IDOCK:   -6.43 KCAL/MOL
REMARK 923 INTER-LIGAND FREE ENERGY PREDICTED BY IDOCK:   -7.54 KCAL/MOL
REMARK 924 INTRA-LIGAND FREE ENERGY PREDICTED BY IDOCK:    1.11 KCAL/MOL
REMARK 927      BINDING AFFINITY PREDICTED BY RF-SCORE:    0.00 PKD
ROOT
HETATM    1  N   UNL     1     -11.167  16.900  64.480  1.00  0.00    -1.093 NA 
HETATM    2  C   UNL     1     -10.242  16.078  65.275  1.00  0.00    -0.211 C  
HETATM    3  H2  UNL     1     -12.124  16.556  64.557  1.00  0.00     0.000 HD 
HETATM    4  H1  UNL     1     -11.110  17.888  64.722  1.00  0.00     0.000 HD 
ENDROOT
BRANCH   2   5
HETATM    5  C   UNL     1     -10.327  14.576  64.907  1.00  0.00    -0.371 C  
HETATM    6  O   UNL     1      -9.818  13.728  65.949  1.00  0.00    -0.298 OA 
HETATM    7  C   UNL     1     -10.603  13.689  67.130  1.00  0.00    -0.272 C  
HETATM    8  C   UNL     1     -12.026  13.130  66.805  1.00  0.00    -0.373 C  
HETATM    9  C   UNL     1     -11.748  14.152  64.485  1.00  0.00    -0.413 C  
HETATM   10  N   UNL     1     -12.002  11.710  66.389  1.00  0.00    -0.328 NA 
HETATM   11  C   UNL     1     -12.673  13.980  65.695  1.00  0.00    -0.515 C  
HETATM   12  H   UNL     1     -12.526  12.656  63.503  1.00  0.00     0.000 HD 
HETATM   13  H1  UNL     1     -12.931  11.345  66.177  1.00  0.00     0.000 HD 
HETATM   14  H2  UNL     1     -11.533  11.133  67.087  1.00  0.00     0.000 HD 
HETATM   15  O   UNL     1     -11.650  12.917  63.764  1.00  0.00    -0.417 OA 
BRANCH   7  16
HETATM   16  O   UNL     1      -9.972  12.856  68.117  1.00  0.00    -0.222 OA 
BRANCH  16  17
HETATM   17  C   UNL     1     -10.675  11.634  68.490  1.00  0.00    -0.218 C  
HETATM   18  N   UNL     1     -12.318  12.779  69.963  1.00  0.00    -0.174 NA 
HETATM   19  C   UNL     1     -12.006  10.398  70.250  1.00  0.00    -0.387 C  
HETATM   20  H1  UNL     1     -12.741  12.825  70.890  1.00  0.00     0.000 HD 
HETATM   21  H2  UNL     1     -13.023  12.682  69.232  1.00  0.00     0.000 HD 
HETATM   22  C   UNL     1     -11.032   9.220  70.208  1.00  0.00    -0.247 C  
HETATM   23  C   UNL     1     -11.315  11.704  69.893  1.00  0.00    -0.150 C  
HETATM   24  N   UNL     1     -11.791   8.054  70.691  1.00  0.00    -0.466 NA 
HETATM   25  C   UNL     1     -10.425   9.025  68.783  1.00  0.00    -0.206 C  
HETATM   26  H   UNL     1      -9.101   9.457  66.669  1.00  0.00     0.000 HD 
HETATM   27  H1  UNL     1     -11.141   7.268  70.664  1.00  0.00     0.000 HD 
HETATM   28  C   UNL     1      -9.822  10.359  68.246  1.00  0.00    -0.154 C  
HETATM   29  H2  UNL     1     -12.656   7.887  70.175  1.00  0.00     0.000 HD 
HETATM   30  O   UNL     1      -9.623  10.237  66.818  1.00  0.00    -0.163 OA 
BRANCH  25  31
HETATM   31  O   UNL     1      -9.343   8.042  68.754  1.00  0.00    -0.147 OA 
BRANCH  31  32
HETATM   32  C   UNL     1      -8.052   8.543  69.124  1.00  0.00    -0.117 C  
HETATM   33  O   UNL     1      -7.601   8.025  70.382  1.00  0.00    -0.077 OA 
HETATM   34  C   UNL     1      -7.307   6.618  70.336  1.00  0.00    -0.082 C  
HETATM   35  C   UNL     1      -6.186   6.336  69.325  1.00  0.00    -0.033 C  
HETATM   36  H   UNL     1      -6.859   8.632  66.052  1.00  0.00     0.000 HD 
HETATM   37  C   UNL     1      -6.605   6.819  67.923  1.00  0.00    -0.059 C  
HETATM   38  H1  UNL     1      -5.795   6.902  66.016  1.00  0.00     0.000 HD 
HETATM   39  O   UNL     1      -5.832   4.950  69.282  1.00  0.00    -0.015 OA 
HETATM   40  H   UNL     1      -5.139   4.775  68.656  1.00  0.00     0.000 HD 
HETATM   41  H2  UNL     1      -5.220   5.607  66.936  1.00  0.00     0.000 HD 
HETATM   42  C   UNL     1      -7.010   8.301  68.000  1.00  0.00    -0.081 C  
HETATM   43  N   UNL     1      -5.517   6.582  66.944  1.00  0.00    -0.012 NA 
HETATM   44  O   UNL     1      -7.496   8.781  66.740  1.00  0.00    -0.085 OA 
BRANCH  34  45
HETATM   45  C   UNL     1      -6.878   6.169  71.740  1.00  0.00    -0.068 C  
HETATM   46  O   UNL     1      -7.525   6.953  72.743  1.00  0.00    -0.085 OA 
HETATM   47  H   UNL     1      -7.259   6.675  73.611  1.00  0.00     0.000 HD 
ENDBRANCH  34  45
ENDBRANCH  31  32
ENDBRANCH  25  31
ENDBRANCH  16  17
ENDBRANCH   7  16
ENDBRANCH   2   5
TORSDOF 6
ENDMDL
MODEL      235
REMARK 921   NORMALIZED FREE ENERGY PREDICTED BY IDOCK:   -3.94 KCAL/MOL
REMARK 922        TOTAL FREE ENERGY PREDICTED BY IDOCK:   -6.38 KCAL/MOL
REMARK 923 INTER-LIGAND FREE ENERGY PREDICTED BY IDOCK:   -6.25 KCAL/MOL
REMARK 924 INTRA-LIGAND FREE ENERGY PREDICTED BY IDOCK:   -0.13 KCAL/MOL
REMARK 927      BINDING AFFINITY PREDICTED BY RF-SCORE:    0.00 PKD
ROOT
HETATM    1  N   UNL     1      -7.423   4.802  70.237  1.00  0.00    -0.050 NA 
HETATM    2  C   UNL     1      -7.746   5.941  69.365  1.00  0.00    -0.093 C  
HETATM    3  H2  UNL     1      -6.611   4.292  69.890  1.00  0.00     0.000 HD 
HETATM    4  H1  UNL     1      -7.294   5.083  71.208  1.00  0.00     0.000 HD 
ENDROOT
BRANCH   2   5
HETATM    5  C   UNL     1      -7.941   5.514  67.889  1.00  0.00    -0.097 C  
HETATM    6  O   UNL     1      -7.731   6.600  66.973  1.00  0.00    -0.100 OA 
HETATM    7  C   UNL     1      -6.391   7.053  66.873  1.00  0.00    -0.052 C  
HETATM    8  C   UNL     1      -5.476   5.896  66.354  1.00  0.00    -0.013 C  
HETATM    9  C   UNL     1      -7.084   4.289  67.511  1.00  0.00    -0.064 C  
HETATM   10  N   UNL     1      -5.785   5.503  64.962  1.00  0.00    -0.017 NA 
HETATM   11  C   UNL     1      -5.618   4.672  67.279  1.00  0.00    -0.013 C  
HETATM   12  H   UNL     1      -7.106   2.955  66.087  1.00  0.00     0.000 HD 
HETATM   13  H1  UNL     1      -5.189   4.747  64.623  1.00  0.00     0.000 HD 
HETATM   14  H2  UNL     1      -5.747   6.308  64.338  1.00  0.00     0.000 HD 
HETATM   15  O   UNL     1      -7.634   3.710  66.321  1.00  0.00    -0.082 OA 
BRANCH   7  16
HETATM   16  O   UNL     1      -6.310   8.171  65.973  1.00  0.00    -0.045 OA 
BRANCH  16  17
HETATM   17  C   UNL     1      -7.525   8.518  65.248  1.00  0.00    -0.086 C  
HETATM   18  N   UNL     1      -6.592   7.989  63.006  1.00  0.00    -0.083 NA 
HETATM   19  C   UNL     1      -8.549   9.405  63.112  1.00  0.00    -0.222 C  
HETATM   20  H1  UNL     1      -6.414   8.323  62.059  1.00  0.00     0.000 HD 
HETATM   21  H2  UNL     1      -7.121   7.117  63.004  1.00  0.00     0.000 HD 
HETATM   22  C   UNL     1      -9.308  10.485  63.884  1.00  0.00    -0.275 C  
HETATM   23  C   UNL     1      -7.256   9.024  63.815  1.00  0.00    -0.096 C  
HETATM   24  N   UNL     1     -10.460  10.846  63.040  1.00  0.00    -0.769 NA 
HETATM   25  C   UNL     1      -9.707   9.999  65.312  1.00  0.00    -0.306 C  
HETATM   26  H   UNL     1      -9.514   9.223  67.715  1.00  0.00     0.000 HD 
HETATM   27  H1  UNL     1     -10.966  11.568  63.554  1.00  0.00     0.000 HD 
HETATM   28  C   UNL     1      -8.471   9.434  66.075  1.00  0.00    -0.124 C  
HETATM   29  H2  UNL     1     -11.040  10.049  62.777  1.00  0.00     0.000 HD 
HETATM   30  O   UNL     1      -8.935   8.664  67.209  1.00  0.00    -0.131 OA 
BRANCH  25  31
HETATM   31  O   UNL     1     -10.252  11.069  66.147  1.00  0.00    -0.232 OA 
BRANCH  31  32
HETATM   32  C   UNL     1      -9.479  12.275  66.177  1.00  0.00    -0.217 C  
HETATM   33  O   UNL     1      -9.962  13.261  65.256  1.00  0.00    -0.258 OA 
HETATM   34  C   UNL     1     -11.246  13.792  65.625  1.00  0.00    -0.302 C  
HETATM   35  C   UNL     1     -11.170  14.481  66.996  1.00  0.00    -0.337 C  
HETATM   36  H   UNL     1      -8.873  12.178  69.417  1.00  0.00     0.000 HD 
HETATM   37  C   UNL     1     -10.702  13.476  68.066  1.00  0.00    -0.251 C  
HETATM   38  H1  UNL     1     -10.283  13.474  70.097  1.00  0.00     0.000 HD 
HETATM   39  O   UNL     1     -12.419  15.063  67.379  1.00  0.00    -0.269 OA 
HETATM   40  H   UNL     1     -12.372  15.488  68.227  1.00  0.00     0.000 HD 
HETATM   41  H2  UNL     1     -11.461  14.600  69.655  1.00  0.00     0.000 HD 
HETATM   42  C   UNL     1      -9.375  12.842  67.618  1.00  0.00    -0.191 C  
HETATM   43  N   UNL     1     -10.592  14.139  69.388  1.00  0.00    -0.108 NA 
HETATM   44  O   UNL     1      -8.937  11.831  68.535  1.00  0.00    -0.180 OA 
BRANCH  34  45
HETATM   45  C   UNL     1     -11.679  14.799  64.550  1.00  0.00    -0.391 C  
HETATM   46  O   UNL     1     -12.744  14.271  63.760  1.00  0.00    -0.796 OA 
HETATM   47  H   UNL     1     -13.011  14.894  63.095  1.00  0.00     0.000 HD 
ENDBRANCH  34  45
ENDBRANCH  31  32
ENDBRANCH  25  31
ENDBRANCH  16  17
ENDBRANCH   7  16
ENDBRANCH   2   5
TORSDOF 6
ENDMDL
MODEL      236
REMARK 921   NORMALIZED FREE ENERGY PREDICTED BY IDOCK:   -3.93 KCAL/MOL
REMARK 922        TOTAL FREE ENERGY PREDICTED BY IDOCK:   -6.37 KCAL/MOL
REMARK 923 INTER-LIGAND FREE ENERGY PREDICTED BY IDOCK:   -6.04 KCAL/MOL
REMARK 924 INTRA-LIGAND FREE ENERGY PREDICTED BY IDOCK:   -0.32 KCAL/MOL
REMARK 927      BINDING AFFINITY PREDICTED BY RF-SCORE:    0.00 PKD
ROOT
HETATM    1  N   UNL     1     -11.270   6.463  71.022  1.00  0.00    -0.298 NA 
HETATM    2  C   UNL     1     -10.652   5.235  71.544  1.00  0.00    -0.184 C  
HETATM    3  H2  UNL     1     -10.674   6.907  70.324  1.00  0.00     0.000 HD 
HETATM    4  H1  UNL     1     -12.207   6.298  70.655  1.00  0.00     0.000 HD 
ENDROOT
BRANCH   2   5
HETATM    5  C   UNL     1      -9.228   5.486  72.101  1.00  0.00    -0.143 C  
HETATM    6  O   UNL     1      -8.692   6.750  71.680  1.00  0.00    -0.126 OA 
HETATM    7  C   UNL     1      -9.327   7.889  72.238  1.00  0.00    -0.180 C  
HETATM    8  C   UNL     1      -9.173   7.875  73.794  1.00  0.00    -0.203 C  
HETATM    9  C   UNL     1      -9.158   5.330  73.633  1.00  0.00    -0.123 C  
HETATM   10  N   UNL     1      -7.770   8.045  74.232  1.00  0.00    -0.194 NA 
HETATM   11  C   UNL     1      -9.732   6.555  74.355  1.00  0.00    -0.328 C  
HETATM   12  H   UNL     1      -7.742   5.047  74.945  1.00  0.00     0.000 HD 
HETATM   13  H1  UNL     1      -7.670   8.036  75.247  1.00  0.00     0.000 HD 
HETATM   14  H2  UNL     1      -7.362   8.889  73.831  1.00  0.00     0.000 HD 
HETATM   15  O   UNL     1      -7.786   5.143  74.001  1.00  0.00    -0.093 OA 
BRANCH   7  16
HETATM   16  O   UNL     1      -8.744   9.092  71.707  1.00  0.00    -0.350 OA 
BRANCH  16  17
HETATM   17  C   UNL     1      -8.936   9.341  70.284  1.00  0.00    -0.229 C  
HETATM   18  N   UNL     1     -11.061  10.597  70.574  1.00  0.00    -0.441 NA 
HETATM   19  C   UNL     1     -10.570   9.691  68.387  1.00  0.00    -0.264 C  
HETATM   20  H1  UNL     1     -12.042  10.680  70.309  1.00  0.00     0.000 HD 
HETATM   21  H2  UNL     1     -10.555  11.468  70.419  1.00  0.00     0.000 HD 
HETATM   22  C   UNL     1      -9.935   8.556  67.584  1.00  0.00    -0.198 C  
HETATM   23  C   UNL     1     -10.421   9.466  69.882  1.00  0.00    -0.233 C  
HETATM   24  N   UNL     1     -10.258   8.832  66.173  1.00  0.00    -0.381 NA 
HETATM   25  C   UNL     1      -8.403   8.441  67.863  1.00  0.00    -0.131 C  
HETATM   26  H   UNL     1      -6.218   8.041  69.077  1.00  0.00     0.000 HD 
HETATM   27  H1  UNL     1      -9.835   8.074  65.638  1.00  0.00     0.000 HD 
HETATM   28  C   UNL     1      -8.120   8.363  69.394  1.00  0.00    -0.114 C  
HETATM   29  H2  UNL     1      -9.973   9.761  65.863  1.00  0.00     0.000 HD 
HETATM   30  O   UNL     1      -6.717   8.638  69.622  1.00  0.00    -0.039 OA 
BRANCH  25  31
HETATM   31  O   UNL     1      -7.804   7.245  67.272  1.00  0.00    -0.107 OA 
BRANCH  31  32
HETATM   32  C   UNL     1      -8.170   6.007  67.894  1.00  0.00    -0.112 C  
HETATM   33  O   UNL     1      -9.292   5.382  67.257  1.00  0.00    -0.114 OA 
HETATM   34  C   UNL     1      -8.993   4.906  65.934  1.00  0.00    -0.134 C  
HETATM   35  C   UNL     1      -7.879   3.848  65.983  1.00  0.00    -0.090 C  
HETATM   36  H   UNL     1      -5.087   5.108  68.639  1.00  0.00     0.000 HD 
HETATM   37  C   UNL     1      -6.607   4.450  66.612  1.00  0.00    -0.049 C  
HETATM   38  H1  UNL     1      -4.694   3.826  67.112  1.00  0.00     0.000 HD 
HETATM   39  O   UNL     1      -7.583   3.315  64.689  1.00  0.00    -0.074 OA 
HETATM   40  H   UNL     1      -6.894   2.662  64.718  1.00  0.00     0.000 HD 
HETATM   41  H2  UNL     1      -5.345   3.003  65.788  1.00  0.00     0.000 HD 
HETATM   42  C   UNL     1      -6.957   5.043  67.987  1.00  0.00    -0.061 C  
HETATM   43  N   UNL     1      -5.536   3.428  66.695  1.00  0.00    -0.016 NA 
HETATM   44  O   UNL     1      -5.829   5.697  68.582  1.00  0.00    -0.017 OA 
BRANCH  34  45
HETATM   45  C   UNL     1     -10.272   4.299  65.339  1.00  0.00    -0.220 C  
HETATM   46  O   UNL     1     -11.378   5.185  65.507  1.00  0.00    -0.798 OA 
HETATM   47  H   UNL     1     -12.169   4.810  65.138  1.00  0.00     0.000 HD 
ENDBRANCH  34  45
ENDBRANCH  31  32
ENDBRANCH  25  31
ENDBRANCH  16  17
ENDBRANCH   7  16
ENDBRANCH   2   5
TORSDOF 6
ENDMDL
MODEL      237
REMARK 921   NORMALIZED FREE ENERGY PREDICTED BY IDOCK:   -3.93 KCAL/MOL
REMARK 922        TOTAL FREE ENERGY PREDICTED BY IDOCK:   -6.36 KCAL/MOL
REMARK 923 INTER-LIGAND FREE ENERGY PREDICTED BY IDOCK:   -4.67 KCAL/MOL
REMARK 924 INTRA-LIGAND FREE ENERGY PREDICTED BY IDOCK:   -1.70 KCAL/MOL
REMARK 927      BINDING AFFINITY PREDICTED BY RF-SCORE:    0.00 PKD
ROOT
HETATM    1  N   UNL     1      -7.041   7.902  70.656  1.00  0.00    -0.048 NA 
HETATM    2  C   UNL     1      -6.630   9.096  69.904  1.00  0.00    -0.047 C  
HETATM    3  H2  UNL     1      -6.551   7.071  70.324  1.00  0.00     0.000 HD 
HETATM    4  H1  UNL     1      -6.924   8.020  71.662  1.00  0.00     0.000 HD 
ENDROOT
BRANCH   2   5
HETATM    5  C   UNL     1      -6.808   8.917  68.375  1.00  0.00    -0.065 C  
HETATM    6  O   UNL     1      -8.177   8.686  68.008  1.00  0.00    -0.114 OA 
HETATM    7  C   UNL     1      -9.042   9.797  68.179  1.00  0.00    -0.125 C  
HETATM    8  C   UNL     1      -8.568  10.983  67.276  1.00  0.00    -0.130 C  
HETATM    9  C   UNL     1      -6.200  10.082  67.570  1.00  0.00    -0.058 C  
HETATM   10  N   UNL     1      -8.703  10.693  65.833  1.00  0.00    -0.171 NA 
HETATM   11  C   UNL     1      -7.101  11.323  67.599  1.00  0.00    -0.090 C  
HETATM   12  H   UNL     1      -5.642  10.361  65.722  1.00  0.00     0.000 HD 
HETATM   13  H1  UNL     1      -8.395  11.467  65.244  1.00  0.00     0.000 HD 
HETATM   14  H2  UNL     1      -9.658  10.416  65.603  1.00  0.00     0.000 HD 
HETATM   15  O   UNL     1      -6.016   9.643  66.218  1.00  0.00    -0.060 OA 
BRANCH   7  16
HETATM   16  O   UNL     1     -10.389   9.436  67.831  1.00  0.00    -0.199 OA 
BRANCH  16  17
HETATM   17  C   UNL     1     -11.139   8.671  68.820  1.00  0.00     0.286 C  
HETATM   18  N   UNL     1     -11.759  10.649  70.191  1.00  0.00    -0.303 NA 
HETATM   19  C   UNL     1     -11.898   8.467  71.223  1.00  0.00    -0.327 C  
HETATM   20  H1  UNL     1     -11.756  11.075  71.118  1.00  0.00     0.000 HD 
HETATM   21  H2  UNL     1     -12.699  10.614  69.797  1.00  0.00     0.000 HD 
HETATM   22  C   UNL     1     -11.311   7.058  71.326  1.00  0.00    -0.274 C  
HETATM   23  C   UNL     1     -11.134   9.317  70.222  1.00  0.00    -0.251 C  
HETATM   24  N   UNL     1     -12.055   6.390  72.408  1.00  0.00    -0.525 NA 
HETATM   25  C   UNL     1     -11.382   6.305  69.960  1.00  0.00    -0.416 C  
HETATM   26  H   UNL     1     -10.950   5.693  67.542  1.00  0.00     0.000 HD 
HETATM   27  H1  UNL     1     -11.663   5.451  72.476  1.00  0.00     0.000 HD 
HETATM   28  C   UNL     1     -10.761   7.163  68.816  1.00  0.00    -0.169 C  
HETATM   29  H2  UNL     1     -13.067   6.402  72.275  1.00  0.00     0.000 HD 
HETATM   30  O   UNL     1     -11.180   6.615  67.544  1.00  0.00    -0.319 OA 
BRANCH  25  31
HETATM   31  O   UNL     1     -10.651   5.039  69.968  1.00  0.00    -0.245 OA 
BRANCH  31  32
HETATM   32  C   UNL     1      -9.251   5.140  69.678  1.00  0.00    -0.119 C  
HETATM   33  O   UNL     1      -8.466   5.427  70.842  1.00  0.00    -0.115 OA 
HETATM   34  C   UNL     1      -8.437   4.339  71.781  1.00  0.00    -0.105 C  
HETATM   35  C   UNL     1      -7.816   3.090  71.138  1.00  0.00    -0.050 C  
HETATM   36  H   UNL     1      -9.244   2.799  67.355  1.00  0.00     0.000 HD 
HETATM   37  C   UNL     1      -8.628   2.675  69.896  1.00  0.00    -0.059 C  
HETATM   38  H1  UNL     1      -8.555   1.216  68.425  1.00  0.00     0.000 HD 
HETATM   39  O   UNL     1      -7.727   1.996  72.056  1.00  0.00    -0.043 OA 
HETATM   40  H   UNL     1      -7.343   1.224  71.658  1.00  0.00     0.000 HD 
HETATM   41  H2  UNL     1      -7.903   0.717  69.901  1.00  0.00     0.000 HD 
HETATM   42  C   UNL     1      -8.736   3.875  68.940  1.00  0.00    -0.094 C  
HETATM   43  N   UNL     1      -8.017   1.491  69.247  1.00  0.00    -0.045 NA 
HETATM   44  O   UNL     1      -9.560   3.574  67.807  1.00  0.00    -0.195 OA 
BRANCH  34  45
HETATM   45  C   UNL     1      -7.609   4.775  72.999  1.00  0.00    -0.092 C  
HETATM   46  O   UNL     1      -7.811   6.160  73.279  1.00  0.00    -0.100 OA 
HETATM   47  H   UNL     1      -7.299   6.429  74.033  1.00  0.00     0.000 HD 
ENDBRANCH  34  45
ENDBRANCH  31  32
ENDBRANCH  25  31
ENDBRANCH  16  17
ENDBRANCH   7  16
ENDBRANCH   2   5
TORSDOF 6
ENDMDL
MODEL      238
REMARK 921   NORMALIZED FREE ENERGY PREDICTED BY IDOCK:   -3.92 KCAL/MOL
REMARK 922        TOTAL FREE ENERGY PREDICTED BY IDOCK:   -6.35 KCAL/MOL
REMARK 923 INTER-LIGAND FREE ENERGY PREDICTED BY IDOCK:   -5.59 KCAL/MOL
REMARK 924 INTRA-LIGAND FREE ENERGY PREDICTED BY IDOCK:   -0.76 KCAL/MOL
REMARK 927      BINDING AFFINITY PREDICTED BY RF-SCORE:    0.00 PKD
ROOT
HETATM    1  N   UNL     1     -11.549  16.460  71.040  1.00  0.00    -0.594 NA 
HETATM    2  C   UNL     1     -11.337  16.507  69.586  1.00  0.00    -0.073 C  
HETATM    3  H2  UNL     1     -11.529  17.395  71.446  1.00  0.00     0.000 HD 
HETATM    4  H1  UNL     1     -12.407  15.969  71.289  1.00  0.00     0.000 HD 
ENDROOT
BRANCH   2   5
HETATM    5  C   UNL     1     -10.033  17.254  69.208  1.00  0.00    -0.136 C  
HETATM    6  O   UNL     1      -9.143  16.438  68.429  1.00  0.00    -0.201 OA 
HETATM    7  C   UNL     1      -9.591  16.143  67.116  1.00  0.00    -0.229 C  
HETATM    8  C   UNL     1      -9.756  17.466  66.299  1.00  0.00    -0.261 C  
HETATM    9  C   UNL     1     -10.306  18.604  68.515  1.00  0.00    -0.265 C  
HETATM   10  N   UNL     1      -8.468  18.150  66.052  1.00  0.00    -0.515 NA 
HETATM   11  C   UNL     1     -10.708  18.418  67.047  1.00  0.00    -0.330 C  
HETATM   12  H   UNL     1      -9.284  20.230  68.173  1.00  0.00     0.000 HD 
HETATM   13  H1  UNL     1      -8.575  19.013  65.519  1.00  0.00     0.000 HD 
HETATM   14  H2  UNL     1      -7.802  17.522  65.601  1.00  0.00     0.000 HD 
HETATM   15  O   UNL     1      -9.116  19.398  68.600  1.00  0.00    -0.361 OA 
BRANCH   7  16
HETATM   16  O   UNL     1      -8.650  15.282  66.452  1.00  0.00    -0.276 OA 
BRANCH  16  17
HETATM   17  C   UNL     1      -9.103  13.932  66.140  1.00  0.00     0.098 C  
HETATM   18  N   UNL     1     -10.537  14.628  64.233  1.00  0.00    -0.428 NA 
HETATM   19  C   UNL     1     -10.952  12.466  65.231  1.00  0.00    -0.335 C  
HETATM   20  H1  UNL     1     -11.467  14.603  63.815  1.00  0.00     0.000 HD 
HETATM   21  H2  UNL     1      -9.826  14.286  63.587  1.00  0.00     0.000 HD 
HETATM   22  C   UNL     1     -10.960  11.625  66.509  1.00  0.00    -0.299 C  
HETATM   23  C   UNL     1     -10.511  13.894  65.508  1.00  0.00    -0.323 C  
HETATM   24  N   UNL     1     -11.521  10.318  66.126  1.00  0.00     0.730 NA 
HETATM   25  C   UNL     1      -9.538  11.533  67.146  1.00  0.00    -0.177 C  
HETATM   26  H   UNL     1      -7.380  12.210  68.284  1.00  0.00     0.000 HD 
HETATM   27  H1  UNL     1     -11.527   9.758  66.978  1.00  0.00     0.000 HD 
HETATM   28  C   UNL     1      -8.917  12.951  67.331  1.00  0.00    -0.199 C  
HETATM   29  H2  UNL     1     -11.030   9.875  65.349  1.00  0.00     0.000 HD 
HETATM   30  O   UNL     1      -7.494  12.810  67.556  1.00  0.00    -0.133 OA 
BRANCH  25  31
HETATM   31  O   UNL     1      -9.545  10.912  68.469  1.00  0.00    -0.172 OA 
BRANCH  31  32
HETATM   32  C   UNL     1      -9.436   9.482  68.474  1.00  0.00    -0.141 C  
HETATM   33  O   UNL     1      -8.753   8.979  67.319  1.00  0.00    -0.117 OA 
HETATM   34  C   UNL     1      -7.358   9.324  67.298  1.00  0.00    -0.091 C  
HETATM   35  C   UNL     1      -6.638   8.732  68.520  1.00  0.00    -0.059 C  
HETATM   36  H   UNL     1      -9.058   9.209  71.738  1.00  0.00     0.000 HD 
HETATM   37  C   UNL     1      -7.279   9.260  69.818  1.00  0.00    -0.066 C  
HETATM   38  H1  UNL     1      -7.039   9.017  71.863  1.00  0.00     0.000 HD 
HETATM   39  O   UNL     1      -5.236   9.015  68.513  1.00  0.00    -0.034 OA 
HETATM   40  H   UNL     1      -4.792   8.649  69.268  1.00  0.00     0.000 HD 
HETATM   41  H2  UNL     1      -5.607   8.819  70.990  1.00  0.00     0.000 HD 
HETATM   42  C   UNL     1      -8.790   8.971  69.789  1.00  0.00    -0.153 C  
HETATM   43  N   UNL     1      -6.615   8.667  71.004  1.00  0.00    -0.047 NA 
HETATM   44  O   UNL     1      -9.454   9.522  70.933  1.00  0.00    -0.239 OA 
BRANCH  34  45
HETATM   45  C   UNL     1      -6.743   8.773  66.004  1.00  0.00    -0.068 C  
HETATM   46  O   UNL     1      -7.740   8.148  65.196  1.00  0.00    -0.094 OA 
HETATM   47  H   UNL     1      -7.360   7.806  64.395  1.00  0.00     0.000 HD 
ENDBRANCH  34  45
ENDBRANCH  31  32
ENDBRANCH  25  31
ENDBRANCH  16  17
ENDBRANCH   7  16
ENDBRANCH   2   5
TORSDOF 6
ENDMDL
MODEL      239
REMARK 921   NORMALIZED FREE ENERGY PREDICTED BY IDOCK:   -3.91 KCAL/MOL
REMARK 922        TOTAL FREE ENERGY PREDICTED BY IDOCK:   -6.33 KCAL/MOL
REMARK 923 INTER-LIGAND FREE ENERGY PREDICTED BY IDOCK:   -6.03 KCAL/MOL
REMARK 924 INTRA-LIGAND FREE ENERGY PREDICTED BY IDOCK:   -0.30 KCAL/MOL
REMARK 927      BINDING AFFINITY PREDICTED BY RF-SCORE:    0.00 PKD
ROOT
HETATM    1  N   UNL     1      -9.955  10.018  62.503  1.00  0.00    -0.627 NA 
HETATM    2  C   UNL     1      -9.850  10.721  63.790  1.00  0.00    -0.339 C  
HETATM    3  H2  UNL     1     -10.497  10.559  61.831  1.00  0.00     0.000 HD 
HETATM    4  H1  UNL     1      -9.042   9.768  62.124  1.00  0.00     0.000 HD 
ENDROOT
BRANCH   2   5
HETATM    5  C   UNL     1     -11.238  11.101  64.366  1.00  0.00     0.006 C  
HETATM    6  O   UNL     1     -11.171  11.470  65.752  1.00  0.00    -0.265 OA 
HETATM    7  C   UNL     1     -10.504  12.694  66.017  1.00  0.00    -0.268 C  
HETATM    8  C   UNL     1     -11.254  13.872  65.314  1.00  0.00    -0.313 C  
HETATM    9  C   UNL     1     -11.946  12.185  63.530  1.00  0.00    -0.524 C  
HETATM   10  N   UNL     1     -12.599  14.112  65.879  1.00  0.00    -0.470 NA 
HETATM   11  C   UNL     1     -11.372  13.580  63.806  1.00  0.00    -0.115 C  
HETATM   12  H   UNL     1     -13.779  12.825  63.339  1.00  0.00     0.000 HD 
HETATM   13  H1  UNL     1     -13.089  14.881  65.419  1.00  0.00     0.000 HD 
HETATM   14  H2  UNL     1     -12.552  14.259  66.886  1.00  0.00     0.000 HD 
HETATM   15  O   UNL     1     -13.342  12.157  63.854  1.00  0.00    -0.711 OA 
BRANCH   7  16
HETATM   16  O   UNL     1     -10.452  12.934  67.434  1.00  0.00    -0.231 OA 
BRANCH  16  17
HETATM   17  C   UNL     1      -9.349  12.322  68.163  1.00  0.00    -0.205 C  
HETATM   18  N   UNL     1      -7.768  14.198  67.767  1.00  0.00    -0.151 NA 
HETATM   19  C   UNL     1      -6.846  12.056  68.405  1.00  0.00    -0.072 C  
HETATM   20  H1  UNL     1      -6.851  14.478  67.419  1.00  0.00     0.000 HD 
HETATM   21  H2  UNL     1      -7.918  14.513  68.725  1.00  0.00     0.000 HD 
HETATM   22  C   UNL     1      -6.964  10.534  68.319  1.00  0.00    -0.073 C  
HETATM   23  C   UNL     1      -7.962  12.745  67.636  1.00  0.00    -0.165 C  
HETATM   24  N   UNL     1      -5.767  10.000  68.990  1.00  0.00    -0.035 NA 
HETATM   25  C   UNL     1      -8.305  10.026  68.935  1.00  0.00    -0.130 C  
HETATM   26  H   UNL     1     -10.783   9.630  69.271  1.00  0.00     0.000 HD 
HETATM   27  H1  UNL     1      -5.846   8.984  68.933  1.00  0.00     0.000 HD 
HETATM   28  C   UNL     1      -9.523  10.786  68.326  1.00  0.00    -0.164 C  
HETATM   29  H2  UNL     1      -5.643  10.346  69.942  1.00  0.00     0.000 HD 
HETATM   30  O   UNL     1     -10.677  10.569  69.171  1.00  0.00    -0.201 OA 
BRANCH  25  31
HETATM   31  O   UNL     1      -8.544   8.604  68.690  1.00  0.00    -0.129 OA 
BRANCH  31  32
HETATM   32  C   UNL     1      -7.421   7.876  68.178  1.00  0.00    -0.107 C  
HETATM   33  O   UNL     1      -6.529   7.440  69.212  1.00  0.00    -0.035 OA 
HETATM   34  C   UNL     1      -7.103   6.431  70.059  1.00  0.00    -0.071 C  
HETATM   35  C   UNL     1      -7.458   5.180  69.240  1.00  0.00    -0.058 C  
HETATM   36  H   UNL     1      -9.084   6.412  65.736  1.00  0.00     0.000 HD 
HETATM   37  C   UNL     1      -8.458   5.546  68.126  1.00  0.00    -0.098 C  
HETATM   38  H1  UNL     1      -9.444   4.595  66.569  1.00  0.00     0.000 HD 
HETATM   39  O   UNL     1      -7.991   4.132  70.055  1.00  0.00    -0.055 OA 
HETATM   40  H   UNL     1      -8.211   3.360  69.549  1.00  0.00     0.000 HD 
HETATM   41  H2  UNL     1      -9.119   3.579  67.879  1.00  0.00     0.000 HD 
HETATM   42  C   UNL     1      -7.877   6.694  67.283  1.00  0.00    -0.112 C  
HETATM   43  N   UNL     1      -8.782   4.353  67.307  1.00  0.00    -0.104 NA 
HETATM   44  O   UNL     1      -8.805   7.136  66.284  1.00  0.00    -0.140 OA 
BRANCH  34  45
HETATM   45  C   UNL     1      -6.080   6.076  71.148  1.00  0.00    -0.034 C  
HETATM   46  O   UNL     1      -6.569   5.022  71.978  1.00  0.00    -0.037 OA 
HETATM   47  H   UNL     1      -5.936   4.802  72.651  1.00  0.00     0.000 HD 
ENDBRANCH  34  45
ENDBRANCH  31  32
ENDBRANCH  25  31
ENDBRANCH  16  17
ENDBRANCH   7  16
ENDBRANCH   2   5
TORSDOF 6
ENDMDL
MODEL      240
REMARK 921   NORMALIZED FREE ENERGY PREDICTED BY IDOCK:   -3.88 KCAL/MOL
REMARK 922        TOTAL FREE ENERGY PREDICTED BY IDOCK:   -6.30 KCAL/MOL
REMARK 923 INTER-LIGAND FREE ENERGY PREDICTED BY IDOCK:   -6.40 KCAL/MOL
REMARK 924 INTRA-LIGAND FREE ENERGY PREDICTED BY IDOCK:    0.10 KCAL/MOL
REMARK 927      BINDING AFFINITY PREDICTED BY RF-SCORE:    0.00 PKD
ROOT
HETATM    1  N   UNL     1     -12.314  10.548  69.444  1.00  0.00    -0.668 NA 
HETATM    2  C   UNL     1     -10.847  10.632  69.509  1.00  0.00    -0.259 C  
HETATM    3  H2  UNL     1     -12.629  10.344  68.495  1.00  0.00     0.000 HD 
HETATM    4  H1  UNL     1     -12.692   9.875  70.109  1.00  0.00     0.000 HD 
ENDROOT
BRANCH   2   5
HETATM    5  C   UNL     1     -10.273  11.655  68.497  1.00  0.00    -0.210 C  
HETATM    6  O   UNL     1      -8.847  11.543  68.358  1.00  0.00    -0.157 OA 
HETATM    7  C   UNL     1      -8.396  10.359  67.721  1.00  0.00    -0.114 C  
HETATM    8  C   UNL     1      -8.958  10.290  66.264  1.00  0.00    -0.153 C  
HETATM    9  C   UNL     1     -10.976  11.588  67.127  1.00  0.00    -0.286 C  
HETATM   10  N   UNL     1      -8.411  11.351  65.390  1.00  0.00    -0.360 NA 
HETATM   11  C   UNL     1     -10.494  10.391  66.299  1.00  0.00    -0.229 C  
HETATM   12  H   UNL     1     -11.141  12.768  65.582  1.00  0.00     0.000 HD 
HETATM   13  H1  UNL     1      -8.778  11.306  64.439  1.00  0.00     0.000 HD 
HETATM   14  H2  UNL     1      -7.391  11.335  65.390  1.00  0.00     0.000 HD 
HETATM   15  O   UNL     1     -10.707  12.809  66.427  1.00  0.00    -0.258 OA 
BRANCH   7  16
HETATM   16  O   UNL     1      -6.959  10.332  67.685  1.00  0.00    -0.082 OA 
BRANCH  16  17
HETATM   17  C   UNL     1      -6.263  11.273  68.554  1.00  0.00    -0.046 C  
HETATM   18  N   UNL     1      -5.561   9.555  70.207  1.00  0.00    -0.031 NA 
HETATM   19  C   UNL     1      -5.548  11.870  70.904  1.00  0.00    -0.071 C  
HETATM   20  H1  UNL     1      -5.555   9.271  71.186  1.00  0.00     0.000 HD 
HETATM   21  H2  UNL     1      -4.619   9.581  69.817  1.00  0.00     0.000 HD 
HETATM   22  C   UNL     1      -6.207  13.245  70.793  1.00  0.00     0.250 C  
HETATM   23  C   UNL     1      -6.254  10.843  70.035  1.00  0.00    -0.133 C  
HETATM   24  N   UNL     1      -5.513  14.104  71.768  1.00  0.00    -0.211 NA 
HETATM   25  C   UNL     1      -6.156  13.791  69.331  1.00  0.00    -0.103 C  
HETATM   26  H   UNL     1      -6.585  14.014  66.846  1.00  0.00     0.000 HD 
HETATM   27  H1  UNL     1      -5.953  15.021  71.693  1.00  0.00     0.000 HD 
HETATM   28  C   UNL     1      -6.716  12.742  68.323  1.00  0.00    -0.087 C  
HETATM   29  H2  UNL     1      -4.500  14.126  71.645  1.00  0.00     0.000 HD 
HETATM   30  O   UNL     1      -6.309  13.116  66.986  1.00  0.00    -0.169 OA 
BRANCH  25  31
HETATM   31  O   UNL     1      -6.951  15.004  69.146  1.00  0.00    -0.116 OA 
BRANCH  31  32
HETATM   32  C   UNL     1      -7.920  14.946  68.092  1.00  0.00    -0.130 C  
HETATM   33  O   UNL     1      -9.244  14.686  68.575  1.00  0.00    -0.184 OA 
HETATM   34  C   UNL     1      -9.787  15.777  69.337  1.00  0.00    -0.286 C  
HETATM   35  C   UNL     1      -9.882  17.043  68.472  1.00  0.00    -0.290 C  
HETATM   36  H   UNL     1      -6.506  17.278  66.239  1.00  0.00     0.000 HD 
HETATM   37  C   UNL     1      -8.487  17.429  67.944  1.00  0.00    -0.228 C  
HETATM   38  H1  UNL     1      -7.648  18.885  66.730  1.00  0.00     0.000 HD 
HETATM   39  O   UNL     1     -10.461  18.142  69.182  1.00  0.00    -0.445 OA 
HETATM   40  H   UNL     1     -10.520  18.925  68.647  1.00  0.00     0.000 HD 
HETATM   41  H2  UNL     1      -9.026  19.409  67.555  1.00  0.00     0.000 HD 
HETATM   42  C   UNL     1      -7.873  16.223  67.212  1.00  0.00    -0.173 C  
HETATM   43  N   UNL     1      -8.572  18.630  67.079  1.00  0.00    -0.269 NA 
HETATM   44  O   UNL     1      -6.535  16.496  66.777  1.00  0.00    -0.210 OA 
BRANCH  34  45
HETATM   45  C   UNL     1     -11.181  15.371  69.836  1.00  0.00    -0.299 C  
HETATM   46  O   UNL     1     -11.209  15.301  71.261  1.00  0.00    -0.391 OA 
HETATM   47  H   UNL     1     -12.071  15.050  71.570  1.00  0.00     0.000 HD 
ENDBRANCH  34  45
ENDBRANCH  31  32
ENDBRANCH  25  31
ENDBRANCH  16  17
ENDBRANCH   7  16
ENDBRANCH   2   5
TORSDOF 6
ENDMDL
MODEL      241
REMARK 921   NORMALIZED FREE ENERGY PREDICTED BY IDOCK:   -3.87 KCAL/MOL
REMARK 922        TOTAL FREE ENERGY PREDICTED BY IDOCK:   -6.28 KCAL/MOL
REMARK 923 INTER-LIGAND FREE ENERGY PREDICTED BY IDOCK:   -6.06 KCAL/MOL
REMARK 924 INTRA-LIGAND FREE ENERGY PREDICTED BY IDOCK:   -0.22 KCAL/MOL
REMARK 927      BINDING AFFINITY PREDICTED BY RF-SCORE:    0.00 PKD
ROOT
HETATM    1  N   UNL     1      -9.311   3.850  66.410  1.00  0.00    -0.171 NA 
HETATM    2  C   UNL     1      -9.472   3.206  67.722  1.00  0.00    -0.156 C  
HETATM    3  H2  UNL     1      -8.342   3.809  66.096  1.00  0.00     0.000 HD 
HETATM    4  H1  UNL     1      -9.942   3.461  65.710  1.00  0.00     0.000 HD 
ENDROOT
BRANCH   2   5
HETATM    5  C   UNL     1      -8.512   3.796  68.787  1.00  0.00    -0.082 C  
HETATM    6  O   UNL     1      -8.178   5.167  68.520  1.00  0.00    -0.089 OA 
HETATM    7  C   UNL     1      -9.244   6.089  68.680  1.00  0.00    -0.115 C  
HETATM    8  C   UNL     1      -9.746   6.069  70.161  1.00  0.00    -0.167 C  
HETATM    9  C   UNL     1      -9.044   3.618  70.223  1.00  0.00    -0.130 C  
HETATM   10  N   UNL     1      -8.737   6.579  71.114  1.00  0.00    -0.137 NA 
HETATM   11  C   UNL     1     -10.145   4.634  70.551  1.00  0.00    -0.263 C  
HETATM   12  H   UNL     1      -8.272   3.669  72.014  1.00  0.00     0.000 HD 
HETATM   13  H1  UNL     1      -9.064   6.566  72.080  1.00  0.00     0.000 HD 
HETATM   14  H2  UNL     1      -8.420   7.511  70.848  1.00  0.00     0.000 HD 
HETATM   15  O   UNL     1      -7.944   3.778  71.128  1.00  0.00    -0.061 OA 
BRANCH   7  16
HETATM   16  O   UNL     1      -8.809   7.416  68.337  1.00  0.00    -0.123 OA 
BRANCH  16  17
HETATM   17  C   UNL     1      -8.968   7.819  66.945  1.00  0.00    -0.134 C  
HETATM   18  N   UNL     1      -7.214   6.284  66.081  1.00  0.00    -0.074 NA 
HETATM   19  C   UNL     1      -7.878   8.146  64.687  1.00  0.00    -0.136 C  
HETATM   20  H1  UNL     1      -6.357   6.194  65.535  1.00  0.00     0.000 HD 
HETATM   21  H2  UNL     1      -7.945   5.660  65.738  1.00  0.00     0.000 HD 
HETATM   22  C   UNL     1      -8.350   9.599  64.631  1.00  0.00    -0.158 C  
HETATM   23  C   UNL     1      -7.671   7.683  66.120  1.00  0.00    -0.089 C  
HETATM   24  N   UNL     1      -8.388   9.954  63.202  1.00  0.00    -0.152 NA 
HETATM   25  C   UNL     1      -9.718   9.788  65.359  1.00  0.00    -0.313 C  
HETATM   26  H   UNL     1     -11.451   9.893  67.202  1.00  0.00     0.000 HD 
HETATM   27  H1  UNL     1      -8.702  10.923  63.165  1.00  0.00     0.000 HD 
HETATM   28  C   UNL     1      -9.668   9.199  66.802  1.00  0.00    -0.210 C  
HETATM   29  H2  UNL     1      -8.954   9.319  62.638  1.00  0.00     0.000 HD 
HETATM   30  O   UNL     1     -11.022   9.050  67.290  1.00  0.00    -0.137 OA 
BRANCH  25  31
HETATM   31  O   UNL     1     -10.099  11.192  65.501  1.00  0.00    -0.234 OA 
BRANCH  31  32
HETATM   32  C   UNL     1     -10.265  11.647  66.850  1.00  0.00    -0.214 C  
HETATM   33  O   UNL     1      -9.015  11.839  67.524  1.00  0.00    -0.160 OA 
HETATM   34  C   UNL     1      -8.254  12.937  66.994  1.00  0.00    -0.080 C  
HETATM   35  C   UNL     1      -9.033  14.253  67.145  1.00  0.00    -0.225 C  
HETATM   36  H   UNL     1     -12.912  13.512  66.228  1.00  0.00     0.000 HD 
HETATM   37  C   UNL     1     -10.381  14.156  66.404  1.00  0.00    -0.287 C  
HETATM   38  H1  UNL     1     -12.049  15.345  66.082  1.00  0.00     0.000 HD 
HETATM   39  O   UNL     1      -8.290  15.379  66.669  1.00  0.00    -0.258 OA 
HETATM   40  H   UNL     1      -8.772  16.193  66.762  1.00  0.00     0.000 HD 
HETATM   41  H2  UNL     1     -10.623  16.228  66.282  1.00  0.00     0.000 HD 
HETATM   42  C   UNL     1     -11.147  12.922  66.910  1.00  0.00    -0.278 C  
HETATM   43  N   UNL     1     -11.157  15.409  66.572  1.00  0.00    -0.276 NA 
HETATM   44  O   UNL     1     -12.372  12.731  66.191  1.00  0.00    -0.542 OA 
BRANCH  34  45
HETATM   45  C   UNL     1      -6.926  13.018  67.759  1.00  0.00    -0.143 C  
HETATM   46  O   UNL     1      -5.823  12.774  66.887  1.00  0.00    -0.466 OA 
HETATM   47  H   UNL     1      -5.001  12.825  67.361  1.00  0.00     0.000 HD 
ENDBRANCH  34  45
ENDBRANCH  31  32
ENDBRANCH  25  31
ENDBRANCH  16  17
ENDBRANCH   7  16
ENDBRANCH   2   5
TORSDOF 6
ENDMDL
MODEL      242
REMARK 921   NORMALIZED FREE ENERGY PREDICTED BY IDOCK:   -3.84 KCAL/MOL
REMARK 922        TOTAL FREE ENERGY PREDICTED BY IDOCK:   -6.24 KCAL/MOL
REMARK 923 INTER-LIGAND FREE ENERGY PREDICTED BY IDOCK:   -5.29 KCAL/MOL
REMARK 924 INTRA-LIGAND FREE ENERGY PREDICTED BY IDOCK:   -0.95 KCAL/MOL
REMARK 927      BINDING AFFINITY PREDICTED BY RF-SCORE:    0.00 PKD
ROOT
HETATM    1  N   UNL     1      -9.539   2.991  72.265  1.00  0.00    -0.126 NA 
HETATM    2  C   UNL     1      -8.757   4.164  71.849  1.00  0.00    -0.109 C  
HETATM    3  H2  UNL     1     -10.523   3.230  72.391  1.00  0.00     0.000 HD 
HETATM    4  H1  UNL     1      -9.430   2.207  71.624  1.00  0.00     0.000 HD 
ENDROOT
BRANCH   2   5
HETATM    5  C   UNL     1      -8.923   5.356  72.825  1.00  0.00    -0.121 C  
HETATM    6  O   UNL     1      -8.257   6.540  72.359  1.00  0.00    -0.106 OA 
HETATM    7  C   UNL     1      -8.833   7.142  71.210  1.00  0.00    -0.129 C  
HETATM    8  C   UNL     1     -10.299   7.590  71.522  1.00  0.00    -0.196 C  
HETATM    9  C   UNL     1     -10.400   5.640  73.163  1.00  0.00    -0.203 C  
HETATM   10  N   UNL     1     -10.363   8.680  72.520  1.00  0.00    -0.247 NA 
HETATM   11  C   UNL     1     -11.111   6.382  72.025  1.00  0.00    -0.306 C  
HETATM   12  H   UNL     1     -11.350   6.602  74.570  1.00  0.00     0.000 HD 
HETATM   13  H1  UNL     1     -11.319   8.973  72.724  1.00  0.00     0.000 HD 
HETATM   14  H2  UNL     1      -9.791   9.473  72.232  1.00  0.00     0.000 HD 
HETATM   15  O   UNL     1     -10.440   6.426  74.361  1.00  0.00    -0.304 OA 
BRANCH   7  16
HETATM   16  O   UNL     1      -8.057   8.282  70.805  1.00  0.00    -0.098 OA 
BRANCH  16  17
HETATM   17  C   UNL     1      -8.370   8.859  69.503  1.00  0.00    -0.119 C  
HETATM   18  N   UNL     1      -7.157   7.120  68.206  1.00  0.00    -0.079 NA 
HETATM   19  C   UNL     1      -7.649   9.217  67.106  1.00  0.00    -0.091 C  
HETATM   20  H1  UNL     1      -6.447   6.928  67.499  1.00  0.00     0.000 HD 
HETATM   21  H2  UNL     1      -8.051   6.690  67.967  1.00  0.00     0.000 HD 
HETATM   22  C   UNL     1      -7.808  10.731  67.248  1.00  0.00    -0.113 C  
HETATM   23  C   UNL     1      -7.296   8.568  68.434  1.00  0.00    -0.094 C  
HETATM   24  N   UNL     1      -8.021  11.242  65.882  1.00  0.00    -0.366 NA 
HETATM   25  C   UNL     1      -8.956  11.099  68.239  1.00  0.00    -0.166 C  
HETATM   26  H   UNL     1     -10.278  11.332  70.386  1.00  0.00     0.000 HD 
HETATM   27  H1  UNL     1      -8.127  12.252  65.977  1.00  0.00     0.000 HD 
HETATM   28  C   UNL     1      -8.779  10.355  69.598  1.00  0.00    -0.035 C  
HETATM   29  H2  UNL     1      -8.798  10.794  65.395  1.00  0.00     0.000 HD 
HETATM   30  O   UNL     1     -10.027  10.417  70.328  1.00  0.00    -0.027 OA 
BRANCH  25  31
HETATM   31  O   UNL     1      -9.004  12.526  68.554  1.00  0.00    -0.153 OA 
BRANCH  31  32
HETATM   32  C   UNL     1      -9.482  13.369  67.498  1.00  0.00    -0.219 C  
HETATM   33  O   UNL     1     -10.791  13.891  67.761  1.00  0.00    -0.246 OA 
HETATM   34  C   UNL     1     -10.812  14.832  68.847  1.00  0.00    -0.254 C  
HETATM   35  C   UNL     1      -9.920  16.042  68.527  1.00  0.00    -0.222 C  
HETATM   36  H   UNL     1      -6.537  14.661  66.771  1.00  0.00     0.000 HD 
HETATM   37  C   UNL     1      -8.472  15.579  68.276  1.00  0.00    -0.156 C  
HETATM   38  H1  UNL     1      -6.650  16.428  67.766  1.00  0.00     0.000 HD 
HETATM   39  O   UNL     1      -9.950  17.026  69.565  1.00  0.00    -0.131 OA 
HETATM   40  H   UNL     1      -9.398  17.773  69.368  1.00  0.00     0.000 HD 
HETATM   41  H2  UNL     1      -7.656  17.467  68.640  1.00  0.00     0.000 HD 
HETATM   42  C   UNL     1      -8.470  14.501  67.179  1.00  0.00    -0.212 C  
HETATM   43  N   UNL     1      -7.609  16.735  67.932  1.00  0.00    -0.166 NA 
HETATM   44  O   UNL     1      -7.157  13.968  66.966  1.00  0.00    -0.012 OA 
BRANCH  34  45
HETATM   45  C   UNL     1     -12.262  15.287  69.063  1.00  0.00    -0.124 C  
HETATM   46  O   UNL     1     -12.402  15.954  70.318  1.00  0.00    -0.362 OA 
HETATM   47  H   UNL     1     -13.299  16.235  70.452  1.00  0.00     0.000 HD 
ENDBRANCH  34  45
ENDBRANCH  31  32
ENDBRANCH  25  31
ENDBRANCH  16  17
ENDBRANCH   7  16
ENDBRANCH   2   5
TORSDOF 6
ENDMDL
MODEL      243
REMARK 921   NORMALIZED FREE ENERGY PREDICTED BY IDOCK:   -3.83 KCAL/MOL
REMARK 922        TOTAL FREE ENERGY PREDICTED BY IDOCK:   -6.23 KCAL/MOL
REMARK 923 INTER-LIGAND FREE ENERGY PREDICTED BY IDOCK:   -5.03 KCAL/MOL
REMARK 924 INTRA-LIGAND FREE ENERGY PREDICTED BY IDOCK:   -1.19 KCAL/MOL
REMARK 927      BINDING AFFINITY PREDICTED BY RF-SCORE:    0.00 PKD
ROOT
HETATM    1  N   UNL     1      -6.809  10.619  64.430  1.00  0.00    -0.352 NA 
HETATM    2  C   UNL     1      -7.893  10.079  65.264  1.00  0.00    -0.138 C  
HETATM    3  H2  UNL     1      -6.904  11.628  64.311  1.00  0.00     0.000 HD 
HETATM    4  H1  UNL     1      -5.887  10.376  64.790  1.00  0.00     0.000 HD 
ENDROOT
BRANCH   2   5
HETATM    5  C   UNL     1      -9.294  10.448  64.716  1.00  0.00    -0.251 C  
HETATM    6  O   UNL     1     -10.353   9.980  65.566  1.00  0.00    -0.241 OA 
HETATM    7  C   UNL     1     -10.452  10.634  66.821  1.00  0.00    -0.247 C  
HETATM    8  C   UNL     1     -10.739  12.156  66.607  1.00  0.00    -0.246 C  
HETATM    9  C   UNL     1      -9.435  11.955  64.424  1.00  0.00     0.092 C  
HETATM   10  N   UNL     1     -12.068  12.409  66.009  1.00  0.00    -0.638 NA 
HETATM   11  C   UNL     1      -9.646  12.765  65.708  1.00  0.00    -0.102 C  
HETATM   12  H   UNL     1     -10.636  13.065  63.361  1.00  0.00     0.000 HD 
HETATM   13  H1  UNL     1     -12.256  13.402  65.870  1.00  0.00     0.000 HD 
HETATM   14  H2  UNL     1     -12.806  11.971  66.561  1.00  0.00     0.000 HD 
HETATM   15  O   UNL     1     -10.549  12.136  63.541  1.00  0.00    -0.414 OA 
BRANCH   7  16
HETATM   16  O   UNL     1     -11.507  10.051  67.604  1.00  0.00    -0.192 OA 
BRANCH  16  17
HETATM   17  C   UNL     1     -11.105   9.250  68.753  1.00  0.00     0.096 C  
HETATM   18  N   UNL     1     -11.388  11.088  70.401  1.00  0.00    -0.467 NA 
HETATM   19  C   UNL     1     -10.020   9.199  71.037  1.00  0.00    -0.367 C  
HETATM   20  H1  UNL     1     -10.957  11.638  71.144  1.00  0.00     0.000 HD 
HETATM   21  H2  UNL     1     -12.263  10.664  70.708  1.00  0.00     0.000 HD 
HETATM   22  C   UNL     1      -9.036   8.120  70.583  1.00  0.00    -0.149 C  
HETATM   23  C   UNL     1     -10.452  10.081  69.877  1.00  0.00    -0.274 C  
HETATM   24  N   UNL     1      -8.607   7.427  71.810  1.00  0.00    -0.114 NA 
HETATM   25  C   UNL     1      -9.671   7.172  69.518  1.00  0.00    -0.157 C  
HETATM   26  H   UNL     1     -10.686   6.354  67.348  1.00  0.00     0.000 HD 
HETATM   27  H1  UNL     1      -7.950   6.708  71.507  1.00  0.00     0.000 HD 
HETATM   28  C   UNL     1     -10.293   7.989  68.345  1.00  0.00    -0.199 C  
HETATM   29  H2  UNL     1      -9.382   7.064  72.366  1.00  0.00     0.000 HD 
HETATM   30  O   UNL     1     -11.182   7.125  67.597  1.00  0.00    -0.108 OA 
BRANCH  25  31
HETATM   31  O   UNL     1      -8.701   6.259  68.915  1.00  0.00    -0.124 OA 
BRANCH  31  32
HETATM   32  C   UNL     1      -7.355   6.400  69.387  1.00  0.00    -0.092 C  
HETATM   33  O   UNL     1      -7.028   5.451  70.410  1.00  0.00    -0.053 OA 
HETATM   34  C   UNL     1      -6.972   4.099  69.925  1.00  0.00    -0.042 C  
HETATM   35  C   UNL     1      -5.887   3.961  68.845  1.00  0.00    -0.022 C  
HETATM   36  H   UNL     1      -6.084   7.234  66.461  1.00  0.00     0.000 HD 
HETATM   37  C   UNL     1      -6.184   4.916  67.673  1.00  0.00    -0.039 C  
HETATM   38  H1  UNL     1      -5.322   5.448  65.864  1.00  0.00     0.000 HD 
HETATM   39  O   UNL     1      -5.768   2.618  68.367  1.00  0.00    -0.021 OA 
HETATM   40  H   UNL     1      -5.098   2.532  67.699  1.00  0.00     0.000 HD 
HETATM   41  H2  UNL     1      -4.994   3.856  66.322  1.00  0.00     0.000 HD 
HETATM   42  C   UNL     1      -6.339   6.347  68.215  1.00  0.00    -0.040 C  
HETATM   43  N   UNL     1      -5.125   4.816  66.640  1.00  0.00    -0.008 NA 
HETATM   44  O   UNL     1      -6.706   7.267  67.179  1.00  0.00    -0.063 OA 
BRANCH  34  45
HETATM   45  C   UNL     1      -6.659   3.173  71.109  1.00  0.00    -0.030 C  
HETATM   46  O   UNL     1      -7.291   1.905  70.941  1.00  0.00    -0.033 OA 
HETATM   47  H   UNL     1      -7.098   1.332  71.673  1.00  0.00     0.000 HD 
ENDBRANCH  34  45
ENDBRANCH  31  32
ENDBRANCH  25  31
ENDBRANCH  16  17
ENDBRANCH   7  16
ENDBRANCH   2   5
TORSDOF 6
ENDMDL
MODEL      244
REMARK 921   NORMALIZED FREE ENERGY PREDICTED BY IDOCK:   -3.82 KCAL/MOL
REMARK 922        TOTAL FREE ENERGY PREDICTED BY IDOCK:   -6.21 KCAL/MOL
REMARK 923 INTER-LIGAND FREE ENERGY PREDICTED BY IDOCK:   -6.04 KCAL/MOL
REMARK 924 INTRA-LIGAND FREE ENERGY PREDICTED BY IDOCK:   -0.18 KCAL/MOL
REMARK 927      BINDING AFFINITY PREDICTED BY RF-SCORE:    0.00 PKD
ROOT
HETATM    1  N   UNL     1      -7.804  16.602  67.750  1.00  0.00    -0.162 NA 
HETATM    2  C   UNL     1      -8.672  16.196  68.865  1.00  0.00    -0.248 C  
HETATM    3  H2  UNL     1      -8.027  17.546  67.435  1.00  0.00     0.000 HD 
HETATM    4  H1  UNL     1      -6.815  16.514  67.978  1.00  0.00     0.000 HD 
ENDROOT
BRANCH   2   5
HETATM    5  C   UNL     1     -10.176  16.330  68.517  1.00  0.00    -0.247 C  
HETATM    6  O   UNL     1     -10.480  15.826  67.207  1.00  0.00    -0.294 OA 
HETATM    7  C   UNL     1     -10.368  14.419  67.062  1.00  0.00    -0.263 C  
HETATM    8  C   UNL     1     -11.373  13.703  68.022  1.00  0.00    -0.285 C  
HETATM    9  C   UNL     1     -11.087  15.696  69.587  1.00  0.00    -0.299 C  
HETATM   10  N   UNL     1     -12.785  13.949  67.659  1.00  0.00    -0.062 NA 
HETATM   11  C   UNL     1     -11.124  14.168  69.469  1.00  0.00    -0.222 C  
HETATM   12  H   UNL     1     -12.968  15.842  70.084  1.00  0.00     0.000 HD 
HETATM   13  H1  UNL     1     -13.441  13.482  68.285  1.00  0.00     0.000 HD 
HETATM   14  H2  UNL     1     -12.963  13.695  66.687  1.00  0.00     0.000 HD 
HETATM   15  O   UNL     1     -12.406  16.233  69.424  1.00  0.00     0.003 OA 
BRANCH   7  16
HETATM   16  O   UNL     1     -10.643  14.036  65.704  1.00  0.00    -0.287 OA 
BRANCH  16  17
HETATM   17  C   UNL     1      -9.921  12.879  65.189  1.00  0.00    -0.157 C  
HETATM   18  N   UNL     1     -11.391  12.578  63.208  1.00  0.00    -0.719 NA 
HETATM   19  C   UNL     1     -10.026  10.706  63.901  1.00  0.00    -0.390 C  
HETATM   20  H1  UNL     1     -11.982  11.938  62.678  1.00  0.00     0.000 HD 
HETATM   21  H2  UNL     1     -10.668  12.995  62.622  1.00  0.00     0.000 HD 
HETATM   22  C   UNL     1      -9.392   9.945  65.065  1.00  0.00    -0.264 C  
HETATM   23  C   UNL     1     -10.815  11.911  64.387  1.00  0.00    -0.332 C  
HETATM   24  N   UNL     1      -8.772   8.747  64.473  1.00  0.00    -0.378 NA 
HETATM   25  C   UNL     1      -8.390  10.839  65.860  1.00  0.00    -0.162 C  
HETATM   26  H   UNL     1      -7.485  12.695  67.326  1.00  0.00     0.000 HD 
HETATM   27  H1  UNL     1      -8.350   8.239  65.250  1.00  0.00     0.000 HD 
HETATM   28  C   UNL     1      -9.054  12.187  66.278  1.00  0.00    -0.141 C  
HETATM   29  H2  UNL     1      -8.118   8.957  63.718  1.00  0.00     0.000 HD 
HETATM   30  O   UNL     1      -8.015  13.118  66.661  1.00  0.00     0.166 OA 
BRANCH  25  31
HETATM   31  O   UNL     1      -7.921  10.212  67.095  1.00  0.00    -0.108 OA 
BRANCH  31  32
HETATM   32  C   UNL     1      -6.500  10.226  67.286  1.00  0.00    -0.067 C  
HETATM   33  O   UNL     1      -6.071  11.287  68.148  1.00  0.00    -0.046 OA 
HETATM   34  C   UNL     1      -6.494  11.109  69.511  1.00  0.00    -0.117 C  
HETATM   35  C   UNL     1      -5.904   9.815  70.092  1.00  0.00    -0.047 C  
HETATM   36  H   UNL     1      -6.147   6.948  67.235  1.00  0.00     0.000 HD 
HETATM   37  C   UNL     1      -6.356   8.605  69.251  1.00  0.00    -0.042 C  
HETATM   38  H1  UNL     1      -6.063   6.552  69.226  1.00  0.00     0.000 HD 
HETATM   39  O   UNL     1      -6.264   9.624  71.463  1.00  0.00    -0.245 OA 
HETATM   40  H   UNL     1      -5.900   8.823  71.822  1.00  0.00     0.000 HD 
HETATM   41  H2  UNL     1      -5.972   7.226  70.773  1.00  0.00     0.000 HD 
HETATM   42  C   UNL     1      -5.985   8.847  67.778  1.00  0.00    -0.047 C  
HETATM   43  N   UNL     1      -5.764   7.353  69.783  1.00  0.00    -0.023 NA 
HETATM   44  O   UNL     1      -6.462   7.792  66.934  1.00  0.00    -0.052 OA 
BRANCH  34  45
HETATM   45  C   UNL     1      -6.017  12.320  70.326  1.00  0.00    -0.138 C  
HETATM   46  O   UNL     1      -5.632  11.924  71.642  1.00  0.00    -0.364 OA 
HETATM   47  H   UNL     1      -5.337  12.673  72.147  1.00  0.00     0.000 HD 
ENDBRANCH  34  45
ENDBRANCH  31  32
ENDBRANCH  25  31
ENDBRANCH  16  17
ENDBRANCH   7  16
ENDBRANCH   2   5
TORSDOF 6
ENDMDL
MODEL      245
REMARK 921   NORMALIZED FREE ENERGY PREDICTED BY IDOCK:   -3.80 KCAL/MOL
REMARK 922        TOTAL FREE ENERGY PREDICTED BY IDOCK:   -6.19 KCAL/MOL
REMARK 923 INTER-LIGAND FREE ENERGY PREDICTED BY IDOCK:   -5.81 KCAL/MOL
REMARK 924 INTRA-LIGAND FREE ENERGY PREDICTED BY IDOCK:   -0.38 KCAL/MOL
REMARK 927      BINDING AFFINITY PREDICTED BY RF-SCORE:    0.00 PKD
ROOT
HETATM    1  N   UNL     1     -11.712   9.163  70.327  1.00  0.00    -0.466 NA 
HETATM    2  C   UNL     1     -10.314   9.103  69.876  1.00  0.00    -0.212 C  
HETATM    3  H2  UNL     1     -12.354   9.176  69.535  1.00  0.00     0.000 HD 
HETATM    4  H1  UNL     1     -11.941   8.410  70.975  1.00  0.00     0.000 HD 
ENDROOT
BRANCH   2   5
HETATM    5  C   UNL     1      -9.966  10.247  68.891  1.00  0.00    -0.201 C  
HETATM    6  O   UNL     1      -8.551  10.374  68.679  1.00  0.00    -0.119 OA 
HETATM    7  C   UNL     1      -7.951   9.306  67.963  1.00  0.00    -0.100 C  
HETATM    8  C   UNL     1      -8.574   9.210  66.532  1.00  0.00    -0.127 C  
HETATM    9  C   UNL     1     -10.723  10.126  67.554  1.00  0.00    -0.290 C  
HETATM   10  N   UNL     1      -8.252  10.381  65.688  1.00  0.00    -0.154 NA 
HETATM   11  C   UNL     1     -10.103   9.060  66.644  1.00  0.00    -0.355 C  
HETATM   12  H   UNL     1     -11.158  11.329  66.081  1.00  0.00     0.000 HD 
HETATM   13  H1  UNL     1      -8.658  10.318  64.754  1.00  0.00     0.000 HD 
HETATM   14  H2  UNL     1      -7.244  10.531  65.639  1.00  0.00     0.000 HD 
HETATM   15  O   UNL     1     -10.691  11.403  66.905  1.00  0.00    -0.240 OA 
BRANCH   7  16
HETATM   16  O   UNL     1      -6.533   9.513  67.858  1.00  0.00    -0.060 OA 
BRANCH  16  17
HETATM   17  C   UNL     1      -5.984  10.666  68.560  1.00  0.00    -0.039 C  
HETATM   18  N   UNL     1      -5.529   9.431  70.668  1.00  0.00    -0.035 NA 
HETATM   19  C   UNL     1      -5.640  11.844  70.771  1.00  0.00    -0.118 C  
HETATM   20  H1  UNL     1      -5.670   9.392  71.678  1.00  0.00     0.000 HD 
HETATM   21  H2  UNL     1      -4.539   9.404  70.426  1.00  0.00     0.000 HD 
HETATM   22  C   UNL     1      -6.285  13.121  70.231  1.00  0.00    -0.004 C  
HETATM   23  C   UNL     1      -6.197  10.607  70.087  1.00  0.00    -0.125 C  
HETATM   24  N   UNL     1      -5.754  14.220  71.056  1.00  0.00    -0.188 NA 
HETATM   25  C   UNL     1      -6.016  13.300  68.703  1.00  0.00    -0.083 C  
HETATM   26  H   UNL     1      -6.065  12.897  66.204  1.00  0.00     0.000 HD 
HETATM   27  H1  UNL     1      -6.185  15.071  70.696  1.00  0.00     0.000 HD 
HETATM   28  C   UNL     1      -6.409  12.014  67.914  1.00  0.00    -0.073 C  
HETATM   29  H2  UNL     1      -4.735  14.257  71.080  1.00  0.00     0.000 HD 
HETATM   30  O   UNL     1      -5.806  12.073  66.599  1.00  0.00    -0.253 OA 
BRANCH  25  31
HETATM   31  O   UNL     1      -6.784  14.396  68.113  1.00  0.00    -0.099 OA 
BRANCH  31  32
HETATM   32  C   UNL     1      -7.665  15.079  69.013  1.00  0.00    -0.170 C  
HETATM   33  O   UNL     1      -7.144  16.344  69.441  1.00  0.00    -0.221 OA 
HETATM   34  C   UNL     1      -7.087  17.313  68.381  1.00  0.00    -0.209 C  
HETATM   35  C   UNL     1      -8.493  17.589  67.828  1.00  0.00    -0.225 C  
HETATM   36  H   UNL     1     -10.445  14.045  67.573  1.00  0.00     0.000 HD 
HETATM   37  C   UNL     1      -9.118  16.284  67.297  1.00  0.00    -0.203 C  
HETATM   38  H1  UNL     1     -10.903  15.668  66.441  1.00  0.00     0.000 HD 
HETATM   39  O   UNL     1      -8.485  18.585  66.801  1.00  0.00    -0.264 OA 
HETATM   40  H   UNL     1      -9.355  18.755  66.458  1.00  0.00     0.000 HD 
HETATM   41  H2  UNL     1     -10.508  17.274  66.092  1.00  0.00     0.000 HD 
HETATM   42  C   UNL     1      -9.087  15.222  68.409  1.00  0.00    -0.189 C  
HETATM   43  N   UNL     1     -10.490  16.533  66.793  1.00  0.00    -0.292 NA 
HETATM   44  O   UNL     1      -9.574  13.957  67.943  1.00  0.00    -0.213 OA 
BRANCH  34  45
HETATM   45  C   UNL     1      -6.476  18.606  68.942  1.00  0.00    -0.245 C  
HETATM   46  O   UNL     1      -7.485  19.433  69.521  1.00  0.00    -0.237 OA 
HETATM   47  H   UNL     1      -7.108  20.232  69.868  1.00  0.00     0.000 HD 
ENDBRANCH  34  45
ENDBRANCH  31  32
ENDBRANCH  25  31
ENDBRANCH  16  17
ENDBRANCH   7  16
ENDBRANCH   2   5
TORSDOF 6
ENDMDL
MODEL      246
REMARK 921   NORMALIZED FREE ENERGY PREDICTED BY IDOCK:   -3.79 KCAL/MOL
REMARK 922        TOTAL FREE ENERGY PREDICTED BY IDOCK:   -6.18 KCAL/MOL
REMARK 923 INTER-LIGAND FREE ENERGY PREDICTED BY IDOCK:   -7.56 KCAL/MOL
REMARK 924 INTRA-LIGAND FREE ENERGY PREDICTED BY IDOCK:    1.38 KCAL/MOL
REMARK 927      BINDING AFFINITY PREDICTED BY RF-SCORE:    0.00 PKD
ROOT
HETATM    1  N   UNL     1     -10.968  16.166  64.094  1.00  0.00    -1.039 NA 
HETATM    2  C   UNL     1     -10.209  15.586  65.212  1.00  0.00    -0.346 C  
HETATM    3  H2  UNL     1     -11.939  15.856  64.108  1.00  0.00     0.000 HD 
HETATM    4  H1  UNL     1     -10.907  17.183  64.073  1.00  0.00     0.000 HD 
ENDROOT
BRANCH   2   5
HETATM    5  C   UNL     1     -10.302  14.039  65.244  1.00  0.00    -0.383 C  
HETATM    6  O   UNL     1      -9.979  13.499  66.535  1.00  0.00    -0.272 OA 
HETATM    7  C   UNL     1     -10.924  13.776  67.556  1.00  0.00    -0.272 C  
HETATM    8  C   UNL     1     -12.309  13.152  67.184  1.00  0.00    -0.031 C  
HETATM    9  C   UNL     1     -11.665  13.520  64.744  1.00  0.00    -0.370 C  
HETATM   10  N   UNL     1     -12.283  11.673  67.165  1.00  0.00    -0.081 NA 
HETATM   11  C   UNL     1     -12.758  13.677  65.808  1.00  0.00    -0.470 C  
HETATM   12  H   UNL     1     -12.355  11.817  64.088  1.00  0.00     0.000 HD 
HETATM   13  H1  UNL     1     -13.186  11.266  66.923  1.00  0.00     0.000 HD 
HETATM   14  H2  UNL     1     -11.940  11.302  68.051  1.00  0.00     0.000 HD 
HETATM   15  O   UNL     1     -11.515  12.138  64.396  1.00  0.00    -0.324 OA 
BRANCH   7  16
HETATM   16  O   UNL     1     -10.473  13.235  68.810  1.00  0.00    -0.232 OA 
BRANCH  16  17
HETATM   17  C   UNL     1     -11.345  12.261  69.455  1.00  0.00    -0.187 C  
HETATM   18  N   UNL     1     -12.961  13.951  70.298  1.00  0.00    -0.214 NA 
HETATM   19  C   UNL     1     -12.958  11.769  71.339  1.00  0.00    -0.408 C  
HETATM   20  H1  UNL     1     -13.453  14.326  71.108  1.00  0.00     0.000 HD 
HETATM   21  H2  UNL     1     -13.608  13.687  69.554  1.00  0.00     0.000 HD 
HETATM   22  C   UNL     1     -12.130  10.561  71.779  1.00  0.00     0.068 C  
HETATM   23  C   UNL     1     -12.089  12.829  70.682  1.00  0.00    -0.228 C  
HETATM   24  N   UNL     1     -13.061   9.679  72.504  1.00  0.00    -0.503 NA 
HETATM   25  C   UNL     1     -11.431   9.870  70.566  1.00  0.00    -0.318 C  
HETATM   26  H   UNL     1      -9.890   9.491  68.593  1.00  0.00     0.000 HD 
HETATM   27  H1  UNL     1     -12.508   8.873  72.798  1.00  0.00     0.000 HD 
HETATM   28  C   UNL     1     -10.631  10.906  69.719  1.00  0.00    -0.074 C  
HETATM   29  H2  UNL     1     -13.891   9.431  71.966  1.00  0.00     0.000 HD 
HETATM   30  O   UNL     1     -10.326  10.319  68.432  1.00  0.00    -0.162 OA 
BRANCH  25  31
HETATM   31  O   UNL     1     -10.474   8.841  70.969  1.00  0.00    -0.202 OA 
BRANCH  31  32
HETATM   32  C   UNL     1      -9.234   8.845  70.251  1.00  0.00    -0.185 C  
HETATM   33  O   UNL     1      -8.105   9.072  71.105  1.00  0.00    -0.161 OA 
HETATM   34  C   UNL     1      -7.856   7.981  72.007  1.00  0.00    -0.105 C  
HETATM   35  C   UNL     1      -7.554   6.694  71.224  1.00  0.00    -0.093 C  
HETATM   36  H   UNL     1     -10.116   6.520  68.087  1.00  0.00     0.000 HD 
HETATM   37  C   UNL     1      -8.742   6.342  70.308  1.00  0.00    -0.143 C  
HETATM   38  H1  UNL     1      -9.234   4.888  68.914  1.00  0.00     0.000 HD 
HETATM   39  O   UNL     1      -7.255   5.593  72.086  1.00  0.00    -0.084 OA 
HETATM   40  H   UNL     1      -7.069   4.797  71.602  1.00  0.00     0.000 HD 
HETATM   41  H2  UNL     1      -8.186   4.338  70.119  1.00  0.00     0.000 HD 
HETATM   42  C   UNL     1      -9.064   7.551  69.412  1.00  0.00    -0.142 C  
HETATM   43  N   UNL     1      -8.448   5.120  69.520  1.00  0.00    -0.092 NA 
HETATM   44  O   UNL     1     -10.220   7.312  68.600  1.00  0.00    -0.172 OA 
BRANCH  34  45
HETATM   45  C   UNL     1      -6.659   8.352  72.894  1.00  0.00    -0.092 C  
HETATM   46  O   UNL     1      -6.254   9.701  72.660  1.00  0.00    -0.239 OA 
HETATM   47  H   UNL     1      -5.514   9.931  73.210  1.00  0.00     0.000 HD 
ENDBRANCH  34  45
ENDBRANCH  31  32
ENDBRANCH  25  31
ENDBRANCH  16  17
ENDBRANCH   7  16
ENDBRANCH   2   5
TORSDOF 6
ENDMDL
MODEL      247
REMARK 921   NORMALIZED FREE ENERGY PREDICTED BY IDOCK:   -3.78 KCAL/MOL
REMARK 922        TOTAL FREE ENERGY PREDICTED BY IDOCK:   -6.16 KCAL/MOL
REMARK 923 INTER-LIGAND FREE ENERGY PREDICTED BY IDOCK:   -5.76 KCAL/MOL
REMARK 924 INTRA-LIGAND FREE ENERGY PREDICTED BY IDOCK:   -0.40 KCAL/MOL
REMARK 927      BINDING AFFINITY PREDICTED BY RF-SCORE:    0.00 PKD
ROOT
HETATM    1  N   UNL     1     -12.342  10.036  71.960  1.00  0.00    -0.256 NA 
HETATM    2  C   UNL     1     -11.420  10.090  70.817  1.00  0.00    -0.356 C  
HETATM    3  H2  UNL     1     -12.065   9.313  72.623  1.00  0.00     0.000 HD 
HETATM    4  H1  UNL     1     -12.439  10.940  72.421  1.00  0.00     0.000 HD 
ENDROOT
BRANCH   2   5
HETATM    5  C   UNL     1     -11.273   8.716  70.116  1.00  0.00    -0.146 C  
HETATM    6  O   UNL     1     -10.567   8.811  68.869  1.00  0.00    -0.215 OA 
HETATM    7  C   UNL     1      -9.188   9.126  68.981  1.00  0.00    -0.143 C  
HETATM    8  C   UNL     1      -8.450   8.007  69.787  1.00  0.00    -0.127 C  
HETATM    9  C   UNL     1     -10.645   7.650  71.036  1.00  0.00    -0.217 C  
HETATM   10  N   UNL     1      -8.426   6.711  69.074  1.00  0.00    -0.129 NA 
HETATM   11  C   UNL     1      -9.127   7.828  71.158  1.00  0.00    -0.152 C  
HETATM   12  H   UNL     1     -10.557   5.701  71.057  1.00  0.00     0.000 HD 
HETATM   13  H1  UNL     1      -7.944   5.981  69.600  1.00  0.00     0.000 HD 
HETATM   14  H2  UNL     1      -8.026   6.814  68.141  1.00  0.00     0.000 HD 
HETATM   15  O   UNL     1     -10.944   6.358  70.491  1.00  0.00    -0.261 OA 
BRANCH   7  16
HETATM   16  O   UNL     1      -8.599   9.247  67.675  1.00  0.00    -0.116 OA 
BRANCH  16  17
HETATM   17  C   UNL     1      -8.103  10.565  67.299  1.00  0.00    -0.115 C  
HETATM   18  N   UNL     1      -6.170   9.699  65.999  1.00  0.00    -0.063 NA 
HETATM   19  C   UNL     1      -6.103  12.003  66.730  1.00  0.00     0.028 C  
HETATM   20  H1  UNL     1      -5.160   9.725  65.859  1.00  0.00     0.000 HD 
HETATM   21  H2  UNL     1      -6.674   9.901  65.136  1.00  0.00     0.000 HD 
HETATM   22  C   UNL     1      -6.478  13.014  67.814  1.00  0.00    -0.148 C  
HETATM   23  C   UNL     1      -6.575  10.603  67.087  1.00  0.00    -0.076 C  
HETATM   24  N   UNL     1      -5.858  14.287  67.407  1.00  0.00    -0.312 NA 
HETATM   25  C   UNL     1      -8.024  13.105  68.006  1.00  0.00    -0.156 C  
HETATM   26  H   UNL     1     -10.403  12.460  68.585  1.00  0.00     0.000 HD 
HETATM   27  H1  UNL     1      -6.108  14.961  68.131  1.00  0.00     0.000 HD 
HETATM   28  C   UNL     1      -8.643  11.690  68.225  1.00  0.00    -0.162 C  
HETATM   29  H2  UNL     1      -6.115  14.584  66.466  1.00  0.00     0.000 HD 
HETATM   30  O   UNL     1     -10.073  11.771  68.019  1.00  0.00    -0.181 OA 
BRANCH  25  31
HETATM   31  O   UNL     1      -8.409  13.906  69.167  1.00  0.00     0.110 OA 
BRANCH  31  32
HETATM   32  C   UNL     1      -8.942  15.202  68.866  1.00  0.00    -0.206 C  
HETATM   33  O   UNL     1      -8.994  15.462  67.457  1.00  0.00    -0.178 OA 
HETATM   34  C   UNL     1      -9.955  14.643  66.770  1.00  0.00    -0.261 C  
HETATM   35  C   UNL     1     -11.369  14.905  67.311  1.00  0.00    -0.349 C  
HETATM   36  H   UNL     1     -11.116  15.230  71.344  1.00  0.00     0.000 HD 
HETATM   37  C   UNL     1     -11.422  14.603  68.821  1.00  0.00    -0.296 C  
HETATM   38  H1  UNL     1     -12.808  14.686  70.360  1.00  0.00     0.000 HD 
HETATM   39  O   UNL     1     -12.363  14.141  66.621  1.00  0.00    -0.485 OA 
HETATM   40  H   UNL     1     -13.237  14.303  66.956  1.00  0.00     0.000 HD 
HETATM   41  H2  UNL     1     -13.499  14.385  68.848  1.00  0.00     0.000 HD 
HETATM   42  C   UNL     1     -10.326  15.412  69.536  1.00  0.00    -0.266 C  
HETATM   43  N   UNL     1     -12.774  14.886  69.361  1.00  0.00     0.085 NA 
HETATM   44  O   UNL     1     -10.269  15.101  70.934  1.00  0.00     0.134 OA 
BRANCH  34  45
HETATM   45  C   UNL     1      -9.891  14.976  65.273  1.00  0.00    -0.214 C  
HETATM   46  O   UNL     1     -10.794  16.033  64.951  1.00  0.00    -0.534 OA 
HETATM   47  H   UNL     1     -10.755  16.240  64.024  1.00  0.00     0.000 HD 
ENDBRANCH  34  45
ENDBRANCH  31  32
ENDBRANCH  25  31
ENDBRANCH  16  17
ENDBRANCH   7  16
ENDBRANCH   2   5
TORSDOF 6
ENDMDL
MODEL      248
REMARK 921   NORMALIZED FREE ENERGY PREDICTED BY IDOCK:   -3.74 KCAL/MOL
REMARK 922        TOTAL FREE ENERGY PREDICTED BY IDOCK:   -6.10 KCAL/MOL
REMARK 923 INTER-LIGAND FREE ENERGY PREDICTED BY IDOCK:   -6.29 KCAL/MOL
REMARK 924 INTRA-LIGAND FREE ENERGY PREDICTED BY IDOCK:    0.19 KCAL/MOL
REMARK 927      BINDING AFFINITY PREDICTED BY RF-SCORE:    0.00 PKD
ROOT
HETATM    1  N   UNL     1      -9.859  19.295  66.748  1.00  0.00    -0.329 NA 
HETATM    2  C   UNL     1     -10.097  17.882  66.419  1.00  0.00    -0.369 C  
HETATM    3  H2  UNL     1      -9.363  19.388  67.634  1.00  0.00     0.000 HD 
HETATM    4  H1  UNL     1      -9.372  19.789  66.001  1.00  0.00     0.000 HD 
ENDROOT
BRANCH   2   5
HETATM    5  C   UNL     1     -10.836  17.131  67.555  1.00  0.00    -0.203 C  
HETATM    6  O   UNL     1     -11.302  15.837  67.141  1.00  0.00    -0.190 OA 
HETATM    7  C   UNL     1     -10.283  14.880  66.901  1.00  0.00    -0.254 C  
HETATM    8  C   UNL     1      -9.472  14.624  68.213  1.00  0.00    -0.211 C  
HETATM    9  C   UNL     1      -9.997  17.039  68.844  1.00  0.00    -0.285 C  
HETATM   10  N   UNL     1     -10.280  13.974  69.267  1.00  0.00    -0.433 NA 
HETATM   11  C   UNL     1      -8.913  15.959  68.741  1.00  0.00    -0.216 C  
HETATM   12  H   UNL     1     -10.364  16.686  70.728  1.00  0.00     0.000 HD 
HETATM   13  H1  UNL     1      -9.750  13.807  70.124  1.00  0.00     0.000 HD 
HETATM   14  H2  UNL     1     -10.701  13.111  68.924  1.00  0.00     0.000 HD 
HETATM   15  O   UNL     1     -10.881  16.743  69.933  1.00  0.00    -0.309 OA 
BRANCH   7  16
HETATM   16  O   UNL     1     -10.861  13.645  66.444  1.00  0.00    -0.288 OA 
BRANCH  16  17
HETATM   17  C   UNL     1     -10.043  12.827  65.556  1.00  0.00    -0.264 C  
HETATM   18  N   UNL     1     -10.813  13.944  63.474  1.00  0.00     0.245 NA 
HETATM   19  C   UNL     1      -9.790  11.762  63.277  1.00  0.00    -0.402 C  
HETATM   20  H1  UNL     1     -11.221  13.825  62.546  1.00  0.00     0.000 HD 
HETATM   21  H2  UNL     1      -9.930  14.453  63.433  1.00  0.00     0.000 HD 
HETATM   22  C   UNL     1      -9.581  10.384  63.906  1.00  0.00    -0.312 C  
HETATM   23  C   UNL     1     -10.661  12.647  64.153  1.00  0.00    -0.407 C  
HETATM   24  N   UNL     1      -8.837   9.595  62.908  1.00  0.00    -0.234 NA 
HETATM   25  C   UNL     1      -8.861  10.485  65.287  1.00  0.00    -0.188 C  
HETATM   26  H   UNL     1      -8.421  11.032  67.719  1.00  0.00     0.000 HD 
HETATM   27  H1  UNL     1      -8.698   8.676  63.328  1.00  0.00     0.000 HD 
HETATM   28  C   UNL     1      -9.587  11.499  66.222  1.00  0.00    -0.218 C  
HETATM   29  H2  UNL     1      -7.971  10.039  62.601  1.00  0.00     0.000 HD 
HETATM   30  O   UNL     1      -8.700  11.844  67.313  1.00  0.00    -0.158 OA 
BRANCH  25  31
HETATM   31  O   UNL     1      -8.826   9.213  66.007  1.00  0.00    -0.148 OA 
BRANCH  31  32
HETATM   32  C   UNL     1      -7.567   8.528  65.980  1.00  0.00    -0.089 C  
HETATM   33  O   UNL     1      -7.101   8.182  67.290  1.00  0.00    -0.076 OA 
HETATM   34  C   UNL     1      -7.906   7.174  67.924  1.00  0.00    -0.114 C  
HETATM   35  C   UNL     1      -7.890   5.876  67.101  1.00  0.00    -0.102 C  
HETATM   36  H   UNL     1      -8.165   6.886  63.184  1.00  0.00     0.000 HD 
HETATM   37  C   UNL     1      -8.425   6.145  65.681  1.00  0.00    -0.151 C  
HETATM   38  H1  UNL     1      -8.736   5.083  63.927  1.00  0.00     0.000 HD 
HETATM   39  O   UNL     1      -8.645   4.832  67.723  1.00  0.00    -0.103 OA 
HETATM   40  H   UNL     1      -8.635   4.030  67.214  1.00  0.00     0.000 HD 
HETATM   41  H2  UNL     1      -8.876   4.137  65.320  1.00  0.00     0.000 HD 
HETATM   42  C   UNL     1      -7.619   7.290  65.046  1.00  0.00    -0.107 C  
HETATM   43  N   UNL     1      -8.382   4.906  64.867  1.00  0.00    -0.131 NA 
HETATM   44  O   UNL     1      -8.133   7.644  63.756  1.00  0.00    -0.120 OA 
BRANCH  34  45
HETATM   45  C   UNL     1      -7.341   6.917  69.328  1.00  0.00    -0.092 C  
HETATM   46  O   UNL     1      -6.143   7.665  69.536  1.00  0.00    -0.029 OA 
HETATM   47  H   UNL     1      -5.793   7.506  70.405  1.00  0.00     0.000 HD 
ENDBRANCH  34  45
ENDBRANCH  31  32
ENDBRANCH  25  31
ENDBRANCH  16  17
ENDBRANCH   7  16
ENDBRANCH   2   5
TORSDOF 6
ENDMDL
MODEL      249
REMARK 921   NORMALIZED FREE ENERGY PREDICTED BY IDOCK:   -3.73 KCAL/MOL
REMARK 922        TOTAL FREE ENERGY PREDICTED BY IDOCK:   -6.09 KCAL/MOL
REMARK 923 INTER-LIGAND FREE ENERGY PREDICTED BY IDOCK:   -6.92 KCAL/MOL
REMARK 924 INTRA-LIGAND FREE ENERGY PREDICTED BY IDOCK:    0.83 KCAL/MOL
REMARK 927      BINDING AFFINITY PREDICTED BY RF-SCORE:    0.00 PKD
ROOT
HETATM    1  N   UNL     1      -9.242  17.613  65.842  1.00  0.00    -0.518 NA 
HETATM    2  C   UNL     1      -8.421  16.492  66.323  1.00  0.00    -0.328 C  
HETATM    3  H2  UNL     1     -10.168  17.602  66.271  1.00  0.00     0.000 HD 
HETATM    4  H1  UNL     1      -8.784  18.513  65.978  1.00  0.00     0.000 HD 
ENDROOT
BRANCH   2   5
HETATM    5  C   UNL     1      -9.118  15.124  66.116  1.00  0.00    -0.241 C  
HETATM    6  O   UNL     1      -9.306  14.414  67.351  1.00  0.00    -0.189 OA 
HETATM    7  C   UNL     1     -10.254  14.988  68.237  1.00  0.00    -0.222 C  
HETATM    8  C   UNL     1     -11.664  15.017  67.561  1.00  0.00    -0.253 C  
HETATM    9  C   UNL     1     -10.441  15.248  65.335  1.00  0.00    -0.398 C  
HETATM   10  N   UNL     1     -12.217  13.664  67.334  1.00  0.00    -0.374 NA 
HETATM   11  C   UNL     1     -11.577  15.771  66.221  1.00  0.00     0.421 C  
HETATM   12  H   UNL     1     -11.594  14.029  64.338  1.00  0.00     0.000 HD 
HETATM   13  H1  UNL     1     -13.137  13.683  66.893  1.00  0.00     0.000 HD 
HETATM   14  H2  UNL     1     -12.237  13.127  68.200  1.00  0.00     0.000 HD 
HETATM   15  O   UNL     1     -10.778  13.953  64.820  1.00  0.00    -0.382 OA 
BRANCH   7  16
HETATM   16  O   UNL     1     -10.319  14.227  69.455  1.00  0.00    -0.121 OA 
BRANCH  16  17
HETATM   17  C   UNL     1     -11.356  13.206  69.535  1.00  0.00    -0.160 C  
HETATM   18  N   UNL     1     -12.957  14.631  70.793  1.00  0.00    -0.400 NA 
HETATM   19  C   UNL     1     -13.290  12.236  70.844  1.00  0.00     0.506 C  
HETATM   20  H1  UNL     1     -13.547  14.720  71.620  1.00  0.00     0.000 HD 
HETATM   21  H2  UNL     1     -13.490  14.770  69.935  1.00  0.00     0.000 HD 
HETATM   22  C   UNL     1     -12.639  10.853  70.848  1.00  0.00    -0.397 C  
HETATM   23  C   UNL     1     -12.248  13.341  70.787  1.00  0.00    -0.308 C  
HETATM   24  N   UNL     1     -13.740   9.891  71.031  1.00  0.00    -0.367 NA 
HETATM   25  C   UNL     1     -11.803  10.607  69.552  1.00  0.00    -0.273 C  
HETATM   26  H   UNL     1      -9.990  10.828  67.799  1.00  0.00     0.000 HD 
HETATM   27  H1  UNL     1     -13.306   8.968  71.034  1.00  0.00     0.000 HD 
HETATM   28  C   UNL     1     -10.798  11.773  69.307  1.00  0.00    -0.133 C  
HETATM   29  H2  UNL     1     -14.487   9.989  70.342  1.00  0.00     0.000 HD 
HETATM   30  O   UNL     1     -10.330  11.704  67.939  1.00  0.00    -0.181 OA 
BRANCH  25  31
HETATM   31  O   UNL     1     -11.006   9.382  69.611  1.00  0.00    -0.239 OA 
BRANCH  31  32
HETATM   32  C   UNL     1      -9.844   9.450  70.447  1.00  0.00    -0.259 C  
HETATM   33  O   UNL     1     -10.114   9.054  71.798  1.00  0.00    -0.326 OA 
HETATM   34  C   UNL     1     -10.417   7.655  71.923  1.00  0.00    -0.215 C  
HETATM   35  C   UNL     1      -9.228   6.803  71.453  1.00  0.00    -0.153 C  
HETATM   36  H   UNL     1      -7.719   8.520  68.104  1.00  0.00     0.000 HD 
HETATM   37  C   UNL     1      -8.895   7.127  69.984  1.00  0.00    -0.142 C  
HETATM   38  H1  UNL     1      -7.506   6.550  68.556  1.00  0.00     0.000 HD 
HETATM   39  O   UNL     1      -9.473   5.402  71.604  1.00  0.00    -0.145 OA 
HETATM   40  H   UNL     1      -8.738   4.875  71.312  1.00  0.00     0.000 HD 
HETATM   41  H2  UNL     1      -7.866   5.336  69.674  1.00  0.00     0.000 HD 
HETATM   42  C   UNL     1      -8.666   8.642  69.841  1.00  0.00    -0.133 C  
HETATM   43  N   UNL     1      -7.726   6.336  69.529  1.00  0.00    -0.098 NA 
HETATM   44  O   UNL     1      -8.440   9.014  68.475  1.00  0.00    -0.126 OA 
BRANCH  34  45
HETATM   45  C   UNL     1     -10.729   7.358  73.397  1.00  0.00    -0.357 C  
HETATM   46  O   UNL     1     -10.914   5.958  73.604  1.00  0.00    -0.411 OA 
HETATM   47  H   UNL     1     -11.107   5.774  74.516  1.00  0.00     0.000 HD 
ENDBRANCH  34  45
ENDBRANCH  31  32
ENDBRANCH  25  31
ENDBRANCH  16  17
ENDBRANCH   7  16
ENDBRANCH   2   5
TORSDOF 6
ENDMDL
MODEL      250
REMARK 921   NORMALIZED FREE ENERGY PREDICTED BY IDOCK:   -3.73 KCAL/MOL
REMARK 922        TOTAL FREE ENERGY PREDICTED BY IDOCK:   -6.09 KCAL/MOL
REMARK 923 INTER-LIGAND FREE ENERGY PREDICTED BY IDOCK:   -7.20 KCAL/MOL
REMARK 924 INTRA-LIGAND FREE ENERGY PREDICTED BY IDOCK:    1.11 KCAL/MOL
REMARK 927      BINDING AFFINITY PREDICTED BY RF-SCORE:    0.00 PKD
ROOT
HETATM    1  N   UNL     1      -9.743  19.295  67.665  1.00  0.00    -0.316 NA 
HETATM    2  C   UNL     1      -8.911  19.149  68.869  1.00  0.00    -0.287 C  
HETATM    3  H2  UNL     1     -10.491  18.602  67.647  1.00  0.00     0.000 HD 
HETATM    4  H1  UNL     1     -10.113  20.240  67.564  1.00  0.00     0.000 HD 
ENDROOT
BRANCH   2   5
HETATM    5  C   UNL     1      -8.349  17.714  69.022  1.00  0.00    -0.032 C  
HETATM    6  O   UNL     1      -9.221  16.722  68.457  1.00  0.00    -0.227 OA 
HETATM    7  C   UNL     1      -9.322  16.745  67.042  1.00  0.00    -0.233 C  
HETATM    8  C   UNL     1      -7.920  16.472  66.404  1.00  0.00    -0.317 C  
HETATM    9  C   UNL     1      -6.916  17.580  68.470  1.00  0.00    -0.214 C  
HETATM   10  N   UNL     1      -7.430  15.102  66.667  1.00  0.00    -0.234 NA 
HETATM   11  C   UNL     1      -6.902  17.496  66.939  1.00  0.00    -0.220 C  
HETATM   12  H   UNL     1      -5.447  16.314  68.690  1.00  0.00     0.000 HD 
HETATM   13  H1  UNL     1      -6.515  14.923  66.251  1.00  0.00     0.000 HD 
HETATM   14  H2  UNL     1      -8.111  14.405  66.366  1.00  0.00     0.000 HD 
HETATM   15  O   UNL     1      -6.330  16.397  69.031  1.00  0.00    -0.145 OA 
BRANCH   7  16
HETATM   16  O   UNL     1     -10.257  15.749  66.595  1.00  0.00    -0.269 OA 
BRANCH  16  17
HETATM   17  C   UNL     1     -11.180  15.222  67.592  1.00  0.00    -0.320 C  
HETATM   18  N   UNL     1     -11.899  17.454  68.414  1.00  0.00     0.817 NA 
HETATM   19  C   UNL     1     -12.295  15.541  69.839  1.00  0.00    -0.306 C  
HETATM   20  H1  UNL     1     -12.013  18.066  69.222  1.00  0.00     0.000 HD 
HETATM   21  H2  UNL     1     -12.771  17.352  67.895  1.00  0.00     0.000 HD 
HETATM   22  C   UNL     1     -11.799  14.177  70.318  1.00  0.00    -0.303 C  
HETATM   23  C   UNL     1     -11.351  16.148  68.814  1.00  0.00    -0.359 C  
HETATM   24  N   UNL     1     -12.726  13.764  71.386  1.00  0.00    -0.361 NA 
HETATM   25  C   UNL     1     -11.705  13.153  69.142  1.00  0.00    -0.325 C  
HETATM   26  H   UNL     1     -10.950  12.039  66.998  1.00  0.00     0.000 HD 
HETATM   27  H1  UNL     1     -12.395  12.854  71.706  1.00  0.00     0.000 HD 
HETATM   28  C   UNL     1     -10.880  13.741  67.956  1.00  0.00    -0.249 C  
HETATM   29  H2  UNL     1     -13.706  13.764  71.099  1.00  0.00     0.000 HD 
HETATM   30  O   UNL     1     -11.133  12.944  66.775  1.00  0.00    -0.267 OA 
BRANCH  25  31
HETATM   31  O   UNL     1     -11.045  11.906  69.524  1.00  0.00    -0.201 OA 
BRANCH  31  32
HETATM   32  C   UNL     1     -11.828  10.719  69.343  1.00  0.00    -0.298 C  
HETATM   33  O   UNL     1     -11.284   9.847  68.345  1.00  0.00    -0.188 OA 
HETATM   34  C   UNL     1     -10.037   9.251  68.739  1.00  0.00    -0.195 C  
HETATM   35  C   UNL     1     -10.225   8.398  70.003  1.00  0.00    -0.202 C  
HETATM   36  H   UNL     1     -12.682  10.423  72.514  1.00  0.00     0.000 HD 
HETATM   37  C   UNL     1     -10.766   9.270  71.153  1.00  0.00    -0.333 C  
HETATM   38  H1  UNL     1     -11.341   9.027  73.131  1.00  0.00     0.000 HD 
HETATM   39  O   UNL     1      -9.015   7.750  70.404  1.00  0.00    -0.145 OA 
HETATM   40  H   UNL     1      -9.131   7.223  71.186  1.00  0.00     0.000 HD 
HETATM   41  H2  UNL     1     -10.142   7.943  72.641  1.00  0.00     0.000 HD 
HETATM   42  C   UNL     1     -12.049   9.980  70.689  1.00  0.00    -0.292 C  
HETATM   43  N   UNL     1     -10.984   8.449  72.369  1.00  0.00    -0.360 NA 
HETATM   44  O   UNL     1     -12.547  10.876  71.690  1.00  0.00    -0.375 OA 
BRANCH  34  45
HETATM   45  C   UNL     1      -9.532   8.377  67.582  1.00  0.00    -0.149 C  
HETATM   46  O   UNL     1     -10.184   8.727  66.362  1.00  0.00    -0.293 OA 
HETATM   47  H   UNL     1      -9.871   8.187  65.646  1.00  0.00     0.000 HD 
ENDBRANCH  34  45
ENDBRANCH  31  32
ENDBRANCH  25  31
ENDBRANCH  16  17
ENDBRANCH   7  16
ENDBRANCH   2   5
TORSDOF 6
ENDMDL
MODEL      251
REMARK 921   NORMALIZED FREE ENERGY PREDICTED BY IDOCK:   -3.73 KCAL/MOL
REMARK 922        TOTAL FREE ENERGY PREDICTED BY IDOCK:   -6.09 KCAL/MOL
REMARK 923 INTER-LIGAND FREE ENERGY PREDICTED BY IDOCK:   -5.81 KCAL/MOL
REMARK 924 INTRA-LIGAND FREE ENERGY PREDICTED BY IDOCK:   -0.27 KCAL/MOL
REMARK 927      BINDING AFFINITY PREDICTED BY RF-SCORE:    0.00 PKD
ROOT
HETATM    1  N   UNL     1      -9.726  11.125  62.421  1.00  0.00    -0.562 NA 
HETATM    2  C   UNL     1      -9.376  12.130  63.435  1.00  0.00     0.411 C  
HETATM    3  H2  UNL     1     -10.665  11.281  62.056  1.00  0.00     0.000 HD 
HETATM    4  H1  UNL     1      -9.041  11.083  61.667  1.00  0.00     0.000 HD 
ENDROOT
BRANCH   2   5
HETATM    5  C   UNL     1     -10.417  12.193  64.581  1.00  0.00    -0.299 C  
HETATM    6  O   UNL     1     -10.322  13.410  65.338  1.00  0.00    -0.296 OA 
HETATM    7  C   UNL     1     -10.718  14.583  64.645  1.00  0.00    -0.310 C  
HETATM    8  C   UNL     1     -12.222  14.474  64.229  1.00  0.00    -0.415 C  
HETATM    9  C   UNL     1     -11.857  11.954  64.084  1.00  0.00    -0.318 C  
HETATM   10  N   UNL     1     -13.137  14.465  65.391  1.00  0.00    -0.544 NA 
HETATM   11  C   UNL     1     -12.434  13.196  63.396  1.00  0.00    -0.328 C  
HETATM   12  H   UNL     1     -13.553  11.450  64.907  1.00  0.00     0.000 HD 
HETATM   13  H1  UNL     1     -14.118  14.394  65.120  1.00  0.00     0.000 HD 
HETATM   14  H2  UNL     1     -12.980  15.278  65.986  1.00  0.00     0.000 HD 
HETATM   15  O   UNL     1     -12.665  11.598  65.213  1.00  0.00     0.446 OA 
BRANCH   7  16
HETATM   16  O   UNL     1     -10.532  15.739  65.479  1.00  0.00    -0.353 OA 
BRANCH  16  17
HETATM   17  C   UNL     1      -9.679  15.574  66.649  1.00  0.00    -0.247 C  
HETATM   18  N   UNL     1      -7.897  17.100  65.829  1.00  0.00    -0.369 NA 
HETATM   19  C   UNL     1      -7.328  15.533  67.580  1.00  0.00    -0.216 C  
HETATM   20  H1  UNL     1      -6.905  17.216  65.623  1.00  0.00     0.000 HD 
HETATM   21  H2  UNL     1      -8.235  17.820  66.468  1.00  0.00     0.000 HD 
HETATM   22  C   UNL     1      -7.551  14.144  68.177  1.00  0.00    -0.136 C  
HETATM   23  C   UNL     1      -8.178  15.748  66.338  1.00  0.00    -0.171 C  
HETATM   24  N   UNL     1      -6.587  14.023  69.284  1.00  0.00    -0.116 NA 
HETATM   25  C   UNL     1      -9.035  13.937  68.615  1.00  0.00    -0.079 C  
HETATM   26  H   UNL     1     -11.549  13.662  68.488  1.00  0.00     0.000 HD 
HETATM   27  H1  UNL     1      -6.736  13.095  69.682  1.00  0.00     0.000 HD 
HETATM   28  C   UNL     1     -10.014  14.286  67.452  1.00  0.00    -0.242 C  
HETATM   29  H2  UNL     1      -6.655  14.777  69.969  1.00  0.00     0.000 HD 
HETATM   30  O   UNL     1     -11.344  14.449  67.997  1.00  0.00    -0.268 OA 
BRANCH  25  31
HETATM   31  O   UNL     1      -9.330  12.558  69.000  1.00  0.00     0.195 OA 
BRANCH  31  32
HETATM   32  C   UNL     1      -8.713  11.551  68.188  1.00  0.00    -0.157 C  
HETATM   33  O   UNL     1      -7.455  11.111  68.717  1.00  0.00    -0.102 OA 
HETATM   34  C   UNL     1      -7.589  10.378  69.946  1.00  0.00    -0.100 C  
HETATM   35  C   UNL     1      -8.433   9.112  69.728  1.00  0.00    -0.139 C  
HETATM   36  H   UNL     1     -11.533  10.089  67.305  1.00  0.00     0.000 HD 
HETATM   37  C   UNL     1      -9.830   9.493  69.201  1.00  0.00    -0.176 C  
HETATM   38  H1  UNL     1     -11.566   8.529  68.605  1.00  0.00     0.000 HD 
HETATM   39  O   UNL     1      -8.552   8.329  70.919  1.00  0.00    -0.123 OA 
HETATM   40  H   UNL     1      -9.074   7.547  70.784  1.00  0.00     0.000 HD 
HETATM   41  H2  UNL     1     -10.697   7.683  69.781  1.00  0.00     0.000 HD 
HETATM   42  C   UNL     1      -9.675  10.360  67.939  1.00  0.00    -0.149 C  
HETATM   43  N   UNL     1     -10.641   8.277  68.954  1.00  0.00    -0.184 NA 
HETATM   44  O   UNL     1     -10.944  10.819  67.457  1.00  0.00    -0.273 OA 
BRANCH  34  45
HETATM   45  C   UNL     1      -6.185   9.999  70.438  1.00  0.00    -0.103 C  
HETATM   46  O   UNL     1      -5.348  11.152  70.518  1.00  0.00    -0.088 OA 
HETATM   47  H   UNL     1      -4.479  10.918  70.823  1.00  0.00     0.000 HD 
ENDBRANCH  34  45
ENDBRANCH  31  32
ENDBRANCH  25  31
ENDBRANCH  16  17
ENDBRANCH   7  16
ENDBRANCH   2   5
TORSDOF 6
ENDMDL
MODEL      252
REMARK 921   NORMALIZED FREE ENERGY PREDICTED BY IDOCK:   -3.69 KCAL/MOL
REMARK 922        TOTAL FREE ENERGY PREDICTED BY IDOCK:   -6.04 KCAL/MOL
REMARK 923 INTER-LIGAND FREE ENERGY PREDICTED BY IDOCK:   -5.84 KCAL/MOL
REMARK 924 INTRA-LIGAND FREE ENERGY PREDICTED BY IDOCK:   -0.21 KCAL/MOL
REMARK 927      BINDING AFFINITY PREDICTED BY RF-SCORE:    0.00 PKD
ROOT
HETATM    1  N   UNL     1      -9.212   5.999  65.553  1.00  0.00    -0.367 NA 
HETATM    2  C   UNL     1      -7.968   6.159  64.787  1.00  0.00    -0.124 C  
HETATM    3  H2  UNL     1     -10.030   6.130  64.958  1.00  0.00     0.000 HD 
HETATM    4  H1  UNL     1      -9.252   5.106  66.043  1.00  0.00     0.000 HD 
ENDROOT
BRANCH   2   5
HETATM    5  C   UNL     1      -7.907   7.516  64.042  1.00  0.00    -0.127 C  
HETATM    6  O   UNL     1      -8.259   8.620  64.890  1.00  0.00    -0.141 OA 
HETATM    7  C   UNL     1      -7.323   8.915  65.914  1.00  0.00    -0.093 C  
HETATM    8  C   UNL     1      -5.947   9.304  65.283  1.00  0.00    -0.062 C  
HETATM    9  C   UNL     1      -6.549   7.750  63.352  1.00  0.00    -0.066 C  
HETATM   10  N   UNL     1      -6.004  10.574  64.527  1.00  0.00    -0.313 NA 
HETATM   11  C   UNL     1      -5.468   8.173  64.354  1.00  0.00    -0.044 C  
HETATM   12  H   UNL     1      -5.885   8.914  61.934  1.00  0.00     0.000 HD 
HETATM   13  H1  UNL     1      -5.106  10.829  64.115  1.00  0.00     0.000 HD 
HETATM   14  H2  UNL     1      -6.366  11.330  65.108  1.00  0.00     0.000 HD 
HETATM   15  O   UNL     1      -6.722   8.769  62.359  1.00  0.00    -0.096 OA 
BRANCH   7  16
HETATM   16  O   UNL     1      -7.803   9.998  66.729  1.00  0.00    -0.108 OA 
BRANCH  16  17
HETATM   17  C   UNL     1      -9.190   9.922  67.172  1.00  0.00    -0.138 C  
HETATM   18  N   UNL     1      -9.907  11.978  65.974  1.00  0.00    -0.233 NA 
HETATM   19  C   UNL     1     -11.302  11.173  67.778  1.00  0.00    -0.364 C  
HETATM   20  H1  UNL     1     -10.357  12.890  66.046  1.00  0.00     0.000 HD 
HETATM   21  H2  UNL     1     -10.348  11.396  65.262  1.00  0.00     0.000 HD 
HETATM   22  C   UNL     1     -11.361  10.483  69.141  1.00  0.00    -0.257 C  
HETATM   23  C   UNL     1      -9.871  11.302  67.281  1.00  0.00    -0.182 C  
HETATM   24  N   UNL     1     -12.773  10.537  69.557  1.00  0.00    -0.640 NA 
HETATM   25  C   UNL     1     -10.782   9.034  69.078  1.00  0.00    -0.141 C  
HETATM   26  H   UNL     1      -9.139   7.126  68.819  1.00  0.00     0.000 HD 
HETATM   27  H1  UNL     1     -12.812  10.077  70.466  1.00  0.00     0.000 HD 
HETATM   28  C   UNL     1      -9.364   9.028  68.431  1.00  0.00    -0.139 C  
HETATM   29  H2  UNL     1     -13.417  10.141  68.871  1.00  0.00     0.000 HD 
HETATM   30  O   UNL     1      -9.033   7.672  68.049  1.00  0.00    -0.127 OA 
BRANCH  25  31
HETATM   31  O   UNL     1     -10.636   8.420  70.397  1.00  0.00    -0.214 OA 
BRANCH  31  32
HETATM   32  C   UNL     1      -9.670   7.365  70.476  1.00  0.00    -0.175 C  
HETATM   33  O   UNL     1      -8.669   7.609  71.474  1.00  0.00    -0.117 OA 
HETATM   34  C   UNL     1      -9.189   7.559  72.813  1.00  0.00    -0.159 C  
HETATM   35  C   UNL     1      -9.769   6.168  73.113  1.00  0.00    -0.158 C  
HETATM   36  H   UNL     1     -11.803   4.937  69.829  1.00  0.00     0.000 HD 
HETATM   37  C   UNL     1     -10.893   5.838  72.112  1.00  0.00    -0.244 C  
HETATM   38  H1  UNL     1     -12.182   4.264  71.708  1.00  0.00     0.000 HD 
HETATM   39  O   UNL     1     -10.256   6.062  74.454  1.00  0.00    -0.277 OA 
HETATM   40  H   UNL     1     -10.614   5.202  74.639  1.00  0.00     0.000 HD 
HETATM   41  H2  UNL     1     -11.745   4.375  73.336  1.00  0.00     0.000 HD 
HETATM   42  C   UNL     1     -10.354   5.988  70.679  1.00  0.00    -0.222 C  
HETATM   43  N   UNL     1     -11.437   4.482  72.370  1.00  0.00     0.313 NA 
HETATM   44  O   UNL     1     -11.384   5.780  69.705  1.00  0.00    -0.281 OA 
BRANCH  34  45
HETATM   45  C   UNL     1      -8.045   7.876  73.787  1.00  0.00    -0.205 C  
HETATM   46  O   UNL     1      -7.100   8.761  73.187  1.00  0.00    -0.334 OA 
HETATM   47  H   UNL     1      -6.392   8.958  73.789  1.00  0.00     0.000 HD 
ENDBRANCH  34  45
ENDBRANCH  31  32
ENDBRANCH  25  31
ENDBRANCH  16  17
ENDBRANCH   7  16
ENDBRANCH   2   5
TORSDOF 6
ENDMDL
MODEL      253
REMARK 921   NORMALIZED FREE ENERGY PREDICTED BY IDOCK:   -3.68 KCAL/MOL
REMARK 922        TOTAL FREE ENERGY PREDICTED BY IDOCK:   -6.03 KCAL/MOL
REMARK 923 INTER-LIGAND FREE ENERGY PREDICTED BY IDOCK:   -5.49 KCAL/MOL
REMARK 924 INTRA-LIGAND FREE ENERGY PREDICTED BY IDOCK:   -0.54 KCAL/MOL
REMARK 927      BINDING AFFINITY PREDICTED BY RF-SCORE:    0.00 PKD
ROOT
HETATM    1  N   UNL     1     -12.585   9.863  70.450  1.00  0.00    -0.514 NA 
HETATM    2  C   UNL     1     -12.861  11.155  69.805  1.00  0.00     0.216 C  
HETATM    3  H2  UNL     1     -12.041   9.986  71.304  1.00  0.00     0.000 HD 
HETATM    4  H1  UNL     1     -13.436   9.331  70.630  1.00  0.00     0.000 HD 
ENDROOT
BRANCH   2   5
HETATM    5  C   UNL     1     -11.567  11.963  69.533  1.00  0.00    -0.327 C  
HETATM    6  O   UNL     1     -10.588  11.199  68.812  1.00  0.00    -0.185 OA 
HETATM    7  C   UNL     1     -10.925  10.904  67.466  1.00  0.00    -0.293 C  
HETATM    8  C   UNL     1     -11.088  12.231  66.655  1.00  0.00    -0.297 C  
HETATM    9  C   UNL     1     -11.849  13.310  68.838  1.00  0.00    -0.327 C  
HETATM   10  N   UNL     1      -9.817  12.973  66.511  1.00  0.00    -0.258 NA 
HETATM   11  C   UNL     1     -12.134  13.129  67.342  1.00  0.00    -0.316 C  
HETATM   12  H   UNL     1     -10.878  14.984  68.591  1.00  0.00     0.000 HD 
HETATM   13  H1  UNL     1      -9.923  13.839  65.982  1.00  0.00     0.000 HD 
HETATM   14  H2  UNL     1      -9.093  12.382  66.103  1.00  0.00     0.000 HD 
HETATM   15  O   UNL     1     -10.705  14.154  69.020  1.00  0.00    -0.245 OA 
BRANCH   7  16
HETATM   16  O   UNL     1      -9.901  10.095  66.863  1.00  0.00    -0.179 OA 
BRANCH  16  17
HETATM   17  C   UNL     1      -8.827   9.639  67.737  1.00  0.00    -0.125 C  
HETATM   18  N   UNL     1      -7.211  11.382  67.010  1.00  0.00    -0.133 NA 
HETATM   19  C   UNL     1      -6.335   9.412  68.104  1.00  0.00    -0.054 C  
HETATM   20  H1  UNL     1      -6.281  11.578  66.641  1.00  0.00     0.000 HD 
HETATM   21  H2  UNL     1      -7.384  11.889  67.879  1.00  0.00     0.000 HD 
HETATM   22  C   UNL     1      -6.471   7.905  68.330  1.00  0.00    -0.053 C  
HETATM   23  C   UNL     1      -7.419   9.935  67.176  1.00  0.00    -0.091 C  
HETATM   24  N   UNL     1      -5.300   7.513  69.134  1.00  0.00    -0.015 NA 
HETATM   25  C   UNL     1      -7.835   7.544  68.997  1.00  0.00    -0.120 C  
HETATM   26  H   UNL     1     -10.327   7.243  69.331  1.00  0.00     0.000 HD 
HETATM   27  H1  UNL     1      -5.390   6.508  69.284  1.00  0.00     0.000 HD 
HETATM   28  C   UNL     1      -9.025   8.171  68.207  1.00  0.00    -0.136 C  
HETATM   29  H2  UNL     1      -5.199   8.048  69.997  1.00  0.00     0.000 HD 
HETATM   30  O   UNL     1     -10.206   8.140  69.043  1.00  0.00    -0.210 OA 
BRANCH  25  31
HETATM   31  O   UNL     1      -8.085   6.104  69.043  1.00  0.00    -0.109 OA 
BRANCH  31  32
HETATM   32  C   UNL     1      -9.463   5.719  68.955  1.00  0.00    -0.124 C  
HETATM   33  O   UNL     1      -9.790   5.129  67.691  1.00  0.00    -0.144 OA 
HETATM   34  C   UNL     1      -9.171   3.847  67.493  1.00  0.00    -0.172 C  
HETATM   35  C   UNL     1      -9.637   2.853  68.569  1.00  0.00    -0.026 C  
HETATM   36  H   UNL     1      -9.735   4.816  72.114  1.00  0.00     0.000 HD 
HETATM   37  C   UNL     1      -9.281   3.386  69.970  1.00  0.00    -0.150 C  
HETATM   38  H1  UNL     1      -9.520   2.803  71.945  1.00  0.00     0.000 HD 
HETATM   39  O   UNL     1      -9.078   1.550  68.380  1.00  0.00    -0.106 OA 
HETATM   40  H   UNL     1      -9.366   0.936  69.045  1.00  0.00     0.000 HD 
HETATM   41  H2  UNL     1      -9.405   1.505  70.871  1.00  0.00     0.000 HD 
HETATM   42  C   UNL     1      -9.866   4.798  70.137  1.00  0.00    -0.238 C  
HETATM   43  N   UNL     1      -9.757   2.451  71.018  1.00  0.00    -0.129 NA 
HETATM   44  O   UNL     1      -9.488   5.380  71.391  1.00  0.00    -0.145 OA 
BRANCH  34  45
HETATM   45  C   UNL     1      -9.556   3.335  66.098  1.00  0.00    -0.003 C  
HETATM   46  O   UNL     1     -10.554   4.169  65.510  1.00  0.00    -0.477 OA 
HETATM   47  H   UNL     1     -10.792   3.853  64.647  1.00  0.00     0.000 HD 
ENDBRANCH  34  45
ENDBRANCH  31  32
ENDBRANCH  25  31
ENDBRANCH  16  17
ENDBRANCH   7  16
ENDBRANCH   2   5
TORSDOF 6
ENDMDL
MODEL      254
REMARK 921   NORMALIZED FREE ENERGY PREDICTED BY IDOCK:   -3.64 KCAL/MOL
REMARK 922        TOTAL FREE ENERGY PREDICTED BY IDOCK:   -5.97 KCAL/MOL
REMARK 923 INTER-LIGAND FREE ENERGY PREDICTED BY IDOCK:   -5.50 KCAL/MOL
REMARK 924 INTRA-LIGAND FREE ENERGY PREDICTED BY IDOCK:   -0.47 KCAL/MOL
REMARK 927      BINDING AFFINITY PREDICTED BY RF-SCORE:    0.00 PKD
ROOT
HETATM    1  N   UNL     1     -10.563  16.835  65.150  1.00  0.00    -0.682 NA 
HETATM    2  C   UNL     1     -10.065  16.339  66.442  1.00  0.00    -0.305 C  
HETATM    3  H2  UNL     1      -9.833  17.332  64.641  1.00  0.00     0.000 HD 
HETATM    4  H1  UNL     1     -10.968  16.092  64.582  1.00  0.00     0.000 HD 
ENDROOT
BRANCH   2   5
HETATM    5  C   UNL     1      -9.448  17.468  67.306  1.00  0.00    -0.253 C  
HETATM    6  O   UNL     1      -8.965  16.986  68.570  1.00  0.00    -0.247 OA 
HETATM    7  C   UNL     1      -7.824  16.146  68.497  1.00  0.00    -0.172 C  
HETATM    8  C   UNL     1      -6.625  16.930  67.871  1.00  0.00    -0.141 C  
HETATM    9  C   UNL     1      -8.359  18.258  66.554  1.00  0.00    -0.266 C  
HETATM   10  N   UNL     1      -6.153  18.036  68.731  1.00  0.00    -0.195 NA 
HETATM   11  C   UNL     1      -7.036  17.486  66.495  1.00  0.00    -0.289 C  
HETATM   12  H   UNL     1      -7.496  19.995  66.767  1.00  0.00     0.000 HD 
HETATM   13  H1  UNL     1      -5.370  18.548  68.322  1.00  0.00     0.000 HD 
HETATM   14  H2  UNL     1      -5.922  17.700  69.665  1.00  0.00     0.000 HD 
HETATM   15  O   UNL     1      -8.167  19.507  67.230  1.00  0.00    -0.274 OA 
BRANCH   7  16
HETATM   16  O   UNL     1      -7.464  15.684  69.810  1.00  0.00    -0.175 OA 
BRANCH  16  17
HETATM   17  C   UNL     1      -7.255  14.250  69.966  1.00  0.00     0.262 C  
HETATM   18  N   UNL     1      -5.833  14.464  71.994  1.00  0.00    -0.031 NA 
HETATM   19  C   UNL     1      -5.722  12.396  70.746  1.00  0.00    -0.095 C  
HETATM   20  H1  UNL     1      -4.944  14.233  72.437  1.00  0.00     0.000 HD 
HETATM   21  H2  UNL     1      -6.625  14.173  72.566  1.00  0.00     0.000 HD 
HETATM   22  C   UNL     1      -5.781  11.723  69.375  1.00  0.00    -0.067 C  
HETATM   23  C   UNL     1      -5.909  13.901  70.636  1.00  0.00    -0.193 C  
HETATM   24  N   UNL     1      -5.463  10.304  69.609  1.00  0.00    -0.038 NA 
HETATM   25  C   UNL     1      -7.162  11.948  68.683  1.00  0.00    -0.109 C  
HETATM   26  H   UNL     1      -9.116  13.108  67.565  1.00  0.00     0.000 HD 
HETATM   27  H1  UNL     1      -5.502   9.855  68.694  1.00  0.00     0.000 HD 
HETATM   28  C   UNL     1      -7.533  13.462  68.656  1.00  0.00    -0.104 C  
HETATM   29  H2  UNL     1      -6.061   9.861  70.308  1.00  0.00     0.000 HD 
HETATM   30  O   UNL     1      -8.945  13.590  68.366  1.00  0.00    -0.184 OA 
BRANCH  25  31
HETATM   31  O   UNL     1      -7.185  11.494  67.293  1.00  0.00    -0.113 OA 
BRANCH  31  32
HETATM   32  C   UNL     1      -7.681  10.164  67.091  1.00  0.00    -0.092 C  
HETATM   33  O   UNL     1      -8.224   9.592  68.288  1.00  0.00    -0.105 OA 
HETATM   34  C   UNL     1      -9.435  10.236  68.718  1.00  0.00    -0.176 C  
HETATM   35  C   UNL     1     -10.525  10.105  67.642  1.00  0.00    -0.245 C  
HETATM   36  H   UNL     1      -8.782  10.702  64.031  1.00  0.00     0.000 HD 
HETATM   37  C   UNL     1     -10.044  10.741  66.324  1.00  0.00    -0.232 C  
HETATM   38  H1  UNL     1     -10.757  11.012  64.395  1.00  0.00     0.000 HD 
HETATM   39  O   UNL     1     -11.762  10.694  68.051  1.00  0.00    -0.688 OA 
HETATM   40  H   UNL     1     -12.436  10.614  67.386  1.00  0.00     0.000 HD 
HETATM   41  H2  UNL     1     -11.977  10.963  65.563  1.00  0.00     0.000 HD 
HETATM   42  C   UNL     1      -8.698  10.114  65.921  1.00  0.00    -0.146 C  
HETATM   43  N   UNL     1     -11.075  10.590  65.268  1.00  0.00     0.358 NA 
HETATM   44  O   UNL     1      -8.159  10.733  64.747  1.00  0.00    -0.061 OA 
BRANCH  34  45
HETATM   45  C   UNL     1      -9.898   9.572  70.023  1.00  0.00    -0.233 C  
HETATM   46  O   UNL     1      -8.806   9.425  70.931  1.00  0.00    -0.212 OA 
HETATM   47  H   UNL     1      -9.092   9.014  71.738  1.00  0.00     0.000 HD 
ENDBRANCH  34  45
ENDBRANCH  31  32
ENDBRANCH  25  31
ENDBRANCH  16  17
ENDBRANCH   7  16
ENDBRANCH   2   5
TORSDOF 6
ENDMDL
MODEL      255
REMARK 921   NORMALIZED FREE ENERGY PREDICTED BY IDOCK:   -3.61 KCAL/MOL
REMARK 922        TOTAL FREE ENERGY PREDICTED BY IDOCK:   -5.93 KCAL/MOL
REMARK 923 INTER-LIGAND FREE ENERGY PREDICTED BY IDOCK:   -5.56 KCAL/MOL
REMARK 924 INTRA-LIGAND FREE ENERGY PREDICTED BY IDOCK:   -0.37 KCAL/MOL
REMARK 927      BINDING AFFINITY PREDICTED BY RF-SCORE:    0.00 PKD
ROOT
HETATM    1  N   UNL     1      -5.496   5.123  68.767  1.00  0.00    -0.004 NA 
HETATM    2  C   UNL     1      -6.952   5.192  68.956  1.00  0.00    -0.056 C  
HETATM    3  H2  UNL     1      -5.069   4.470  69.423  1.00  0.00     0.000 HD 
HETATM    4  H1  UNL     1      -5.242   4.897  67.806  1.00  0.00     0.000 HD 
ENDROOT
BRANCH   2   5
HETATM    5  C   UNL     1      -7.338   5.534  70.417  1.00  0.00    -0.071 C  
HETATM    6  O   UNL     1      -8.446   6.445  70.490  1.00  0.00    -0.134 OA 
HETATM    7  C   UNL     1      -9.693   5.909  70.076  1.00  0.00    -0.167 C  
HETATM    8  C   UNL     1     -10.088   4.707  70.994  1.00  0.00    -0.175 C  
HETATM    9  C   UNL     1      -7.589   4.276  71.272  1.00  0.00    -0.060 C  
HETATM   10  N   UNL     1     -10.364   5.119  72.388  1.00  0.00    -0.198 NA 
HETATM   11  C   UNL     1      -8.962   3.657  70.981  1.00  0.00    -0.159 C  
HETATM   12  H   UNL     1      -7.658   3.874  73.179  1.00  0.00     0.000 HD 
HETATM   13  H1  UNL     1     -10.622   4.334  72.987  1.00  0.00     0.000 HD 
HETATM   14  H2  UNL     1     -11.073   5.851  72.419  1.00  0.00     0.000 HD 
HETATM   15  O   UNL     1      -7.503   4.650  72.653  1.00  0.00    -0.081 OA 
BRANCH   7  16
HETATM   16  O   UNL     1     -10.713   6.920  70.141  1.00  0.00    -0.218 OA 
BRANCH  16  17
HETATM   17  C   UNL     1     -10.887   7.754  68.957  1.00  0.00    -0.021 C  
HETATM   18  N   UNL     1     -11.036   5.843  67.374  1.00  0.00    -0.420 NA 
HETATM   19  C   UNL     1     -10.511   8.024  66.472  1.00  0.00    -0.022 C  
HETATM   20  H1  UNL     1     -10.673   5.415  66.523  1.00  0.00     0.000 HD 
HETATM   21  H2  UNL     1     -12.046   5.975  67.327  1.00  0.00     0.000 HD 
HETATM   22  C   UNL     1      -9.809   9.365  66.689  1.00  0.00    -0.245 C  
HETATM   23  C   UNL     1     -10.338   7.105  67.670  1.00  0.00    -0.215 C  
HETATM   24  N   UNL     1      -9.947  10.101  65.420  1.00  0.00    -0.307 NA 
HETATM   25  C   UNL     1     -10.393  10.128  67.919  1.00  0.00    -0.194 C  
HETATM   26  H   UNL     1     -10.993  10.702  70.311  1.00  0.00     0.000 HD 
HETATM   27  H1  UNL     1      -9.478  10.995  65.564  1.00  0.00     0.000 HD 
HETATM   28  C   UNL     1     -10.410   9.215  69.184  1.00  0.00    -0.212 C  
HETATM   29  H2  UNL     1     -10.913  10.192  65.103  1.00  0.00     0.000 HD 
HETATM   30  O   UNL     1     -11.284   9.808  70.173  1.00  0.00    -0.247 OA 
BRANCH  25  31
HETATM   31  O   UNL     1      -9.615  11.313  68.278  1.00  0.00    -0.178 OA 
BRANCH  31  32
HETATM   32  C   UNL     1      -9.588  12.349  67.288  1.00  0.00    -0.199 C  
HETATM   33  O   UNL     1     -10.544  13.384  67.548  1.00  0.00    -0.247 OA 
HETATM   34  C   UNL     1     -10.226  14.161  68.715  1.00  0.00    -0.215 C  
HETATM   35  C   UNL     1      -8.868  14.859  68.542  1.00  0.00    -0.174 C  
HETATM   36  H   UNL     1      -6.331  12.224  66.794  1.00  0.00     0.000 HD 
HETATM   37  C   UNL     1      -7.762  13.812  68.304  1.00  0.00    -0.138 C  
HETATM   38  H1  UNL     1      -5.721  13.784  67.944  1.00  0.00     0.000 HD 
HETATM   39  O   UNL     1      -8.535  15.680  69.665  1.00  0.00    -0.227 OA 
HETATM   40  H   UNL     1      -7.695  16.111  69.559  1.00  0.00     0.000 HD 
HETATM   41  H2  UNL     1      -6.222  15.103  68.872  1.00  0.00     0.000 HD 
HETATM   42  C   UNL     1      -8.158  12.923  67.113  1.00  0.00    -0.117 C  
HETATM   43  N   UNL     1      -6.452  14.477  68.101  1.00  0.00    -0.124 NA 
HETATM   44  O   UNL     1      -7.207  11.872  66.901  1.00  0.00    -0.138 OA 
BRANCH  34  45
HETATM   45  C   UNL     1     -11.334  15.204  68.918  1.00  0.00    -0.301 C  
HETATM   46  O   UNL     1     -11.335  16.155  67.854  1.00  0.00    -0.294 OA 
HETATM   47  H   UNL     1     -12.021  16.800  67.980  1.00  0.00     0.000 HD 
ENDBRANCH  34  45
ENDBRANCH  31  32
ENDBRANCH  25  31
ENDBRANCH  16  17
ENDBRANCH   7  16
ENDBRANCH   2   5
TORSDOF 6
ENDMDL
MODEL      256
REMARK 921   NORMALIZED FREE ENERGY PREDICTED BY IDOCK:   -3.60 KCAL/MOL
REMARK 922        TOTAL FREE ENERGY PREDICTED BY IDOCK:   -5.92 KCAL/MOL
REMARK 923 INTER-LIGAND FREE ENERGY PREDICTED BY IDOCK:   -6.91 KCAL/MOL
REMARK 924 INTRA-LIGAND FREE ENERGY PREDICTED BY IDOCK:    0.99 KCAL/MOL
REMARK 927      BINDING AFFINITY PREDICTED BY RF-SCORE:    0.00 PKD
ROOT
HETATM    1  N   UNL     1     -10.153  17.225  65.673  1.00  0.00    -0.591 NA 
HETATM    2  C   UNL     1     -11.124  16.472  64.866  1.00  0.00    -0.190 C  
HETATM    3  H2  UNL     1      -9.199  17.054  65.355  1.00  0.00     0.000 HD 
HETATM    4  H1  UNL     1     -10.361  18.223  65.695  1.00  0.00     0.000 HD 
ENDROOT
BRANCH   2   5
HETATM    5  C   UNL     1     -10.808  14.955  64.832  1.00  0.00    -0.413 C  
HETATM    6  O   UNL     1     -10.366  14.461  66.107  1.00  0.00    -0.280 OA 
HETATM    7  C   UNL     1     -11.359  14.434  67.119  1.00  0.00    -0.343 C  
HETATM    8  C   UNL     1     -12.528  13.487  66.694  1.00  0.00    -0.208 C  
HETATM    9  C   UNL     1     -11.982  14.120  64.284  1.00  0.00    -0.435 C  
HETATM   10  N   UNL     1     -12.114  12.069  66.615  1.00  0.00    -0.540 NA 
HETATM   11  C   UNL     1     -13.087  13.937  65.332  1.00  0.00    -0.236 C  
HETATM   12  H   UNL     1     -12.195  12.327  63.545  1.00  0.00     0.000 HD 
HETATM   13  H1  UNL     1     -12.877  11.450  66.337  1.00  0.00     0.000 HD 
HETATM   14  H2  UNL     1     -11.694  11.761  67.491  1.00  0.00     0.000 HD 
HETATM   15  O   UNL     1     -11.472  12.842  63.883  1.00  0.00    -0.391 OA 
BRANCH   7  16
HETATM   16  O   UNL     1     -10.793  13.974  68.358  1.00  0.00    -0.235 OA 
BRANCH  16  17
HETATM   17  C   UNL     1      -9.458  13.394  68.293  1.00  0.00    -0.209 C  
HETATM   18  N   UNL     1      -8.286  15.579  68.118  1.00  0.00    -0.143 NA 
HETATM   19  C   UNL     1      -7.090  13.594  67.428  1.00  0.00    -0.097 C  
HETATM   20  H1  UNL     1      -7.625  16.149  67.592  1.00  0.00     0.000 HD 
HETATM   21  H2  UNL     1      -8.017  15.500  69.099  1.00  0.00     0.000 HD 
HETATM   22  C   UNL     1      -7.171  12.209  66.786  1.00  0.00     0.095 C  
HETATM   23  C   UNL     1      -8.457  14.256  67.496  1.00  0.00    -0.187 C  
HETATM   24  N   UNL     1      -5.779  11.739  66.668  1.00  0.00    -0.340 NA 
HETATM   25  C   UNL     1      -8.088  11.247  67.606  1.00  0.00    -0.119 C  
HETATM   26  H   UNL     1     -10.154  10.246  68.673  1.00  0.00     0.000 HD 
HETATM   27  H1  UNL     1      -5.833  10.815  66.240  1.00  0.00     0.000 HD 
HETATM   28  C   UNL     1      -9.479  11.897  67.874  1.00  0.00    -0.194 C  
HETATM   29  H2  UNL     1      -5.268  11.750  67.552  1.00  0.00     0.000 HD 
HETATM   30  O   UNL     1     -10.141  11.161  68.929  1.00  0.00    -0.200 OA 
BRANCH  25  31
HETATM   31  O   UNL     1      -8.350   9.984  66.917  1.00  0.00    -0.124 OA 
BRANCH  31  32
HETATM   32  C   UNL     1      -7.704   8.835  67.481  1.00  0.00    -0.101 C  
HETATM   33  O   UNL     1      -6.728   9.183  68.472  1.00  0.00    -0.058 OA 
HETATM   34  C   UNL     1      -7.312   9.737  69.663  1.00  0.00    -0.103 C  
HETATM   35  C   UNL     1      -8.255   8.720  70.323  1.00  0.00    -0.119 C  
HETATM   36  H   UNL     1     -10.369   6.897  67.382  1.00  0.00     0.000 HD 
HETATM   37  C   UNL     1      -9.373   8.321  69.340  1.00  0.00    -0.155 C  
HETATM   38  H1  UNL     1     -11.010   7.049  69.304  1.00  0.00     0.000 HD 
HETATM   39  O   UNL     1      -8.822   9.217  71.539  1.00  0.00    -0.330 OA 
HETATM   40  H   UNL     1      -9.406   8.588  71.946  1.00  0.00     0.000 HD 
HETATM   41  H2  UNL     1     -10.646   7.633  70.847  1.00  0.00     0.000 HD 
HETATM   42  C   UNL     1      -8.739   7.820  68.031  1.00  0.00    -0.125 C  
HETATM   43  N   UNL     1     -10.270   7.313  69.955  1.00  0.00    -0.201 NA 
HETATM   44  O   UNL     1      -9.735   7.519  67.045  1.00  0.00    -0.170 OA 
BRANCH  34  45
HETATM   45  C   UNL     1      -6.177  10.110  70.628  1.00  0.00    -0.103 C  
HETATM   46  O   UNL     1      -6.021   9.111  71.636  1.00  0.00    -0.069 OA 
HETATM   47  H   UNL     1      -5.319   9.341  72.233  1.00  0.00     0.000 HD 
ENDBRANCH  34  45
ENDBRANCH  31  32
ENDBRANCH  25  31
ENDBRANCH  16  17
ENDBRANCH   7  16
ENDBRANCH   2   5
TORSDOF 6
ENDMDL
MODEL      257
REMARK 921   NORMALIZED FREE ENERGY PREDICTED BY IDOCK:   -3.60 KCAL/MOL
REMARK 922        TOTAL FREE ENERGY PREDICTED BY IDOCK:   -5.92 KCAL/MOL
REMARK 923 INTER-LIGAND FREE ENERGY PREDICTED BY IDOCK:   -5.32 KCAL/MOL
REMARK 924 INTRA-LIGAND FREE ENERGY PREDICTED BY IDOCK:   -0.60 KCAL/MOL
REMARK 927      BINDING AFFINITY PREDICTED BY RF-SCORE:    0.00 PKD
ROOT
HETATM    1  N   UNL     1      -6.293  16.372  69.787  1.00  0.00    -0.211 NA 
HETATM    2  C   UNL     1      -7.481  16.315  68.923  1.00  0.00    -0.209 C  
HETATM    3  H2  UNL     1      -6.382  17.107  70.488  1.00  0.00     0.000 HD 
HETATM    4  H1  UNL     1      -6.088  15.473  70.221  1.00  0.00     0.000 HD 
ENDROOT
BRANCH   2   5
HETATM    5  C   UNL     1      -7.793  17.683  68.265  1.00  0.00    -0.256 C  
HETATM    6  O   UNL     1      -8.428  17.540  66.984  1.00  0.00    -0.220 OA 
HETATM    7  C   UNL     1      -9.752  17.031  67.023  1.00  0.00    -0.263 C  
HETATM    8  C   UNL     1     -10.673  18.002  67.832  1.00  0.00    -0.313 C  
HETATM    9  C   UNL     1      -8.602  18.613  69.191  1.00  0.00     0.060 C  
HETATM   10  N   UNL     1     -10.852  19.310  67.164  1.00  0.00    -0.477 NA 
HETATM   11  C   UNL     1     -10.083  18.219  69.238  1.00  0.00    -0.059 C  
HETATM   12  H   UNL     1      -8.966  20.528  69.275  1.00  0.00     0.000 HD 
HETATM   13  H1  UNL     1     -11.452  19.944  67.692  1.00  0.00     0.000 HD 
HETATM   14  H2  UNL     1     -11.195  19.189  66.211  1.00  0.00     0.000 HD 
HETATM   15  O   UNL     1      -8.467  19.954  68.704  1.00  0.00    -0.228 OA 
BRANCH   7  16
HETATM   16  O   UNL     1     -10.266  16.881  65.688  1.00  0.00    -0.542 OA 
BRANCH  16  17
HETATM   17  C   UNL     1     -10.207  15.545  65.109  1.00  0.00    -0.299 C  
HETATM   18  N   UNL     1     -12.263  15.820  63.739  1.00  0.00    -1.100 NA 
HETATM   19  C   UNL     1     -11.485  13.572  64.177  1.00  0.00    -0.394 C  
HETATM   20  H1  UNL     1     -13.180  15.445  63.498  1.00  0.00     0.000 HD 
HETATM   21  H2  UNL     1     -11.680  15.949  62.911  1.00  0.00     0.000 HD 
HETATM   22  C   UNL     1     -10.805  12.622  65.163  1.00  0.00    -0.290 C  
HETATM   23  C   UNL     1     -11.595  14.978  64.745  1.00  0.00    -0.395 C  
HETATM   24  N   UNL     1     -10.876  11.286  64.547  1.00  0.00    -0.315 NA 
HETATM   25  C   UNL     1      -9.350  13.081  65.494  1.00  0.00     0.302 C  
HETATM   26  H   UNL     1      -7.422  14.464  66.377  1.00  0.00     0.000 HD 
HETATM   27  H1  UNL     1     -10.423  10.652  65.204  1.00  0.00     0.000 HD 
HETATM   28  C   UNL     1      -9.324  14.574  65.941  1.00  0.00    -0.095 C  
HETATM   29  H2  UNL     1     -10.483  11.248  63.606  1.00  0.00     0.000 HD 
HETATM   30  O   UNL     1      -7.962  15.058  65.869  1.00  0.00     1.194 OA 
BRANCH  25  31
HETATM   31  O   UNL     1      -8.744  12.315  66.582  1.00  0.00    -0.192 OA 
BRANCH  31  32
HETATM   32  C   UNL     1      -8.907  12.876  67.890  1.00  0.00    -0.190 C  
HETATM   33  O   UNL     1     -10.137  12.478  68.510  1.00  0.00    -0.221 OA 
HETATM   34  C   UNL     1     -10.169  11.080  68.845  1.00  0.00    -0.203 C  
HETATM   35  C   UNL     1      -9.051  10.740  69.842  1.00  0.00     0.655 C  
HETATM   36  H   UNL     1      -5.713  12.734  68.693  1.00  0.00     0.000 HD 
HETATM   37  C   UNL     1      -7.678  11.093  69.237  1.00  0.00    -0.024 C  
HETATM   38  H1  UNL     1      -5.685  11.034  69.804  1.00  0.00     0.000 HD 
HETATM   39  O   UNL     1      -9.077   9.366  70.237  1.00  0.00    -0.208 OA 
HETATM   40  H   UNL     1      -8.385   9.155  70.853  1.00  0.00     0.000 HD 
HETATM   41  H2  UNL     1      -6.627   9.836  70.533  1.00  0.00     0.000 HD 
HETATM   42  C   UNL     1      -7.685  12.566  68.793  1.00  0.00     0.003 C  
HETATM   43  N   UNL     1      -6.593  10.801  70.205  1.00  0.00    -0.248 NA 
HETATM   44  O   UNL     1      -6.461  12.925  68.140  1.00  0.00    -0.075 OA 
BRANCH  34  45
HETATM   45  C   UNL     1     -11.540  10.762  69.459  1.00  0.00    -0.303 C  
HETATM   46  O   UNL     1     -12.555  11.584  68.883  1.00  0.00    -0.203 OA 
HETATM   47  H   UNL     1     -13.403  11.387  69.263  1.00  0.00     0.000 HD 
ENDBRANCH  34  45
ENDBRANCH  31  32
ENDBRANCH  25  31
ENDBRANCH  16  17
ENDBRANCH   7  16
ENDBRANCH   2   5
TORSDOF 6
ENDMDL
MODEL      258
REMARK 921   NORMALIZED FREE ENERGY PREDICTED BY IDOCK:   -3.60 KCAL/MOL
REMARK 922        TOTAL FREE ENERGY PREDICTED BY IDOCK:   -5.92 KCAL/MOL
REMARK 923 INTER-LIGAND FREE ENERGY PREDICTED BY IDOCK:   -5.71 KCAL/MOL
REMARK 924 INTRA-LIGAND FREE ENERGY PREDICTED BY IDOCK:   -0.21 KCAL/MOL
REMARK 927      BINDING AFFINITY PREDICTED BY RF-SCORE:    0.00 PKD
ROOT
HETATM    1  N   UNL     1     -10.600  13.034  63.651  1.00  0.00    -0.512 NA 
HETATM    2  C   UNL     1     -10.795  12.000  64.678  1.00  0.00    -0.309 C  
HETATM    3  H2  UNL     1      -9.998  13.783  63.992  1.00  0.00     0.000 HD 
HETATM    4  H1  UNL     1     -10.247  12.647  62.776  1.00  0.00     0.000 HD 
ENDROOT
BRANCH   2   5
HETATM    5  C   UNL     1     -11.332  12.588  66.008  1.00  0.00    -0.344 C  
HETATM    6  O   UNL     1     -10.833  11.884  67.157  1.00  0.00    -0.232 OA 
HETATM    7  C   UNL     1      -9.448  12.051  67.410  1.00  0.00    -0.177 C  
HETATM    8  C   UNL     1      -9.134  13.558  67.684  1.00  0.00    -0.205 C  
HETATM    9  C   UNL     1     -11.079  14.104  66.126  1.00  0.00    -0.312 C  
HETATM   10  N   UNL     1      -9.750  14.053  68.935  1.00  0.00    -0.405 NA 
HETATM   11  C   UNL     1      -9.623  14.410  66.497  1.00  0.00    -0.310 C  
HETATM   12  H   UNL     1     -11.804  15.561  67.203  1.00  0.00     0.000 HD 
HETATM   13  H1  UNL     1      -9.545  15.036  69.113  1.00  0.00     0.000 HD 
HETATM   14  H2  UNL     1      -9.480  13.473  69.729  1.00  0.00     0.000 HD 
HETATM   15  O   UNL     1     -11.960  14.627  67.129  1.00  0.00    -0.391 OA 
BRANCH   7  16
HETATM   16  O   UNL     1      -9.052  11.263  68.546  1.00  0.00    -0.168 OA 
BRANCH  16  17
HETATM   17  C   UNL     1      -8.142  10.154  68.290  1.00  0.00    -0.102 C  
HETATM   18  N   UNL     1      -7.362  11.024  66.097  1.00  0.00    -0.287 NA 
HETATM   19  C   UNL     1      -7.015   8.679  66.573  1.00  0.00    -0.079 C  
HETATM   20  H1  UNL     1      -7.231  10.831  65.104  1.00  0.00     0.000 HD 
HETATM   21  H2  UNL     1      -6.494  11.327  66.538  1.00  0.00     0.000 HD 
HETATM   22  C   UNL     1      -7.547   7.419  67.256  1.00  0.00    -0.108 C  
HETATM   23  C   UNL     1      -7.944   9.863  66.788  1.00  0.00    -0.116 C  
HETATM   24  N   UNL     1      -6.630   6.333  66.867  1.00  0.00    -0.056 NA 
HETATM   25  C   UNL     1      -7.671   7.609  68.800  1.00  0.00    -0.118 C  
HETATM   26  H   UNL     1      -8.459   8.471  71.047  1.00  0.00     0.000 HD 
HETATM   27  H1  UNL     1      -6.985   5.493  67.322  1.00  0.00     0.000 HD 
HETATM   28  C   UNL     1      -8.481   8.898  69.140  1.00  0.00    -0.132 C  
HETATM   29  H2  UNL     1      -5.651   6.530  67.079  1.00  0.00     0.000 HD 
HETATM   30  O   UNL     1      -8.252   9.239  70.528  1.00  0.00    -0.159 OA 
BRANCH  25  31
HETATM   31  O   UNL     1      -8.364   6.503  69.458  1.00  0.00    -0.127 OA 
BRANCH  31  32
HETATM   32  C   UNL     1      -7.512   5.502  70.031  1.00  0.00    -0.070 C  
HETATM   33  O   UNL     1      -7.539   5.511  71.464  1.00  0.00    -0.098 OA 
HETATM   34  C   UNL     1      -8.802   5.087  72.004  1.00  0.00    -0.129 C  
HETATM   35  C   UNL     1      -9.113   3.645  71.574  1.00  0.00    -0.114 C  
HETATM   36  H   UNL     1      -8.048   3.252  67.682  1.00  0.00     0.000 HD 
HETATM   37  C   UNL     1      -9.153   3.549  70.037  1.00  0.00    -0.126 C  
HETATM   38  H1  UNL     1      -9.445   2.090  68.592  1.00  0.00     0.000 HD 
HETATM   39  O   UNL     1     -10.343   3.168  72.129  1.00  0.00    -0.117 OA 
HETATM   40  H   UNL     1     -10.535   2.277  71.863  1.00  0.00     0.000 HD 
HETATM   41  H2  UNL     1     -10.267   1.782  70.035  1.00  0.00     0.000 HD 
HETATM   42  C   UNL     1      -7.834   4.095  69.463  1.00  0.00    -0.053 C  
HETATM   43  N   UNL     1      -9.418   2.154  69.610  1.00  0.00    -0.085 NA 
HETATM   44  O   UNL     1      -7.851   4.114  68.030  1.00  0.00    -0.077 OA 
BRANCH  34  45
HETATM   45  C   UNL     1      -8.728   5.178  73.535  1.00  0.00    -0.114 C  
HETATM   46  O   UNL     1      -7.465   4.713  74.009  1.00  0.00    -0.079 OA 
HETATM   47  H   UNL     1      -7.419   4.769  74.956  1.00  0.00     0.000 HD 
ENDBRANCH  34  45
ENDBRANCH  31  32
ENDBRANCH  25  31
ENDBRANCH  16  17
ENDBRANCH   7  16
ENDBRANCH   2   5
TORSDOF 6
ENDMDL
MODEL      259
REMARK 921   NORMALIZED FREE ENERGY PREDICTED BY IDOCK:   -3.60 KCAL/MOL
REMARK 922        TOTAL FREE ENERGY PREDICTED BY IDOCK:   -5.91 KCAL/MOL
REMARK 923 INTER-LIGAND FREE ENERGY PREDICTED BY IDOCK:   -4.98 KCAL/MOL
REMARK 924 INTRA-LIGAND FREE ENERGY PREDICTED BY IDOCK:   -0.93 KCAL/MOL
REMARK 927      BINDING AFFINITY PREDICTED BY RF-SCORE:    0.00 PKD
ROOT
HETATM    1  N   UNL     1      -9.171  11.233  69.407  1.00  0.00    -0.326 NA 
HETATM    2  C   UNL     1      -8.880  11.764  68.068  1.00  0.00    -0.164 C  
HETATM    3  H2  UNL     1      -8.322  10.905  69.866  1.00  0.00     0.000 HD 
HETATM    4  H1  UNL     1      -9.668  11.906  69.990  1.00  0.00     0.000 HD 
ENDROOT
BRANCH   2   5
HETATM    5  C   UNL     1      -8.125  10.741  67.182  1.00  0.00    -0.124 C  
HETATM    6  O   UNL     1      -8.759   9.452  67.175  1.00  0.00    -0.127 OA 
HETATM    7  C   UNL     1     -10.012   9.402  66.511  1.00  0.00    -0.269 C  
HETATM    8  C   UNL     1      -9.832   9.780  65.005  1.00  0.00    -0.173 C  
HETATM    9  C   UNL     1      -7.892  11.260  65.749  1.00  0.00     0.185 C  
HETATM   10  N   UNL     1      -9.034   8.785  64.257  1.00  0.00    -0.403 NA 
HETATM   11  C   UNL     1      -9.164  11.164  64.897  1.00  0.00    -0.175 C  
HETATM   12  H   UNL     1      -6.702  10.800  64.273  1.00  0.00     0.000 HD 
HETATM   13  H1  UNL     1      -8.917   9.032  63.273  1.00  0.00     0.000 HD 
HETATM   14  H2  UNL     1      -9.430   7.851  64.354  1.00  0.00     0.000 HD 
HETATM   15  O   UNL     1      -6.846  10.480  65.157  1.00  0.00    -0.112 OA 
BRANCH   7  16
HETATM   16  O   UNL     1     -10.574   8.083  66.613  1.00  0.00    -0.277 OA 
BRANCH  16  17
HETATM   17  C   UNL     1      -9.764   7.074  67.284  1.00  0.00    -0.149 C  
HETATM   18  N   UNL     1      -8.920   6.050  65.182  1.00  0.00    -0.369 NA 
HETATM   19  C   UNL     1      -8.775   4.747  67.213  1.00  0.00    -0.103 C  
HETATM   20  H1  UNL     1      -8.810   5.195  64.637  1.00  0.00     0.000 HD 
HETATM   21  H2  UNL     1      -8.027   6.523  65.323  1.00  0.00     0.000 HD 
HETATM   22  C   UNL     1      -9.411   4.399  68.560  1.00  0.00    -0.156 C  
HETATM   23  C   UNL     1      -9.598   5.780  66.460  1.00  0.00    -0.156 C  
HETATM   24  N   UNL     1      -8.592   3.311  69.121  1.00  0.00    -0.066 NA 
HETATM   25  C   UNL     1      -9.512   5.649  69.489  1.00  0.00    -0.136 C  
HETATM   26  H   UNL     1     -10.214   7.910  70.387  1.00  0.00     0.000 HD 
HETATM   27  H1  UNL     1      -9.017   3.078  70.019  1.00  0.00     0.000 HD 
HETATM   28  C   UNL     1     -10.207   6.836  68.754  1.00  0.00    -0.175 C  
HETATM   29  H2  UNL     1      -7.600   3.538  69.186  1.00  0.00     0.000 HD 
HETATM   30  O   UNL     1      -9.944   8.055  69.488  1.00  0.00    -0.179 OA 
BRANCH  25  31
HETATM   31  O   UNL     1     -10.295   5.399  70.698  1.00  0.00    -0.236 OA 
BRANCH  31  32
HETATM   32  C   UNL     1      -9.529   5.087  71.869  1.00  0.00    -0.148 C  
HETATM   33  O   UNL     1      -8.157   4.801  71.569  1.00  0.00    -0.098 OA 
HETATM   34  C   UNL     1      -7.431   5.953  71.109  1.00  0.00    -0.091 C  
HETATM   35  C   UNL     1      -7.419   7.047  72.188  1.00  0.00    -0.090 C  
HETATM   36  H   UNL     1     -11.114   7.193  73.850  1.00  0.00     0.000 HD 
HETATM   37  C   UNL     1      -8.862   7.456  72.542  1.00  0.00    -0.128 C  
HETATM   38  H1  UNL     1      -9.819   8.758  73.841  1.00  0.00     0.000 HD 
HETATM   39  O   UNL     1      -6.666   8.195  71.786  1.00  0.00    -0.053 OA 
HETATM   40  H   UNL     1      -6.659   8.872  72.453  1.00  0.00     0.000 HD 
HETATM   41  H2  UNL     1      -8.292   9.293  73.356  1.00  0.00     0.000 HD 
HETATM   42  C   UNL     1      -9.659   6.202  72.940  1.00  0.00    -0.154 C  
HETATM   43  N   UNL     1      -8.863   8.487  73.607  1.00  0.00    -0.227 NA 
HETATM   44  O   UNL     1     -11.035   6.511  73.194  1.00  0.00    -0.258 OA 
BRANCH  34  45
HETATM   45  C   UNL     1      -5.996   5.519  70.780  1.00  0.00    -0.025 C  
HETATM   46  O   UNL     1      -5.891   5.109  69.417  1.00  0.00    -0.018 OA 
HETATM   47  H   UNL     1      -5.003   4.841  69.213  1.00  0.00     0.000 HD 
ENDBRANCH  34  45
ENDBRANCH  31  32
ENDBRANCH  25  31
ENDBRANCH  16  17
ENDBRANCH   7  16
ENDBRANCH   2   5
TORSDOF 6
ENDMDL
MODEL      260
REMARK 921   NORMALIZED FREE ENERGY PREDICTED BY IDOCK:   -3.58 KCAL/MOL
REMARK 922        TOTAL FREE ENERGY PREDICTED BY IDOCK:   -5.89 KCAL/MOL
REMARK 923 INTER-LIGAND FREE ENERGY PREDICTED BY IDOCK:   -5.39 KCAL/MOL
REMARK 924 INTRA-LIGAND FREE ENERGY PREDICTED BY IDOCK:   -0.50 KCAL/MOL
REMARK 927      BINDING AFFINITY PREDICTED BY RF-SCORE:    0.00 PKD
ROOT
HETATM    1  N   UNL     1     -12.568  15.102  70.057  1.00  0.00    -0.574 NA 
HETATM    2  C   UNL     1     -11.652  14.056  69.579  1.00  0.00    -0.295 C  
HETATM    3  H2  UNL     1     -12.714  15.817  69.346  1.00  0.00     0.000 HD 
HETATM    4  H1  UNL     1     -13.456  14.719  70.381  1.00  0.00     0.000 HD 
ENDROOT
BRANCH   2   5
HETATM    5  C   UNL     1     -10.303  14.638  69.086  1.00  0.00    -0.216 C  
HETATM    6  O   UNL     1      -9.317  13.617  68.863  1.00  0.00    -0.025 OA 
HETATM    7  C   UNL     1      -9.577  12.759  67.764  1.00  0.00    -0.204 C  
HETATM    8  C   UNL     1      -9.616  13.588  66.439  1.00  0.00    -0.259 C  
HETATM    9  C   UNL     1     -10.468  15.538  67.846  1.00  0.00    -0.266 C  
HETATM   10  N   UNL     1      -8.302  14.169  66.088  1.00  0.00     0.285 NA 
HETATM   11  C   UNL     1     -10.659  14.714  66.567  1.00  0.00    -0.300 C  
HETATM   12  H   UNL     1      -9.398  16.912  66.966  1.00  0.00     0.000 HD 
HETATM   13  H1  UNL     1      -8.328  14.710  65.223  1.00  0.00     0.000 HD 
HETATM   14  H2  UNL     1      -7.583  13.447  66.047  1.00  0.00     0.000 HD 
HETATM   15  O   UNL     1      -9.297  16.357  67.730  1.00  0.00    -0.211 OA 
BRANCH   7  16
HETATM   16  O   UNL     1      -8.557  11.750  67.670  1.00  0.00    -0.142 OA 
BRANCH  16  17
HETATM   17  C   UNL     1      -9.008  10.366  67.601  1.00  0.00    -0.138 C  
HETATM   18  N   UNL     1      -9.450  10.411  65.156  1.00  0.00    -0.225 NA 
HETATM   19  C   UNL     1     -10.497   8.668  66.464  1.00  0.00    -0.127 C  
HETATM   20  H1  UNL     1     -10.126  10.245  64.411  1.00  0.00     0.000 HD 
HETATM   21  H2  UNL     1      -8.586   9.891  65.001  1.00  0.00     0.000 HD 
HETATM   22  C   UNL     1     -11.125   8.272  67.800  1.00  0.00     0.386 C  
HETATM   23  C   UNL     1     -10.032  10.115  66.474  1.00  0.00    -0.224 C  
HETATM   24  N   UNL     1     -11.639   6.904  67.613  1.00  0.00    -0.396 NA 
HETATM   25  C   UNL     1     -10.105   8.400  68.975  1.00  0.00    -0.203 C  
HETATM   26  H   UNL     1      -8.526   9.424  70.669  1.00  0.00     0.000 HD 
HETATM   27  H1  UNL     1     -12.058   6.640  68.504  1.00  0.00     0.000 HD 
HETATM   28  C   UNL     1      -9.441   9.811  68.986  1.00  0.00    -0.173 C  
HETATM   29  H2  UNL     1     -10.935   6.244  67.281  1.00  0.00     0.000 HD 
HETATM   30  O   UNL     1      -8.261   9.764  69.823  1.00  0.00    -0.139 OA 
BRANCH  25  31
HETATM   31  O   UNL     1     -10.723   8.226  70.289  1.00  0.00    -0.228 OA 
BRANCH  31  32
HETATM   32  C   UNL     1     -10.533   6.938  70.888  1.00  0.00    -0.211 C  
HETATM   33  O   UNL     1      -9.535   6.160  70.216  1.00  0.00    -0.158 OA 
HETATM   34  C   UNL     1      -8.209   6.693  70.371  1.00  0.00    -0.125 C  
HETATM   35  C   UNL     1      -7.811   6.719  71.855  1.00  0.00    -0.097 C  
HETATM   36  H   UNL     1     -11.032   7.957  73.984  1.00  0.00     0.000 HD 
HETATM   37  C   UNL     1      -8.808   7.580  72.655  1.00  0.00    -0.139 C  
HETATM   38  H1  UNL     1      -9.114   8.154  74.624  1.00  0.00     0.000 HD 
HETATM   39  O   UNL     1      -6.478   7.202  72.050  1.00  0.00    -0.044 OA 
HETATM   40  H   UNL     1      -6.232   7.219  72.967  1.00  0.00     0.000 HD 
HETATM   41  H2  UNL     1      -7.490   7.881  74.247  1.00  0.00     0.000 HD 
HETATM   42  C   UNL     1     -10.235   7.061  72.406  1.00  0.00    -0.188 C  
HETATM   43  N   UNL     1      -8.453   7.584  74.095  1.00  0.00    -0.199 NA 
HETATM   44  O   UNL     1     -11.215   7.881  73.055  1.00  0.00    -0.411 OA 
BRANCH  34  45
HETATM   45  C   UNL     1      -7.237   5.809  69.579  1.00  0.00    -0.066 C  
HETATM   46  O   UNL     1      -7.617   5.744  68.204  1.00  0.00    -0.083 OA 
HETATM   47  H   UNL     1      -7.015   5.196  67.714  1.00  0.00     0.000 HD 
ENDBRANCH  34  45
ENDBRANCH  31  32
ENDBRANCH  25  31
ENDBRANCH  16  17
ENDBRANCH   7  16
ENDBRANCH   2   5
TORSDOF 6
ENDMDL
MODEL      261
REMARK 921   NORMALIZED FREE ENERGY PREDICTED BY IDOCK:   -3.55 KCAL/MOL
REMARK 922        TOTAL FREE ENERGY PREDICTED BY IDOCK:   -5.85 KCAL/MOL
REMARK 923 INTER-LIGAND FREE ENERGY PREDICTED BY IDOCK:   -6.01 KCAL/MOL
REMARK 924 INTRA-LIGAND FREE ENERGY PREDICTED BY IDOCK:    0.17 KCAL/MOL
REMARK 927      BINDING AFFINITY PREDICTED BY RF-SCORE:    0.00 PKD
ROOT
HETATM    1  N   UNL     1      -8.391  19.190  66.012  1.00  0.00    -0.458 NA 
HETATM    2  C   UNL     1      -7.838  17.895  66.435  1.00  0.00    -0.272 C  
HETATM    3  H2  UNL     1      -9.247  19.408  66.521  1.00  0.00     0.000 HD 
HETATM    4  H1  UNL     1      -7.712  19.945  66.092  1.00  0.00     0.000 HD 
ENDROOT
BRANCH   2   5
HETATM    5  C   UNL     1      -8.871  16.747  66.313  1.00  0.00    -0.299 C  
HETATM    6  O   UNL     1      -8.971  15.972  67.518  1.00  0.00    -0.191 OA 
HETATM    7  C   UNL     1      -9.554  16.647  68.622  1.00  0.00    -0.248 C  
HETATM    8  C   UNL     1     -11.021  17.061  68.277  1.00  0.00    -0.269 C  
HETATM    9  C   UNL     1     -10.254  17.245  65.851  1.00  0.00    -0.261 C  
HETATM   10  N   UNL     1     -11.918  15.898  68.103  1.00  0.00    -0.255 NA 
HETATM   11  C   UNL     1     -11.028  17.913  66.994  1.00  0.00     0.045 C  
HETATM   12  H   UNL     1     -11.843  16.427  65.068  1.00  0.00     0.000 HD 
HETATM   13  H1  UNL     1     -12.876  16.169  67.878  1.00  0.00     0.000 HD 
HETATM   14  H2  UNL     1     -11.892  15.291  68.922  1.00  0.00     0.000 HD 
HETATM   15  O   UNL     1     -10.990  16.120  65.353  1.00  0.00    -0.308 OA 
BRANCH   7  16
HETATM   16  O   UNL     1      -9.553  15.796  69.781  1.00  0.00    -0.265 OA 
BRANCH  16  17
HETATM   17  C   UNL     1     -10.820  15.167  70.133  1.00  0.00    -0.241 C  
HETATM   18  N   UNL     1     -11.627  17.073  71.508  1.00  0.00    -0.083 NA 
HETATM   19  C   UNL     1     -12.670  14.917  71.838  1.00  0.00    -0.395 C  
HETATM   20  H1  UNL     1     -11.989  17.376  72.412  1.00  0.00     0.000 HD 
HETATM   21  H2  UNL     1     -12.245  17.348  70.745  1.00  0.00     0.000 HD 
HETATM   22  C   UNL     1     -12.493  13.399  71.859  1.00  0.00     0.046 C  
HETATM   23  C   UNL     1     -11.368  15.624  71.501  1.00  0.00    -0.381 C  
HETATM   24  N   UNL     1     -13.782  12.850  72.317  1.00  0.00    -0.526 NA 
HETATM   25  C   UNL     1     -12.041  12.853  70.468  1.00  0.00    -0.282 C  
HETATM   26  H   UNL     1     -10.622  12.419  68.417  1.00  0.00     0.000 HD 
HETATM   27  H1  UNL     1     -13.663  11.837  72.332  1.00  0.00     0.000 HD 
HETATM   28  C   UNL     1     -10.790  13.624  69.946  1.00  0.00     0.393 C  
HETATM   29  H2  UNL     1     -14.579  13.161  71.761  1.00  0.00     0.000 HD 
HETATM   30  O   UNL     1     -10.639  13.362  68.531  1.00  0.00    -0.244 OA 
BRANCH  25  31
HETATM   31  O   UNL     1     -11.667  11.440  70.504  1.00  0.00    -0.320 OA 
BRANCH  31  32
HETATM   32  C   UNL     1     -12.520  10.563  69.756  1.00  0.00    -0.064 C  
HETATM   33  O   UNL     1     -11.884  10.048  68.579  1.00  0.00     0.013 OA 
HETATM   34  C   UNL     1     -10.808   9.142  68.873  1.00  0.00    -0.070 C  
HETATM   35  C   UNL     1     -11.330   7.923  69.651  1.00  0.00     0.184 C  
HETATM   36  H   UNL     1     -14.007   9.252  72.390  1.00  0.00     0.000 HD 
HETATM   37  C   UNL     1     -11.992   8.380  70.965  1.00  0.00    -0.231 C  
HETATM   38  H1  UNL     1     -12.968   7.517  72.578  1.00  0.00     0.000 HD 
HETATM   39  O   UNL     1     -10.296   6.973  69.924  1.00  0.00    -0.200 OA 
HETATM   40  H   UNL     1     -10.619   6.220  70.405  1.00  0.00     0.000 HD 
HETATM   41  H2  UNL     1     -11.815   6.505  71.870  1.00  0.00     0.000 HD 
HETATM   42  C   UNL     1     -13.077   9.423  70.648  1.00  0.00     0.204 C  
HETATM   43  N   UNL     1     -12.530   7.214  71.708  1.00  0.00    -0.343 NA 
HETATM   44  O   UNL     1     -13.667   9.950  71.843  1.00  0.00    -0.313 OA 
BRANCH  34  45
HETATM   45  C   UNL     1     -10.179   8.693  67.547  1.00  0.00    -0.245 C  
HETATM   46  O   UNL     1      -8.971   7.968  67.779  1.00  0.00    -0.132 OA 
HETATM   47  H   UNL     1      -8.582   7.690  66.958  1.00  0.00     0.000 HD 
ENDBRANCH  34  45
ENDBRANCH  31  32
ENDBRANCH  25  31
ENDBRANCH  16  17
ENDBRANCH   7  16
ENDBRANCH   2   5
TORSDOF 6
ENDMDL
MODEL      262
REMARK 921   NORMALIZED FREE ENERGY PREDICTED BY IDOCK:   -3.49 KCAL/MOL
REMARK 922        TOTAL FREE ENERGY PREDICTED BY IDOCK:   -5.77 KCAL/MOL
REMARK 923 INTER-LIGAND FREE ENERGY PREDICTED BY IDOCK:   -5.81 KCAL/MOL
REMARK 924 INTRA-LIGAND FREE ENERGY PREDICTED BY IDOCK:    0.04 KCAL/MOL
REMARK 927      BINDING AFFINITY PREDICTED BY RF-SCORE:    0.00 PKD
ROOT
HETATM    1  N   UNL     1      -9.124  13.083  66.513  1.00  0.00    -0.407 NA 
HETATM    2  C   UNL     1      -7.838  12.964  67.216  1.00  0.00    -0.131 C  
HETATM    3  H2  UNL     1      -9.889  12.721  67.081  1.00  0.00     0.000 HD 
HETATM    4  H1  UNL     1      -9.311  14.037  66.208  1.00  0.00     0.000 HD 
ENDROOT
BRANCH   2   5
HETATM    5  C   UNL     1      -7.554  11.513  67.679  1.00  0.00    -0.115 C  
HETATM    6  O   UNL     1      -8.717  10.674  67.588  1.00  0.00    -0.121 OA 
HETATM    7  C   UNL     1      -9.146  10.380  66.268  1.00  0.00    -0.158 C  
HETATM    8  C   UNL     1      -8.022   9.610  65.502  1.00  0.00    -0.115 C  
HETATM    9  C   UNL     1      -6.352  10.885  66.947  1.00  0.00    -0.088 C  
HETATM   10  N   UNL     1      -7.767   8.264  66.061  1.00  0.00    -0.091 NA 
HETATM   11  C   UNL     1      -6.721  10.434  65.529  1.00  0.00    -0.121 C  
HETATM   12  H   UNL     1      -5.157   9.375  67.265  1.00  0.00     0.000 HD 
HETATM   13  H1  UNL     1      -7.034   7.761  65.561  1.00  0.00     0.000 HD 
HETATM   14  H2  UNL     1      -8.626   7.716  66.100  1.00  0.00     0.000 HD 
HETATM   15  O   UNL     1      -5.898   9.763  67.715  1.00  0.00    -0.040 OA 
BRANCH   7  16
HETATM   16  O   UNL     1     -10.341   9.582  66.301  1.00  0.00    -0.244 OA 
BRANCH  16  17
HETATM   17  C   UNL     1     -10.961   9.381  67.605  1.00  0.00    -0.036 C  
HETATM   18  N   UNL     1     -11.874  11.688  67.761  1.00  0.00    -0.611 NA 
HETATM   19  C   UNL     1     -11.672  10.409  69.803  1.00  0.00    -0.310 C  
HETATM   20  H1  UNL     1     -11.934  12.542  68.313  1.00  0.00     0.000 HD 
HETATM   21  H2  UNL     1     -12.798  11.325  67.527  1.00  0.00     0.000 HD 
HETATM   22  C   UNL     1     -10.875   9.367  70.588  1.00  0.00    -0.283 C  
HETATM   23  C   UNL     1     -11.051  10.675  68.441  1.00  0.00    -0.272 C  
HETATM   24  N   UNL     1     -11.504   9.299  71.918  1.00  0.00    -0.367 NA 
HETATM   25  C   UNL     1     -10.834   7.995  69.845  1.00  0.00    -0.217 C  
HETATM   26  H   UNL     1     -10.320   6.238  68.096  1.00  0.00     0.000 HD 
HETATM   27  H1  UNL     1     -10.972   8.604  72.442  1.00  0.00     0.000 HD 
HETATM   28  C   UNL     1     -10.356   8.172  68.371  1.00  0.00    -0.199 C  
HETATM   29  H2  UNL     1     -12.506   9.108  71.887  1.00  0.00     0.000 HD 
HETATM   30  O   UNL     1     -10.689   6.977  67.627  1.00  0.00    -0.237 OA 
BRANCH  25  31
HETATM   31  O   UNL     1      -9.916   7.039  70.463  1.00  0.00    -0.183 OA 
BRANCH  31  32
HETATM   32  C   UNL     1      -8.601   7.541  70.733  1.00  0.00    -0.135 C  
HETATM   33  O   UNL     1      -8.449   7.988  72.086  1.00  0.00    -0.120 OA 
HETATM   34  C   UNL     1      -8.496   6.915  73.040  1.00  0.00    -0.114 C  
HETATM   35  C   UNL     1      -7.355   5.918  72.784  1.00  0.00    -0.091 C  
HETATM   36  H   UNL     1      -7.040   5.395  68.776  1.00  0.00     0.000 HD 
HETATM   37  C   UNL     1      -7.465   5.344  71.358  1.00  0.00    -0.097 C  
HETATM   38  H1  UNL     1      -6.422   4.026  70.144  1.00  0.00     0.000 HD 
HETATM   39  O   UNL     1      -7.338   4.856  73.743  1.00  0.00    -0.080 OA 
HETATM   40  H   UNL     1      -6.633   4.240  73.584  1.00  0.00     0.000 HD 
HETATM   41  H2  UNL     1      -6.294   3.669  71.790  1.00  0.00     0.000 HD 
HETATM   42  C   UNL     1      -7.512   6.504  70.349  1.00  0.00    -0.094 C  
HETATM   43  N   UNL     1      -6.349   4.406  71.088  1.00  0.00    -0.018 NA 
HETATM   44  O   UNL     1      -7.706   6.030  69.011  1.00  0.00    -0.089 OA 
BRANCH  34  45
HETATM   45  C   UNL     1      -8.368   7.514  74.448  1.00  0.00    -0.214 C  
HETATM   46  O   UNL     1      -7.662   8.755  74.408  1.00  0.00    -0.411 OA 
HETATM   47  H   UNL     1      -7.583   9.126  75.278  1.00  0.00     0.000 HD 
ENDBRANCH  34  45
ENDBRANCH  31  32
ENDBRANCH  25  31
ENDBRANCH  16  17
ENDBRANCH   7  16
ENDBRANCH   2   5
TORSDOF 6
ENDMDL
MODEL      263
REMARK 921   NORMALIZED FREE ENERGY PREDICTED BY IDOCK:   -3.47 KCAL/MOL
REMARK 922        TOTAL FREE ENERGY PREDICTED BY IDOCK:   -5.74 KCAL/MOL
REMARK 923 INTER-LIGAND FREE ENERGY PREDICTED BY IDOCK:   -5.27 KCAL/MOL
REMARK 924 INTRA-LIGAND FREE ENERGY PREDICTED BY IDOCK:   -0.48 KCAL/MOL
REMARK 927      BINDING AFFINITY PREDICTED BY RF-SCORE:    0.00 PKD
ROOT
HETATM    1  N   UNL     1     -11.448   4.500  64.912  1.00  0.00    -1.070 NA 
HETATM    2  C   UNL     1     -10.148   4.123  65.485  1.00  0.00    -0.187 C  
HETATM    3  H2  UNL     1     -11.493   5.502  64.728  1.00  0.00     0.000 HD 
HETATM    4  H1  UNL     1     -11.673   3.961  64.076  1.00  0.00     0.000 HD 
ENDROOT
BRANCH   2   5
HETATM    5  C   UNL     1      -9.807   4.941  66.755  1.00  0.00    -0.200 C  
HETATM    6  O   UNL     1      -8.556   4.545  67.340  1.00  0.00    -0.104 OA 
HETATM    7  C   UNL     1      -7.405   4.873  66.579  1.00  0.00    -0.082 C  
HETATM    8  C   UNL     1      -7.305   6.424  66.405  1.00  0.00    -0.081 C  
HETATM    9  C   UNL     1      -9.853   6.462  66.507  1.00  0.00    -0.116 C  
HETATM   10  N   UNL     1      -7.054   7.127  67.681  1.00  0.00    -0.086 NA 
HETATM   11  C   UNL     1      -8.604   6.956  65.769  1.00  0.00    -0.139 C  
HETATM   12  H   UNL     1      -9.992   8.055  67.625  1.00  0.00     0.000 HD 
HETATM   13  H1  UNL     1      -6.989   8.139  67.568  1.00  0.00     0.000 HD 
HETATM   14  H2  UNL     1      -6.226   6.757  68.146  1.00  0.00     0.000 HD 
HETATM   15  O   UNL     1      -9.964   7.118  67.777  1.00  0.00    -0.143 OA 
BRANCH   7  16
HETATM   16  O   UNL     1      -6.221   4.385  67.233  1.00  0.00    -0.036 OA 
BRANCH  16  17
HETATM   17  C   UNL     1      -6.417   3.619  68.457  1.00  0.00    -0.037 C  
HETATM   18  N   UNL     1      -7.020   1.508  67.291  1.00  0.00    -0.038 NA 
HETATM   19  C   UNL     1      -7.645   1.736  69.616  1.00  0.00    -0.042 C  
HETATM   20  H1  UNL     1      -7.702   0.757  67.192  1.00  0.00     0.000 HD 
HETATM   21  H2  UNL     1      -6.088   1.145  67.492  1.00  0.00     0.000 HD 
HETATM   22  C   UNL     1      -8.101   2.675  70.733  1.00  0.00    -0.049 C  
HETATM   23  C   UNL     1      -7.451   2.483  68.306  1.00  0.00    -0.048 C  
HETATM   24  N   UNL     1      -8.370   1.813  71.897  1.00  0.00    -0.048 NA 
HETATM   25  C   UNL     1      -7.047   3.792  71.013  1.00  0.00    -0.033 C  
HETATM   26  H   UNL     1      -5.573   5.824  70.684  1.00  0.00     0.000 HD 
HETATM   27  H1  UNL     1      -8.675   2.440  72.642  1.00  0.00     0.000 HD 
HETATM   28  C   UNL     1      -6.651   4.528  69.696  1.00  0.00    -0.033 C  
HETATM   29  H2  UNL     1      -7.581   1.221  72.158  1.00  0.00     0.000 HD 
HETATM   30  O   UNL     1      -5.430   5.269  69.927  1.00  0.00    -0.007 OA 
BRANCH  25  31
HETATM   31  O   UNL     1      -7.536   4.822  71.928  1.00  0.00    -0.084 OA 
BRANCH  31  32
HETATM   32  C   UNL     1      -7.923   6.056  71.310  1.00  0.00    -0.113 C  
HETATM   33  O   UNL     1      -9.314   6.088  70.968  1.00  0.00    -0.159 OA 
HETATM   34  C   UNL     1     -10.175   6.117  72.118  1.00  0.00    -0.186 C  
HETATM   35  C   UNL     1      -9.907   7.376  72.958  1.00  0.00    -0.230 C  
HETATM   36  H   UNL     1      -5.896   7.947  73.095  1.00  0.00     0.000 HD 
HETATM   37  C   UNL     1      -8.436   7.403  73.415  1.00  0.00    -0.138 C  
HETATM   38  H1  UNL     1      -7.183   8.649  74.501  1.00  0.00     0.000 HD 
HETATM   39  O   UNL     1     -10.776   7.466  74.090  1.00  0.00    -0.540 OA 
HETATM   40  H   UNL     1     -10.611   8.244  74.610  1.00  0.00     0.000 HD 
HETATM   41  H2  UNL     1      -8.800   8.735  74.982  1.00  0.00     0.000 HD 
HETATM   42  C   UNL     1      -7.522   7.273  72.185  1.00  0.00    -0.080 C  
HETATM   43  N   UNL     1      -8.157   8.631  74.198  1.00  0.00    -0.352 NA 
HETATM   44  O   UNL     1      -6.141   7.202  72.559  1.00  0.00    -0.041 OA 
BRANCH  34  45
HETATM   45  C   UNL     1     -11.631   6.106  71.632  1.00  0.00    -0.257 C  
HETATM   46  O   UNL     1     -12.519   5.777  72.701  1.00  0.00    -0.511 OA 
HETATM   47  H   UNL     1     -13.420   5.770  72.400  1.00  0.00     0.000 HD 
ENDBRANCH  34  45
ENDBRANCH  31  32
ENDBRANCH  25  31
ENDBRANCH  16  17
ENDBRANCH   7  16
ENDBRANCH   2   5
TORSDOF 6
ENDMDL
MODEL      264
REMARK 921   NORMALIZED FREE ENERGY PREDICTED BY IDOCK:   -3.45 KCAL/MOL
REMARK 922        TOTAL FREE ENERGY PREDICTED BY IDOCK:   -5.71 KCAL/MOL
REMARK 923 INTER-LIGAND FREE ENERGY PREDICTED BY IDOCK:   -4.75 KCAL/MOL
REMARK 924 INTRA-LIGAND FREE ENERGY PREDICTED BY IDOCK:   -0.96 KCAL/MOL
REMARK 927      BINDING AFFINITY PREDICTED BY RF-SCORE:    0.00 PKD
ROOT
HETATM    1  N   UNL     1      -8.727   6.243  64.721  1.00  0.00    -0.346 NA 
HETATM    2  C   UNL     1      -7.743   6.920  63.864  1.00  0.00    -0.115 C  
HETATM    3  H2  UNL     1      -9.674   6.565  64.521  1.00  0.00     0.000 HD 
HETATM    4  H1  UNL     1      -8.662   5.228  64.656  1.00  0.00     0.000 HD 
ENDROOT
BRANCH   2   5
HETATM    5  C   UNL     1      -7.842   8.464  63.964  1.00  0.00    -0.146 C  
HETATM    6  O   UNL     1      -7.578   8.943  65.291  1.00  0.00    -0.094 OA 
HETATM    7  C   UNL     1      -6.235   8.802  65.726  1.00  0.00    -0.056 C  
HETATM    8  C   UNL     1      -5.285   9.624  64.796  1.00  0.00    -0.051 C  
HETATM    9  C   UNL     1      -6.958   9.179  62.923  1.00  0.00    -0.091 C  
HETATM   10  N   UNL     1      -5.503  11.083  64.901  1.00  0.00    -0.477 NA 
HETATM   11  C   UNL     1      -5.481   9.178  63.335  1.00  0.00    -0.067 C  
HETATM   12  H   UNL     1      -6.883  10.969  62.149  1.00  0.00     0.000 HD 
HETATM   13  H1  UNL     1      -4.883  11.620  64.294  1.00  0.00     0.000 HD 
HETATM   14  H2  UNL     1      -5.427  11.395  65.869  1.00  0.00     0.000 HD 
HETATM   15  O   UNL     1      -7.428  10.527  62.790  1.00  0.00    -0.140 OA 
BRANCH   7  16
HETATM   16  O   UNL     1      -6.101   9.264  67.081  1.00  0.00    -0.055 OA 
BRANCH  16  17
HETATM   17  C   UNL     1      -7.245   9.060  67.960  1.00  0.00    -0.080 C  
HETATM   18  N   UNL     1      -8.418  11.138  67.265  1.00  0.00    -0.134 NA 
HETATM   19  C   UNL     1      -9.071  10.116  69.356  1.00  0.00    -0.217 C  
HETATM   20  H1  UNL     1      -8.854  12.009  67.566  1.00  0.00     0.000 HD 
HETATM   21  H2  UNL     1      -9.052  10.577  66.697  1.00  0.00     0.000 HD 
HETATM   22  C   UNL     1      -8.627   9.331  70.591  1.00  0.00    -0.225 C  
HETATM   23  C   UNL     1      -7.905  10.378  68.416  1.00  0.00    -0.104 C  
HETATM   24  N   UNL     1      -9.810   9.256  71.466  1.00  0.00    -0.254 NA 
HETATM   25  C   UNL     1      -8.045   7.934  70.208  1.00  0.00    -0.115 C  
HETATM   26  H   UNL     1      -6.511   6.168  69.238  1.00  0.00     0.000 HD 
HETATM   27  H1  UNL     1      -9.515   8.734  72.290  1.00  0.00     0.000 HD 
HETATM   28  C   UNL     1      -6.936   8.072  69.120  1.00  0.00    -0.057 C  
HETATM   29  H2  UNL     1     -10.633   8.864  71.007  1.00  0.00     0.000 HD 
HETATM   30  O   UNL     1      -6.700   6.772  68.530  1.00  0.00    -0.059 OA 
BRANCH  25  31
HETATM   31  O   UNL     1      -7.427   7.243  71.339  1.00  0.00    -0.080 OA 
BRANCH  31  32
HETATM   32  C   UNL     1      -8.259   6.277  71.993  1.00  0.00    -0.110 C  
HETATM   33  O   UNL     1      -9.598   6.267  71.481  1.00  0.00    -0.156 OA 
HETATM   34  C   UNL     1      -9.679   5.778  70.132  1.00  0.00    -0.170 C  
HETATM   35  C   UNL     1      -9.175   4.328  70.054  1.00  0.00    -0.137 C  
HETATM   36  H   UNL     1      -5.876   4.033  72.392  1.00  0.00     0.000 HD 
HETATM   37  C   UNL     1      -7.716   4.250  70.542  1.00  0.00    -0.052 C  
HETATM   38  H1  UNL     1      -6.264   2.797  70.827  1.00  0.00     0.000 HD 
HETATM   39  O   UNL     1      -9.282   3.788  68.734  1.00  0.00    -0.130 OA 
HETATM   40  H   UNL     1      -8.971   2.892  68.685  1.00  0.00     0.000 HD 
HETATM   41  H2  UNL     1      -7.344   2.433  69.580  1.00  0.00     0.000 HD 
HETATM   42  C   UNL     1      -7.621   4.863  71.950  1.00  0.00    -0.097 C  
HETATM   43  N   UNL     1      -7.230   2.849  70.504  1.00  0.00    -0.033 NA 
HETATM   44  O   UNL     1      -6.267   4.899  72.419  1.00  0.00    -0.027 OA 
BRANCH  34  45
HETATM   45  C   UNL     1     -11.144   5.853  69.679  1.00  0.00    -0.343 C  
HETATM   46  O   UNL     1     -11.297   6.793  68.615  1.00  0.00    -0.535 OA 
HETATM   47  H   UNL     1     -12.204   6.840  68.335  1.00  0.00     0.000 HD 
ENDBRANCH  34  45
ENDBRANCH  31  32
ENDBRANCH  25  31
ENDBRANCH  16  17
ENDBRANCH   7  16
ENDBRANCH   2   5
TORSDOF 6
ENDMDL
MODEL      265
REMARK 921   NORMALIZED FREE ENERGY PREDICTED BY IDOCK:   -3.39 KCAL/MOL
REMARK 922        TOTAL FREE ENERGY PREDICTED BY IDOCK:   -5.63 KCAL/MOL
REMARK 923 INTER-LIGAND FREE ENERGY PREDICTED BY IDOCK:   -6.47 KCAL/MOL
REMARK 924 INTRA-LIGAND FREE ENERGY PREDICTED BY IDOCK:    0.84 KCAL/MOL
REMARK 927      BINDING AFFINITY PREDICTED BY RF-SCORE:    0.00 PKD
ROOT
HETATM    1  N   UNL     1      -9.176  18.074  66.258  1.00  0.00    -0.454 NA 
HETATM    2  C   UNL     1      -8.159  17.030  66.452  1.00  0.00    -0.300 C  
HETATM    3  H2  UNL     1      -9.990  17.910  66.849  1.00  0.00     0.000 HD 
HETATM    4  H1  UNL     1      -8.799  19.010  66.400  1.00  0.00     0.000 HD 
ENDROOT
BRANCH   2   5
HETATM    5  C   UNL     1      -8.731  15.606  66.235  1.00  0.00    -0.290 C  
HETATM    6  O   UNL     1      -9.035  14.945  67.473  1.00  0.00    -0.174 OA 
HETATM    7  C   UNL     1     -10.129  15.491  68.194  1.00  0.00    -0.218 C  
HETATM    8  C   UNL     1     -11.434  15.385  67.340  1.00  0.00    -0.195 C  
HETATM    9  C   UNL     1      -9.942  15.596  65.282  1.00  0.00    -0.194 C  
HETATM   10  N   UNL     1     -11.862  13.987  67.120  1.00  0.00    -0.391 NA 
HETATM   11  C   UNL     1     -11.219  16.078  65.981  1.00  0.00     0.142 C  
HETATM   12  H   UNL     1     -10.869  14.251  64.215  1.00  0.00     0.000 HD 
HETATM   13  H1  UNL     1     -12.715  13.918  66.563  1.00  0.00     0.000 HD 
HETATM   14  H2  UNL     1     -11.964  13.492  68.006  1.00  0.00     0.000 HD 
HETATM   15  O   UNL     1     -10.122  14.258  64.802  1.00  0.00    -0.365 OA 
BRANCH   7  16
HETATM   16  O   UNL     1     -10.307  14.787  69.434  1.00  0.00    -0.217 OA 
BRANCH  16  17
HETATM   17  C   UNL     1     -11.195  13.632  69.411  1.00  0.00    -0.196 C  
HETATM   18  N   UNL     1     -13.115  14.822  70.449  1.00  0.00    -0.598 NA 
HETATM   19  C   UNL     1     -13.118  12.404  70.502  1.00  0.00     0.424 C  
HETATM   20  H1  UNL     1     -13.804  14.829  71.200  1.00  0.00     0.000 HD 
HETATM   21  H2  UNL     1     -13.557  14.885  69.532  1.00  0.00     0.000 HD 
HETATM   22  C   UNL     1     -12.288  11.124  70.605  1.00  0.00    -0.388 C  
HETATM   23  C   UNL     1     -12.239  13.643  70.548  1.00  0.00    -0.368 C  
HETATM   24  N   UNL     1     -13.260  10.020  70.676  1.00  0.00    -0.607 NA 
HETATM   25  C   UNL     1     -11.280  10.995  69.421  1.00  0.00    -0.268 C  
HETATM   26  H   UNL     1      -9.321  11.464  67.887  1.00  0.00     0.000 HD 
HETATM   27  H1  UNL     1     -12.707   9.166  70.745  1.00  0.00     0.000 HD 
HETATM   28  C   UNL     1     -10.423  12.290  69.274  1.00  0.00     0.191 C  
HETATM   29  H2  UNL     1     -13.927  10.013  69.903  1.00  0.00     0.000 HD 
HETATM   30  O   UNL     1      -9.792  12.285  67.971  1.00  0.00    -0.192 OA 
BRANCH  25  31
HETATM   31  O   UNL     1     -10.334   9.893  69.594  1.00  0.00    -0.208 OA 
BRANCH  31  32
HETATM   32  C   UNL     1     -10.625   8.713  68.834  1.00  0.00    -0.144 C  
HETATM   33  O   UNL     1      -9.782   8.578  67.683  1.00  0.00    -0.148 OA 
HETATM   34  C   UNL     1      -8.410   8.313  68.020  1.00  0.00    -0.129 C  
HETATM   35  C   UNL     1      -8.293   6.994  68.799  1.00  0.00    -0.122 C  
HETATM   36  H   UNL     1     -11.363   6.837  71.443  1.00  0.00     0.000 HD 
HETATM   37  C   UNL     1      -9.135   7.065  70.088  1.00  0.00    -0.149 C  
HETATM   38  H1  UNL     1      -9.614   5.832  71.684  1.00  0.00     0.000 HD 
HETATM   39  O   UNL     1      -6.936   6.670  69.115  1.00  0.00    -0.072 OA 
HETATM   40  H   UNL     1      -6.864   5.855  69.597  1.00  0.00     0.000 HD 
HETATM   41  H2  UNL     1      -8.093   5.515  71.023  1.00  0.00     0.000 HD 
HETATM   42  C   UNL     1     -10.581   7.445  69.726  1.00  0.00    -0.236 C  
HETATM   43  N   UNL     1      -9.057   5.784  70.831  1.00  0.00    -0.144 NA 
HETATM   44  O   UNL     1     -11.390   7.614  70.897  1.00  0.00    -0.268 OA 
BRANCH  34  45
HETATM   45  C   UNL     1      -7.600   8.231  66.718  1.00  0.00    -0.091 C  
HETATM   46  O   UNL     1      -7.935   7.053  65.986  1.00  0.00    -0.099 OA 
HETATM   47  H   UNL     1      -7.434   7.002  65.181  1.00  0.00     0.000 HD 
ENDBRANCH  34  45
ENDBRANCH  31  32
ENDBRANCH  25  31
ENDBRANCH  16  17
ENDBRANCH   7  16
ENDBRANCH   2   5
TORSDOF 6
ENDMDL
MODEL      266
REMARK 921   NORMALIZED FREE ENERGY PREDICTED BY IDOCK:   -3.33 KCAL/MOL
REMARK 922        TOTAL FREE ENERGY PREDICTED BY IDOCK:   -5.56 KCAL/MOL
REMARK 923 INTER-LIGAND FREE ENERGY PREDICTED BY IDOCK:   -7.11 KCAL/MOL
REMARK 924 INTRA-LIGAND FREE ENERGY PREDICTED BY IDOCK:    1.55 KCAL/MOL
REMARK 927      BINDING AFFINITY PREDICTED BY RF-SCORE:    0.00 PKD
ROOT
HETATM    1  N   UNL     1     -11.382   5.495  73.958  1.00  0.00    -0.227 NA 
HETATM    2  C   UNL     1     -10.911   4.110  73.814  1.00  0.00    -0.263 C  
HETATM    3  H2  UNL     1     -11.492   5.943  73.049  1.00  0.00     0.000 HD 
HETATM    4  H1  UNL     1     -12.241   5.555  74.505  1.00  0.00     0.000 HD 
ENDROOT
BRANCH   2   5
HETATM    5  C   UNL     1      -9.606   4.018  72.983  1.00  0.00    -0.126 C  
HETATM    6  O   UNL     1      -9.733   4.645  71.697  1.00  0.00    -0.155 OA 
HETATM    7  C   UNL     1      -9.851   6.059  71.725  1.00  0.00    -0.165 C  
HETATM    8  C   UNL     1      -8.570   6.687  72.365  1.00  0.00    -0.124 C  
HETATM    9  C   UNL     1      -8.380   4.553  73.749  1.00  0.00    -0.104 C  
HETATM   10  N   UNL     1      -7.360   6.484  71.538  1.00  0.00    -0.086 NA 
HETATM   11  C   UNL     1      -8.345   6.086  73.765  1.00  0.00    -0.114 C  
HETATM   12  H   UNL     1      -6.444   4.372  73.587  1.00  0.00     0.000 HD 
HETATM   13  H1  UNL     1      -6.524   6.894  71.956  1.00  0.00     0.000 HD 
HETATM   14  H2  UNL     1      -7.503   6.830  70.590  1.00  0.00     0.000 HD 
HETATM   15  O   UNL     1      -7.200   4.042  73.115  1.00  0.00    -0.063 OA 
BRANCH   7  16
HETATM   16  O   UNL     1     -10.024   6.569  70.392  1.00  0.00    -0.178 OA 
BRANCH  16  17
HETATM   17  C   UNL     1     -10.280   7.999  70.266  1.00  0.00    -0.200 C  
HETATM   18  N   UNL     1     -11.525   8.180  72.409  1.00  0.00    -0.373 NA 
HETATM   19  C   UNL     1     -11.821   9.937  70.775  1.00  0.00    -0.415 C  
HETATM   20  H1  UNL     1     -12.385   8.478  72.870  1.00  0.00     0.000 HD 
HETATM   21  H2  UNL     1     -10.702   8.604  72.838  1.00  0.00     0.000 HD 
HETATM   22  C   UNL     1     -11.899  10.309  69.294  1.00  0.00    -0.010 C  
HETATM   23  C   UNL     1     -11.581   8.448  70.963  1.00  0.00    -0.275 C  
HETATM   24  N   UNL     1     -12.257  11.738  69.257  1.00  0.00    -0.208 NA 
HETATM   25  C   UNL     1     -10.570   9.978  68.546  1.00  0.00    -0.215 C  
HETATM   26  H   UNL     1      -8.665   8.656  67.528  1.00  0.00     0.000 HD 
HETATM   27  H1  UNL     1     -12.310  11.985  68.269  1.00  0.00     0.000 HD 
HETATM   28  C   UNL     1     -10.139   8.501  68.802  1.00  0.00    -0.196 C  
HETATM   29  H2  UNL     1     -11.623  12.331  69.793  1.00  0.00     0.000 HD 
HETATM   30  O   UNL     1      -8.751   8.349  68.423  1.00  0.00    -0.135 OA 
BRANCH  25  31
HETATM   31  O   UNL     1     -10.677  10.130  67.096  1.00  0.00    -0.250 OA 
BRANCH  31  32
HETATM   32  C   UNL     1      -9.591  10.826  66.472  1.00  0.00    -0.183 C  
HETATM   33  O   UNL     1      -9.833  11.094  65.085  1.00  0.00    -0.230 OA 
HETATM   34  C   UNL     1     -10.883  12.053  64.875  1.00  0.00    -0.301 C  
HETATM   35  C   UNL     1     -10.518  13.400  65.519  1.00  0.00    -0.291 C  
HETATM   36  H   UNL     1      -8.816  12.633  69.118  1.00  0.00     0.000 HD 
HETATM   37  C   UNL     1     -10.285  13.216  67.031  1.00  0.00    -0.250 C  
HETATM   38  H1  UNL     1      -9.745  14.381  68.659  1.00  0.00     0.000 HD 
HETATM   39  O   UNL     1     -11.519  14.397  65.293  1.00  0.00    -0.328 OA 
HETATM   40  H   UNL     1     -11.293  15.229  65.691  1.00  0.00     0.000 HD 
HETATM   41  H2  UNL     1     -10.579  15.238  67.465  1.00  0.00     0.000 HD 
HETATM   42  C   UNL     1      -9.229  12.118  67.249  1.00  0.00    -0.185 C  
HETATM   43  N   UNL     1      -9.898  14.503  67.657  1.00  0.00    -0.221 NA 
HETATM   44  O   UNL     1      -9.037  11.841  68.642  1.00  0.00    -0.159 OA 
BRANCH  34  45
HETATM   45  C   UNL     1     -11.082  12.227  63.362  1.00  0.00    -0.418 C  
HETATM   46  O   UNL     1     -12.276  12.961  63.089  1.00  0.00    -0.661 OA 
HETATM   47  H   UNL     1     -12.399  13.069  62.154  1.00  0.00     0.000 HD 
ENDBRANCH  34  45
ENDBRANCH  31  32
ENDBRANCH  25  31
ENDBRANCH  16  17
ENDBRANCH   7  16
ENDBRANCH   2   5
TORSDOF 6
ENDMDL
MODEL      267
REMARK 921   NORMALIZED FREE ENERGY PREDICTED BY IDOCK:   -3.31 KCAL/MOL
REMARK 922        TOTAL FREE ENERGY PREDICTED BY IDOCK:   -5.53 KCAL/MOL
REMARK 923 INTER-LIGAND FREE ENERGY PREDICTED BY IDOCK:   -4.25 KCAL/MOL
REMARK 924 INTRA-LIGAND FREE ENERGY PREDICTED BY IDOCK:   -1.28 KCAL/MOL
REMARK 927      BINDING AFFINITY PREDICTED BY RF-SCORE:    0.00 PKD
ROOT
HETATM    1  N   UNL     1      -6.407   7.247  69.574  1.00  0.00    -0.035 NA 
HETATM    2  C   UNL     1      -6.684   8.662  69.285  1.00  0.00    -0.050 C  
HETATM    3  H2  UNL     1      -6.185   6.733  68.722  1.00  0.00     0.000 HD 
HETATM    4  H1  UNL     1      -5.675   7.133  70.275  1.00  0.00     0.000 HD 
ENDROOT
BRANCH   2   5
HETATM    5  C   UNL     1      -7.796   8.836  68.220  1.00  0.00    -0.101 C  
HETATM    6  O   UNL     1      -9.076   8.387  68.689  1.00  0.00    -0.140 OA 
HETATM    7  C   UNL     1      -9.655   9.181  69.713  1.00  0.00    -0.181 C  
HETATM    8  C   UNL     1      -9.897  10.633  69.187  1.00  0.00    -0.200 C  
HETATM    9  C   UNL     1      -7.872  10.277  67.677  1.00  0.00    -0.098 C  
HETATM   10  N   UNL     1     -10.919  10.692  68.120  1.00  0.00    -0.248 NA 
HETATM   11  C   UNL     1      -8.572  11.219  68.664  1.00  0.00    -0.139 C  
HETATM   12  H   UNL     1      -8.634  11.137  66.101  1.00  0.00     0.000 HD 
HETATM   13  H1  UNL     1     -11.077  11.640  67.776  1.00  0.00     0.000 HD 
HETATM   14  H2  UNL     1     -11.793  10.264  68.426  1.00  0.00     0.000 HD 
HETATM   15  O   UNL     1      -8.587  10.249  66.435  1.00  0.00    -0.129 OA 
BRANCH   7  16
HETATM   16  O   UNL     1     -10.903   8.609  70.139  1.00  0.00    -0.234 OA 
BRANCH  16  17
HETATM   17  C   UNL     1     -10.848   7.275  70.724  1.00  0.00    -0.241 C  
HETATM   18  N   UNL     1     -10.588   8.081  73.060  1.00  0.00    -0.334 NA 
HETATM   19  C   UNL     1      -9.958   5.798  72.573  1.00  0.00    -0.194 C  
HETATM   20  H1  UNL     1     -10.037   8.040  73.917  1.00  0.00     0.000 HD 
HETATM   21  H2  UNL     1     -11.569   7.861  73.234  1.00  0.00     0.000 HD 
HETATM   22  C   UNL     1      -9.365   4.823  71.556  1.00  0.00    -0.147 C  
HETATM   23  C   UNL     1     -10.014   7.213  72.020  1.00  0.00    -0.162 C  
HETATM   24  N   UNL     1      -9.253   3.531  72.255  1.00  0.00    -0.105 NA 
HETATM   25  C   UNL     1     -10.225   4.756  70.254  1.00  0.00    -0.192 C  
HETATM   26  H   UNL     1     -11.343   5.445  68.090  1.00  0.00     0.000 HD 
HETATM   27  H1  UNL     1      -8.857   2.881  71.577  1.00  0.00     0.000 HD 
HETATM   28  C   UNL     1     -10.481   6.183  69.681  1.00  0.00    -0.252 C  
HETATM   29  H2  UNL     1     -10.131   3.211  72.665  1.00  0.00     0.000 HD 
HETATM   30  O   UNL     1     -11.567   6.113  68.727  1.00  0.00    -0.110 OA 
BRANCH  25  31
HETATM   31  O   UNL     1      -9.583   3.992  69.185  1.00  0.00    -0.175 OA 
BRANCH  31  32
HETATM   32  C   UNL     1      -8.719   4.748  68.327  1.00  0.00    -0.102 C  
HETATM   33  O   UNL     1      -7.352   4.718  68.757  1.00  0.00    -0.059 OA 
HETATM   34  C   UNL     1      -6.749   3.420  68.619  1.00  0.00    -0.045 C  
HETATM   35  C   UNL     1      -6.749   2.981  67.147  1.00  0.00    -0.045 C  
HETATM   36  H   UNL     1     -10.325   4.018  65.543  1.00  0.00     0.000 HD 
HETATM   37  C   UNL     1      -8.193   2.938  66.609  1.00  0.00    -0.087 C  
HETATM   38  H1  UNL     1      -9.158   2.520  64.822  1.00  0.00     0.000 HD 
HETATM   39  O   UNL     1      -6.116   1.712  66.960  1.00  0.00    -0.019 OA 
HETATM   40  H   UNL     1      -6.117   1.441  66.050  1.00  0.00     0.000 HD 
HETATM   41  H2  UNL     1      -7.713   1.668  65.021  1.00  0.00     0.000 HD 
HETATM   42  C   UNL     1      -8.862   4.302  66.848  1.00  0.00    -0.116 C  
HETATM   43  N   UNL     1      -8.202   2.549  65.178  1.00  0.00    -0.083 NA 
HETATM   44  O   UNL     1     -10.238   4.292  66.448  1.00  0.00    -0.213 OA 
BRANCH  34  45
HETATM   45  C   UNL     1      -5.310   3.497  69.148  1.00  0.00    -0.012 C  
HETATM   46  O   UNL     1      -5.168   2.732  70.344  1.00  0.00    -0.004 OA 
HETATM   47  H   UNL     1      -4.277   2.780  70.671  1.00  0.00     0.000 HD 
ENDBRANCH  34  45
ENDBRANCH  31  32
ENDBRANCH  25  31
ENDBRANCH  16  17
ENDBRANCH   7  16
ENDBRANCH   2   5
TORSDOF 6
ENDMDL
MODEL      268
REMARK 921   NORMALIZED FREE ENERGY PREDICTED BY IDOCK:   -3.28 KCAL/MOL
REMARK 922        TOTAL FREE ENERGY PREDICTED BY IDOCK:   -5.49 KCAL/MOL
REMARK 923 INTER-LIGAND FREE ENERGY PREDICTED BY IDOCK:   -5.36 KCAL/MOL
REMARK 924 INTRA-LIGAND FREE ENERGY PREDICTED BY IDOCK:   -0.12 KCAL/MOL
REMARK 927      BINDING AFFINITY PREDICTED BY RF-SCORE:    0.00 PKD
ROOT
HETATM    1  N   UNL     1      -9.875  13.653  68.851  1.00  0.00    -0.424 NA 
HETATM    2  C   UNL     1      -8.527  13.677  68.265  1.00  0.00    -0.170 C  
HETATM    3  H2  UNL     1      -9.839  13.772  69.863  1.00  0.00     0.000 HD 
HETATM    4  H1  UNL     1     -10.495  14.338  68.421  1.00  0.00     0.000 HD 
ENDROOT
BRANCH   2   5
HETATM    5  C   UNL     1      -7.584  12.635  68.918  1.00  0.00     0.055 C  
HETATM    6  O   UNL     1      -8.098  11.297  68.821  1.00  0.00    -0.145 OA 
HETATM    7  C   UNL     1      -8.118  10.754  67.511  1.00  0.00    -0.111 C  
HETATM    8  C   UNL     1      -6.662  10.677  66.945  1.00  0.00    -0.091 C  
HETATM    9  C   UNL     1      -6.143  12.723  68.377  1.00  0.00    -0.069 C  
HETATM   10  N   UNL     1      -5.813   9.713  67.678  1.00  0.00    -0.044 NA 
HETATM   11  C   UNL     1      -6.016  12.074  66.994  1.00  0.00    -0.135 C  
HETATM   12  H   UNL     1      -4.388  12.117  68.976  1.00  0.00     0.000 HD 
HETATM   13  H1  UNL     1      -4.863   9.663  67.308  1.00  0.00     0.000 HD 
HETATM   14  H2  UNL     1      -6.246   8.790  67.702  1.00  0.00     0.000 HD 
HETATM   15  O   UNL     1      -5.276  12.064  69.309  1.00  0.00    -0.055 OA 
BRANCH   7  16
HETATM   16  O   UNL     1      -8.698   9.438  67.528  1.00  0.00    -0.122 OA 
BRANCH  16  17
HETATM   17  C   UNL     1      -9.663   9.161  68.584  1.00  0.00    -0.155 C  
HETATM   18  N   UNL     1     -11.598  10.129  67.360  1.00  0.00    -0.280 NA 
HETATM   19  C   UNL     1     -11.794   9.855  69.754  1.00  0.00    -0.015 C  
HETATM   20  H1  UNL     1     -12.372  10.792  67.382  1.00  0.00     0.000 HD 
HETATM   21  H2  UNL     1     -11.918   9.185  67.142  1.00  0.00     0.000 HD 
HETATM   22  C   UNL     1     -11.085   9.877  71.108  1.00  0.00    -0.289 C  
HETATM   23  C   UNL     1     -10.834  10.165  68.617  1.00  0.00    -0.235 C  
HETATM   24  N   UNL     1     -12.140   9.688  72.118  1.00  0.00    -0.201 NA 
HETATM   25  C   UNL     1      -9.951   8.805  71.181  1.00  0.00    -0.248 C  
HETATM   26  H   UNL     1      -7.789   7.577  70.708  1.00  0.00     0.000 HD 
HETATM   27  H1  UNL     1     -11.667   9.703  73.022  1.00  0.00     0.000 HD 
HETATM   28  C   UNL     1      -8.986   8.931  69.963  1.00  0.00    -0.165 C  
HETATM   29  H2  UNL     1     -12.706   8.852  71.967  1.00  0.00     0.000 HD 
HETATM   30  O   UNL     1      -8.202   7.718  69.864  1.00  0.00    -0.121 OA 
BRANCH  25  31
HETATM   31  O   UNL     1      -9.122   8.932  72.379  1.00  0.00    -0.372 OA 
BRANCH  31  32
HETATM   32  C   UNL     1      -9.468   8.055  73.458  1.00  0.00    -0.178 C  
HETATM   33  O   UNL     1     -10.708   7.372  73.237  1.00  0.00    -0.357 OA 
HETATM   34  C   UNL     1     -10.640   6.417  72.165  1.00  0.00    -0.220 C  
HETATM   35  C   UNL     1      -9.598   5.331  72.478  1.00  0.00    -0.149 C  
HETATM   36  H   UNL     1      -6.370   7.147  74.127  1.00  0.00     0.000 HD 
HETATM   37  C   UNL     1      -8.212   5.973  72.685  1.00  0.00    -0.111 C  
HETATM   38  H1  UNL     1      -6.288   5.362  73.159  1.00  0.00     0.000 HD 
HETATM   39  O   UNL     1      -9.531   4.334  71.455  1.00  0.00    -0.137 OA 
HETATM   40  H   UNL     1      -8.887   3.663  71.648  1.00  0.00     0.000 HD 
HETATM   41  H2  UNL     1      -7.179   4.193  72.326  1.00  0.00     0.000 HD 
HETATM   42  C   UNL     1      -8.317   7.062  73.767  1.00  0.00    -0.134 C  
HETATM   43  N   UNL     1      -7.206   4.937  73.023  1.00  0.00    -0.083 NA 
HETATM   44  O   UNL     1      -7.074   7.755  73.938  1.00  0.00    -0.101 OA 
BRANCH  34  45
HETATM   45  C   UNL     1     -12.028   5.784  71.992  1.00  0.00     0.044 C  
HETATM   46  O   UNL     1     -13.055   6.751  72.205  1.00  0.00    -0.548 OA 
HETATM   47  H   UNL     1     -13.914   6.360  72.098  1.00  0.00     0.000 HD 
ENDBRANCH  34  45
ENDBRANCH  31  32
ENDBRANCH  25  31
ENDBRANCH  16  17
ENDBRANCH   7  16
ENDBRANCH   2   5
TORSDOF 6
ENDMDL
MODEL      269
REMARK 921   NORMALIZED FREE ENERGY PREDICTED BY IDOCK:   -3.27 KCAL/MOL
REMARK 922        TOTAL FREE ENERGY PREDICTED BY IDOCK:   -5.47 KCAL/MOL
REMARK 923 INTER-LIGAND FREE ENERGY PREDICTED BY IDOCK:   -5.59 KCAL/MOL
REMARK 924 INTRA-LIGAND FREE ENERGY PREDICTED BY IDOCK:    0.12 KCAL/MOL
REMARK 927      BINDING AFFINITY PREDICTED BY RF-SCORE:    0.00 PKD
ROOT
HETATM    1  N   UNL     1     -10.545   5.556  73.697  1.00  0.00    -0.264 NA 
HETATM    2  C   UNL     1     -10.220   4.398  72.852  1.00  0.00    -0.172 C  
HETATM    3  H2  UNL     1     -11.398   6.017  73.379  1.00  0.00     0.000 HD 
HETATM    4  H1  UNL     1     -10.606   5.309  74.685  1.00  0.00     0.000 HD 
ENDROOT
BRANCH   2   5
HETATM    5  C   UNL     1     -10.127   4.773  71.352  1.00  0.00    -0.189 C  
HETATM    6  O   UNL     1      -9.443   6.019  71.142  1.00  0.00    -0.162 OA 
HETATM    7  C   UNL     1      -8.054   5.998  71.428  1.00  0.00    -0.115 C  
HETATM    8  C   UNL     1      -7.334   4.971  70.494  1.00  0.00    -0.061 C  
HETATM    9  C   UNL     1      -9.513   3.646  70.499  1.00  0.00    -0.185 C  
HETATM   10  N   UNL     1      -7.361   5.375  69.072  1.00  0.00    -0.068 NA 
HETATM   11  C   UNL     1      -7.988   3.586  70.650  1.00  0.00    -0.056 C  
HETATM   12  H   UNL     1      -9.482   3.189  68.602  1.00  0.00     0.000 HD 
HETATM   13  H1  UNL     1      -6.891   4.705  68.462  1.00  0.00     0.000 HD 
HETATM   14  H2  UNL     1      -6.978   6.312  68.950  1.00  0.00     0.000 HD 
HETATM   15  O   UNL     1      -9.860   3.884  69.129  1.00  0.00    -0.133 OA 
BRANCH   7  16
HETATM   16  O   UNL     1      -7.488   7.305  71.234  1.00  0.00    -0.077 OA 
BRANCH  16  17
HETATM   17  C   UNL     1      -8.389   8.346  70.756  1.00  0.00    -0.130 C  
HETATM   18  N   UNL     1      -9.498   8.690  72.954  1.00  0.00    -0.200 NA 
HETATM   19  C   UNL     1     -10.641   9.475  70.973  1.00  0.00    -0.392 C  
HETATM   20  H1  UNL     1     -10.379   8.725  73.465  1.00  0.00     0.000 HD 
HETATM   21  H2  UNL     1      -8.956   9.545  73.080  1.00  0.00     0.000 HD 
HETATM   22  C   UNL     1     -10.937   9.247  69.490  1.00  0.00    -0.151 C  
HETATM   23  C   UNL     1      -9.724   8.398  71.529  1.00  0.00    -0.210 C  
HETATM   24  N   UNL     1     -11.925  10.274  69.115  1.00  0.00    -0.556 NA 
HETATM   25  C   UNL     1      -9.635   9.289  68.631  1.00  0.00    -0.147 C  
HETATM   26  H   UNL     1      -7.370   8.660  67.690  1.00  0.00     0.000 HD 
HETATM   27  H1  UNL     1     -12.122  10.122  68.126  1.00  0.00     0.000 HD 
HETATM   28  C   UNL     1      -8.553   8.328  69.210  1.00  0.00    -0.138 C  
HETATM   29  H2  UNL     1     -11.626  11.226  69.331  1.00  0.00     0.000 HD 
HETATM   30  O   UNL     1      -7.270   8.671  68.635  1.00  0.00    -0.074 OA 
BRANCH  25  31
HETATM   31  O   UNL     1      -9.852   8.876  67.245  1.00  0.00    -0.171 OA 
BRANCH  31  32
HETATM   32  C   UNL     1     -10.047   9.946  66.311  1.00  0.00    -0.241 C  
HETATM   33  O   UNL     1     -10.150  11.224  66.952  1.00  0.00    -0.203 OA 
HETATM   34  C   UNL     1      -8.916  11.652  67.553  1.00  0.00    -0.165 C  
HETATM   35  C   UNL     1      -7.819  11.791  66.486  1.00  0.00     0.020 C  
HETATM   36  H   UNL     1      -8.151   8.647  63.947  1.00  0.00     0.000 HD 
HETATM   37  C   UNL     1      -7.603  10.443  65.772  1.00  0.00    -0.147 C  
HETATM   38  H1  UNL     1      -6.427   9.681  64.244  1.00  0.00     0.000 HD 
HETATM   39  O   UNL     1      -6.585  12.260  67.036  1.00  0.00    -0.277 OA 
HETATM   40  H   UNL     1      -5.907  12.345  66.377  1.00  0.00     0.000 HD 
HETATM   41  H2  UNL     1      -5.698  10.952  65.084  1.00  0.00     0.000 HD 
HETATM   42  C   UNL     1      -8.948   9.945  65.216  1.00  0.00    -0.191 C  
HETATM   43  N   UNL     1      -6.570  10.574  64.716  1.00  0.00    -0.036 NA 
HETATM   44  O   UNL     1      -8.824   8.648  64.618  1.00  0.00    -0.099 OA 
BRANCH  34  45
HETATM   45  C   UNL     1      -9.158  13.003  68.241  1.00  0.00    -0.179 C  
HETATM   46  O   UNL     1     -10.315  12.947  69.074  1.00  0.00    -0.425 OA 
HETATM   47  H   UNL     1     -10.465  13.782  69.501  1.00  0.00     0.000 HD 
ENDBRANCH  34  45
ENDBRANCH  31  32
ENDBRANCH  25  31
ENDBRANCH  16  17
ENDBRANCH   7  16
ENDBRANCH   2   5
TORSDOF 6
ENDMDL
MODEL      270
REMARK 921   NORMALIZED FREE ENERGY PREDICTED BY IDOCK:   -3.24 KCAL/MOL
REMARK 922        TOTAL FREE ENERGY PREDICTED BY IDOCK:   -5.43 KCAL/MOL
REMARK 923 INTER-LIGAND FREE ENERGY PREDICTED BY IDOCK:   -4.25 KCAL/MOL
REMARK 924 INTRA-LIGAND FREE ENERGY PREDICTED BY IDOCK:   -1.18 KCAL/MOL
REMARK 927      BINDING AFFINITY PREDICTED BY RF-SCORE:    0.00 PKD
ROOT
HETATM    1  N   UNL     1     -13.126  10.021  71.175  1.00  0.00    -0.395 NA 
HETATM    2  C   UNL     1     -13.281  11.267  70.412  1.00  0.00     0.446 C  
HETATM    3  H2  UNL     1     -12.590  10.175  72.029  1.00  0.00     0.000 HD 
HETATM    4  H1  UNL     1     -14.022   9.579  71.379  1.00  0.00     0.000 HD 
ENDROOT
BRANCH   2   5
HETATM    5  C   UNL     1     -11.919  11.938  70.102  1.00  0.00    -0.332 C  
HETATM    6  O   UNL     1     -10.959  11.008  69.577  1.00  0.00    -0.241 OA 
HETATM    7  C   UNL     1     -11.242  10.523  68.274  1.00  0.00    -0.291 C  
HETATM    8  C   UNL     1     -11.263  11.711  67.257  1.00  0.00    -0.304 C  
HETATM    9  C   UNL     1     -12.063  13.171  69.189  1.00  0.00    -0.214 C  
HETATM   10  N   UNL     1      -9.935  12.339  67.083  1.00  0.00    -0.204 NA 
HETATM   11  C   UNL     1     -12.277  12.771  67.724  1.00  0.00     0.011 C  
HETATM   12  H   UNL     1     -10.960  14.720  68.749  1.00  0.00     0.000 HD 
HETATM   13  H1  UNL     1      -9.949  13.114  66.419  1.00  0.00     0.000 HD 
HETATM   14  H2  UNL     1      -9.234  11.645  66.821  1.00  0.00     0.000 HD 
HETATM   15  O   UNL     1     -10.872  13.960  69.312  1.00  0.00    -0.221 OA 
BRANCH   7  16
HETATM   16  O   UNL     1     -10.247   9.565  67.874  1.00  0.00    -0.181 OA 
BRANCH  16  17
HETATM   17  C   UNL     1      -9.256   9.192  68.875  1.00  0.00    -0.139 C  
HETATM   18  N   UNL     1      -7.502  10.730  68.019  1.00  0.00    -0.088 NA 
HETATM   19  C   UNL     1      -6.809   8.903  69.442  1.00  0.00    -0.049 C  
HETATM   20  H1  UNL     1      -6.541  10.825  67.689  1.00  0.00     0.000 HD 
HETATM   21  H2  UNL     1      -7.699  11.367  68.791  1.00  0.00     0.000 HD 
HETATM   22  C   UNL     1      -7.044   7.454  69.873  1.00  0.00    -0.065 C  
HETATM   23  C   UNL     1      -7.803   9.335  68.376  1.00  0.00    -0.094 C  
HETATM   24  N   UNL     1      -5.948   7.129  70.802  1.00  0.00    -0.031 NA 
HETATM   25  C   UNL     1      -8.465   7.261  70.489  1.00  0.00    -0.138 C  
HETATM   26  H   UNL     1     -10.985   7.131  70.691  1.00  0.00     0.000 HD 
HETATM   27  H1  UNL     1      -6.105   6.163  71.089  1.00  0.00     0.000 HD 
HETATM   28  C   UNL     1      -9.566   7.820  69.537  1.00  0.00    -0.160 C  
HETATM   29  H2  UNL     1      -5.870   7.780  71.585  1.00  0.00     0.000 HD 
HETATM   30  O   UNL     1     -10.796   7.969  70.286  1.00  0.00    -0.238 OA 
BRANCH  25  31
HETATM   31  O   UNL     1      -8.799   5.857  70.724  1.00  0.00    -0.135 OA 
BRANCH  31  32
HETATM   32  C   UNL     1      -8.269   5.296  71.932  1.00  0.00    -0.118 C  
HETATM   33  O   UNL     1      -9.278   5.084  72.929  1.00  0.00    -0.133 OA 
HETATM   34  C   UNL     1     -10.209   4.049  72.573  1.00  0.00    -0.166 C  
HETATM   35  C   UNL     1      -9.481   2.707  72.402  1.00  0.00    -0.105 C  
HETATM   36  H   UNL     1      -6.005   3.421  70.441  1.00  0.00     0.000 HD 
HETATM   37  C   UNL     1      -8.402   2.826  71.308  1.00  0.00    -0.062 C  
HETATM   38  H1  UNL     1      -6.956   1.625  70.434  1.00  0.00     0.000 HD 
HETATM   39  O   UNL     1     -10.380   1.638  72.092  1.00  0.00    -0.155 OA 
HETATM   40  H   UNL     1      -9.930   0.809  71.986  1.00  0.00     0.000 HD 
HETATM   41  H2  UNL     1      -8.301   0.765  70.984  1.00  0.00     0.000 HD 
HETATM   42  C   UNL     1      -7.467   4.000  71.647  1.00  0.00    -0.060 C  
HETATM   43  N   UNL     1      -7.669   1.546  71.159  1.00  0.00    -0.032 NA 
HETATM   44  O   UNL     1      -6.496   4.215  70.616  1.00  0.00    -0.028 OA 
BRANCH  34  45
HETATM   45  C   UNL     1     -11.260   3.942  73.687  1.00  0.00    -0.203 C  
HETATM   46  O   UNL     1     -11.892   2.662  73.666  1.00  0.00    -0.127 OA 
HETATM   47  H   UNL     1     -12.542   2.596  74.355  1.00  0.00     0.000 HD 
ENDBRANCH  34  45
ENDBRANCH  31  32
ENDBRANCH  25  31
ENDBRANCH  16  17
ENDBRANCH   7  16
ENDBRANCH   2   5
TORSDOF 6
ENDMDL
MODEL      271
REMARK 921   NORMALIZED FREE ENERGY PREDICTED BY IDOCK:   -3.21 KCAL/MOL
REMARK 922        TOTAL FREE ENERGY PREDICTED BY IDOCK:   -5.39 KCAL/MOL
REMARK 923 INTER-LIGAND FREE ENERGY PREDICTED BY IDOCK:   -4.47 KCAL/MOL
REMARK 924 INTRA-LIGAND FREE ENERGY PREDICTED BY IDOCK:   -0.91 KCAL/MOL
REMARK 927      BINDING AFFINITY PREDICTED BY RF-SCORE:    0.00 PKD
ROOT
HETATM    1  N   UNL     1     -12.535   9.876  70.448  1.00  0.00    -0.501 NA 
HETATM    2  C   UNL     1     -12.828  11.179  69.835  1.00  0.00     0.120 C  
HETATM    3  H2  UNL     1     -11.970   9.984  71.291  1.00  0.00     0.000 HD 
HETATM    4  H1  UNL     1     -13.381   9.340  70.638  1.00  0.00     0.000 HD 
ENDROOT
BRANCH   2   5
HETATM    5  C   UNL     1     -11.542  11.995  69.547  1.00  0.00    -0.321 C  
HETATM    6  O   UNL     1     -10.592  11.257  68.761  1.00  0.00    -0.188 OA 
HETATM    7  C   UNL     1     -10.980  11.016  67.418  1.00  0.00    -0.291 C  
HETATM    8  C   UNL     1     -11.168  12.375  66.667  1.00  0.00    -0.315 C  
HETATM    9  C   UNL     1     -11.843  13.369  68.916  1.00  0.00    -0.334 C  
HETATM   10  N   UNL     1      -9.900  13.119  66.505  1.00  0.00    -0.260 NA 
HETATM   11  C   UNL     1     -12.184  13.247  67.426  1.00  0.00    -0.236 C  
HETATM   12  H   UNL     1     -10.875  15.049  68.700  1.00  0.00     0.000 HD 
HETATM   13  H1  UNL     1     -10.022  14.005  66.014  1.00  0.00     0.000 HD 
HETATM   14  H2  UNL     1      -9.193  12.542  66.048  1.00  0.00     0.000 HD 
HETATM   15  O   UNL     1     -10.690  14.202  69.089  1.00  0.00    -0.240 OA 
BRANCH   7  16
HETATM   16  O   UNL     1      -9.982  10.229  66.746  1.00  0.00    -0.192 OA 
BRANCH  16  17
HETATM   17  C   UNL     1      -8.869   9.751  67.557  1.00  0.00    -0.125 C  
HETATM   18  N   UNL     1      -7.336  11.602  66.921  1.00  0.00    -0.219 NA 
HETATM   19  C   UNL     1      -6.361   9.591  67.845  1.00  0.00    -0.054 C  
HETATM   20  H1  UNL     1      -6.424  11.858  66.543  1.00  0.00     0.000 HD 
HETATM   21  H2  UNL     1      -7.503  12.037  67.828  1.00  0.00     0.000 HD 
HETATM   22  C   UNL     1      -6.437   8.069  67.964  1.00  0.00    -0.056 C  
HETATM   23  C   UNL     1      -7.489  10.139  66.985  1.00  0.00    -0.092 C  
HETATM   24  N   UNL     1      -5.232   7.663  68.707  1.00  0.00    -0.024 NA 
HETATM   25  C   UNL     1      -7.770   7.610  68.636  1.00  0.00    -0.119 C  
HETATM   26  H   UNL     1     -10.239   7.192  69.009  1.00  0.00     0.000 HD 
HETATM   27  H1  UNL     1      -5.282   6.648  68.786  1.00  0.00     0.000 HD 
HETATM   28  C   UNL     1      -9.002   8.247  67.924  1.00  0.00    -0.134 C  
HETATM   29  H2  UNL     1      -5.126   8.138  69.604  1.00  0.00     0.000 HD 
HETATM   30  O   UNL     1     -10.157   8.112  68.784  1.00  0.00    -0.189 OA 
BRANCH  25  31
HETATM   31  O   UNL     1      -7.966   6.162  68.582  1.00  0.00    -0.099 OA 
BRANCH  31  32
HETATM   32  C   UNL     1      -6.899   5.379  69.131  1.00  0.00    -0.054 C  
HETATM   33  O   UNL     1      -7.259   4.745  70.365  1.00  0.00    -0.047 OA 
HETATM   34  C   UNL     1      -8.249   3.716  70.199  1.00  0.00    -0.052 C  
HETATM   35  C   UNL     1      -7.720   2.604  69.280  1.00  0.00    -0.043 C  
HETATM   36  H   UNL     1      -5.726   4.366  66.222  1.00  0.00     0.000 HD 
HETATM   37  C   UNL     1      -7.350   3.189  67.903  1.00  0.00    -0.054 C  
HETATM   38  H1  UNL     1      -6.560   2.517  66.107  1.00  0.00     0.000 HD 
HETATM   39  O   UNL     1      -8.659   1.537  69.125  1.00  0.00    -0.052 OA 
HETATM   40  H   UNL     1      -8.332   0.850  68.557  1.00  0.00     0.000 HD 
HETATM   41  H2  UNL     1      -7.443   1.340  66.936  1.00  0.00     0.000 HD 
HETATM   42  C   UNL     1      -6.363   4.353  68.098  1.00  0.00    -0.037 C  
HETATM   43  N   UNL     1      -6.805   2.130  67.019  1.00  0.00    -0.039 NA 
HETATM   44  O   UNL     1      -6.053   4.994  66.854  1.00  0.00    -0.029 OA 
BRANCH  34  45
HETATM   45  C   UNL     1      -8.586   3.143  71.583  1.00  0.00    -0.069 C  
HETATM   46  O   UNL     1      -9.625   3.898  72.205  1.00  0.00    -0.131 OA 
HETATM   47  H   UNL     1      -9.834   3.543  73.061  1.00  0.00     0.000 HD 
ENDBRANCH  34  45
ENDBRANCH  31  32
ENDBRANCH  25  31
ENDBRANCH  16  17
ENDBRANCH   7  16
ENDBRANCH   2   5
TORSDOF 6
ENDMDL
MODEL      272
REMARK 921   NORMALIZED FREE ENERGY PREDICTED BY IDOCK:   -3.20 KCAL/MOL
REMARK 922        TOTAL FREE ENERGY PREDICTED BY IDOCK:   -5.38 KCAL/MOL
REMARK 923 INTER-LIGAND FREE ENERGY PREDICTED BY IDOCK:   -6.53 KCAL/MOL
REMARK 924 INTRA-LIGAND FREE ENERGY PREDICTED BY IDOCK:    1.16 KCAL/MOL
REMARK 927      BINDING AFFINITY PREDICTED BY RF-SCORE:    0.00 PKD
ROOT
HETATM    1  N   UNL     1     -11.389  16.526  63.981  1.00  0.00    -1.559 NA 
HETATM    2  C   UNL     1     -12.024  15.205  64.099  1.00  0.00    -0.170 C  
HETATM    3  H2  UNL     1     -10.628  16.509  63.302  1.00  0.00     0.000 HD 
HETATM    4  H1  UNL     1     -12.062  17.260  63.763  1.00  0.00     0.000 HD 
ENDROOT
BRANCH   2   5
HETATM    5  C   UNL     1     -11.001  14.089  64.431  1.00  0.00    -0.265 C  
HETATM    6  O   UNL     1     -10.648  14.069  65.823  1.00  0.00    -0.283 OA 
HETATM    7  C   UNL     1     -11.683  13.657  66.701  1.00  0.00    -0.388 C  
HETATM    8  C   UNL     1     -12.114  12.192  66.365  1.00  0.00     0.072 C  
HETATM    9  C   UNL     1     -11.467  12.701  63.950  1.00  0.00    -0.442 C  
HETATM   10  N   UNL     1     -11.048  11.205  66.642  1.00  0.00    -0.241 NA 
HETATM   11  C   UNL     1     -12.527  12.103  64.883  1.00  0.00    -0.185 C  
HETATM   12  H   UNL     1     -10.609  10.984  63.599  1.00  0.00     0.000 HD 
HETATM   13  H1  UNL     1     -11.330  10.248  66.422  1.00  0.00     0.000 HD 
HETATM   14  H2  UNL     1     -10.723  11.279  67.605  1.00  0.00     0.000 HD 
HETATM   15  O   UNL     1     -10.322  11.840  63.895  1.00  0.00    -0.311 OA 
BRANCH   7  16
HETATM   16  O   UNL     1     -11.234  13.726  68.065  1.00  0.00    -0.248 OA 
BRANCH  16  17
HETATM   17  C   UNL     1      -9.793  13.716  68.282  1.00  0.00    -0.232 C  
HETATM   18  N   UNL     1      -9.494  16.140  67.819  1.00  0.00    -0.216 NA 
HETATM   19  C   UNL     1      -7.546  14.714  67.692  1.00  0.00    -0.198 C  
HETATM   20  H1  UNL     1      -9.000  16.846  67.275  1.00  0.00     0.000 HD 
HETATM   21  H2  UNL     1      -9.407  16.309  68.822  1.00  0.00     0.000 HD 
HETATM   22  C   UNL     1      -6.989  13.335  67.336  1.00  0.00    -0.092 C  
HETATM   23  C   UNL     1      -9.046  14.785  67.458  1.00  0.00    -0.189 C  
HETATM   24  N   UNL     1      -5.527  13.441  67.486  1.00  0.00    -0.337 NA 
HETATM   25  C   UNL     1      -7.628  12.212  68.211  1.00  0.00    -0.132 C  
HETATM   26  H   UNL     1      -9.346  10.634  69.195  1.00  0.00     0.000 HD 
HETATM   27  H1  UNL     1      -5.155  12.522  67.248  1.00  0.00     0.000 HD 
HETATM   28  C   UNL     1      -9.184  12.291  68.171  1.00  0.00    -0.197 C  
HETATM   29  H2  UNL     1      -5.234  13.774  68.406  1.00  0.00     0.000 HD 
HETATM   30  O   UNL     1      -9.718  11.505  69.263  1.00  0.00     0.061 OA 
BRANCH  25  31
HETATM   31  O   UNL     1      -7.272  10.866  67.763  1.00  0.00    -0.088 OA 
BRANCH  31  32
HETATM   32  C   UNL     1      -8.093   9.812  68.281  1.00  0.00    -0.104 C  
HETATM   33  O   UNL     1      -8.657   8.995  67.248  1.00  0.00    -0.114 OA 
HETATM   34  C   UNL     1      -7.673   8.212  66.552  1.00  0.00    -0.093 C  
HETATM   35  C   UNL     1      -6.964   7.254  67.522  1.00  0.00    -0.075 C  
HETATM   36  H   UNL     1      -6.253   9.275  70.964  1.00  0.00     0.000 HD 
HETATM   37  C   UNL     1      -6.282   8.053  68.649  1.00  0.00    -0.044 C  
HETATM   38  H1  UNL     1      -5.172   7.666  70.357  1.00  0.00     0.000 HD 
HETATM   39  O   UNL     1      -6.007   6.422  66.859  1.00  0.00    -0.023 OA 
HETATM   40  H   UNL     1      -5.569   5.830  67.459  1.00  0.00     0.000 HD 
HETATM   41  H2  UNL     1      -4.972   6.504  69.147  1.00  0.00     0.000 HD 
HETATM   42  C   UNL     1      -7.323   8.961  69.326  1.00  0.00    -0.070 C  
HETATM   43  N   UNL     1      -5.624   7.136  69.611  1.00  0.00    -0.022 NA 
HETATM   44  O   UNL     1      -6.725   9.796  70.325  1.00  0.00    -0.080 OA 
BRANCH  34  45
HETATM   45  C   UNL     1      -8.383   7.416  65.448  1.00  0.00    -0.117 C  
HETATM   46  O   UNL     1      -8.740   6.114  65.911  1.00  0.00    -0.150 OA 
HETATM   47  H   UNL     1      -9.179   5.621  65.228  1.00  0.00     0.000 HD 
ENDBRANCH  34  45
ENDBRANCH  31  32
ENDBRANCH  25  31
ENDBRANCH  16  17
ENDBRANCH   7  16
ENDBRANCH   2   5
TORSDOF 6
ENDMDL
MODEL      273
REMARK 921   NORMALIZED FREE ENERGY PREDICTED BY IDOCK:   -3.20 KCAL/MOL
REMARK 922        TOTAL FREE ENERGY PREDICTED BY IDOCK:   -5.37 KCAL/MOL
REMARK 923 INTER-LIGAND FREE ENERGY PREDICTED BY IDOCK:   -6.90 KCAL/MOL
REMARK 924 INTRA-LIGAND FREE ENERGY PREDICTED BY IDOCK:    1.52 KCAL/MOL
REMARK 927      BINDING AFFINITY PREDICTED BY RF-SCORE:    0.00 PKD
ROOT
HETATM    1  N   UNL     1     -10.105  10.737  62.893  1.00  0.00    -0.717 NA 
HETATM    2  C   UNL     1      -9.781  11.697  63.958  1.00  0.00    -0.202 C  
HETATM    3  H2  UNL     1     -10.874  11.074  62.315  1.00  0.00     0.000 HD 
HETATM    4  H1  UNL     1      -9.292  10.502  62.325  1.00  0.00     0.000 HD 
ENDROOT
BRANCH   2   5
HETATM    5  C   UNL     1     -11.017  12.054  64.822  1.00  0.00    -0.311 C  
HETATM    6  O   UNL     1     -10.801  13.223  65.628  1.00  0.00    -0.275 OA 
HETATM    7  C   UNL     1     -10.704  14.441  64.908  1.00  0.00    -0.426 C  
HETATM    8  C   UNL     1     -12.038  14.713  64.140  1.00  0.00    -0.320 C  
HETATM    9  C   UNL     1     -12.305  12.181  63.985  1.00  0.00    -0.451 C  
HETATM   10  N   UNL     1     -13.179  14.968  65.047  1.00  0.00     0.246 NA 
HETATM   11  C   UNL     1     -12.362  13.513  63.229  1.00  0.00    -0.150 C  
HETATM   12  H   UNL     1     -14.220  12.151  64.356  1.00  0.00     0.000 HD 
HETATM   13  H1  UNL     1     -14.050  15.145  64.545  1.00  0.00     0.000 HD 
HETATM   14  H2  UNL     1     -12.968  15.727  65.694  1.00  0.00     0.000 HD 
HETATM   15  O   UNL     1     -13.426  12.072  64.872  1.00  0.00     0.128 OA 
BRANCH   7  16
HETATM   16  O   UNL     1     -10.436  15.530  65.808  1.00  0.00    -0.315 OA 
BRANCH  16  17
HETATM   17  C   UNL     1      -9.599  15.235  66.964  1.00  0.00    -0.224 C  
HETATM   18  N   UNL     1      -7.770  16.780  66.300  1.00  0.00    -0.306 NA 
HETATM   19  C   UNL     1      -7.260  15.045  67.905  1.00  0.00    -0.162 C  
HETATM   20  H1  UNL     1      -6.773  16.887  66.114  1.00  0.00     0.000 HD 
HETATM   21  H2  UNL     1      -8.094  17.447  67.000  1.00  0.00     0.000 HD 
HETATM   22  C   UNL     1      -7.526  13.613  68.370  1.00  0.00    -0.123 C  
HETATM   23  C   UNL     1      -8.091  15.396  66.681  1.00  0.00    -0.098 C  
HETATM   24  N   UNL     1      -6.577  13.365  69.469  1.00  0.00    -0.242 NA 
HETATM   25  C   UNL     1      -9.019  13.408  68.776  1.00  0.00     0.123 C  
HETATM   26  H   UNL     1     -11.538  13.215  68.606  1.00  0.00     0.000 HD 
HETATM   27  H1  UNL     1      -6.754  12.409  69.779  1.00  0.00     0.000 HD 
HETATM   28  C   UNL     1      -9.976  13.888  67.643  1.00  0.00    -0.237 C  
HETATM   29  H2  UNL     1      -6.631  14.055  70.219  1.00  0.00     0.000 HD 
HETATM   30  O   UNL     1     -11.308  14.037  68.190  1.00  0.00    -0.264 OA 
BRANCH  25  31
HETATM   31  O   UNL     1      -9.354  12.008  69.032  1.00  0.00     0.095 OA 
BRANCH  31  32
HETATM   32  C   UNL     1     -10.574  11.552  68.432  1.00  0.00    -0.201 C  
HETATM   33  O   UNL     1     -10.366  10.467  67.518  1.00  0.00    -0.198 OA 
HETATM   34  C   UNL     1      -9.953   9.255  68.170  1.00  0.00    -0.177 C  
HETATM   35  C   UNL     1     -11.028   8.785  69.162  1.00  0.00     0.043 C  
HETATM   36  H   UNL     1     -12.441  12.052  71.103  1.00  0.00     0.000 HD 
HETATM   37  C   UNL     1     -11.284   9.876  70.220  1.00  0.00    -0.301 C  
HETATM   38  H1  UNL     1     -12.515  10.169  71.863  1.00  0.00     0.000 HD 
HETATM   39  O   UNL     1     -10.675   7.554  69.800  1.00  0.00    -0.241 OA 
HETATM   40  H   UNL     1     -11.339   7.264  70.414  1.00  0.00     0.000 HD 
HETATM   41  H2  UNL     1     -12.131   8.547  71.591  1.00  0.00     0.000 HD 
HETATM   42  C   UNL     1     -11.632  11.196  69.510  1.00  0.00    -0.321 C  
HETATM   43  N   UNL     1     -12.346   9.447  71.163  1.00  0.00    -0.312 NA 
HETATM   44  O   UNL     1     -11.793  12.270  70.444  1.00  0.00    -0.303 OA 
BRANCH  34  45
HETATM   45  C   UNL     1      -9.720   8.184  67.096  1.00  0.00    -0.199 C  
HETATM   46  O   UNL     1      -9.953   8.716  65.792  1.00  0.00    -0.456 OA 
HETATM   47  H   UNL     1      -9.809   8.053  65.127  1.00  0.00     0.000 HD 
ENDBRANCH  34  45
ENDBRANCH  31  32
ENDBRANCH  25  31
ENDBRANCH  16  17
ENDBRANCH   7  16
ENDBRANCH   2   5
TORSDOF 6
ENDMDL
MODEL      274
REMARK 921   NORMALIZED FREE ENERGY PREDICTED BY IDOCK:   -3.05 KCAL/MOL
REMARK 922        TOTAL FREE ENERGY PREDICTED BY IDOCK:   -5.18 KCAL/MOL
REMARK 923 INTER-LIGAND FREE ENERGY PREDICTED BY IDOCK:   -4.53 KCAL/MOL
REMARK 924 INTRA-LIGAND FREE ENERGY PREDICTED BY IDOCK:   -0.65 KCAL/MOL
REMARK 927      BINDING AFFINITY PREDICTED BY RF-SCORE:    0.00 PKD
ROOT
HETATM    1  N   UNL     1      -5.654   9.298  64.612  1.00  0.00    -0.061 NA 
HETATM    2  C   UNL     1      -6.808   8.793  65.369  1.00  0.00    -0.072 C  
HETATM    3  H2  UNL     1      -5.863  10.196  64.176  1.00  0.00     0.000 HD 
HETATM    4  H1  UNL     1      -4.811   9.353  65.183  1.00  0.00     0.000 HD 
ENDROOT
BRANCH   2   5
HETATM    5  C   UNL     1      -8.089   8.709  64.501  1.00  0.00    -0.162 C  
HETATM    6  O   UNL     1      -9.286   8.687  65.294  1.00  0.00    -0.117 OA 
HETATM    7  C   UNL     1      -9.583   9.899  65.969  1.00  0.00    -0.225 C  
HETATM    8  C   UNL     1      -9.799  11.048  64.930  1.00  0.00    -0.274 C  
HETATM    9  C   UNL     1      -8.147   9.815  63.428  1.00  0.00    -0.151 C  
HETATM   10  N   UNL     1     -11.003  10.844  64.095  1.00  0.00    -0.332 NA 
HETATM   11  C   UNL     1      -8.558  11.165  64.027  1.00  0.00     0.259 C  
HETATM   12  H   UNL     1      -9.128  10.097  61.766  1.00  0.00     0.000 HD 
HETATM   13  H1  UNL     1     -11.144  11.593  63.417  1.00  0.00     0.000 HD 
HETATM   14  H2  UNL     1     -11.832  10.713  64.674  1.00  0.00     0.000 HD 
HETATM   15  O   UNL     1      -9.092   9.415  62.427  1.00  0.00    -0.265 OA 
BRANCH   7  16
HETATM   16  O   UNL     1     -10.768   9.744  66.769  1.00  0.00    -0.170 OA 
BRANCH  16  17
HETATM   17  C   UNL     1     -10.572   9.393  68.170  1.00  0.00    -0.212 C  
HETATM   18  N   UNL     1     -10.147  11.726  68.914  1.00  0.00    -0.394 NA 
HETATM   19  C   UNL     1      -9.418   9.927  70.356  1.00  0.00    -0.088 C  
HETATM   20  H1  UNL     1      -9.516  12.361  69.403  1.00  0.00     0.000 HD 
HETATM   21  H2  UNL     1     -11.091  11.764  69.299  1.00  0.00     0.000 HD 
HETATM   22  C   UNL     1      -8.861   8.506  70.449  1.00  0.00    -0.150 C  
HETATM   23  C   UNL     1      -9.617  10.353  68.910  1.00  0.00    -0.192 C  
HETATM   24  N   UNL     1      -8.601   8.270  71.880  1.00  0.00    -0.152 NA 
HETATM   25  C   UNL     1      -9.833   7.465  69.811  1.00  0.00    -0.171 C  
HETATM   26  H   UNL     1     -11.191   6.208  68.082  1.00  0.00     0.000 HD 
HETATM   27  H1  UNL     1      -8.229   7.323  71.942  1.00  0.00     0.000 HD 
HETATM   28  C   UNL     1     -10.234   7.889  68.365  1.00  0.00    -0.202 C  
HETATM   29  H2  UNL     1      -9.414   8.430  72.475  1.00  0.00     0.000 HD 
HETATM   30  O   UNL     1     -11.397   7.128  67.963  1.00  0.00     0.076 OA 
BRANCH  25  31
HETATM   31  O   UNL     1      -9.246   6.130  69.700  1.00  0.00    -0.141 OA 
BRANCH  31  32
HETATM   32  C   UNL     1     -10.142   5.044  69.970  1.00  0.00    -0.272 C  
HETATM   33  O   UNL     1      -9.615   3.779  69.549  1.00  0.00    -0.184 OA 
HETATM   34  C   UNL     1      -8.484   3.355  70.329  1.00  0.00    -0.056 C  
HETATM   35  C   UNL     1      -8.880   3.190  71.805  1.00  0.00    -0.086 C  
HETATM   36  H   UNL     1     -11.301   6.288  72.794  1.00  0.00     0.000 HD 
HETATM   37  C   UNL     1      -9.417   4.524  72.360  1.00  0.00    -0.135 C  
HETATM   38  H1  UNL     1     -10.189   5.250  74.141  1.00  0.00     0.000 HD 
HETATM   39  O   UNL     1      -7.792   2.724  72.608  1.00  0.00    -0.052 OA 
HETATM   40  H   UNL     1      -8.037   2.623  73.520  1.00  0.00     0.000 HD 
HETATM   41  H2  UNL     1      -9.084   3.991  74.352  1.00  0.00     0.000 HD 
HETATM   42  C   UNL     1     -10.564   5.019  71.462  1.00  0.00    -0.105 C  
HETATM   43  N   UNL     1      -9.835   4.367  73.774  1.00  0.00    -0.130 NA 
HETATM   44  O   UNL     1     -11.043   6.303  71.880  1.00  0.00    -0.244 OA 
BRANCH  34  45
HETATM   45  C   UNL     1      -7.982   2.019  69.764  1.00  0.00    -0.041 C  
HETATM   46  O   UNL     1      -6.574   1.884  69.958  1.00  0.00    -0.028 OA 
HETATM   47  H   UNL     1      -6.263   1.057  69.609  1.00  0.00     0.000 HD 
ENDBRANCH  34  45
ENDBRANCH  31  32
ENDBRANCH  25  31
ENDBRANCH  16  17
ENDBRANCH   7  16
ENDBRANCH   2   5
TORSDOF 6
ENDMDL
MODEL      275
REMARK 921   NORMALIZED FREE ENERGY PREDICTED BY IDOCK:   -3.05 KCAL/MOL
REMARK 922        TOTAL FREE ENERGY PREDICTED BY IDOCK:   -5.18 KCAL/MOL
REMARK 923 INTER-LIGAND FREE ENERGY PREDICTED BY IDOCK:   -4.73 KCAL/MOL
REMARK 924 INTRA-LIGAND FREE ENERGY PREDICTED BY IDOCK:   -0.45 KCAL/MOL
REMARK 927      BINDING AFFINITY PREDICTED BY RF-SCORE:    0.00 PKD
ROOT
HETATM    1  N   UNL     1     -11.145  15.039  71.205  1.00  0.00    -0.568 NA 
HETATM    2  C   UNL     1     -11.394  13.852  70.374  1.00  0.00     0.120 C  
HETATM    3  H2  UNL     1     -11.658  15.848  70.855  1.00  0.00     0.000 HD 
HETATM    4  H1  UNL     1     -11.350  14.870  72.189  1.00  0.00     0.000 HD 
ENDROOT
BRANCH   2   5
HETATM    5  C   UNL     1     -11.082  14.108  68.877  1.00  0.00    -0.263 C  
HETATM    6  O   UNL     1      -9.701  13.876  68.560  1.00  0.00    -0.221 OA 
HETATM    7  C   UNL     1      -9.290  12.520  68.619  1.00  0.00     0.012 C  
HETATM    8  C   UNL     1     -10.098  11.673  67.582  1.00  0.00    -0.188 C  
HETATM    9  C   UNL     1     -12.014  13.318  67.938  1.00  0.00    -0.309 C  
HETATM   10  N   UNL     1      -9.792  12.039  66.182  1.00  0.00    -0.230 NA 
HETATM   11  C   UNL     1     -11.606  11.843  67.842  1.00  0.00    -0.393 C  
HETATM   12  H   UNL     1     -12.535  13.439  66.061  1.00  0.00     0.000 HD 
HETATM   13  H1  UNL     1     -10.319  11.486  65.505  1.00  0.00     0.000 HD 
HETATM   14  H2  UNL     1      -8.791  11.982  66.000  1.00  0.00     0.000 HD 
HETATM   15  O   UNL     1     -11.960  13.927  66.641  1.00  0.00    -0.396 OA 
BRANCH   7  16
HETATM   16  O   UNL     1      -7.884  12.415  68.335  1.00  0.00    -0.138 OA 
BRANCH  16  17
HETATM   17  C   UNL     1      -7.071  13.595  68.600  1.00  0.00    -0.105 C  
HETATM   18  N   UNL     1      -6.161  12.746  70.751  1.00  0.00    -0.531 NA 
HETATM   19  C   UNL     1      -6.040  15.124  70.330  1.00  0.00    -0.127 C  
HETATM   20  H1  UNL     1      -6.023  12.925  71.745  1.00  0.00     0.000 HD 
HETATM   21  H2  UNL     1      -5.280  12.534  70.281  1.00  0.00     0.000 HD 
HETATM   22  C   UNL     1      -6.700  16.347  69.694  1.00  0.00    -0.145 C  
HETATM   23  C   UNL     1      -6.863  13.866  70.104  1.00  0.00     0.241 C  
HETATM   24  N   UNL     1      -5.875  17.501  70.090  1.00  0.00    -0.235 NA 
HETATM   25  C   UNL     1      -6.845  16.184  68.148  1.00  0.00    -0.125 C  
HETATM   26  H   UNL     1      -7.609  15.311  65.897  1.00  0.00     0.000 HD 
HETATM   27  H1  UNL     1      -6.317  18.317  69.666  1.00  0.00     0.000 HD 
HETATM   28  C   UNL     1      -7.544  14.836  67.792  1.00  0.00    -0.160 C  
HETATM   29  H2  UNL     1      -4.889  17.399  69.851  1.00  0.00     0.000 HD 
HETATM   30  O   UNL     1      -7.320  14.552  66.391  1.00  0.00     0.940 OA 
BRANCH  25  31
HETATM   31  O   UNL     1      -7.652  17.239  67.536  1.00  0.00    -0.173 OA 
BRANCH  31  32
HETATM   32  C   UNL     1      -9.036  17.243  67.906  1.00  0.00    -0.239 C  
HETATM   33  O   UNL     1      -9.359  18.300  68.820  1.00  0.00    -0.308 OA 
HETATM   34  C   UNL     1      -9.267  19.604  68.224  1.00  0.00    -0.344 C  
HETATM   35  C   UNL     1     -10.253  19.730  67.051  1.00  0.00    -0.452 C  
HETATM   36  H   UNL     1     -10.150  16.256  64.965  1.00  0.00     0.000 HD 
HETATM   37  C   UNL     1      -9.949  18.657  65.989  1.00  0.00    -0.242 C  
HETATM   38  H1  UNL     1     -10.715  18.036  64.165  1.00  0.00     0.000 HD 
HETATM   39  O   UNL     1     -10.225  21.032  66.458  1.00  0.00    -0.120 OA 
HETATM   40  H   UNL     1     -10.834  21.109  65.734  1.00  0.00     0.000 HD 
HETATM   41  H2  UNL     1     -10.944  19.682  64.465  1.00  0.00     0.000 HD 
HETATM   42  C   UNL     1      -9.954  17.270  66.656  1.00  0.00    -0.294 C  
HETATM   43  N   UNL     1     -10.917  18.746  64.868  1.00  0.00    -0.146 NA 
HETATM   44  O   UNL     1      -9.588  16.239  65.730  1.00  0.00    -0.422 OA 
BRANCH  34  45
HETATM   45  C   UNL     1      -9.589  20.651  69.300  1.00  0.00     0.974 C  
HETATM   46  O   UNL     1      -9.996  20.020  70.514  1.00  0.00    -0.140 OA 
HETATM   47  H   UNL     1     -10.195  20.667  71.180  1.00  0.00     0.000 HD 
ENDBRANCH  34  45
ENDBRANCH  31  32
ENDBRANCH  25  31
ENDBRANCH  16  17
ENDBRANCH   7  16
ENDBRANCH   2   5
TORSDOF 6
ENDMDL
MODEL      276
REMARK 921   NORMALIZED FREE ENERGY PREDICTED BY IDOCK:   -2.98 KCAL/MOL
REMARK 922        TOTAL FREE ENERGY PREDICTED BY IDOCK:   -5.08 KCAL/MOL
REMARK 923 INTER-LIGAND FREE ENERGY PREDICTED BY IDOCK:   -5.97 KCAL/MOL
REMARK 924 INTRA-LIGAND FREE ENERGY PREDICTED BY IDOCK:    0.89 KCAL/MOL
REMARK 927      BINDING AFFINITY PREDICTED BY RF-SCORE:    0.00 PKD
ROOT
HETATM    1  N   UNL     1     -12.906  11.320  71.281  1.00  0.00    -0.406 NA 
HETATM    2  C   UNL     1     -12.970  12.527  72.118  1.00  0.00    -0.214 C  
HETATM    3  H2  UNL     1     -11.958  10.946  71.246  1.00  0.00     0.000 HD 
HETATM    4  H1  UNL     1     -13.572  10.608  71.579  1.00  0.00     0.000 HD 
ENDROOT
BRANCH   2   5
HETATM    5  C   UNL     1     -11.958  13.609  71.666  1.00  0.00     0.521 C  
HETATM    6  O   UNL     1     -11.640  13.510  70.268  1.00  0.00    -0.202 OA 
HETATM    7  C   UNL     1     -12.698  13.846  69.385  1.00  0.00     0.394 C  
HETATM    8  C   UNL     1     -13.123  15.334  69.605  1.00  0.00     0.524 C  
HETATM    9  C   UNL     1     -12.413  15.035  72.036  1.00  0.00    -0.336 C  
HETATM   10  N   UNL     1     -12.066  16.293  69.217  1.00  0.00    -0.248 NA 
HETATM   11  C   UNL     1     -13.497  15.551  71.083  1.00  0.00    -0.513 C  
HETATM   12  H   UNL     1     -11.549  16.774  72.216  1.00  0.00     0.000 HD 
HETATM   13  H1  UNL     1     -12.343  17.265  69.360  1.00  0.00     0.000 HD 
HETATM   14  H2  UNL     1     -11.765  16.137  68.255  1.00  0.00     0.000 HD 
HETATM   15  O   UNL     1     -11.268  15.896  71.988  1.00  0.00    -0.244 OA 
BRANCH   7  16
HETATM   16  O   UNL     1     -12.285  13.659  68.021  1.00  0.00    -0.323 OA 
BRANCH  16  17
HETATM   17  C   UNL     1     -10.849  13.611  67.772  1.00  0.00    -0.253 C  
HETATM   18  N   UNL     1     -10.536  11.362  68.783  1.00  0.00    -0.201 NA 
HETATM   19  C   UNL     1      -8.587  12.769  68.523  1.00  0.00    -0.048 C  
HETATM   20  H1  UNL     1     -10.027  10.801  69.466  1.00  0.00     0.000 HD 
HETATM   21  H2  UNL     1     -10.474  10.962  67.847  1.00  0.00     0.000 HD 
HETATM   22  C   UNL     1      -8.022  14.190  68.533  1.00  0.00    -0.145 C  
HETATM   23  C   UNL     1     -10.080  12.761  68.805  1.00  0.00    -0.045 C  
HETATM   24  N   UNL     1      -6.565  14.044  68.375  1.00  0.00    -0.095 NA 
HETATM   25  C   UNL     1      -8.684  15.079  67.434  1.00  0.00    -0.194 C  
HETATM   26  H   UNL     1     -10.429  16.391  66.150  1.00  0.00     0.000 HD 
HETATM   27  H1  UNL     1      -6.188  14.992  68.382  1.00  0.00     0.000 HD 
HETATM   28  C   UNL     1     -10.239  15.020  67.530  1.00  0.00    -0.234 C  
HETATM   29  H2  UNL     1      -6.295  13.504  67.553  1.00  0.00     0.000 HD 
HETATM   30  O   UNL     1     -10.802  15.530  66.298  1.00  0.00    -0.313 OA 
BRANCH  25  31
HETATM   31  O   UNL     1      -8.319  16.491  67.545  1.00  0.00    -0.161 OA 
BRANCH  31  32
HETATM   32  C   UNL     1      -8.111  17.168  66.299  1.00  0.00    -0.290 C  
HETATM   33  O   UNL     1      -9.108  18.165  66.042  1.00  0.00    -0.513 OA 
HETATM   34  C   UNL     1      -9.027  19.285  66.939  1.00  0.00    -0.303 C  
HETATM   35  C   UNL     1      -7.668  19.987  66.801  1.00  0.00    -0.304 C  
HETATM   36  H   UNL     1      -4.819  17.123  66.464  1.00  0.00     0.000 HD 
HETATM   37  C   UNL     1      -6.528  18.997  67.110  1.00  0.00    -0.188 C  
HETATM   38  H1  UNL     1      -4.455  19.000  67.150  1.00  0.00     0.000 HD 
HETATM   39  O   UNL     1      -7.564  21.137  67.646  1.00  0.00    -0.276 OA 
HETATM   40  H   UNL     1      -6.723  21.571  67.561  1.00  0.00     0.000 HD 
HETATM   41  H2  UNL     1      -5.137  20.504  67.506  1.00  0.00     0.000 HD 
HETATM   42  C   UNL     1      -6.679  17.758  66.211  1.00  0.00    -0.268 C  
HETATM   43  N   UNL     1      -5.209  19.656  66.945  1.00  0.00    -0.161 NA 
HETATM   44  O   UNL     1      -5.695  16.762  66.518  1.00  0.00    -0.328 OA 
BRANCH  34  45
HETATM   45  C   UNL     1     -10.163  20.260  66.599  1.00  0.00    -0.359 C  
HETATM   46  O   UNL     1     -10.212  20.509  65.194  1.00  0.00    -0.246 OA 
HETATM   47  H   UNL     1     -10.915  21.112  64.983  1.00  0.00     0.000 HD 
ENDBRANCH  34  45
ENDBRANCH  31  32
ENDBRANCH  25  31
ENDBRANCH  16  17
ENDBRANCH   7  16
ENDBRANCH   2   5
TORSDOF 6
ENDMDL
MODEL      277
REMARK 921   NORMALIZED FREE ENERGY PREDICTED BY IDOCK:   -2.96 KCAL/MOL
REMARK 922        TOTAL FREE ENERGY PREDICTED BY IDOCK:   -5.06 KCAL/MOL
REMARK 923 INTER-LIGAND FREE ENERGY PREDICTED BY IDOCK:   -4.88 KCAL/MOL
REMARK 924 INTRA-LIGAND FREE ENERGY PREDICTED BY IDOCK:   -0.18 KCAL/MOL
REMARK 927      BINDING AFFINITY PREDICTED BY RF-SCORE:    0.00 PKD
ROOT
HETATM    1  N   UNL     1     -13.294   9.890  70.741  1.00  0.00    -0.605 NA 
HETATM    2  C   UNL     1     -13.402  11.342  70.947  1.00  0.00     0.387 C  
HETATM    3  H2  UNL     1     -12.573   9.486  71.338  1.00  0.00     0.000 HD 
HETATM    4  H1  UNL     1     -14.187   9.415  70.868  1.00  0.00     0.000 HD 
ENDROOT
BRANCH   2   5
HETATM    5  C   UNL     1     -12.045  12.064  70.754  1.00  0.00    -0.198 C  
HETATM    6  O   UNL     1     -10.986  11.156  70.412  1.00  0.00     0.015 OA 
HETATM    7  C   UNL     1     -11.086  10.573  69.122  1.00  0.00    -0.250 C  
HETATM    8  C   UNL     1     -11.039  11.689  68.028  1.00  0.00    -0.242 C  
HETATM    9  C   UNL     1     -12.134  13.226  69.745  1.00  0.00    -0.290 C  
HETATM   10  N   UNL     1      -9.730  12.376  67.968  1.00  0.00    -0.205 NA 
HETATM   11  C   UNL     1     -12.150  12.721  68.297  1.00  0.00    -0.152 C  
HETATM   12  H   UNL     1     -11.058  14.800  69.329  1.00  0.00     0.000 HD 
HETATM   13  H1  UNL     1      -9.699  13.104  67.255  1.00  0.00     0.000 HD 
HETATM   14  H2  UNL     1      -8.971  11.706  67.841  1.00  0.00     0.000 HD 
HETATM   15  O   UNL     1     -11.004  14.084  69.951  1.00  0.00    -0.070 OA 
BRANCH   7  16
HETATM   16  O   UNL     1     -10.008   9.646  68.911  1.00  0.00    -0.167 OA 
BRANCH  16  17
HETATM   17  C   UNL     1      -9.142   9.376  70.052  1.00  0.00    -0.220 C  
HETATM   18  N   UNL     1      -7.410  11.035  69.401  1.00  0.00    -0.240 NA 
HETATM   19  C   UNL     1      -6.785   9.300  70.964  1.00  0.00    -0.093 C  
HETATM   20  H1  UNL     1      -6.423  11.201  69.206  1.00  0.00     0.000 HD 
HETATM   21  H2  UNL     1      -7.763  11.669  70.117  1.00  0.00     0.000 HD 
HETATM   22  C   UNL     1      -6.965   7.846  71.404  1.00  0.00    -0.055 C  
HETATM   23  C   UNL     1      -7.649   9.627  69.757  1.00  0.00    -0.123 C  
HETATM   24  N   UNL     1      -5.990   7.630  72.487  1.00  0.00    -0.040 NA 
HETATM   25  C   UNL     1      -8.439   7.550  71.821  1.00  0.00    -0.107 C  
HETATM   26  H   UNL     1     -10.945   7.218  71.674  1.00  0.00     0.000 HD 
HETATM   27  H1  UNL     1      -6.110   6.661  72.780  1.00  0.00     0.000 HD 
HETATM   28  C   UNL     1      -9.435   7.997  70.708  1.00  0.00    -0.161 C  
HETATM   29  H2  UNL     1      -6.074   8.301  73.252  1.00  0.00     0.000 HD 
HETATM   30  O   UNL     1     -10.766   8.060  71.273  1.00  0.00    -0.224 OA 
BRANCH  25  31
HETATM   31  O   UNL     1      -8.692   6.128  72.052  1.00  0.00    -0.135 OA 
BRANCH  31  32
HETATM   32  C   UNL     1      -9.946   5.641  71.555  1.00  0.00    -0.180 C  
HETATM   33  O   UNL     1      -9.796   4.828  70.384  1.00  0.00    -0.201 OA 
HETATM   34  C   UNL     1      -9.142   3.576  70.651  1.00  0.00    -0.116 C  
HETATM   35  C   UNL     1      -9.960   2.746  71.652  1.00  0.00    -0.086 C  
HETATM   36  H   UNL     1     -11.331   5.259  74.523  1.00  0.00     0.000 HD 
HETATM   37  C   UNL     1     -10.132   3.527  72.970  1.00  0.00    -0.149 C  
HETATM   38  H1  UNL     1     -11.062   3.265  74.804  1.00  0.00     0.000 HD 
HETATM   39  O   UNL     1      -9.366   1.470  71.910  1.00  0.00    -0.076 OA 
HETATM   40  H   UNL     1      -9.871   0.957  72.529  1.00  0.00     0.000 HD 
HETATM   41  H2  UNL     1     -10.564   1.818  74.090  1.00  0.00     0.000 HD 
HETATM   42  C   UNL     1     -10.743   4.905  72.664  1.00  0.00    -0.213 C  
HETATM   43  N   UNL     1     -10.949   2.749  73.932  1.00  0.00    -0.197 NA 
HETATM   44  O   UNL     1     -10.843   5.711  73.844  1.00  0.00    -0.247 OA 
BRANCH  34  45
HETATM   45  C   UNL     1      -8.999   2.815  69.325  1.00  0.00    -0.111 C  
HETATM   46  O   UNL     1      -9.745   3.455  68.290  1.00  0.00    -0.129 OA 
HETATM   47  H   UNL     1      -9.656   2.984  67.470  1.00  0.00     0.000 HD 
ENDBRANCH  34  45
ENDBRANCH  31  32
ENDBRANCH  25  31
ENDBRANCH  16  17
ENDBRANCH   7  16
ENDBRANCH   2   5
TORSDOF 6
ENDMDL
MODEL      278
REMARK 921   NORMALIZED FREE ENERGY PREDICTED BY IDOCK:   -2.95 KCAL/MOL
REMARK 922        TOTAL FREE ENERGY PREDICTED BY IDOCK:   -5.04 KCAL/MOL
REMARK 923 INTER-LIGAND FREE ENERGY PREDICTED BY IDOCK:   -5.25 KCAL/MOL
REMARK 924 INTRA-LIGAND FREE ENERGY PREDICTED BY IDOCK:    0.21 KCAL/MOL
REMARK 927      BINDING AFFINITY PREDICTED BY RF-SCORE:    0.00 PKD
ROOT
HETATM    1  N   UNL     1     -11.243   8.438  69.521  1.00  0.00    -0.439 NA 
HETATM    2  C   UNL     1     -10.126   7.620  70.017  1.00  0.00    -0.204 C  
HETATM    3  H2  UNL     1     -11.782   7.936  68.815  1.00  0.00     0.000 HD 
HETATM    4  H1  UNL     1     -11.843   8.771  70.275  1.00  0.00     0.000 HD 
ENDROOT
BRANCH   2   5
HETATM    5  C   UNL     1      -9.215   7.114  68.870  1.00  0.00    -0.137 C  
HETATM    6  O   UNL     1      -8.874   8.158  67.944  1.00  0.00    -0.130 OA 
HETATM    7  C   UNL     1      -8.010   9.160  68.457  1.00  0.00    -0.102 C  
HETATM    8  C   UNL     1      -6.646   8.522  68.878  1.00  0.00    -0.053 C  
HETATM    9  C   UNL     1      -7.956   6.394  69.392  1.00  0.00    -0.110 C  
HETATM   10  N   UNL     1      -5.879   7.998  67.727  1.00  0.00    -0.041 NA 
HETATM   11  C   UNL     1      -6.898   7.387  69.889  1.00  0.00    -0.055 C  
HETATM   12  H   UNL     1      -6.644   5.158  68.646  1.00  0.00     0.000 HD 
HETATM   13  H1  UNL     1      -4.989   7.582  68.002  1.00  0.00     0.000 HD 
HETATM   14  H2  UNL     1      -5.743   8.720  67.020  1.00  0.00     0.000 HD 
HETATM   15  O   UNL     1      -7.420   5.602  68.324  1.00  0.00    -0.075 OA 
BRANCH   7  16
HETATM   16  O   UNL     1      -7.781  10.174  67.464  1.00  0.00    -0.091 OA 
BRANCH  16  17
HETATM   17  C   UNL     1      -8.922  11.003  67.097  1.00  0.00    -0.143 C  
HETATM   18  N   UNL     1     -10.332   9.100  66.344  1.00  0.00    -0.223 NA 
HETATM   19  C   UNL     1     -10.926  11.318  65.587  1.00  0.00    -0.201 C  
HETATM   20  H1  UNL     1     -10.893   8.703  65.590  1.00  0.00     0.000 HD 
HETATM   21  H2  UNL     1     -10.863   9.164  67.213  1.00  0.00     0.000 HD 
HETATM   22  C   UNL     1     -10.432  12.701  65.163  1.00  0.00    -0.296 C  
HETATM   23  C   UNL     1      -9.770  10.403  65.956  1.00  0.00    -0.211 C  
HETATM   24  N   UNL     1     -11.629  13.436  64.717  1.00  0.00    -0.327 NA 
HETATM   25  C   UNL     1      -9.654  13.413  66.314  1.00  0.00    -0.235 C  
HETATM   26  H   UNL     1      -7.862  13.926  68.027  1.00  0.00     0.000 HD 
HETATM   27  H1  UNL     1     -11.299  14.359  64.434  1.00  0.00     0.000 HD 
HETATM   28  C   UNL     1      -8.531  12.491  66.881  1.00  0.00    -0.130 C  
HETATM   29  H2  UNL     1     -12.373  13.465  65.415  1.00  0.00     0.000 HD 
HETATM   30  O   UNL     1      -8.101  13.016  68.159  1.00  0.00    -0.139 OA 
BRANCH  25  31
HETATM   31  O   UNL     1      -8.996  14.645  65.881  1.00  0.00    -0.017 OA 
BRANCH  31  32
HETATM   32  C   UNL     1      -9.818  15.819  65.906  1.00  0.00    -0.349 C  
HETATM   33  O   UNL     1     -11.019  15.634  66.667  1.00  0.00    -0.299 OA 
HETATM   34  C   UNL     1     -10.773  15.484  68.075  1.00  0.00    -0.283 C  
HETATM   35  C   UNL     1     -10.093  16.741  68.639  1.00  0.00    -0.279 C  
HETATM   36  H   UNL     1      -7.308  17.956  65.955  1.00  0.00     0.000 HD 
HETATM   37  C   UNL     1      -8.760  16.993  67.909  1.00  0.00    -0.216 C  
HETATM   38  H1  UNL     1      -7.228  18.390  67.938  1.00  0.00     0.000 HD 
HETATM   39  O   UNL     1      -9.873  16.650  70.050  1.00  0.00     0.223 OA 
HETATM   40  H   UNL     1      -9.452  17.427  70.398  1.00  0.00     0.000 HD 
HETATM   41  H2  UNL     1      -7.990  18.195  69.434  1.00  0.00     0.000 HD 
HETATM   42  C   UNL     1      -9.018  17.056  66.394  1.00  0.00    -0.275 C  
HETATM   43  N   UNL     1      -8.111  18.224  68.422  1.00  0.00    -0.300 NA 
HETATM   44  O   UNL     1      -7.798  17.199  65.657  1.00  0.00    -0.353 OA 
BRANCH  34  45
HETATM   45  C   UNL     1     -12.118  15.250  68.777  1.00  0.00    -0.164 C  
HETATM   46  O   UNL     1     -12.956  14.398  67.997  1.00  0.00     0.404 OA 
HETATM   47  H   UNL     1     -13.788  14.253  68.431  1.00  0.00     0.000 HD 
ENDBRANCH  34  45
ENDBRANCH  31  32
ENDBRANCH  25  31
ENDBRANCH  16  17
ENDBRANCH   7  16
ENDBRANCH   2   5
TORSDOF 6
ENDMDL
MODEL      279
REMARK 921   NORMALIZED FREE ENERGY PREDICTED BY IDOCK:   -2.92 KCAL/MOL
REMARK 922        TOTAL FREE ENERGY PREDICTED BY IDOCK:   -4.99 KCAL/MOL
REMARK 923 INTER-LIGAND FREE ENERGY PREDICTED BY IDOCK:   -4.30 KCAL/MOL
REMARK 924 INTRA-LIGAND FREE ENERGY PREDICTED BY IDOCK:   -0.69 KCAL/MOL
REMARK 927      BINDING AFFINITY PREDICTED BY RF-SCORE:    0.00 PKD
ROOT
HETATM    1  N   UNL     1      -8.832   9.521  69.183  1.00  0.00    -0.140 NA 
HETATM    2  C   UNL     1      -9.284   8.633  68.101  1.00  0.00    -0.137 C  
HETATM    3  H2  UNL     1      -8.749  10.484  68.858  1.00  0.00     0.000 HD 
HETATM    4  H1  UNL     1      -9.428   9.460  70.007  1.00  0.00     0.000 HD 
ENDROOT
BRANCH   2   5
HETATM    5  C   UNL     1      -8.377   8.725  66.848  1.00  0.00    -0.108 C  
HETATM    6  O   UNL     1      -8.789   9.769  65.952  1.00  0.00    -0.140 OA 
HETATM    7  C   UNL     1      -8.595  11.089  66.436  1.00  0.00    -0.165 C  
HETATM    8  C   UNL     1      -7.074  11.344  66.692  1.00  0.00    -0.103 C  
HETATM    9  C   UNL     1      -6.884   8.854  67.209  1.00  0.00    -0.077 C  
HETATM   10  N   UNL     1      -6.276  11.339  65.447  1.00  0.00    -0.337 NA 
HETATM   11  C   UNL     1      -6.528  10.276  67.658  1.00  0.00    -0.058 C  
HETATM   12  H   UNL     1      -5.193   8.576  66.277  1.00  0.00     0.000 HD 
HETATM   13  H1  UNL     1      -5.283  11.506  65.614  1.00  0.00     0.000 HD 
HETATM   14  H2  UNL     1      -6.649  12.005  64.770  1.00  0.00     0.000 HD 
HETATM   15  O   UNL     1      -6.114   8.497  66.054  1.00  0.00    -0.047 OA 
BRANCH   7  16
HETATM   16  O   UNL     1      -9.090  12.045  65.482  1.00  0.00    -0.040 OA 
BRANCH  16  17
HETATM   17  C   UNL     1     -10.194  12.892  65.915  1.00  0.00    -0.290 C  
HETATM   18  N   UNL     1      -9.146  15.011  65.147  1.00  0.00     0.439 NA 
HETATM   19  C   UNL     1     -10.930  15.154  66.773  1.00  0.00    -0.321 C  
HETATM   20  H1  UNL     1      -8.854  15.955  65.400  1.00  0.00     0.000 HD 
HETATM   21  H2  UNL     1      -9.769  15.014  64.340  1.00  0.00     0.000 HD 
HETATM   22  C   UNL     1     -11.620  14.512  67.977  1.00  0.00    -0.336 C  
HETATM   23  C   UNL     1      -9.751  14.321  66.297  1.00  0.00    -0.302 C  
HETATM   24  N   UNL     1     -12.650  15.472  68.409  1.00  0.00     0.062 NA 
HETATM   25  C   UNL     1     -12.189  13.100  67.628  1.00  0.00    -0.099 C  
HETATM   26  H   UNL     1     -12.284  10.652  66.987  1.00  0.00     0.000 HD 
HETATM   27  H1  UNL     1     -13.110  15.043  69.212  1.00  0.00     0.000 HD 
HETATM   28  C   UNL     1     -11.092  12.202  66.979  1.00  0.00    -0.294 C  
HETATM   29  H2  UNL     1     -13.294  15.742  67.665  1.00  0.00     0.000 HD 
HETATM   30  O   UNL     1     -11.734  11.074  66.337  1.00  0.00    -0.062 OA 
BRANCH  25  31
HETATM   31  O   UNL     1     -12.674  12.374  68.801  1.00  0.00     0.487 OA 
BRANCH  31  32
HETATM   32  C   UNL     1     -11.737  12.259  69.879  1.00  0.00    -0.273 C  
HETATM   33  O   UNL     1     -11.797  13.371  70.782  1.00  0.00    -0.215 OA 
HETATM   34  C   UNL     1     -13.022  13.418  71.533  1.00  0.00    -0.341 C  
HETATM   35  C   UNL     1     -13.173  12.154  72.394  1.00  0.00     0.052 C  
HETATM   36  H   UNL     1     -11.987   8.984  70.162  1.00  0.00     0.000 HD 
HETATM   37  C   UNL     1     -13.168  10.901  71.496  1.00  0.00    -0.319 C  
HETATM   38  H1  UNL     1     -13.276   8.843  71.725  1.00  0.00     0.000 HD 
HETATM   39  O   UNL     1     -14.359  12.182  73.193  1.00  0.00     0.527 OA 
HETATM   40  H   UNL     1     -14.453  11.401  73.724  1.00  0.00     0.000 HD 
HETATM   41  H2  UNL     1     -14.095   9.698  72.931  1.00  0.00     0.000 HD 
HETATM   42  C   UNL     1     -11.900  10.909  70.625  1.00  0.00    -0.352 C  
HETATM   43  N   UNL     1     -13.279   9.672  72.319  1.00  0.00    -0.434 NA 
HETATM   44  O   UNL     1     -11.887   9.811  69.705  1.00  0.00     0.001 OA 
BRANCH  34  45
HETATM   45  C   UNL     1     -12.991  14.666  72.428  1.00  0.00    -0.368 C  
HETATM   46  O   UNL     1     -14.108  15.512  72.154  1.00  0.00    -0.514 OA 
HETATM   47  H   UNL     1     -14.089  16.284  72.708  1.00  0.00     0.000 HD 
ENDBRANCH  34  45
ENDBRANCH  31  32
ENDBRANCH  25  31
ENDBRANCH  16  17
ENDBRANCH   7  16
ENDBRANCH   2   5
TORSDOF 6
ENDMDL
MODEL      280
REMARK 921   NORMALIZED FREE ENERGY PREDICTED BY IDOCK:   -2.70 KCAL/MOL
REMARK 922        TOTAL FREE ENERGY PREDICTED BY IDOCK:   -4.70 KCAL/MOL
REMARK 923 INTER-LIGAND FREE ENERGY PREDICTED BY IDOCK:   -5.02 KCAL/MOL
REMARK 924 INTRA-LIGAND FREE ENERGY PREDICTED BY IDOCK:    0.32 KCAL/MOL
REMARK 927      BINDING AFFINITY PREDICTED BY RF-SCORE:    0.00 PKD
ROOT
HETATM    1  N   UNL     1      -8.734  10.222  70.115  1.00  0.00    -0.305 NA 
HETATM    2  C   UNL     1      -8.652   8.917  70.787  1.00  0.00    -0.199 C  
HETATM    3  H2  UNL     1      -9.570  10.731  70.400  1.00  0.00     0.000 HD 
HETATM    4  H1  UNL     1      -7.895  10.783  70.257  1.00  0.00     0.000 HD 
ENDROOT
BRANCH   2   5
HETATM    5  C   UNL     1      -9.927   8.064  70.572  1.00  0.00    -0.190 C  
HETATM    6  O   UNL     1     -10.510   8.272  69.275  1.00  0.00    -0.217 OA 
HETATM    7  C   UNL     1      -9.750   7.772  68.187  1.00  0.00    -0.155 C  
HETATM    8  C   UNL     1      -9.586   6.223  68.319  1.00  0.00    -0.119 C  
HETATM    9  C   UNL     1      -9.688   6.566  70.845  1.00  0.00    -0.176 C  
HETATM   10  N   UNL     1     -10.867   5.498  68.175  1.00  0.00    -0.088 NA 
HETATM   11  C   UNL     1      -8.953   5.887  69.683  1.00  0.00    -0.133 C  
HETATM   12  H   UNL     1     -10.815   5.018  71.219  1.00  0.00     0.000 HD 
HETATM   13  H1  UNL     1     -10.759   4.486  68.262  1.00  0.00     0.000 HD 
HETATM   14  H2  UNL     1     -11.329   5.743  67.300  1.00  0.00     0.000 HD 
HETATM   15  O   UNL     1     -10.962   5.941  71.051  1.00  0.00    -0.277 OA 
BRANCH   7  16
HETATM   16  O   UNL     1     -10.402   8.083  66.943  1.00  0.00    -0.306 OA 
BRANCH  16  17
HETATM   17  C   UNL     1      -9.557   8.590  65.869  1.00  0.00    -0.094 C  
HETATM   18  N   UNL     1      -7.886   6.758  66.031  1.00  0.00    -0.099 NA 
HETATM   19  C   UNL     1      -7.225   8.797  64.913  1.00  0.00    -0.084 C  
HETATM   20  H1  UNL     1      -6.903   6.512  66.142  1.00  0.00     0.000 HD 
HETATM   21  H2  UNL     1      -8.288   6.332  65.196  1.00  0.00     0.000 HD 
HETATM   22  C   UNL     1      -7.350  10.320  64.847  1.00  0.00    -0.110 C  
HETATM   23  C   UNL     1      -8.069   8.218  66.037  1.00  0.00    -0.110 C  
HETATM   24  N   UNL     1      -6.397  10.756  63.812  1.00  0.00    -0.360 NA 
HETATM   25  C   UNL     1      -8.821  10.765  64.571  1.00  0.00    -0.131 C  
HETATM   26  H   UNL     1     -11.303  11.146  64.891  1.00  0.00     0.000 HD 
HETATM   27  H1  UNL     1      -6.480  11.772  63.768  1.00  0.00     0.000 HD 
HETATM   28  C   UNL     1      -9.804  10.097  65.580  1.00  0.00    -0.298 C  
HETATM   29  H2  UNL     1      -6.534  10.296  62.911  1.00  0.00     0.000 HD 
HETATM   30  O   UNL     1     -11.152  10.225  65.068  1.00  0.00     0.554 OA 
BRANCH  25  31
HETATM   31  O   UNL     1      -9.014  12.209  64.703  1.00  0.00     0.510 OA 
BRANCH  31  32
HETATM   32  C   UNL     1      -9.776  12.622  65.844  1.00  0.00    -0.207 C  
HETATM   33  O   UNL     1      -8.955  12.874  66.992  1.00  0.00    -0.213 OA 
HETATM   34  C   UNL     1      -8.112  14.027  66.837  1.00  0.00     0.125 C  
HETATM   35  C   UNL     1      -8.962  15.290  66.628  1.00  0.00    -0.291 C  
HETATM   36  H   UNL     1     -12.007  14.337  64.126  1.00  0.00     0.000 HD 
HETATM   37  C   UNL     1      -9.848  15.129  65.378  1.00  0.00    -0.274 C  
HETATM   38  H1  UNL     1     -11.285  16.222  64.358  1.00  0.00     0.000 HD 
HETATM   39  O   UNL     1      -8.161  16.470  66.515  1.00  0.00    -0.246 OA 
HETATM   40  H   UNL     1      -8.686  17.250  66.385  1.00  0.00     0.000 HD 
HETATM   41  H2  UNL     1     -10.146  17.184  65.151  1.00  0.00     0.000 HD 
HETATM   42  C   UNL     1     -10.677  13.840  65.509  1.00  0.00    -0.302 C  
HETATM   43  N   UNL     1     -10.699  16.329  65.186  1.00  0.00    -0.604 NA 
HETATM   44  O   UNL     1     -11.455  13.591  64.332  1.00  0.00    -0.368 OA 
BRANCH  34  45
HETATM   45  C   UNL     1      -7.253  14.171  68.102  1.00  0.00    -0.128 C  
HETATM   46  O   UNL     1      -7.581  15.371  68.802  1.00  0.00    -0.125 OA 
HETATM   47  H   UNL     1      -7.050  15.460  69.584  1.00  0.00     0.000 HD 
ENDBRANCH  34  45
ENDBRANCH  31  32
ENDBRANCH  25  31
ENDBRANCH  16  17
ENDBRANCH   7  16
ENDBRANCH   2   5
TORSDOF 6
ENDMDL
MODEL      281
REMARK 921   NORMALIZED FREE ENERGY PREDICTED BY IDOCK:   -2.60 KCAL/MOL
REMARK 922        TOTAL FREE ENERGY PREDICTED BY IDOCK:   -4.57 KCAL/MOL
REMARK 923 INTER-LIGAND FREE ENERGY PREDICTED BY IDOCK:   -4.47 KCAL/MOL
REMARK 924 INTRA-LIGAND FREE ENERGY PREDICTED BY IDOCK:   -0.10 KCAL/MOL
REMARK 927      BINDING AFFINITY PREDICTED BY RF-SCORE:    0.00 PKD
ROOT
HETATM    1  N   UNL     1     -11.513  12.123  64.612  1.00  0.00    -0.327 NA 
HETATM    2  C   UNL     1     -10.352  11.841  65.469  1.00  0.00    -0.262 C  
HETATM    3  H2  UNL     1     -11.626  13.125  64.463  1.00  0.00     0.000 HD 
HETATM    4  H1  UNL     1     -11.469  11.621  63.726  1.00  0.00     0.000 HD 
ENDROOT
BRANCH   2   5
HETATM    5  C   UNL     1     -10.418  12.604  66.816  1.00  0.00    -0.240 C  
HETATM    6  O   UNL     1     -10.092  11.765  67.935  1.00  0.00    -0.178 OA 
HETATM    7  C   UNL     1      -8.736  11.355  68.005  1.00  0.00    -0.148 C  
HETATM    8  C   UNL     1      -7.809  12.607  68.146  1.00  0.00    -0.145 C  
HETATM    9  C   UNL     1      -9.564  13.887  66.810  1.00  0.00    -0.283 C  
HETATM   10  N   UNL     1      -7.996  13.315  69.431  1.00  0.00    -0.006 NA 
HETATM   11  C   UNL     1      -8.072  13.577  66.979  1.00  0.00    -0.015 C  
HETATM   12  H   UNL     1      -9.488  15.519  67.877  1.00  0.00     0.000 HD 
HETATM   13  H1  UNL     1      -7.391  14.132  69.523  1.00  0.00     0.000 HD 
HETATM   14  H2  UNL     1      -7.875  12.680  70.220  1.00  0.00     0.000 HD 
HETATM   15  O   UNL     1     -10.014  14.728  67.880  1.00  0.00    -0.211 OA 
BRANCH   7  16
HETATM   16  O   UNL     1      -8.539  10.481  69.130  1.00  0.00    -0.154 OA 
BRANCH  16  17
HETATM   17  C   UNL     1      -9.321   9.251  69.150  1.00  0.00    -0.157 C  
HETATM   18  N   UNL     1     -10.387   9.715  71.346  1.00  0.00    -0.197 NA 
HETATM   19  C   UNL     1     -10.394   7.435  70.543  1.00  0.00    -0.220 C  
HETATM   20  H1  UNL     1     -10.576   9.374  72.288  1.00  0.00     0.000 HD 
HETATM   21  H2  UNL     1     -11.245   9.976  70.862  1.00  0.00     0.000 HD 
HETATM   22  C   UNL     1      -9.652   6.350  69.763  1.00  0.00    -0.151 C  
HETATM   23  C   UNL     1      -9.606   8.734  70.575  1.00  0.00    -0.191 C  
HETATM   24  N   UNL     1     -10.455   5.124  69.916  1.00  0.00    -0.281 NA 
HETATM   25  C   UNL     1      -9.423   6.765  68.275  1.00  0.00    -0.125 C  
HETATM   26  H   UNL     1      -8.563   8.013  66.247  1.00  0.00     0.000 HD 
HETATM   27  H1  UNL     1      -9.959   4.400  69.396  1.00  0.00     0.000 HD 
HETATM   28  C   UNL     1      -8.756   8.171  68.185  1.00  0.00    -0.136 C  
HETATM   29  H2  UNL     1     -11.429   5.236  69.633  1.00  0.00     0.000 HD 
HETATM   30  O   UNL     1      -8.908   8.673  66.837  1.00  0.00    -0.127 OA 
BRANCH  25  31
HETATM   31  O   UNL     1      -8.543   5.846  67.555  1.00  0.00    -0.105 OA 
BRANCH  31  32
HETATM   32  C   UNL     1      -8.464   6.058  66.139  1.00  0.00    -0.134 C  
HETATM   33  O   UNL     1      -7.138   5.873  65.628  1.00  0.00    -0.066 OA 
HETATM   34  C   UNL     1      -6.698   4.506  65.690  1.00  0.00    -0.052 C  
HETATM   35  C   UNL     1      -7.616   3.608  64.846  1.00  0.00    -0.077 C  
HETATM   36  H   UNL     1     -11.439   4.805  65.470  1.00  0.00     0.000 HD 
HETATM   37  C   UNL     1      -9.066   3.705  65.358  1.00  0.00    -0.147 C  
HETATM   38  H1  UNL     1     -10.927   2.933  64.869  1.00  0.00     0.000 HD 
HETATM   39  O   UNL     1      -7.185   2.244  64.844  1.00  0.00    -0.055 OA 
HETATM   40  H   UNL     1      -7.753   1.688  64.323  1.00  0.00     0.000 HD 
HETATM   41  H2  UNL     1      -9.647   1.902  64.478  1.00  0.00     0.000 HD 
HETATM   42  C   UNL     1      -9.496   5.182  65.381  1.00  0.00    -0.039 C  
HETATM   43  N   UNL     1      -9.967   2.869  64.529  1.00  0.00    -0.077 NA 
HETATM   44  O   UNL     1     -10.808   5.341  65.934  1.00  0.00    -0.148 OA 
BRANCH  34  45
HETATM   45  C   UNL     1      -5.259   4.438  65.160  1.00  0.00    -0.009 C  
HETATM   46  O   UNL     1      -5.214   3.764  63.902  1.00  0.00    -0.008 OA 
HETATM   47  H   UNL     1      -4.324   3.722  63.574  1.00  0.00     0.000 HD 
ENDBRANCH  34  45
ENDBRANCH  31  32
ENDBRANCH  25  31
ENDBRANCH  16  17
ENDBRANCH   7  16
ENDBRANCH   2   5
TORSDOF 6
ENDMDL
MODEL      282
REMARK 921   NORMALIZED FREE ENERGY PREDICTED BY IDOCK:   -2.58 KCAL/MOL
REMARK 922        TOTAL FREE ENERGY PREDICTED BY IDOCK:   -4.54 KCAL/MOL
REMARK 923 INTER-LIGAND FREE ENERGY PREDICTED BY IDOCK:   -4.97 KCAL/MOL
REMARK 924 INTRA-LIGAND FREE ENERGY PREDICTED BY IDOCK:    0.43 KCAL/MOL
REMARK 927      BINDING AFFINITY PREDICTED BY RF-SCORE:    0.00 PKD
ROOT
HETATM    1  N   UNL     1      -8.095  10.687  64.402  1.00  0.00    -0.355 NA 
HETATM    2  C   UNL     1      -8.951  11.607  65.166  1.00  0.00     0.186 C  
HETATM    3  H2  UNL     1      -8.644   9.942  63.975  1.00  0.00     0.000 HD 
HETATM    4  H1  UNL     1      -7.530  11.174  63.707  1.00  0.00     0.000 HD 
ENDROOT
BRANCH   2   5
HETATM    5  C   UNL     1      -9.810  10.868  66.223  1.00  0.00    -0.216 C  
HETATM    6  O   UNL     1      -9.012  10.293  67.270  1.00  0.00    -0.132 OA 
HETATM    7  C   UNL     1      -8.392  11.229  68.137  1.00  0.00    -0.143 C  
HETATM    8  C   UNL     1      -9.482  12.079  68.870  1.00  0.00     0.148 C  
HETATM    9  C   UNL     1     -10.932  11.755  66.797  1.00  0.00    -0.288 C  
HETATM   10  N   UNL     1     -10.302  11.275  69.801  1.00  0.00    -0.377 NA 
HETATM   11  C   UNL     1     -10.395  12.753  67.829  1.00  0.00    -0.222 C  
HETATM   12  H   UNL     1     -12.602  11.448  67.758  1.00  0.00     0.000 HD 
HETATM   13  H1  UNL     1     -11.013  11.829  70.280  1.00  0.00     0.000 HD 
HETATM   14  H2  UNL     1      -9.715  10.777  70.470  1.00  0.00     0.000 HD 
HETATM   15  O   UNL     1     -11.910  10.901  67.404  1.00  0.00    -0.465 OA 
BRANCH   7  16
HETATM   16  O   UNL     1      -7.581  10.546  69.107  1.00  0.00    -0.100 OA 
BRANCH  16  17
HETATM   17  C   UNL     1      -7.532   9.092  69.014  1.00  0.00    -0.074 C  
HETATM   18  N   UNL     1      -5.699   9.051  67.336  1.00  0.00    -0.042 NA 
HETATM   19  C   UNL     1      -7.061   7.067  67.574  1.00  0.00    -0.085 C  
HETATM   20  H1  UNL     1      -5.389   8.716  66.423  1.00  0.00     0.000 HD 
HETATM   21  H2  UNL     1      -5.044   8.791  68.073  1.00  0.00     0.000 HD 
HETATM   22  C   UNL     1      -8.447   6.493  67.867  1.00  0.00    -0.118 C  
HETATM   23  C   UNL     1      -7.063   8.586  67.634  1.00  0.00    -0.080 C  
HETATM   24  N   UNL     1      -8.334   5.040  67.655  1.00  0.00    -0.105 NA 
HETATM   25  C   UNL     1      -8.940   6.880  69.297  1.00  0.00    -0.137 C  
HETATM   26  H   UNL     1      -9.728   8.273  71.259  1.00  0.00     0.000 HD 
HETATM   27  H1  UNL     1      -9.259   4.657  67.850  1.00  0.00     0.000 HD 
HETATM   28  C   UNL     1      -8.835   8.418  69.527  1.00  0.00    -0.145 C  
HETATM   29  H2  UNL     1      -7.588   4.605  68.200  1.00  0.00     0.000 HD 
HETATM   30  O   UNL     1      -8.931   8.685  70.946  1.00  0.00    -0.154 OA 
BRANCH  25  31
HETATM   31  O   UNL     1     -10.337   6.522  69.536  1.00  0.00    -0.180 OA 
BRANCH  31  32
HETATM   32  C   UNL     1     -10.541   5.358  70.347  1.00  0.00    -0.252 C  
HETATM   33  O   UNL     1      -9.368   4.540  70.439  1.00  0.00    -0.120 OA 
HETATM   34  C   UNL     1      -8.306   5.164  71.180  1.00  0.00    -0.121 C  
HETATM   35  C   UNL     1      -8.752   5.447  72.623  1.00  0.00    -0.123 C  
HETATM   36  H   UNL     1     -12.562   6.825  72.498  1.00  0.00     0.000 HD 
HETATM   37  C   UNL     1      -9.988   6.366  72.624  1.00  0.00    -0.171 C  
HETATM   38  H1  UNL     1     -11.267   7.227  74.011  1.00  0.00     0.000 HD 
HETATM   39  O   UNL     1      -7.707   6.027  73.409  1.00  0.00    -0.100 OA 
HETATM   40  H   UNL     1      -7.982   6.203  74.301  1.00  0.00     0.000 HD 
HETATM   41  H2  UNL     1      -9.701   6.988  74.597  1.00  0.00     0.000 HD 
HETATM   42  C   UNL     1     -11.086   5.736  71.749  1.00  0.00    -0.238 C  
HETATM   43  N   UNL     1     -10.448   6.618  74.011  1.00  0.00    -0.340 NA 
HETATM   44  O   UNL     1     -12.229   6.593  71.640  1.00  0.00    -0.343 OA 
BRANCH  34  45
HETATM   45  C   UNL     1      -7.095   4.220  71.177  1.00  0.00    -0.036 C  
HETATM   46  O   UNL     1      -7.237   3.219  70.169  1.00  0.00    -0.040 OA 
HETATM   47  H   UNL     1      -6.488   2.635  70.167  1.00  0.00     0.000 HD 
ENDBRANCH  34  45
ENDBRANCH  31  32
ENDBRANCH  25  31
ENDBRANCH  16  17
ENDBRANCH   7  16
ENDBRANCH   2   5
TORSDOF 6
ENDMDL
MODEL      283
REMARK 921   NORMALIZED FREE ENERGY PREDICTED BY IDOCK:   -2.55 KCAL/MOL
REMARK 922        TOTAL FREE ENERGY PREDICTED BY IDOCK:   -4.50 KCAL/MOL
REMARK 923 INTER-LIGAND FREE ENERGY PREDICTED BY IDOCK:   -4.84 KCAL/MOL
REMARK 924 INTRA-LIGAND FREE ENERGY PREDICTED BY IDOCK:    0.34 KCAL/MOL
REMARK 927      BINDING AFFINITY PREDICTED BY RF-SCORE:    0.00 PKD
ROOT
HETATM    1  N   UNL     1     -11.220  13.812  64.668  1.00  0.00    -0.363 NA 
HETATM    2  C   UNL     1     -10.619  12.659  65.354  1.00  0.00    -0.282 C  
HETATM    3  H2  UNL     1     -10.593  14.617  64.681  1.00  0.00     0.000 HD 
HETATM    4  H1  UNL     1     -11.510  13.588  63.717  1.00  0.00     0.000 HD 
ENDROOT
BRANCH   2   5
HETATM    5  C   UNL     1     -10.177  13.001  66.799  1.00  0.00    -0.246 C  
HETATM    6  O   UNL     1     -10.465  11.940  67.723  1.00  0.00    -0.195 OA 
HETATM    7  C   UNL     1      -9.690  10.765  67.552  1.00  0.00    -0.166 C  
HETATM    8  C   UNL     1      -8.175  11.092  67.760  1.00  0.00    -0.117 C  
HETATM    9  C   UNL     1      -8.698  13.427  66.878  1.00  0.00    -0.142 C  
HETATM   10  N   UNL     1      -7.860  11.482  69.152  1.00  0.00    -0.346 NA 
HETATM   11  C   UNL     1      -7.754  12.221  66.801  1.00  0.00     0.074 C  
HETATM   12  H   UNL     1      -7.588  14.388  68.164  1.00  0.00     0.000 HD 
HETATM   13  H1  UNL     1      -6.872  11.695  69.288  1.00  0.00     0.000 HD 
HETATM   14  H2  UNL     1      -8.175  10.770  69.811  1.00  0.00     0.000 HD 
HETATM   15  O   UNL     1      -8.500  14.125  68.115  1.00  0.00    -0.156 OA 
BRANCH   7  16
HETATM   16  O   UNL     1     -10.099   9.758  68.493  1.00  0.00    -0.156 OA 
BRANCH  16  17
HETATM   17  C   UNL     1      -9.579   8.413  68.282  1.00  0.00    -0.144 C  
HETATM   18  N   UNL     1      -9.939   8.431  65.823  1.00  0.00    -0.344 NA 
HETATM   19  C   UNL     1      -9.663   6.290  66.911  1.00  0.00    -0.184 C  
HETATM   20  H1  UNL     1     -10.357   7.959  65.021  1.00  0.00     0.000 HD 
HETATM   21  H2  UNL     1      -8.939   8.585  65.688  1.00  0.00     0.000 HD 
HETATM   22  C   UNL     1      -9.908   5.449  68.164  1.00  0.00    -0.145 C  
HETATM   23  C   UNL     1     -10.212   7.698  67.069  1.00  0.00    -0.300 C  
HETATM   24  N   UNL     1      -9.447   4.090  67.833  1.00  0.00    -0.176 NA 
HETATM   25  C   UNL     1      -9.202   6.061  69.415  1.00  0.00    -0.132 C  
HETATM   26  H   UNL     1      -8.627   7.660  71.292  1.00  0.00     0.000 HD 
HETATM   27  H1  UNL     1      -9.611   3.529  68.669  1.00  0.00     0.000 HD 
HETATM   28  C   UNL     1      -9.573   7.566  69.585  1.00  0.00    -0.159 C  
HETATM   29  H2  UNL     1      -8.483   4.055  67.500  1.00  0.00     0.000 HD 
HETATM   30  O   UNL     1      -8.630   8.178  70.495  1.00  0.00    -0.125 OA 
BRANCH  25  31
HETATM   31  O   UNL     1      -9.579   5.401  70.664  1.00  0.00    -0.159 OA 
BRANCH  31  32
HETATM   32  C   UNL     1      -8.650   5.557  71.743  1.00  0.00    -0.135 C  
HETATM   33  O   UNL     1      -9.165   5.068  72.988  1.00  0.00    -0.124 OA 
HETATM   34  C   UNL     1      -9.317   3.639  73.010  1.00  0.00    -0.102 C  
HETATM   35  C   UNL     1      -7.959   2.950  72.802  1.00  0.00    -0.062 C  
HETATM   36  H   UNL     1      -5.959   4.988  69.924  1.00  0.00     0.000 HD 
HETATM   37  C   UNL     1      -7.348   3.382  71.455  1.00  0.00    -0.043 C  
HETATM   38  H1  UNL     1      -5.616   3.036  70.369  1.00  0.00     0.000 HD 
HETATM   39  O   UNL     1      -8.061   1.524  72.863  1.00  0.00    -0.049 OA 
HETATM   40  H   UNL     1      -7.221   1.099  72.734  1.00  0.00     0.000 HD 
HETATM   41  H2  UNL     1      -6.067   1.735  71.348  1.00  0.00     0.000 HD 
HETATM   42  C   UNL     1      -7.278   4.918  71.402  1.00  0.00    -0.061 C  
HETATM   43  N   UNL     1      -6.021   2.750  71.261  1.00  0.00    -0.014 NA 
HETATM   44  O   UNL     1      -6.799   5.380  70.133  1.00  0.00    -0.045 OA 
BRANCH  34  45
HETATM   45  C   UNL     1      -9.912   3.237  74.367  1.00  0.00    -0.136 C  
HETATM   46  O   UNL     1     -10.398   1.895  74.329  1.00  0.00    -0.107 OA 
HETATM   47  H   UNL     1     -10.766   1.646  75.169  1.00  0.00     0.000 HD 
ENDBRANCH  34  45
ENDBRANCH  31  32
ENDBRANCH  25  31
ENDBRANCH  16  17
ENDBRANCH   7  16
ENDBRANCH   2   5
TORSDOF 6
ENDMDL
MODEL      284
REMARK 921   NORMALIZED FREE ENERGY PREDICTED BY IDOCK:   -2.47 KCAL/MOL
REMARK 922        TOTAL FREE ENERGY PREDICTED BY IDOCK:   -4.40 KCAL/MOL
REMARK 923 INTER-LIGAND FREE ENERGY PREDICTED BY IDOCK:   -4.14 KCAL/MOL
REMARK 924 INTRA-LIGAND FREE ENERGY PREDICTED BY IDOCK:   -0.25 KCAL/MOL
REMARK 927      BINDING AFFINITY PREDICTED BY RF-SCORE:    0.00 PKD
ROOT
HETATM    1  N   UNL     1      -9.272  14.657  68.892  1.00  0.00    -0.288 NA 
HETATM    2  C   UNL     1     -10.340  13.965  68.156  1.00  0.00    -0.247 C  
HETATM    3  H2  UNL     1      -8.680  15.198  68.261  1.00  0.00     0.000 HD 
HETATM    4  H1  UNL     1      -9.636  15.239  69.645  1.00  0.00     0.000 HD 
ENDROOT
BRANCH   2   5
HETATM    5  C   UNL     1      -9.786  13.080  67.011  1.00  0.00    -0.235 C  
HETATM    6  O   UNL     1      -9.283  11.822  67.488  1.00  0.00    -0.168 OA 
HETATM    7  C   UNL     1     -10.270  10.925  67.973  1.00  0.00    -0.178 C  
HETATM    8  C   UNL     1     -11.268  10.560  66.826  1.00  0.00     0.147 C  
HETATM    9  C   UNL     1     -10.806  12.881  65.873  1.00  0.00    -0.272 C  
HETATM   10  N   UNL     1     -10.633   9.781  65.742  1.00  0.00     0.081 NA 
HETATM   11  C   UNL     1     -11.878  11.850  66.245  1.00  0.00    -0.110 C  
HETATM   12  H   UNL     1     -10.724  12.325  64.005  1.00  0.00     0.000 HD 
HETATM   13  H1  UNL     1     -11.284   9.543  64.993  1.00  0.00     0.000 HD 
HETATM   14  H2  UNL     1     -10.178   8.946  66.110  1.00  0.00     0.000 HD 
HETATM   15  O   UNL     1     -10.095  12.448  64.706  1.00  0.00    -0.278 OA 
BRANCH   7  16
HETATM   16  O   UNL     1      -9.650   9.727  68.470  1.00  0.00    -0.146 OA 
BRANCH  16  17
HETATM   17  C   UNL     1     -10.277   9.093  69.623  1.00  0.00    -0.203 C  
HETATM   18  N   UNL     1     -10.995  11.229  70.672  1.00  0.00     0.149 NA 
HETATM   19  C   UNL     1     -10.890   9.260  72.071  1.00  0.00    -0.101 C  
HETATM   20  H1  UNL     1     -10.981  11.812  71.509  1.00  0.00     0.000 HD 
HETATM   21  H2  UNL     1     -11.947  11.053  70.353  1.00  0.00     0.000 HD 
HETATM   22  C   UNL     1     -10.178   7.941  72.375  1.00  0.00    -0.264 C  
HETATM   23  C   UNL     1     -10.256   9.975  70.890  1.00  0.00     0.227 C  
HETATM   24  N   UNL     1     -10.804   7.420  73.602  1.00  0.00    -0.524 NA 
HETATM   25  C   UNL     1     -10.255   6.955  71.167  1.00  0.00    -0.195 C  
HETATM   26  H   UNL     1      -9.898   5.960  68.866  1.00  0.00     0.000 HD 
HETATM   27  H1  UNL     1     -10.329   6.541  73.805  1.00  0.00     0.000 HD 
HETATM   28  C   UNL     1      -9.771   7.642  69.854  1.00  0.00    -0.175 C  
HETATM   29  H2  UNL     1     -11.819   7.331  73.537  1.00  0.00     0.000 HD 
HETATM   30  O   UNL     1     -10.206   6.847  68.725  1.00  0.00    -0.161 OA 
BRANCH  25  31
HETATM   31  O   UNL     1      -9.417   5.770  71.344  1.00  0.00    -0.149 OA 
BRANCH  31  32
HETATM   32  C   UNL     1     -10.023   4.529  70.960  1.00  0.00    -0.187 C  
HETATM   33  O   UNL     1      -9.787   4.204  69.584  1.00  0.00    -0.217 OA 
HETATM   34  C   UNL     1      -8.411   3.893  69.309  1.00  0.00    -0.060 C  
HETATM   35  C   UNL     1      -7.963   2.670  70.125  1.00  0.00    -0.042 C  
HETATM   36  H   UNL     1      -9.521   3.027  73.851  1.00  0.00     0.000 HD 
HETATM   37  C   UNL     1      -8.136   2.949  71.631  1.00  0.00    -0.057 C  
HETATM   38  H1  UNL     1      -7.854   1.947  73.424  1.00  0.00     0.000 HD 
HETATM   39  O   UNL     1      -6.610   2.299  69.846  1.00  0.00    -0.028 OA 
HETATM   40  H   UNL     1      -6.333   1.544  70.351  1.00  0.00     0.000 HD 
HETATM   41  H2  UNL     1      -6.793   1.456  72.205  1.00  0.00     0.000 HD 
HETATM   42  C   UNL     1      -9.590   3.375  71.902  1.00  0.00    -0.150 C  
HETATM   43  N   UNL     1      -7.739   1.762  72.428  1.00  0.00    -0.043 NA 
HETATM   44  O   UNL     1      -9.787   3.734  73.275  1.00  0.00    -0.115 OA 
BRANCH  34  45
HETATM   45  C   UNL     1      -8.271   3.605  67.807  1.00  0.00    -0.088 C  
HETATM   46  O   UNL     1      -7.106   4.237  67.277  1.00  0.00    -0.065 OA 
HETATM   47  H   UNL     1      -7.020   4.059  66.348  1.00  0.00     0.000 HD 
ENDBRANCH  34  45
ENDBRANCH  31  32
ENDBRANCH  25  31
ENDBRANCH  16  17
ENDBRANCH   7  16
ENDBRANCH   2   5
TORSDOF 6
ENDMDL
MODEL      285
REMARK 921   NORMALIZED FREE ENERGY PREDICTED BY IDOCK:   -2.36 KCAL/MOL
REMARK 922        TOTAL FREE ENERGY PREDICTED BY IDOCK:   -4.24 KCAL/MOL
REMARK 923 INTER-LIGAND FREE ENERGY PREDICTED BY IDOCK:   -5.08 KCAL/MOL
REMARK 924 INTRA-LIGAND FREE ENERGY PREDICTED BY IDOCK:    0.84 KCAL/MOL
REMARK 927      BINDING AFFINITY PREDICTED BY RF-SCORE:    0.00 PKD
ROOT
HETATM    1  N   UNL     1     -11.019  10.650  66.949  1.00  0.00    -0.211 NA 
HETATM    2  C   UNL     1     -11.034   9.181  66.893  1.00  0.00     0.239 C  
HETATM    3  H2  UNL     1     -10.483  11.042  66.175  1.00  0.00     0.000 HD 
HETATM    4  H1  UNL     1     -11.958  11.045  66.984  1.00  0.00     0.000 HD 
ENDROOT
BRANCH   2   5
HETATM    5  C   UNL     1      -9.607   8.581  66.839  1.00  0.00    -0.197 C  
HETATM    6  O   UNL     1      -8.627   9.540  66.412  1.00  0.00    -0.130 OA 
HETATM    7  C   UNL     1      -8.368  10.587  67.333  1.00  0.00    -0.121 C  
HETATM    8  C   UNL     1      -7.808   9.995  68.668  1.00  0.00    -0.091 C  
HETATM    9  C   UNL     1      -9.197   7.915  68.168  1.00  0.00    -0.136 C  
HETATM   10  N   UNL     1      -6.475   9.376  68.504  1.00  0.00    -0.053 NA 
HETATM   11  C   UNL     1      -8.796   8.952  69.223  1.00  0.00    -0.139 C  
HETATM   12  H   UNL     1      -7.844   6.623  68.723  1.00  0.00     0.000 HD 
HETATM   13  H1  UNL     1      -6.110   8.989  69.375  1.00  0.00     0.000 HD 
HETATM   14  H2  UNL     1      -5.815  10.034  68.091  1.00  0.00     0.000 HD 
HETATM   15  O   UNL     1      -8.097   7.034  67.904  1.00  0.00    -0.113 OA 
BRANCH   7  16
HETATM   16  O   UNL     1      -7.415  11.511  66.780  1.00  0.00    -0.144 OA 
BRANCH  16  17
HETATM   17  C   UNL     1      -7.546  12.906  67.181  1.00  0.00    -0.028 C  
HETATM   18  N   UNL     1      -5.138  13.440  66.875  1.00  0.00     0.200 NA 
HETATM   19  C   UNL     1      -6.460  14.923  68.253  1.00  0.00    -0.120 C  
HETATM   20  H1  UNL     1      -4.291  13.818  67.298  1.00  0.00     0.000 HD 
HETATM   21  H2  UNL     1      -5.365  13.914  66.001  1.00  0.00     0.000 HD 
HETATM   22  C   UNL     1      -7.613  15.058  69.247  1.00  0.00    -0.187 C  
HETATM   23  C   UNL     1      -6.264  13.478  67.822  1.00  0.00    -0.154 C  
HETATM   24  N   UNL     1      -7.612  16.469  69.674  1.00  0.00     0.103 NA 
HETATM   25  C   UNL     1      -8.968  14.595  68.625  1.00  0.00    -0.184 C  
HETATM   26  H   UNL     1     -10.755  13.103  67.629  1.00  0.00     0.000 HD 
HETATM   27  H1  UNL     1      -8.381  16.559  70.338  1.00  0.00     0.000 HD 
HETATM   28  C   UNL     1      -8.838  13.170  68.004  1.00  0.00    -0.191 C  
HETATM   29  H2  UNL     1      -7.662  17.130  68.898  1.00  0.00     0.000 HD 
HETATM   30  O   UNL     1      -9.965  12.941  67.126  1.00  0.00    -0.233 OA 
BRANCH  25  31
HETATM   31  O   UNL     1     -10.050  14.519  69.605  1.00  0.00    -0.007 OA 
BRANCH  31  32
HETATM   32  C   UNL     1     -11.359  14.316  69.057  1.00  0.00    -0.272 C  
HETATM   33  O   UNL     1     -11.829  12.974  69.238  1.00  0.00    -0.302 OA 
HETATM   34  C   UNL     1     -12.095  12.654  70.614  1.00  0.00    -0.226 C  
HETATM   35  C   UNL     1     -13.186  13.576  71.180  1.00  0.00    -0.147 C  
HETATM   36  H   UNL     1     -12.481  17.324  69.805  1.00  0.00     0.000 HD 
HETATM   37  C   UNL     1     -12.743  15.048  71.070  1.00  0.00    -0.366 C  
HETATM   38  H1  UNL     1     -13.511  16.923  71.509  1.00  0.00     0.000 HD 
HETATM   39  O   UNL     1     -13.513  13.260  72.536  1.00  0.00    -0.573 OA 
HETATM   40  H   UNL     1     -14.187  13.830  72.886  1.00  0.00     0.000 HD 
HETATM   41  H2  UNL     1     -14.082  15.706  72.532  1.00  0.00     0.000 HD 
HETATM   42  C   UNL     1     -12.369  15.355  69.610  1.00  0.00    -0.217 C  
HETATM   43  N   UNL     1     -13.804  15.949  71.582  1.00  0.00    -0.305 NA 
HETATM   44  O   UNL     1     -11.863  16.688  69.465  1.00  0.00     0.215 OA 
BRANCH  34  45
HETATM   45  C   UNL     1     -12.548  11.189  70.691  1.00  0.00    -0.318 C  
HETATM   46  O   UNL     1     -12.718  10.643  69.383  1.00  0.00    -0.671 OA 
HETATM   47  H   UNL     1     -12.999   9.737  69.430  1.00  0.00     0.000 HD 
ENDBRANCH  34  45
ENDBRANCH  31  32
ENDBRANCH  25  31
ENDBRANCH  16  17
ENDBRANCH   7  16
ENDBRANCH   2   5
TORSDOF 6
ENDMDL
MODEL      286
REMARK 921   NORMALIZED FREE ENERGY PREDICTED BY IDOCK:   -2.32 KCAL/MOL
REMARK 922        TOTAL FREE ENERGY PREDICTED BY IDOCK:   -4.18 KCAL/MOL
REMARK 923 INTER-LIGAND FREE ENERGY PREDICTED BY IDOCK:   -3.74 KCAL/MOL
REMARK 924 INTRA-LIGAND FREE ENERGY PREDICTED BY IDOCK:   -0.44 KCAL/MOL
REMARK 927      BINDING AFFINITY PREDICTED BY RF-SCORE:    0.00 PKD
ROOT
HETATM    1  N   UNL     1      -5.634   9.296  64.607  1.00  0.00    -0.061 NA 
HETATM    2  C   UNL     1      -6.738   8.696  65.371  1.00  0.00    -0.067 C  
HETATM    3  H2  UNL     1      -5.916  10.181  64.186  1.00  0.00     0.000 HD 
HETATM    4  H1  UNL     1      -4.791   9.407  65.170  1.00  0.00     0.000 HD 
ENDROOT
BRANCH   2   5
HETATM    5  C   UNL     1      -8.019   8.526  64.515  1.00  0.00    -0.145 C  
HETATM    6  O   UNL     1      -9.209   8.478  65.318  1.00  0.00    -0.074 OA 
HETATM    7  C   UNL     1      -9.555   9.698  65.955  1.00  0.00    -0.257 C  
HETATM    8  C   UNL     1      -9.828  10.800  64.880  1.00  0.00    -0.292 C  
HETATM    9  C   UNL     1      -8.133   9.591  63.407  1.00  0.00    -0.149 C  
HETATM   10  N   UNL     1     -11.027  10.516  64.061  1.00  0.00     0.029 NA 
HETATM   11  C   UNL     1      -8.599  10.942  63.963  1.00  0.00     0.057 C  
HETATM   12  H   UNL     1      -9.136   9.773  61.743  1.00  0.00     0.000 HD 
HETATM   13  H1  UNL     1     -11.205  11.235  63.359  1.00  0.00     0.000 HD 
HETATM   14  H2  UNL     1     -11.846  10.369  64.650  1.00  0.00     0.000 HD 
HETATM   15  O   UNL     1      -9.065   9.117  62.427  1.00  0.00    -0.221 OA 
BRANCH   7  16
HETATM   16  O   UNL     1     -10.727   9.518  66.768  1.00  0.00    -0.174 OA 
BRANCH  16  17
HETATM   17  C   UNL     1     -10.507   9.273  68.188  1.00  0.00    -0.215 C  
HETATM   18  N   UNL     1     -10.363  11.679  68.797  1.00  0.00    -0.275 NA 
HETATM   19  C   UNL     1      -9.448  10.062  70.345  1.00  0.00     0.062 C  
HETATM   20  H1  UNL     1      -9.815  12.409  69.252  1.00  0.00     0.000 HD 
HETATM   21  H2  UNL     1     -11.309  11.629  69.175  1.00  0.00     0.000 HD 
HETATM   22  C   UNL     1      -8.732   8.723  70.524  1.00  0.00    -0.174 C  
HETATM   23  C   UNL     1      -9.678  10.378  68.876  1.00  0.00    -0.198 C  
HETATM   24  N   UNL     1      -8.462   8.601  71.967  1.00  0.00    -0.318 NA 
HETATM   25  C   UNL     1      -9.570   7.541  69.942  1.00  0.00    -0.160 C  
HETATM   26  H   UNL     1     -10.754   6.039  68.283  1.00  0.00     0.000 HD 
HETATM   27  H1  UNL     1      -7.984   7.708  72.086  1.00  0.00     0.000 HD 
HETATM   28  C   UNL     1     -10.000   7.832  68.472  1.00  0.00    -0.182 C  
HETATM   29  H2  UNL     1      -9.295   8.699  72.548  1.00  0.00     0.000 HD 
HETATM   30  O   UNL     1     -11.064   6.920  68.110  1.00  0.00    -0.175 OA 
BRANCH  25  31
HETATM   31  O   UNL     1      -8.832   6.279  69.912  1.00  0.00    -0.138 OA 
BRANCH  31  32
HETATM   32  C   UNL     1      -7.608   6.268  70.659  1.00  0.00    -0.096 C  
HETATM   33  O   UNL     1      -7.772   5.727  71.976  1.00  0.00    -0.099 OA 
HETATM   34  C   UNL     1      -8.061   4.319  71.972  1.00  0.00    -0.094 C  
HETATM   35  C   UNL     1      -6.910   3.535  71.322  1.00  0.00    -0.032 C  
HETATM   36  H   UNL     1      -5.669   5.619  68.073  1.00  0.00     0.000 HD 
HETATM   37  C   UNL     1      -6.692   4.020  69.875  1.00  0.00    -0.034 C  
HETATM   38  H1  UNL     1      -5.416   3.615  68.292  1.00  0.00     0.000 HD 
HETATM   39  O   UNL     1      -7.139   2.123  71.339  1.00  0.00    -0.031 OA 
HETATM   40  H   UNL     1      -6.427   1.639  70.937  1.00  0.00     0.000 HD 
HETATM   41  H2  UNL     1      -5.686   2.284  69.296  1.00  0.00     0.000 HD 
HETATM   42  C   UNL     1      -6.479   5.544  69.880  1.00  0.00    -0.034 C  
HETATM   43  N   UNL     1      -5.560   3.295  69.250  1.00  0.00    -0.017 NA 
HETATM   44  O   UNL     1      -6.360   6.063  68.550  1.00  0.00    -0.036 OA 
BRANCH  34  45
HETATM   45  C   UNL     1      -8.258   3.862  73.424  1.00  0.00    -0.088 C  
HETATM   46  O   UNL     1      -7.794   2.524  73.601  1.00  0.00    -0.052 OA 
HETATM   47  H   UNL     1      -7.915   2.241  74.500  1.00  0.00     0.000 HD 
ENDBRANCH  34  45
ENDBRANCH  31  32
ENDBRANCH  25  31
ENDBRANCH  16  17
ENDBRANCH   7  16
ENDBRANCH   2   5
TORSDOF 6
ENDMDL
MODEL      287
REMARK 921   NORMALIZED FREE ENERGY PREDICTED BY IDOCK:   -2.30 KCAL/MOL
REMARK 922        TOTAL FREE ENERGY PREDICTED BY IDOCK:   -4.15 KCAL/MOL
REMARK 923 INTER-LIGAND FREE ENERGY PREDICTED BY IDOCK:   -3.97 KCAL/MOL
REMARK 924 INTRA-LIGAND FREE ENERGY PREDICTED BY IDOCK:   -0.18 KCAL/MOL
REMARK 927      BINDING AFFINITY PREDICTED BY RF-SCORE:    0.00 PKD
ROOT
HETATM    1  N   UNL     1      -9.306  11.420  64.494  1.00  0.00    -0.397 NA 
HETATM    2  C   UNL     1      -8.372  11.388  65.630  1.00  0.00     0.168 C  
HETATM    3  H2  UNL     1      -9.379  12.359  64.104  1.00  0.00     0.000 HD 
HETATM    4  H1  UNL     1      -9.062  10.740  63.775  1.00  0.00     0.000 HD 
ENDROOT
BRANCH   2   5
HETATM    5  C   UNL     1      -8.742  12.421  66.723  1.00  0.00    -0.160 C  
HETATM    6  O   UNL     1      -9.073  11.797  67.974  1.00  0.00    -0.166 OA 
HETATM    7  C   UNL     1      -7.986  11.179  68.645  1.00  0.00    -0.145 C  
HETATM    8  C   UNL     1      -6.899  12.248  68.993  1.00  0.00    -0.094 C  
HETATM    9  C   UNL     1      -7.658  13.502  66.906  1.00  0.00     0.438 C  
HETATM   10  N   UNL     1      -7.368  13.237  69.988  1.00  0.00     0.333 NA 
HETATM   11  C   UNL     1      -6.462  12.977  67.709  1.00  0.00    -0.148 C  
HETATM   12  H   UNL     1      -7.582  15.284  67.695  1.00  0.00     0.000 HD 
HETATM   13  H1  UNL     1      -6.659  13.934  70.216  1.00  0.00     0.000 HD 
HETATM   14  H2  UNL     1      -7.710  12.774  70.830  1.00  0.00     0.000 HD 
HETATM   15  O   UNL     1      -8.251  14.618  67.582  1.00  0.00    -0.146 OA 
BRANCH   7  16
HETATM   16  O   UNL     1      -8.443  10.545  69.852  1.00  0.00    -0.009 OA 
BRANCH  16  17
HETATM   17  C   UNL     1      -9.610   9.680  69.737  1.00  0.00    -0.219 C  
HETATM   18  N   UNL     1     -11.259  11.537  69.835  1.00  0.00    -0.478 NA 
HETATM   19  C   UNL     1     -12.042   9.301  70.315  1.00  0.00     0.150 C  
HETATM   20  H1  UNL     1     -12.087  11.915  70.295  1.00  0.00     0.000 HD 
HETATM   21  H2  UNL     1     -11.393  11.457  68.827  1.00  0.00     0.000 HD 
HETATM   22  C   UNL     1     -11.721   7.933  70.920  1.00  0.00    -0.257 C  
HETATM   23  C   UNL     1     -10.863  10.252  70.433  1.00  0.00    -0.253 C  
HETATM   24  N   UNL     1     -12.973   7.161  70.854  1.00  0.00    -0.576 NA 
HETATM   25  C   UNL     1     -10.524   7.248  70.189  1.00  0.00    -0.218 C  
HETATM   26  H   UNL     1      -8.179   6.793  69.349  1.00  0.00     0.000 HD 
HETATM   27  H1  UNL     1     -12.759   6.249  71.258  1.00  0.00     0.000 HD 
HETATM   28  C   UNL     1      -9.296   8.205  70.111  1.00  0.00    -0.159 C  
HETATM   29  H2  UNL     1     -13.372   7.109  69.917  1.00  0.00     0.000 HD 
HETATM   30  O   UNL     1      -8.371   7.695  69.121  1.00  0.00    -0.128 OA 
BRANCH  25  31
HETATM   31  O   UNL     1     -10.060   6.037  70.865  1.00  0.00    -0.186 OA 
BRANCH  31  32
HETATM   32  C   UNL     1     -10.378   5.956  72.260  1.00  0.00    -0.198 C  
HETATM   33  O   UNL     1     -10.813   4.647  72.650  1.00  0.00    -0.202 OA 
HETATM   34  C   UNL     1      -9.764   3.666  72.587  1.00  0.00    -0.141 C  
HETATM   35  C   UNL     1      -8.617   4.042  73.538  1.00  0.00    -0.092 C  
HETATM   36  H   UNL     1      -8.020   8.041  73.240  1.00  0.00     0.000 HD 
HETATM   37  C   UNL     1      -8.051   5.425  73.160  1.00  0.00    -0.112 C  
HETATM   38  H1  UNL     1      -6.591   6.729  73.843  1.00  0.00     0.000 HD 
HETATM   39  O   UNL     1      -7.572   3.066  73.538  1.00  0.00    -0.053 OA 
HETATM   40  H   UNL     1      -6.863   3.299  74.126  1.00  0.00     0.000 HD 
HETATM   41  H2  UNL     1      -6.235   5.105  74.141  1.00  0.00     0.000 HD 
HETATM   42  C   UNL     1      -9.198   6.451  73.136  1.00  0.00    -0.128 C  
HETATM   43  N   UNL     1      -6.966   5.814  74.093  1.00  0.00    -0.081 NA 
HETATM   44  O   UNL     1      -8.743   7.739  72.703  1.00  0.00    -0.122 OA 
BRANCH  34  45
HETATM   45  C   UNL     1     -10.353   2.304  72.982  1.00  0.00    -0.142 C  
HETATM   46  O   UNL     1     -10.635   1.519  71.824  1.00  0.00    -0.056 OA 
HETATM   47  H   UNL     1     -10.999   0.676  72.069  1.00  0.00     0.000 HD 
ENDBRANCH  34  45
ENDBRANCH  31  32
ENDBRANCH  25  31
ENDBRANCH  16  17
ENDBRANCH   7  16
ENDBRANCH   2   5
TORSDOF 6
ENDMDL
MODEL      288
REMARK 921   NORMALIZED FREE ENERGY PREDICTED BY IDOCK:   -2.23 KCAL/MOL
REMARK 922        TOTAL FREE ENERGY PREDICTED BY IDOCK:   -4.07 KCAL/MOL
REMARK 923 INTER-LIGAND FREE ENERGY PREDICTED BY IDOCK:   -4.75 KCAL/MOL
REMARK 924 INTRA-LIGAND FREE ENERGY PREDICTED BY IDOCK:    0.67 KCAL/MOL
REMARK 927      BINDING AFFINITY PREDICTED BY RF-SCORE:    0.00 PKD
ROOT
HETATM    1  N   UNL     1      -6.810   9.325  71.719  1.00  0.00    -0.312 NA 
HETATM    2  C   UNL     1      -6.442   9.587  70.320  1.00  0.00    -0.071 C  
HETATM    3  H2  UNL     1      -6.195   8.627  72.138  1.00  0.00     0.000 HD 
HETATM    4  H1  UNL     1      -6.835  10.177  72.278  1.00  0.00     0.000 HD 
ENDROOT
BRANCH   2   5
HETATM    5  C   UNL     1      -6.404   8.292  69.471  1.00  0.00    -0.033 C  
HETATM    6  O   UNL     1      -7.713   7.877  69.050  1.00  0.00    -0.097 OA 
HETATM    7  C   UNL     1      -8.335   8.722  68.096  1.00  0.00    -0.122 C  
HETATM    8  C   UNL     1      -7.479   8.769  66.788  1.00  0.00    -0.086 C  
HETATM    9  C   UNL     1      -5.439   8.400  68.274  1.00  0.00    -0.034 C  
HETATM   10  N   UNL     1      -7.438   7.469  66.084  1.00  0.00    -0.081 NA 
HETATM   11  C   UNL     1      -6.045   9.217  67.127  1.00  0.00    -0.057 C  
HETATM   12  H   UNL     1      -4.542   7.139  67.085  1.00  0.00     0.000 HD 
HETATM   13  H1  UNL     1      -6.879   7.499  65.231  1.00  0.00     0.000 HD 
HETATM   14  H2  UNL     1      -8.379   7.127  65.893  1.00  0.00     0.000 HD 
HETATM   15  O   UNL     1      -5.137   7.073  67.823  1.00  0.00    -0.010 OA 
BRANCH   7  16
HETATM   16  O   UNL     1      -9.654   8.240  67.790  1.00  0.00    -0.143 OA 
BRANCH  16  17
HETATM   17  C   UNL     1     -10.554   8.030  68.918  1.00  0.00    -0.140 C  
HETATM   18  N   UNL     1     -11.702  10.222  68.682  1.00  0.00    -0.629 NA 
HETATM   19  C   UNL     1     -11.885   9.070  70.800  1.00  0.00    -0.251 C  
HETATM   20  H1  UNL     1     -11.981  11.089  69.140  1.00  0.00     0.000 HD 
HETATM   21  H2  UNL     1     -12.499   9.746  68.260  1.00  0.00     0.000 HD 
HETATM   22  C   UNL     1     -11.206   8.163  71.827  1.00  0.00    -0.272 C  
HETATM   23  C   UNL     1     -10.976   9.342  69.612  1.00  0.00    -0.175 C  
HETATM   24  N   UNL     1     -12.134   8.084  72.968  1.00  0.00    -0.642 NA 
HETATM   25  C   UNL     1     -10.846   6.771  71.217  1.00  0.00    -0.232 C  
HETATM   26  H   UNL     1      -9.744   5.006  69.775  1.00  0.00     0.000 HD 
HETATM   27  H1  UNL     1     -11.681   7.480  73.654  1.00  0.00     0.000 HD 
HETATM   28  C   UNL     1     -10.040   6.935  69.893  1.00  0.00    -0.188 C  
HETATM   29  H2  UNL     1     -13.073   7.779  72.711  1.00  0.00     0.000 HD 
HETATM   30  O   UNL     1     -10.058   5.676  69.179  1.00  0.00    -0.172 OA 
BRANCH  25  31
HETATM   31  O   UNL     1     -10.019   5.956  72.105  1.00  0.00    -0.169 OA 
BRANCH  31  32
HETATM   32  C   UNL     1      -9.364   4.844  71.481  1.00  0.00    -0.149 C  
HETATM   33  O   UNL     1      -7.999   5.127  71.146  1.00  0.00    -0.098 OA 
HETATM   34  C   UNL     1      -7.159   5.281  72.302  1.00  0.00    -0.085 C  
HETATM   35  C   UNL     1      -7.142   3.987  73.131  1.00  0.00    -0.063 C  
HETATM   36  H   UNL     1     -10.926   2.534  73.239  1.00  0.00     0.000 HD 
HETATM   37  C   UNL     1      -8.573   3.629  73.579  1.00  0.00    -0.083 C  
HETATM   38  H1  UNL     1      -9.520   2.126  74.648  1.00  0.00     0.000 HD 
HETATM   39  O   UNL     1      -6.280   4.084  74.268  1.00  0.00    -0.030 OA 
HETATM   40  H   UNL     1      -6.270   3.284  74.781  1.00  0.00     0.000 HD 
HETATM   41  H2  UNL     1      -7.927   2.398  75.139  1.00  0.00     0.000 HD 
HETATM   42  C   UNL     1      -9.487   3.561  72.344  1.00  0.00    -0.125 C  
HETATM   43  N   UNL     1      -8.573   2.363  74.351  1.00  0.00    -0.066 NA 
HETATM   44  O   UNL     1     -10.851   3.319  72.710  1.00  0.00    -0.090 OA 
BRANCH  34  45
HETATM   45  C   UNL     1      -5.740   5.621  71.826  1.00  0.00    -0.021 C  
HETATM   46  O   UNL     1      -5.693   5.716  70.402  1.00  0.00    -0.021 OA 
HETATM   47  H   UNL     1      -4.815   5.927  70.107  1.00  0.00     0.000 HD 
ENDBRANCH  34  45
ENDBRANCH  31  32
ENDBRANCH  25  31
ENDBRANCH  16  17
ENDBRANCH   7  16
ENDBRANCH   2   5
TORSDOF 6
ENDMDL
MODEL      289
REMARK 921   NORMALIZED FREE ENERGY PREDICTED BY IDOCK:   -2.18 KCAL/MOL
REMARK 922        TOTAL FREE ENERGY PREDICTED BY IDOCK:   -4.00 KCAL/MOL
REMARK 923 INTER-LIGAND FREE ENERGY PREDICTED BY IDOCK:   -4.03 KCAL/MOL
REMARK 924 INTRA-LIGAND FREE ENERGY PREDICTED BY IDOCK:    0.03 KCAL/MOL
REMARK 927      BINDING AFFINITY PREDICTED BY RF-SCORE:    0.00 PKD
ROOT
HETATM    1  N   UNL     1      -9.222  15.042  69.022  1.00  0.00    -0.211 NA 
HETATM    2  C   UNL     1      -8.753  14.051  68.043  1.00  0.00    -0.180 C  
HETATM    3  H2  UNL     1      -8.543  15.795  69.138  1.00  0.00     0.000 HD 
HETATM    4  H1  UNL     1     -10.143  15.410  68.788  1.00  0.00     0.000 HD 
ENDROOT
BRANCH   2   5
HETATM    5  C   UNL     1      -7.353  13.492  68.398  1.00  0.00    -0.115 C  
HETATM    6  O   UNL     1      -7.408  12.501  69.437  1.00  0.00     0.130 OA 
HETATM    7  C   UNL     1      -8.023  11.277  69.068  1.00  0.00    -0.061 C  
HETATM    8  C   UNL     1      -7.222  10.607  67.904  1.00  0.00    -0.087 C  
HETATM    9  C   UNL     1      -6.596  12.966  67.162  1.00  0.00     0.122 C  
HETATM   10  N   UNL     1      -5.869  10.174  68.316  1.00  0.00    -0.042 NA 
HETATM   11  C   UNL     1      -7.111  11.590  66.723  1.00  0.00    -0.112 C  
HETATM   12  H   UNL     1      -4.737  12.562  66.730  1.00  0.00     0.000 HD 
HETATM   13  H1  UNL     1      -5.346   9.738  67.556  1.00  0.00     0.000 HD 
HETATM   14  H2  UNL     1      -5.913   9.561  69.129  1.00  0.00     0.000 HD 
HETATM   15  O   UNL     1      -5.204  12.886  67.492  1.00  0.00    -0.209 OA 
BRANCH   7  16
HETATM   16  O   UNL     1      -8.068  10.385  70.196  1.00  0.00    -0.028 OA 
BRANCH  16  17
HETATM   17  C   UNL     1      -9.163   9.423  70.227  1.00  0.00    -0.245 C  
HETATM   18  N   UNL     1     -10.794  10.924  69.102  1.00  0.00    -0.220 NA 
HETATM   19  C   UNL     1     -11.660   9.045  70.354  1.00  0.00    -0.145 C  
HETATM   20  H1  UNL     1     -11.714  11.362  69.143  1.00  0.00     0.000 HD 
HETATM   21  H2  UNL     1     -10.667  10.396  68.239  1.00  0.00     0.000 HD 
HETATM   22  C   UNL     1     -11.494   8.128  71.566  1.00  0.00    -0.267 C  
HETATM   23  C   UNL     1     -10.555  10.086  70.289  1.00  0.00    -0.295 C  
HETATM   24  N   UNL     1     -12.684   7.260  71.579  1.00  0.00    -0.370 NA 
HETATM   25  C   UNL     1     -10.147   7.341  71.513  1.00  0.00    -0.186 C  
HETATM   26  H   UNL     1      -7.663   6.851  71.519  1.00  0.00     0.000 HD 
HETATM   27  H1  UNL     1     -12.574   6.649  72.388  1.00  0.00     0.000 HD 
HETATM   28  C   UNL     1      -8.945   8.308  71.288  1.00  0.00    -0.160 C  
HETATM   29  H2  UNL     1     -12.832   6.756  70.704  1.00  0.00     0.000 HD 
HETATM   30  O   UNL     1      -7.796   7.533  70.871  1.00  0.00    -0.092 OA 
BRANCH  25  31
HETATM   31  O   UNL     1      -9.863   6.613  72.749  1.00  0.00    -0.166 OA 
BRANCH  31  32
HETATM   32  C   UNL     1     -10.115   5.203  72.699  1.00  0.00    -0.177 C  
HETATM   33  O   UNL     1     -10.501   4.758  71.392  1.00  0.00    -0.159 OA 
HETATM   34  C   UNL     1      -9.434   4.844  70.433  1.00  0.00    -0.167 C  
HETATM   35  C   UNL     1      -8.254   3.957  70.861  1.00  0.00    -0.067 C  
HETATM   36  H   UNL     1      -7.765   4.388  74.862  1.00  0.00     0.000 HD 
HETATM   37  C   UNL     1      -7.738   4.396  72.245  1.00  0.00    -0.086 C  
HETATM   38  H1  UNL     1      -6.280   3.816  73.599  1.00  0.00     0.000 HD 
HETATM   39  O   UNL     1      -7.187   3.979  69.908  1.00  0.00    -0.042 OA 
HETATM   40  H   UNL     1      -6.458   3.431  70.173  1.00  0.00     0.000 HD 
HETATM   41  H2  UNL     1      -5.872   3.492  71.992  1.00  0.00     0.000 HD 
HETATM   42  C   UNL     1      -8.908   4.395  73.244  1.00  0.00    -0.106 C  
HETATM   43  N   UNL     1      -6.621   3.525  72.683  1.00  0.00    -0.027 NA 
HETATM   44  O   UNL     1      -8.504   4.882  74.529  1.00  0.00    -0.109 OA 
BRANCH  34  45
HETATM   45  C   UNL     1      -9.972   4.386  69.070  1.00  0.00    -0.030 C  
HETATM   46  O   UNL     1      -9.618   5.317  68.047  1.00  0.00    -0.121 OA 
HETATM   47  H   UNL     1      -9.951   5.034  67.204  1.00  0.00     0.000 HD 
ENDBRANCH  34  45
ENDBRANCH  31  32
ENDBRANCH  25  31
ENDBRANCH  16  17
ENDBRANCH   7  16
ENDBRANCH   2   5
TORSDOF 6
ENDMDL
MODEL      290
REMARK 921   NORMALIZED FREE ENERGY PREDICTED BY IDOCK:   -2.14 KCAL/MOL
REMARK 922        TOTAL FREE ENERGY PREDICTED BY IDOCK:   -3.95 KCAL/MOL
REMARK 923 INTER-LIGAND FREE ENERGY PREDICTED BY IDOCK:   -3.21 KCAL/MOL
REMARK 924 INTRA-LIGAND FREE ENERGY PREDICTED BY IDOCK:   -0.73 KCAL/MOL
REMARK 927      BINDING AFFINITY PREDICTED BY RF-SCORE:    0.00 PKD
ROOT
HETATM    1  N   UNL     1      -8.714   2.892  74.134  1.00  0.00    -0.075 NA 
HETATM    2  C   UNL     1      -8.867   3.866  73.044  1.00  0.00    -0.098 C  
HETATM    3  H2  UNL     1      -7.803   2.435  74.094  1.00  0.00     0.000 HD 
HETATM    4  H1  UNL     1      -8.878   3.308  75.050  1.00  0.00     0.000 HD 
ENDROOT
BRANCH   2   5
HETATM    5  C   UNL     1      -8.618   3.234  71.651  1.00  0.00    -0.076 C  
HETATM    6  O   UNL     1      -9.375   3.879  70.615  1.00  0.00    -0.124 OA 
HETATM    7  C   UNL     1      -8.968   5.203  70.308  1.00  0.00    -0.124 C  
HETATM    8  C   UNL     1      -7.490   5.200  69.796  1.00  0.00    -0.061 C  
HETATM    9  C   UNL     1      -7.120   3.169  71.293  1.00  0.00    -0.033 C  
HETATM   10  N   UNL     1      -7.336   4.509  68.498  1.00  0.00    -0.060 NA 
HETATM   11  C   UNL     1      -6.583   4.534  70.847  1.00  0.00    -0.031 C  
HETATM   12  H   UNL     1      -6.030   2.169  70.020  1.00  0.00     0.000 HD 
HETATM   13  H1  UNL     1      -6.372   4.508  68.164  1.00  0.00     0.000 HD 
HETATM   14  H2  UNL     1      -7.965   4.901  67.798  1.00  0.00     0.000 HD 
HETATM   15  O   UNL     1      -6.954   2.209  70.241  1.00  0.00    -0.033 OA 
BRANCH   7  16
HETATM   16  O   UNL     1      -9.826   5.764  69.299  1.00  0.00    -0.151 OA 
BRANCH  16  17
HETATM   17  C   UNL     1      -9.709   7.198  69.063  1.00  0.00    -0.150 C  
HETATM   18  N   UNL     1     -10.725   7.853  71.234  1.00  0.00    -0.226 NA 
HETATM   19  C   UNL     1     -10.658   9.506  69.471  1.00  0.00    -0.238 C  
HETATM   20  H1  UNL     1     -11.446   8.399  71.705  1.00  0.00     0.000 HD 
HETATM   21  H2  UNL     1      -9.795   8.074  71.590  1.00  0.00     0.000 HD 
HETATM   22  C   UNL     1     -10.731   9.779  67.968  1.00  0.00    -0.247 C  
HETATM   23  C   UNL     1     -10.801   8.023  69.775  1.00  0.00    -0.194 C  
HETATM   24  N   UNL     1     -10.707  11.245  67.825  1.00  0.00    -0.206 NA 
HETATM   25  C   UNL     1      -9.584   9.056  67.195  1.00  0.00    -0.167 C  
HETATM   26  H   UNL     1      -8.157   7.210  66.212  1.00  0.00     0.000 HD 
HETATM   27  H1  UNL     1     -10.756  11.427  66.823  1.00  0.00     0.000 HD 
HETATM   28  C   UNL     1      -9.537   7.540  67.557  1.00  0.00    -0.142 C  
HETATM   29  H2  UNL     1      -9.908  11.687  68.282  1.00  0.00     0.000 HD 
HETATM   30  O   UNL     1      -8.263   7.000  67.133  1.00  0.00    -0.115 OA 
BRANCH  25  31
HETATM   31  O   UNL     1      -9.741   9.128  65.743  1.00  0.00    -0.274 OA 
BRANCH  31  32
HETATM   32  C   UNL     1      -8.977  10.154  65.096  1.00  0.00    -0.192 C  
HETATM   33  O   UNL     1      -7.888  10.621  65.902  1.00  0.00    -0.151 OA 
HETATM   34  C   UNL     1      -6.859   9.633  66.080  1.00  0.00    -0.091 C  
HETATM   35  C   UNL     1      -6.254   9.236  64.724  1.00  0.00    -0.071 C  
HETATM   36  H   UNL     1      -9.292   8.909  62.059  1.00  0.00     0.000 HD 
HETATM   37  C   UNL     1      -7.353   8.673  63.801  1.00  0.00    -0.101 C  
HETATM   38  H1  UNL     1      -7.514   7.946  61.866  1.00  0.00     0.000 HD 
HETATM   39  O   UNL     1      -5.193   8.287  64.862  1.00  0.00    -0.035 OA 
HETATM   40  H   UNL     1      -4.820   8.041  64.024  1.00  0.00     0.000 HD 
HETATM   41  H2  UNL     1      -5.998   7.679  62.561  1.00  0.00     0.000 HD 
HETATM   42  C   UNL     1      -8.495   9.698  63.694  1.00  0.00    -0.188 C  
HETATM   43  N   UNL     1      -6.787   8.319  62.477  1.00  0.00    -0.090 NA 
HETATM   44  O   UNL     1      -9.587   9.189  62.918  1.00  0.00     0.628 OA 
BRANCH  34  45
HETATM   45  C   UNL     1      -5.773  10.227  66.989  1.00  0.00    -0.046 C  
HETATM   46  O   UNL     1      -6.323  11.219  67.854  1.00  0.00    -0.053 OA 
HETATM   47  H   UNL     1      -5.652  11.586  68.417  1.00  0.00     0.000 HD 
ENDBRANCH  34  45
ENDBRANCH  31  32
ENDBRANCH  25  31
ENDBRANCH  16  17
ENDBRANCH   7  16
ENDBRANCH   2   5
TORSDOF 6
ENDMDL
MODEL      291
REMARK 921   NORMALIZED FREE ENERGY PREDICTED BY IDOCK:   -2.13 KCAL/MOL
REMARK 922        TOTAL FREE ENERGY PREDICTED BY IDOCK:   -3.93 KCAL/MOL
REMARK 923 INTER-LIGAND FREE ENERGY PREDICTED BY IDOCK:   -3.82 KCAL/MOL
REMARK 924 INTRA-LIGAND FREE ENERGY PREDICTED BY IDOCK:   -0.11 KCAL/MOL
REMARK 927      BINDING AFFINITY PREDICTED BY RF-SCORE:    0.00 PKD
ROOT
HETATM    1  N   UNL     1      -5.407   6.353  70.052  1.00  0.00    -0.013 NA 
HETATM    2  C   UNL     1      -5.251   7.809  70.185  1.00  0.00    -0.023 C  
HETATM    3  H2  UNL     1      -5.081   6.029  69.142  1.00  0.00     0.000 HD 
HETATM    4  H1  UNL     1      -4.951   5.846  70.809  1.00  0.00     0.000 HD 
ENDROOT
BRANCH   2   5
HETATM    5  C   UNL     1      -5.944   8.581  69.034  1.00  0.00    -0.043 C  
HETATM    6  O   UNL     1      -7.352   8.752  69.261  1.00  0.00    -0.068 OA 
HETATM    7  C   UNL     1      -7.688   9.633  70.322  1.00  0.00    -0.172 C  
HETATM    8  C   UNL     1      -7.144  11.066  70.015  1.00  0.00     0.134 C  
HETATM    9  C   UNL     1      -5.258   9.927  68.729  1.00  0.00    -0.036 C  
HETATM   10  N   UNL     1      -7.811  11.695  68.854  1.00  0.00    -0.295 NA 
HETATM   11  C   UNL     1      -5.626  10.999  69.763  1.00  0.00    -0.052 C  
HETATM   12  H   UNL     1      -5.242  11.179  67.233  1.00  0.00     0.000 HD 
HETATM   13  H1  UNL     1      -7.456  12.630  68.654  1.00  0.00     0.000 HD 
HETATM   14  H2  UNL     1      -8.823  11.706  68.976  1.00  0.00     0.000 HD 
HETATM   15  O   UNL     1      -5.664  10.349  67.421  1.00  0.00    -0.044 OA 
BRANCH   7  16
HETATM   16  O   UNL     1      -9.115   9.685  70.491  1.00  0.00    -0.242 OA 
BRANCH  16  17
HETATM   17  C   UNL     1      -9.904   8.748  69.701  1.00  0.00    -0.183 C  
HETATM   18  N   UNL     1     -10.539   7.324  71.637  1.00  0.00    -0.206 NA 
HETATM   19  C   UNL     1     -10.738   6.377  69.421  1.00  0.00    -0.347 C  
HETATM   20  H1  UNL     1     -10.558   6.383  72.030  1.00  0.00     0.000 HD 
HETATM   21  H2  UNL     1     -11.467   7.748  71.630  1.00  0.00     0.000 HD 
HETATM   22  C   UNL     1     -10.173   6.309  68.002  1.00  0.00    -0.172 C  
HETATM   23  C   UNL     1      -9.932   7.324  70.296  1.00  0.00    -0.187 C  
HETATM   24  N   UNL     1     -10.958   5.275  67.306  1.00  0.00    -0.154 NA 
HETATM   25  C   UNL     1     -10.213   7.703  67.299  1.00  0.00    -0.272 C  
HETATM   26  H   UNL     1      -9.716  10.128  66.770  1.00  0.00     0.000 HD 
HETATM   27  H1  UNL     1     -10.581   5.229  66.360  1.00  0.00     0.000 HD 
HETATM   28  C   UNL     1      -9.546   8.796  68.189  1.00  0.00    -0.146 C  
HETATM   29  H2  UNL     1     -11.965   5.437  67.337  1.00  0.00     0.000 HD 
HETATM   30  O   UNL     1      -9.934  10.099  67.694  1.00  0.00    -0.169 OA 
BRANCH  25  31
HETATM   31  O   UNL     1      -9.499   7.719  66.023  1.00  0.00    -0.114 OA 
BRANCH  31  32
HETATM   32  C   UNL     1      -8.246   8.415  66.033  1.00  0.00    -0.112 C  
HETATM   33  O   UNL     1      -7.122   7.525  66.034  1.00  0.00    -0.066 OA 
HETATM   34  C   UNL     1      -6.982   6.798  64.802  1.00  0.00    -0.055 C  
HETATM   35  C   UNL     1      -6.767   7.766  63.628  1.00  0.00    -0.062 C  
HETATM   36  H   UNL     1      -9.264  10.918  64.144  1.00  0.00     0.000 HD 
HETATM   37  C   UNL     1      -7.959   8.737  63.519  1.00  0.00    -0.158 C  
HETATM   38  H1  UNL     1      -8.535  10.341  62.338  1.00  0.00     0.000 HD 
HETATM   39  O   UNL     1      -6.577   7.079  62.388  1.00  0.00    -0.050 OA 
HETATM   40  H   UNL     1      -6.445   7.677  61.662  1.00  0.00     0.000 HD 
HETATM   41  H2  UNL     1      -7.562   9.224  61.527  1.00  0.00     0.000 HD 
HETATM   42  C   UNL     1      -8.162   9.440  64.872  1.00  0.00    -0.142 C  
HETATM   43  N   UNL     1      -7.746   9.698  62.410  1.00  0.00    -0.113 NA 
HETATM   44  O   UNL     1      -9.315  10.291  64.856  1.00  0.00    -0.207 OA 
BRANCH  34  45
HETATM   45  C   UNL     1      -5.780   5.852  64.934  1.00  0.00    -0.024 C  
HETATM   46  O   UNL     1      -6.145   4.517  64.584  1.00  0.00    -0.024 OA 
HETATM   47  H   UNL     1      -5.401   3.932  64.665  1.00  0.00     0.000 HD 
ENDBRANCH  34  45
ENDBRANCH  31  32
ENDBRANCH  25  31
ENDBRANCH  16  17
ENDBRANCH   7  16
ENDBRANCH   2   5
TORSDOF 6
ENDMDL
MODEL      292
REMARK 921   NORMALIZED FREE ENERGY PREDICTED BY IDOCK:   -2.12 KCAL/MOL
REMARK 922        TOTAL FREE ENERGY PREDICTED BY IDOCK:   -3.91 KCAL/MOL
REMARK 923 INTER-LIGAND FREE ENERGY PREDICTED BY IDOCK:   -5.22 KCAL/MOL
REMARK 924 INTRA-LIGAND FREE ENERGY PREDICTED BY IDOCK:    1.31 KCAL/MOL
REMARK 927      BINDING AFFINITY PREDICTED BY RF-SCORE:    0.00 PKD
ROOT
HETATM    1  N   UNL     1      -5.412  18.946  68.644  1.00  0.00    -0.196 NA 
HETATM    2  C   UNL     1      -6.824  19.351  68.587  1.00  0.00    -0.305 C  
HETATM    3  H2  UNL     1      -4.855  19.457  67.960  1.00  0.00     0.000 HD 
HETATM    4  H1  UNL     1      -5.021  19.038  69.581  1.00  0.00     0.000 HD 
ENDROOT
BRANCH   2   5
HETATM    5  C   UNL     1      -7.419  19.210  67.163  1.00  0.00    -0.220 C  
HETATM    6  O   UNL     1      -8.508  18.275  67.116  1.00  0.00    -0.242 OA 
HETATM    7  C   UNL     1      -9.688  18.692  67.783  1.00  0.00    -0.314 C  
HETATM    8  C   UNL     1     -10.239  19.999  67.124  1.00  0.00    -0.441 C  
HETATM    9  C   UNL     1      -7.819  20.569  66.555  1.00  0.00    -0.094 C  
HETATM   10  N   UNL     1     -10.713  19.784  65.740  1.00  0.00    -0.468 NA 
HETATM   11  C   UNL     1      -9.144  21.081  67.132  1.00  0.00    -0.073 C  
HETATM   12  H   UNL     1      -8.181  21.243  64.760  1.00  0.00     0.000 HD 
HETATM   13  H1  UNL     1     -11.073  20.637  65.309  1.00  0.00     0.000 HD 
HETATM   14  H2  UNL     1     -11.405  19.036  65.701  1.00  0.00     0.000 HD 
HETATM   15  O   UNL     1      -7.934  20.405  65.135  1.00  0.00     0.100 OA 
BRANCH   7  16
HETATM   16  O   UNL     1     -10.687  17.660  67.715  1.00  0.00    -0.388 OA 
BRANCH  16  17
HETATM   17  C   UNL     1     -10.324  16.358  68.261  1.00  0.00    -0.279 C  
HETATM   18  N   UNL     1      -8.505  17.237  69.708  1.00  0.00     0.966 NA 
HETATM   19  C   UNL     1      -8.499  14.875  69.190  1.00  0.00    -0.152 C  
HETATM   20  H1  UNL     1      -7.522  17.171  69.973  1.00  0.00     0.000 HD 
HETATM   21  H2  UNL     1      -9.118  17.143  70.518  1.00  0.00     0.000 HD 
HETATM   22  C   UNL     1      -8.808  13.790  68.159  1.00  0.00    -0.185 C  
HETATM   23  C   UNL     1      -8.837  16.259  68.660  1.00  0.00    -0.226 C  
HETATM   24  N   UNL     1      -8.322  12.529  68.745  1.00  0.00    -0.350 NA 
HETATM   25  C   UNL     1     -10.324  13.763  67.787  1.00  0.00    -0.241 C  
HETATM   26  H   UNL     1     -12.573  14.477  66.869  1.00  0.00     0.000 HD 
HETATM   27  H1  UNL     1      -8.528  11.805  68.056  1.00  0.00     0.000 HD 
HETATM   28  C   UNL     1     -10.822  15.182  67.375  1.00  0.00    -0.302 C  
HETATM   29  H2  UNL     1      -8.706  12.334  69.670  1.00  0.00     0.000 HD 
HETATM   30  O   UNL     1     -12.268  15.196  67.410  1.00  0.00     0.040 OA 
BRANCH  25  31
HETATM   31  O   UNL     1     -10.620  12.880  66.661  1.00  0.00    -0.258 OA 
BRANCH  31  32
HETATM   32  C   UNL     1     -10.325  13.420  65.366  1.00  0.00    -0.312 C  
HETATM   33  O   UNL     1      -9.179  12.806  64.762  1.00  0.00     0.504 OA 
HETATM   34  C   UNL     1      -9.402  11.432  64.403  1.00  0.00    -0.068 C  
HETATM   35  C   UNL     1     -10.542  11.323  63.378  1.00  0.00    -0.324 C  
HETATM   36  H   UNL     1     -13.471  13.892  64.500  1.00  0.00     0.000 HD 
HETATM   37  C   UNL     1     -11.837  11.918  63.963  1.00  0.00    -0.364 C  
HETATM   38  H1  UNL     1     -13.793  12.243  63.357  1.00  0.00     0.000 HD 
HETATM   39  O   UNL     1     -10.765   9.974  62.959  1.00  0.00     0.517 OA 
HETATM   40  H   UNL     1     -11.470   9.906  62.326  1.00  0.00     0.000 HD 
HETATM   41  H2  UNL     1     -13.076  10.900  62.625  1.00  0.00     0.000 HD 
HETATM   42  C   UNL     1     -11.564  13.357  64.434  1.00  0.00    -0.384 C  
HETATM   43  N   UNL     1     -12.935  11.850  62.969  1.00  0.00    -0.389 NA 
HETATM   44  O   UNL     1     -12.712  13.931  65.070  1.00  0.00    -0.635 OA 
BRANCH  34  45
HETATM   45  C   UNL     1      -8.102  10.871  63.810  1.00  0.00     0.272 C  
HETATM   46  O   UNL     1      -8.006  11.178  62.419  1.00  0.00    -0.412 OA 
HETATM   47  H   UNL     1      -7.202  10.831  62.051  1.00  0.00     0.000 HD 
ENDBRANCH  34  45
ENDBRANCH  31  32
ENDBRANCH  25  31
ENDBRANCH  16  17
ENDBRANCH   7  16
ENDBRANCH   2   5
TORSDOF 6
ENDMDL
MODEL      293
REMARK 921   NORMALIZED FREE ENERGY PREDICTED BY IDOCK:   -2.08 KCAL/MOL
REMARK 922        TOTAL FREE ENERGY PREDICTED BY IDOCK:   -3.87 KCAL/MOL
REMARK 923 INTER-LIGAND FREE ENERGY PREDICTED BY IDOCK:   -5.51 KCAL/MOL
REMARK 924 INTRA-LIGAND FREE ENERGY PREDICTED BY IDOCK:    1.64 KCAL/MOL
REMARK 927      BINDING AFFINITY PREDICTED BY RF-SCORE:    0.00 PKD
ROOT
HETATM    1  N   UNL     1      -9.860  16.315  68.505  1.00  0.00    -0.217 NA 
HETATM    2  C   UNL     1      -9.030  15.109  68.633  1.00  0.00    -0.191 C  
HETATM    3  H2  UNL     1     -10.852  16.081  68.497  1.00  0.00     0.000 HD 
HETATM    4  H1  UNL     1      -9.650  17.006  69.224  1.00  0.00     0.000 HD 
ENDROOT
BRANCH   2   5
HETATM    5  C   UNL     1      -9.348  14.059  67.539  1.00  0.00    -0.209 C  
HETATM    6  O   UNL     1     -10.369  13.135  67.949  1.00  0.00    -0.221 OA 
HETATM    7  C   UNL     1     -11.668  13.692  68.075  1.00  0.00    -0.352 C  
HETATM    8  C   UNL     1     -12.146  14.246  66.693  1.00  0.00    -0.420 C  
HETATM    9  C   UNL     1      -9.690  14.706  66.182  1.00  0.00    -0.319 C  
HETATM   10  N   UNL     1     -12.351  13.179  65.689  1.00  0.00    -0.462 NA 
HETATM   11  C   UNL     1     -11.118  15.262  66.162  1.00  0.00    -0.280 C  
HETATM   12  H   UNL     1      -9.748  14.108  64.326  1.00  0.00     0.000 HD 
HETATM   13  H1  UNL     1     -12.663  13.540  64.787  1.00  0.00     0.000 HD 
HETATM   14  H2  UNL     1     -12.991  12.466  66.039  1.00  0.00     0.000 HD 
HETATM   15  O   UNL     1      -9.538  13.710  65.162  1.00  0.00    -0.016 OA 
BRANCH   7  16
HETATM   16  O   UNL     1     -12.593  12.694  68.539  1.00  0.00     0.307 OA 
BRANCH  16  17
HETATM   17  C   UNL     1     -12.028  11.409  68.932  1.00  0.00    -0.304 C  
HETATM   18  N   UNL     1     -12.742  11.583  71.307  1.00  0.00    -0.398 NA 
HETATM   19  C   UNL     1     -10.982  10.016  70.765  1.00  0.00    -0.375 C  
HETATM   20  H1  UNL     1     -12.456  11.551  72.285  1.00  0.00     0.000 HD 
HETATM   21  H2  UNL     1     -13.499  10.926  71.116  1.00  0.00     0.000 HD 
HETATM   22  C   UNL     1      -9.772   9.703  69.885  1.00  0.00    -0.231 C  
HETATM   23  C   UNL     1     -11.595  11.361  70.412  1.00  0.00    -0.172 C  
HETATM   24  N   UNL     1      -9.207   8.448  70.409  1.00  0.00    -0.150 NA 
HETATM   25  C   UNL     1     -10.163   9.630  68.375  1.00  0.00    -0.188 C  
HETATM   26  H   UNL     1     -10.942  10.331  66.070  1.00  0.00     0.000 HD 
HETATM   27  H1  UNL     1      -8.399   8.240  69.822  1.00  0.00     0.000 HD 
HETATM   28  C   UNL     1     -10.945  10.906  67.938  1.00  0.00    -0.271 C  
HETATM   29  H2  UNL     1      -9.883   7.685  70.460  1.00  0.00     0.000 HD 
HETATM   30  O   UNL     1     -11.604  10.639  66.678  1.00  0.00    -0.016 OA 
BRANCH  25  31
HETATM   31  O   UNL     1      -9.003   9.535  67.489  1.00  0.00    -0.125 OA 
BRANCH  31  32
HETATM   32  C   UNL     1      -7.734   9.452  68.151  1.00  0.00    -0.083 C  
HETATM   33  O   UNL     1      -7.028   8.245  67.838  1.00  0.00    -0.074 OA 
HETATM   34  C   UNL     1      -6.588   8.190  66.470  1.00  0.00    -0.055 C  
HETATM   35  C   UNL     1      -5.622   9.347  66.169  1.00  0.00    -0.048 C  
HETATM   36  H   UNL     1      -7.075  12.677  67.968  1.00  0.00     0.000 HD 
HETATM   37  C   UNL     1      -6.317  10.697  66.433  1.00  0.00    -0.109 C  
HETATM   38  H1  UNL     1      -5.842  12.714  66.354  1.00  0.00     0.000 HD 
HETATM   39  O   UNL     1      -5.126   9.302  64.829  1.00  0.00    -0.043 OA 
HETATM   40  H   UNL     1      -4.529  10.018  64.643  1.00  0.00     0.000 HD 
HETATM   41  H2  UNL     1      -4.982  11.776  65.242  1.00  0.00     0.000 HD 
HETATM   42  C   UNL     1      -6.869  10.709  67.869  1.00  0.00    -0.073 C  
HETATM   43  N   UNL     1      -5.382  11.820  66.179  1.00  0.00    -0.244 NA 
HETATM   44  O   UNL     1      -7.605  11.908  68.141  1.00  0.00    -0.105 OA 
BRANCH  34  45
HETATM   45  C   UNL     1      -5.888   6.843  66.241  1.00  0.00    -0.030 C  
HETATM   46  O   UNL     1      -6.549   6.096  65.221  1.00  0.00    -0.041 OA 
HETATM   47  H   UNL     1      -6.115   5.262  65.079  1.00  0.00     0.000 HD 
ENDBRANCH  34  45
ENDBRANCH  31  32
ENDBRANCH  25  31
ENDBRANCH  16  17
ENDBRANCH   7  16
ENDBRANCH   2   5
TORSDOF 6
ENDMDL
MODEL      294
REMARK 921   NORMALIZED FREE ENERGY PREDICTED BY IDOCK:   -2.08 KCAL/MOL
REMARK 922        TOTAL FREE ENERGY PREDICTED BY IDOCK:   -3.87 KCAL/MOL
REMARK 923 INTER-LIGAND FREE ENERGY PREDICTED BY IDOCK:   -4.18 KCAL/MOL
REMARK 924 INTRA-LIGAND FREE ENERGY PREDICTED BY IDOCK:    0.32 KCAL/MOL
REMARK 927      BINDING AFFINITY PREDICTED BY RF-SCORE:    0.00 PKD
ROOT
HETATM    1  N   UNL     1      -8.978  10.077  69.917  1.00  0.00    -0.346 NA 
HETATM    2  C   UNL     1      -9.157   8.618  69.945  1.00  0.00    -0.151 C  
HETATM    3  H2  UNL     1      -9.403  10.517  70.733  1.00  0.00     0.000 HD 
HETATM    4  H1  UNL     1      -7.998  10.344  69.824  1.00  0.00     0.000 HD 
ENDROOT
BRANCH   2   5
HETATM    5  C   UNL     1     -10.646   8.213  70.086  1.00  0.00    -0.237 C  
HETATM    6  O   UNL     1     -10.829   6.789  70.069  1.00  0.00    -0.234 OA 
HETATM    7  C   UNL     1     -10.328   6.104  71.206  1.00  0.00    -0.217 C  
HETATM    8  C   UNL     1     -11.067   6.597  72.493  1.00  0.00    -0.261 C  
HETATM    9  C   UNL     1     -11.316   8.849  71.321  1.00  0.00    -0.300 C  
HETATM   10  N   UNL     1     -12.500   6.231  72.505  1.00  0.00    -0.532 NA 
HETATM   11  C   UNL     1     -10.924   8.126  72.615  1.00  0.00    -0.440 C  
HETATM   12  H   UNL     1     -13.149   9.182  71.899  1.00  0.00     0.000 HD 
HETATM   13  H1  UNL     1     -12.982   6.553  73.345  1.00  0.00     0.000 HD 
HETATM   14  H2  UNL     1     -12.622   5.227  72.376  1.00  0.00     0.000 HD 
HETATM   15  O   UNL     1     -12.736   8.791  71.138  1.00  0.00    -0.255 OA 
BRANCH   7  16
HETATM   16  O   UNL     1     -10.517   4.687  71.056  1.00  0.00    -0.127 OA 
BRANCH  16  17
HETATM   17  C   UNL     1      -9.318   3.881  70.862  1.00  0.00    -0.152 C  
HETATM   18  N   UNL     1      -8.523   4.121  73.205  1.00  0.00    -0.090 NA 
HETATM   19  C   UNL     1      -6.918   3.445  71.529  1.00  0.00    -0.031 C  
HETATM   20  H1  UNL     1      -7.754   4.391  73.819  1.00  0.00     0.000 HD 
HETATM   21  H2  UNL     1      -8.845   3.173  73.400  1.00  0.00     0.000 HD 
HETATM   22  C   UNL     1      -6.457   3.564  70.076  1.00  0.00    -0.032 C  
HETATM   23  C   UNL     1      -8.154   4.289  71.790  1.00  0.00    -0.092 C  
HETATM   24  N   UNL     1      -5.195   2.808  69.992  1.00  0.00    -0.007 NA 
HETATM   25  C   UNL     1      -7.552   3.064  69.082  1.00  0.00    -0.047 C  
HETATM   26  H   UNL     1      -9.723   2.933  67.785  1.00  0.00     0.000 HD 
HETATM   27  H1  UNL     1      -4.887   2.887  69.022  1.00  0.00     0.000 HD 
HETATM   28  C   UNL     1      -8.920   3.757  69.365  1.00  0.00    -0.115 C  
HETATM   29  H2  UNL     1      -5.274   1.844  70.317  1.00  0.00     0.000 HD 
HETATM   30  O   UNL     1      -9.966   3.010  68.700  1.00  0.00     0.195 OA 
BRANCH  25  31
HETATM   31  O   UNL     1      -7.228   3.350  67.685  1.00  0.00    -0.057 OA 
BRANCH  31  32
HETATM   32  C   UNL     1      -6.356   4.468  67.476  1.00  0.00    -0.041 C  
HETATM   33  O   UNL     1      -5.510   4.300  66.331  1.00  0.00    -0.012 OA 
HETATM   34  C   UNL     1      -6.234   4.327  65.090  1.00  0.00    -0.027 C  
HETATM   35  C   UNL     1      -6.942   5.679  64.910  1.00  0.00    -0.056 C  
HETATM   36  H   UNL     1      -8.514   6.743  68.492  1.00  0.00     0.000 HD 
HETATM   37  C   UNL     1      -7.916   5.925  66.079  1.00  0.00    -0.108 C  
HETATM   38  H1  UNL     1      -9.224   7.406  66.708  1.00  0.00     0.000 HD 
HETATM   39  O   UNL     1      -7.639   5.764  63.663  1.00  0.00    -0.070 OA 
HETATM   40  H   UNL     1      -8.077   6.599  63.552  1.00  0.00     0.000 HD 
HETATM   41  H2  UNL     1      -9.041   7.338  65.030  1.00  0.00     0.000 HD 
HETATM   42  C   UNL     1      -7.151   5.798  67.408  1.00  0.00    -0.074 C  
HETATM   43  N   UNL     1      -8.579   7.243  65.934  1.00  0.00    -0.150 NA 
HETATM   44  O   UNL     1      -8.027   5.929  68.534  1.00  0.00    -0.100 OA 
BRANCH  34  45
HETATM   45  C   UNL     1      -5.239   4.095  63.944  1.00  0.00    -0.008 C  
HETATM   46  O   UNL     1      -5.880   3.468  62.834  1.00  0.00    -0.012 OA 
HETATM   47  H   UNL     1      -5.264   3.325  62.125  1.00  0.00     0.000 HD 
ENDBRANCH  34  45
ENDBRANCH  31  32
ENDBRANCH  25  31
ENDBRANCH  16  17
ENDBRANCH   7  16
ENDBRANCH   2   5
TORSDOF 6
ENDMDL
MODEL      295
REMARK 921   NORMALIZED FREE ENERGY PREDICTED BY IDOCK:   -1.60 KCAL/MOL
REMARK 922        TOTAL FREE ENERGY PREDICTED BY IDOCK:   -3.22 KCAL/MOL
REMARK 923 INTER-LIGAND FREE ENERGY PREDICTED BY IDOCK:   -3.59 KCAL/MOL
REMARK 924 INTRA-LIGAND FREE ENERGY PREDICTED BY IDOCK:    0.37 KCAL/MOL
REMARK 927      BINDING AFFINITY PREDICTED BY RF-SCORE:    0.00 PKD
ROOT
HETATM    1  N   UNL     1     -14.069   9.588  70.582  1.00  0.00    -0.268 NA 
HETATM    2  C   UNL     1     -13.942  10.176  71.923  1.00  0.00     0.164 C  
HETATM    3  H2  UNL     1     -13.209   9.117  70.303  1.00  0.00     0.000 HD 
HETATM    4  H1  UNL     1     -14.872   8.963  70.509  1.00  0.00     0.000 HD 
ENDROOT
BRANCH   2   5
HETATM    5  C   UNL     1     -12.722  11.125  72.034  1.00  0.00    -0.039 C  
HETATM    6  O   UNL     1     -11.730  10.858  71.031  1.00  0.00    -0.273 OA 
HETATM    7  C   UNL     1     -12.113  11.182  69.704  1.00  0.00    -0.336 C  
HETATM    8  C   UNL     1     -12.408  12.713  69.593  1.00  0.00     0.015 C  
HETATM    9  C   UNL     1     -13.130  12.612  72.037  1.00  0.00    -0.366 C  
HETATM   10  N   UNL     1     -11.199  13.544  69.788  1.00  0.00    -0.473 NA 
HETATM   11  C   UNL     1     -13.477  13.108  70.628  1.00  0.00     0.660 C  
HETATM   12  H   UNL     1     -12.291  14.290  72.571  1.00  0.00     0.000 HD 
HETATM   13  H1  UNL     1     -11.391  14.543  69.715  1.00  0.00     0.000 HD 
HETATM   14  H2  UNL     1     -10.457  13.266  69.145  1.00  0.00     0.000 HD 
HETATM   15  O   UNL     1     -12.039  13.373  72.570  1.00  0.00     0.707 OA 
BRANCH   7  16
HETATM   16  O   UNL     1     -11.067  10.825  68.784  1.00  0.00    -0.221 OA 
BRANCH  16  17
HETATM   17  C   UNL     1      -9.866  10.230  69.356  1.00  0.00    -0.227 C  
HETATM   18  N   UNL     1      -8.441  12.232  68.983  1.00  0.00    -0.314 NA 
HETATM   19  C   UNL     1      -7.340  10.110  69.348  1.00  0.00    -0.106 C  
HETATM   20  H1  UNL     1      -7.579  12.598  68.579  1.00  0.00     0.000 HD 
HETATM   21  H2  UNL     1      -8.517  12.457  69.974  1.00  0.00     0.000 HD 
HETATM   22  C   UNL     1      -7.377   8.596  69.143  1.00  0.00    -0.076 C  
HETATM   23  C   UNL     1      -8.561  10.784  68.745  1.00  0.00    -0.156 C  
HETATM   24  N   UNL     1      -6.093   8.088  69.655  1.00  0.00    -0.029 NA 
HETATM   25  C   UNL     1      -8.622   7.952  69.831  1.00  0.00    -0.139 C  
HETATM   26  H   UNL     1     -11.030   7.369  70.352  1.00  0.00     0.000 HD 
HETATM   27  H1  UNL     1      -6.118   7.078  69.518  1.00  0.00     0.000 HD 
HETATM   28  C   UNL     1      -9.934   8.678  69.401  1.00  0.00    -0.197 C  
HETATM   29  H2  UNL     1      -5.899   8.365  70.619  1.00  0.00     0.000 HD 
HETATM   30  O   UNL     1     -10.988   8.317  70.324  1.00  0.00    -0.241 OA 
BRANCH  25  31
HETATM   31  O   UNL     1      -8.800   6.542  69.486  1.00  0.00    -0.136 OA 
BRANCH  31  32
HETATM   32  C   UNL     1      -7.987   5.624  70.228  1.00  0.00    -0.103 C  
HETATM   33  O   UNL     1      -7.316   6.249  71.330  1.00  0.00    -0.077 OA 
HETATM   34  C   UNL     1      -8.216   6.666  72.371  1.00  0.00    -0.103 C  
HETATM   35  C   UNL     1      -8.965   5.456  72.950  1.00  0.00    -0.120 C  
HETATM   36  H   UNL     1     -10.010   3.047  69.860  1.00  0.00     0.000 HD 
HETATM   37  C   UNL     1      -9.760   4.745  71.837  1.00  0.00    -0.163 C  
HETATM   38  H1  UNL     1     -10.986   3.084  71.642  1.00  0.00     0.000 HD 
HETATM   39  O   UNL     1      -9.839   5.823  74.021  1.00  0.00    -0.163 OA 
HETATM   40  H   UNL     1     -10.302   5.075  74.379  1.00  0.00     0.000 HD 
HETATM   41  H2  UNL     1     -11.051   3.791  73.174  1.00  0.00     0.000 HD 
HETATM   42  C   UNL     1      -8.806   4.388  70.684  1.00  0.00    -0.095 C  
HETATM   43  N   UNL     1     -10.459   3.554  72.378  1.00  0.00    -0.091 NA 
HETATM   44  O   UNL     1      -9.508   3.804  69.581  1.00  0.00    -0.166 OA 
BRANCH  34  45
HETATM   45  C   UNL     1      -7.396   7.356  73.470  1.00  0.00    -0.088 C  
HETATM   46  O   UNL     1      -7.435   8.774  73.316  1.00  0.00    -0.367 OA 
HETATM   47  H   UNL     1      -6.927   9.201  73.996  1.00  0.00     0.000 HD 
ENDBRANCH  34  45
ENDBRANCH  31  32
ENDBRANCH  25  31
ENDBRANCH  16  17
ENDBRANCH   7  16
ENDBRANCH   2   5
TORSDOF 6
ENDMDL
MODEL      296
REMARK 921   NORMALIZED FREE ENERGY PREDICTED BY IDOCK:   -1.44 KCAL/MOL
REMARK 922        TOTAL FREE ENERGY PREDICTED BY IDOCK:   -3.00 KCAL/MOL
REMARK 923 INTER-LIGAND FREE ENERGY PREDICTED BY IDOCK:   -3.39 KCAL/MOL
REMARK 924 INTRA-LIGAND FREE ENERGY PREDICTED BY IDOCK:    0.38 KCAL/MOL
REMARK 927      BINDING AFFINITY PREDICTED BY RF-SCORE:    0.00 PKD
ROOT
HETATM    1  N   UNL     1      -8.332   5.309  74.328  1.00  0.00    -0.108 NA 
HETATM    2  C   UNL     1      -8.453   3.946  73.791  1.00  0.00    -0.091 C  
HETATM    3  H2  UNL     1      -8.906   5.966  73.800  1.00  0.00     0.000 HD 
HETATM    4  H1  UNL     1      -8.545   5.352  75.324  1.00  0.00     0.000 HD 
ENDROOT
BRANCH   2   5
HETATM    5  C   UNL     1      -8.129   3.880  72.277  1.00  0.00    -0.085 C  
HETATM    6  O   UNL     1      -7.738   5.157  71.747  1.00  0.00    -0.102 OA 
HETATM    7  C   UNL     1      -6.481   5.636  72.199  1.00  0.00    -0.056 C  
HETATM    8  C   UNL     1      -5.349   4.647  71.769  1.00  0.00    -0.004 C  
HETATM    9  C   UNL     1      -7.090   2.792  71.943  1.00  0.00    -0.038 C  
HETATM   10  N   UNL     1      -5.162   4.594  70.303  1.00  0.00     0.000 NA 
HETATM   11  C   UNL     1      -5.667   3.237  72.300  1.00  0.00    -0.008 C  
HETATM   12  H   UNL     1      -6.537   1.836  70.335  1.00  0.00     0.000 HD 
HETATM   13  H1  UNL     1      -4.423   3.949  70.022  1.00  0.00     0.000 HD 
HETATM   14  H2  UNL     1      -4.999   5.525  69.921  1.00  0.00     0.000 HD 
HETATM   15  O   UNL     1      -7.178   2.507  70.541  1.00  0.00    -0.033 OA 
BRANCH   7  16
HETATM   16  O   UNL     1      -6.219   6.937  71.647  1.00  0.00    -0.037 OA 
BRANCH  16  17
HETATM   17  C   UNL     1      -7.315   7.581  70.934  1.00  0.00    -0.068 C  
HETATM   18  N   UNL     1      -8.199   8.765  72.933  1.00  0.00    -0.387 NA 
HETATM   19  C   UNL     1      -9.670   8.496  71.033  1.00  0.00    -0.243 C  
HETATM   20  H1  UNL     1      -9.011   8.948  73.523  1.00  0.00     0.000 HD 
HETATM   21  H2  UNL     1      -7.781   9.630  72.591  1.00  0.00     0.000 HD 
HETATM   22  C   UNL     1     -10.099   7.614  69.860  1.00  0.00    -0.198 C  
HETATM   23  C   UNL     1      -8.543   7.857  71.827  1.00  0.00    -0.119 C  
HETATM   24  N   UNL     1     -11.266   8.283  69.259  1.00  0.00    -0.409 NA 
HETATM   25  C   UNL     1      -8.927   7.381  68.856  1.00  0.00    -0.130 C  
HETATM   26  H   UNL     1      -6.718   6.594  67.901  1.00  0.00     0.000 HD 
HETATM   27  H1  UNL     1     -11.553   7.694  68.478  1.00  0.00     0.000 HD 
HETATM   28  C   UNL     1      -7.653   6.869  69.595  1.00  0.00    -0.101 C  
HETATM   29  H2  UNL     1     -11.090   9.253  68.997  1.00  0.00     0.000 HD 
HETATM   30  O   UNL     1      -6.512   7.029  68.720  1.00  0.00    -0.030 OA 
BRANCH  25  31
HETATM   31  O   UNL     1      -9.240   6.382  67.835  1.00  0.00    -0.116 OA 
BRANCH  31  32
HETATM   32  C   UNL     1     -10.015   6.861  66.728  1.00  0.00    -0.182 C  
HETATM   33  O   UNL     1     -10.063   8.293  66.668  1.00  0.00    -0.267 OA 
HETATM   34  C   UNL     1      -8.793   8.884  66.345  1.00  0.00    -0.152 C  
HETATM   35  C   UNL     1      -8.316   8.409  64.963  1.00  0.00    -0.158 C  
HETATM   36  H   UNL     1      -9.132   4.449  64.661  1.00  0.00     0.000 HD 
HETATM   37  C   UNL     1      -8.187   6.873  64.948  1.00  0.00    -0.074 C  
HETATM   38  H1  UNL     1      -7.675   5.384  63.599  1.00  0.00     0.000 HD 
HETATM   39  O   UNL     1      -7.075   9.011  64.583  1.00  0.00    -0.087 OA 
HETATM   40  H   UNL     1      -6.780   8.717  63.730  1.00  0.00     0.000 HD 
HETATM   41  H2  UNL     1      -6.901   6.857  63.302  1.00  0.00     0.000 HD 
HETATM   42  C   UNL     1      -9.523   6.250  65.390  1.00  0.00     0.511 C  
HETATM   43  N   UNL     1      -7.760   6.401  63.609  1.00  0.00    -0.109 NA 
HETATM   44  O   UNL     1      -9.434   4.823  65.481  1.00  0.00    -0.158 OA 
BRANCH  34  45
HETATM   45  C   UNL     1      -8.956  10.410  66.352  1.00  0.00    -0.149 C  
HETATM   46  O   UNL     1      -9.215  10.898  65.036  1.00  0.00    -0.199 OA 
HETATM   47  H   UNL     1      -9.316  11.843  65.040  1.00  0.00     0.000 HD 
ENDBRANCH  34  45
ENDBRANCH  31  32
ENDBRANCH  25  31
ENDBRANCH  16  17
ENDBRANCH   7  16
ENDBRANCH   2   5
TORSDOF 6
ENDMDL
MODEL      297
REMARK 921   NORMALIZED FREE ENERGY PREDICTED BY IDOCK:   -1.42 KCAL/MOL
REMARK 922        TOTAL FREE ENERGY PREDICTED BY IDOCK:   -2.97 KCAL/MOL
REMARK 923 INTER-LIGAND FREE ENERGY PREDICTED BY IDOCK:   -3.45 KCAL/MOL
REMARK 924 INTRA-LIGAND FREE ENERGY PREDICTED BY IDOCK:    0.48 KCAL/MOL
REMARK 927      BINDING AFFINITY PREDICTED BY RF-SCORE:    0.00 PKD
ROOT
HETATM    1  N   UNL     1     -10.217  12.648  65.672  1.00  0.00    -0.271 NA 
HETATM    2  C   UNL     1      -9.253  12.243  66.705  1.00  0.00    -0.210 C  
HETATM    3  H2  UNL     1     -11.143  12.266  65.861  1.00  0.00     0.000 HD 
HETATM    4  H1  UNL     1     -10.254  13.660  65.553  1.00  0.00     0.000 HD 
ENDROOT
BRANCH   2   5
HETATM    5  C   UNL     1      -9.198  10.705  66.885  1.00  0.00    -0.155 C  
HETATM    6  O   UNL     1      -8.957  10.322  68.248  1.00  0.00    -0.128 OA 
HETATM    7  C   UNL     1     -10.022  10.589  69.146  1.00  0.00    -0.220 C  
HETATM    8  C   UNL     1     -11.295   9.789  68.714  1.00  0.00     0.072 C  
HETATM    9  C   UNL     1     -10.446   9.999  66.318  1.00  0.00    -0.102 C  
HETATM   10  N   UNL     1     -11.123   8.326  68.847  1.00  0.00    -0.403 NA 
HETATM   11  C   UNL     1     -11.651  10.136  67.256  1.00  0.00     0.920 C  
HETATM   12  H   UNL     1     -10.897   8.180  65.777  1.00  0.00     0.000 HD 
HETATM   13  H1  UNL     1     -11.953   7.804  68.565  1.00  0.00     0.000 HD 
HETATM   14  H2  UNL     1     -10.837   8.076  69.793  1.00  0.00     0.000 HD 
HETATM   15  O   UNL     1     -10.128   8.615  66.127  1.00  0.00    -0.250 OA 
BRANCH   7  16
HETATM   16  O   UNL     1      -9.650  10.216  70.483  1.00  0.00     0.039 OA 
BRANCH  16  17
HETATM   17  C   UNL     1      -8.455   9.394  70.626  1.00  0.00    -0.193 C  
HETATM   18  N   UNL     1      -6.872  11.222  70.053  1.00  0.00    -0.407 NA 
HETATM   19  C   UNL     1      -6.081   8.944  69.882  1.00  0.00    -0.034 C  
HETATM   20  H1  UNL     1      -6.102  11.524  69.456  1.00  0.00     0.000 HD 
HETATM   21  H2  UNL     1      -6.640  11.316  71.042  1.00  0.00     0.000 HD 
HETATM   22  C   UNL     1      -6.423   7.491  69.552  1.00  0.00    -0.036 C  
HETATM   23  C   UNL     1      -7.290   9.850  69.723  1.00  0.00    -0.129 C  
HETATM   24  N   UNL     1      -5.150   6.752  69.623  1.00  0.00    -0.014 NA 
HETATM   25  C   UNL     1      -7.525   6.928  70.504  1.00  0.00    -0.086 C  
HETATM   26  H   UNL     1      -9.766   6.601  71.636  1.00  0.00     0.000 HD 
HETATM   27  H1  UNL     1      -5.378   5.783  69.402  1.00  0.00     0.000 HD 
HETATM   28  C   UNL     1      -8.765   7.873  70.540  1.00  0.00    -0.136 C  
HETATM   29  H2  UNL     1      -4.661   6.865  70.512  1.00  0.00     0.000 HD 
HETATM   30  O   UNL     1      -9.577   7.531  71.689  1.00  0.00    -0.150 OA 
BRANCH  25  31
HETATM   31  O   UNL     1      -8.020   5.616  70.091  1.00  0.00    -0.094 OA 
BRANCH  31  32
HETATM   32  C   UNL     1      -9.225   5.633  69.315  1.00  0.00    -0.116 C  
HETATM   33  O   UNL     1      -9.028   6.179  68.005  1.00  0.00    -0.115 OA 
HETATM   34  C   UNL     1      -8.215   5.342  67.165  1.00  0.00    -0.104 C  
HETATM   35  C   UNL     1      -8.880   3.971  66.967  1.00  0.00    -0.122 C  
HETATM   36  H   UNL     1     -10.421   2.812  70.533  1.00  0.00     0.000 HD 
HETATM   37  C   UNL     1      -9.088   3.284  68.330  1.00  0.00    -0.157 C  
HETATM   38  H1  UNL     1      -9.898   1.519  69.057  1.00  0.00     0.000 HD 
HETATM   39  O   UNL     1      -8.123   3.123  66.098  1.00  0.00    -0.087 OA 
HETATM   40  H   UNL     1      -8.534   2.275  65.976  1.00  0.00     0.000 HD 
HETATM   41  H2  UNL     1      -9.258   1.374  67.500  1.00  0.00     0.000 HD 
HETATM   42  C   UNL     1      -9.876   4.226  69.256  1.00  0.00    -0.110 C  
HETATM   43  N   UNL     1      -9.761   1.974  68.154  1.00  0.00    -0.053 NA 
HETATM   44  O   UNL     1     -10.022   3.674  70.570  1.00  0.00    -0.115 OA 
BRANCH  34  45
HETATM   45  C   UNL     1      -8.038   6.044  65.811  1.00  0.00    -0.123 C  
HETATM   46  O   UNL     1      -9.083   5.678  64.910  1.00  0.00    -0.363 OA 
HETATM   47  H   UNL     1      -8.974   6.113  64.073  1.00  0.00     0.000 HD 
ENDBRANCH  34  45
ENDBRANCH  31  32
ENDBRANCH  25  31
ENDBRANCH  16  17
ENDBRANCH   7  16
ENDBRANCH   2   5
TORSDOF 6
ENDMDL
MODEL      298
REMARK 921   NORMALIZED FREE ENERGY PREDICTED BY IDOCK:   -1.35 KCAL/MOL
REMARK 922        TOTAL FREE ENERGY PREDICTED BY IDOCK:   -2.88 KCAL/MOL
REMARK 923 INTER-LIGAND FREE ENERGY PREDICTED BY IDOCK:   -4.69 KCAL/MOL
REMARK 924 INTRA-LIGAND FREE ENERGY PREDICTED BY IDOCK:    1.81 KCAL/MOL
REMARK 927      BINDING AFFINITY PREDICTED BY RF-SCORE:    0.00 PKD
ROOT
HETATM    1  N   UNL     1      -6.037  18.832  64.415  1.00  0.00    -0.388 NA 
HETATM    2  C   UNL     1      -7.007  18.392  65.429  1.00  0.00    -0.012 C  
HETATM    3  H2  UNL     1      -5.093  18.866  64.799  1.00  0.00     0.000 HD 
HETATM    4  H1  UNL     1      -6.073  18.260  63.573  1.00  0.00     0.000 HD 
ENDROOT
BRANCH   2   5
HETATM    5  C   UNL     1      -6.953  19.262  66.710  1.00  0.00    -0.200 C  
HETATM    6  O   UNL     1      -7.961  18.893  67.664  1.00  0.00    -0.247 OA 
HETATM    7  C   UNL     1      -7.774  17.627  68.277  1.00  0.00    -0.253 C  
HETATM    8  C   UNL     1      -6.429  17.614  69.074  1.00  0.00    -0.228 C  
HETATM    9  C   UNL     1      -5.552  19.279  67.353  1.00  0.00    -0.168 C  
HETATM   10  N   UNL     1      -6.443  18.531  70.234  1.00  0.00     0.172 NA 
HETATM   11  C   UNL     1      -5.269  17.990  68.133  1.00  0.00    -0.155 C  
HETATM   12  H   UNL     1      -4.614  20.421  68.627  1.00  0.00     0.000 HD 
HETATM   13  H1  UNL     1      -5.566  18.523  70.754  1.00  0.00     0.000 HD 
HETATM   14  H2  UNL     1      -7.234  18.333  70.847  1.00  0.00     0.000 HD 
HETATM   15  O   UNL     1      -5.478  20.410  68.231  1.00  0.00    -0.208 OA 
BRANCH   7  16
HETATM   16  O   UNL     1      -8.865  17.341  69.168  1.00  0.00    -0.135 OA 
BRANCH  16  17
HETATM   17  C   UNL     1      -9.657  16.153  68.877  1.00  0.00    -0.245 C  
HETATM   18  N   UNL     1     -11.515  16.755  70.414  1.00  0.00    -0.317 NA 
HETATM   19  C   UNL     1     -11.324  14.448  69.718  1.00  0.00    -0.285 C  
HETATM   20  H1  UNL     1     -12.102  16.461  71.194  1.00  0.00     0.000 HD 
HETATM   21  H2  UNL     1     -12.074  17.038  69.609  1.00  0.00     0.000 HD 
HETATM   22  C   UNL     1     -10.391  13.297  69.340  1.00  0.00     0.418 C  
HETATM   23  C   UNL     1     -10.545  15.707  70.058  1.00  0.00    -0.332 C  
HETATM   24  N   UNL     1     -11.258  12.119  69.160  1.00  0.00    -0.291 NA 
HETATM   25  C   UNL     1      -9.535  13.641  68.080  1.00  0.00    -0.217 C  
HETATM   26  H   UNL     1      -7.829  14.763  66.583  1.00  0.00     0.000 HD 
HETATM   27  H1  UNL     1     -10.635  11.352  68.908  1.00  0.00     0.000 HD 
HETATM   28  C   UNL     1      -8.807  15.009  68.257  1.00  0.00    -0.172 C  
HETATM   29  H2  UNL     1     -12.015  12.267  68.492  1.00  0.00     0.000 HD 
HETATM   30  O   UNL     1      -8.349  15.462  66.962  1.00  0.00    -0.199 OA 
BRANCH  25  31
HETATM   31  O   UNL     1      -8.492  12.652  67.811  1.00  0.00    -0.149 OA 
BRANCH  31  32
HETATM   32  C   UNL     1      -8.365  12.255  66.440  1.00  0.00     0.164 C  
HETATM   33  O   UNL     1      -7.737  10.975  66.293  1.00  0.00    -0.158 OA 
HETATM   34  C   UNL     1      -8.549   9.893  66.780  1.00  0.00    -0.128 C  
HETATM   35  C   UNL     1      -9.870   9.819  65.999  1.00  0.00    -0.274 C  
HETATM   36  H   UNL     1     -11.206  13.609  65.457  1.00  0.00     0.000 HD 
HETATM   37  C   UNL     1     -10.642  11.146  66.141  1.00  0.00    -0.248 C  
HETATM   38  H1  UNL     1     -12.415  11.976  65.457  1.00  0.00     0.000 HD 
HETATM   39  O   UNL     1     -10.689   8.726  66.423  1.00  0.00    -0.113 OA 
HETATM   40  H   UNL     1     -11.506   8.680  65.941  1.00  0.00     0.000 HD 
HETATM   41  H2  UNL     1     -12.478  10.296  65.620  1.00  0.00     0.000 HD 
HETATM   42  C   UNL     1      -9.732  12.308  65.709  1.00  0.00    -0.216 C  
HETATM   43  N   UNL     1     -11.904  11.098  65.363  1.00  0.00     0.391 NA 
HETATM   44  O   UNL     1     -10.368  13.577  65.905  1.00  0.00    -0.286 OA 
BRANCH  34  45
HETATM   45  C   UNL     1      -7.762   8.586  66.612  1.00  0.00    -0.090 C  
HETATM   46  O   UNL     1      -8.647   7.487  66.392  1.00  0.00    -0.126 OA 
HETATM   47  H   UNL     1      -8.160   6.678  66.288  1.00  0.00     0.000 HD 
ENDBRANCH  34  45
ENDBRANCH  31  32
ENDBRANCH  25  31
ENDBRANCH  16  17
ENDBRANCH   7  16
ENDBRANCH   2   5
TORSDOF 6
ENDMDL
MODEL      299
REMARK 921   NORMALIZED FREE ENERGY PREDICTED BY IDOCK:   -1.10 KCAL/MOL
REMARK 922        TOTAL FREE ENERGY PREDICTED BY IDOCK:   -2.54 KCAL/MOL
REMARK 923 INTER-LIGAND FREE ENERGY PREDICTED BY IDOCK:   -2.86 KCAL/MOL
REMARK 924 INTRA-LIGAND FREE ENERGY PREDICTED BY IDOCK:    0.32 KCAL/MOL
REMARK 927      BINDING AFFINITY PREDICTED BY RF-SCORE:    0.00 PKD
ROOT
HETATM    1  N   UNL     1     -10.821   2.339  63.735  1.00  0.00    -0.441 NA 
HETATM    2  C   UNL     1      -9.634   3.126  64.099  1.00  0.00    -0.143 C  
HETATM    3  H2  UNL     1     -11.680   2.834  63.978  1.00  0.00     0.000 HD 
HETATM    4  H1  UNL     1     -10.818   2.067  62.753  1.00  0.00     0.000 HD 
ENDROOT
BRANCH   2   5
HETATM    5  C   UNL     1      -9.639   3.540  65.593  1.00  0.00    -0.115 C  
HETATM    6  O   UNL     1      -8.313   3.649  66.134  1.00  0.00    -0.100 OA 
HETATM    7  C   UNL     1      -7.546   4.731  65.631  1.00  0.00    -0.086 C  
HETATM    8  C   UNL     1      -8.244   6.086  65.977  1.00  0.00    -0.125 C  
HETATM    9  C   UNL     1     -10.456   4.823  65.846  1.00  0.00    -0.274 C  
HETATM   10  N   UNL     1      -8.270   6.361  67.431  1.00  0.00    -0.116 NA 
HETATM   11  C   UNL     1      -9.683   6.080  65.429  1.00  0.00     0.571 C  
HETATM   12  H   UNL     1     -11.273   5.674  67.400  1.00  0.00     0.000 HD 
HETATM   13  H1  UNL     1      -8.725   7.246  67.657  1.00  0.00     0.000 HD 
HETATM   14  H2  UNL     1      -7.331   6.321  67.827  1.00  0.00     0.000 HD 
HETATM   15  O   UNL     1     -10.770   4.883  67.243  1.00  0.00    -0.042 OA 
BRANCH   7  16
HETATM   16  O   UNL     1      -6.226   4.710  66.200  1.00  0.00    -0.030 OA 
BRANCH  16  17
HETATM   17  C   UNL     1      -6.050   3.931  67.420  1.00  0.00    -0.028 C  
HETATM   18  N   UNL     1      -5.780   1.758  66.244  1.00  0.00    -0.017 NA 
HETATM   19  C   UNL     1      -6.363   1.711  68.590  1.00  0.00    -0.025 C  
HETATM   20  H1  UNL     1      -6.100   0.794  66.155  1.00  0.00     0.000 HD 
HETATM   21  H2  UNL     1      -4.775   1.806  66.409  1.00  0.00     0.000 HD 
HETATM   22  C   UNL     1      -7.123   2.383  69.734  1.00  0.00    -0.033 C  
HETATM   23  C   UNL     1      -6.535   2.472  67.285  1.00  0.00    -0.035 C  
HETATM   24  N   UNL     1      -6.977   1.486  70.894  1.00  0.00    -0.031 NA 
HETATM   25  C   UNL     1      -6.606   3.832  69.996  1.00  0.00    -0.033 C  
HETATM   26  H   UNL     1      -6.100   6.289  69.650  1.00  0.00     0.000 HD 
HETATM   27  H1  UNL     1      -7.484   1.934  71.657  1.00  0.00     0.000 HD 
HETATM   28  C   UNL     1      -6.591   4.665  68.678  1.00  0.00    -0.045 C  
HETATM   29  H2  UNL     1      -6.006   1.267  71.121  1.00  0.00     0.000 HD 
HETATM   30  O   UNL     1      -5.770   5.840  68.880  1.00  0.00    -0.010 OA 
BRANCH  25  31
HETATM   31  O   UNL     1      -7.440   4.573  70.941  1.00  0.00    -0.050 OA 
BRANCH  31  32
HETATM   32  C   UNL     1      -7.051   4.464  72.316  1.00  0.00    -0.061 C  
HETATM   33  O   UNL     1      -6.401   5.647  72.800  1.00  0.00    -0.056 OA 
HETATM   34  C   UNL     1      -7.286   6.776  72.891  1.00  0.00    -0.079 C  
HETATM   35  C   UNL     1      -8.433   6.481  73.870  1.00  0.00    -0.119 C  
HETATM   36  H   UNL     1      -9.657   2.668  73.238  1.00  0.00     0.000 HD 
HETATM   37  C   UNL     1      -9.224   5.245  73.401  1.00  0.00    -0.131 C  
HETATM   38  H1  UNL     1     -10.836   4.112  74.046  1.00  0.00     0.000 HD 
HETATM   39  O   UNL     1      -9.313   7.598  74.025  1.00  0.00    -0.360 OA 
HETATM   40  H   UNL     1     -10.023   7.416  74.629  1.00  0.00     0.000 HD 
HETATM   41  H2  UNL     1     -10.922   5.732  74.515  1.00  0.00     0.000 HD 
HETATM   42  C   UNL     1      -8.253   4.066  73.212  1.00  0.00    -0.089 C  
HETATM   43  N   UNL     1     -10.313   4.930  74.357  1.00  0.00    -0.265 NA 
HETATM   44  O   UNL     1      -8.921   2.911  72.689  1.00  0.00    -0.084 OA 
BRANCH  34  45
HETATM   45  C   UNL     1      -6.476   7.987  73.375  1.00  0.00    -0.091 C  
HETATM   46  O   UNL     1      -6.755   9.135  72.575  1.00  0.00    -0.313 OA 
HETATM   47  H   UNL     1      -6.254   9.885  72.875  1.00  0.00     0.000 HD 
ENDBRANCH  34  45
ENDBRANCH  31  32
ENDBRANCH  25  31
ENDBRANCH  16  17
ENDBRANCH   7  16
ENDBRANCH   2   5
TORSDOF 6
ENDMDL
MODEL      300
REMARK 921   NORMALIZED FREE ENERGY PREDICTED BY IDOCK:   -0.95 KCAL/MOL
REMARK 922        TOTAL FREE ENERGY PREDICTED BY IDOCK:   -2.34 KCAL/MOL
REMARK 923 INTER-LIGAND FREE ENERGY PREDICTED BY IDOCK:   -5.83 KCAL/MOL
REMARK 924 INTRA-LIGAND FREE ENERGY PREDICTED BY IDOCK:    3.50 KCAL/MOL
REMARK 927      BINDING AFFINITY PREDICTED BY RF-SCORE:    0.00 PKD
ROOT
HETATM    1  N   UNL     1     -11.361   9.289  67.588  1.00  0.00    -0.157 NA 
HETATM    2  C   UNL     1     -11.002  10.649  68.015  1.00  0.00    -0.282 C  
HETATM    3  H2  UNL     1     -11.082   9.120  66.622  1.00  0.00     0.000 HD 
HETATM    4  H1  UNL     1     -10.981   8.576  68.210  1.00  0.00     0.000 HD 
ENDROOT
BRANCH   2   5
HETATM    5  C   UNL     1     -11.579  11.732  67.070  1.00  0.00    -0.244 C  
HETATM    6  O   UNL     1     -10.809  12.944  67.094  1.00  0.00    -0.250 OA 
HETATM    7  C   UNL     1      -9.516  12.847  66.518  1.00  0.00    -0.251 C  
HETATM    8  C   UNL     1      -9.633  12.465  65.007  1.00  0.00     0.082 C  
HETATM    9  C   UNL     1     -11.769  11.217  65.629  1.00  0.00     0.597 C  
HETATM   10  N   UNL     1     -10.265  13.527  64.195  1.00  0.00    -0.758 NA 
HETATM   11  C   UNL     1     -10.440  11.160  64.867  1.00  0.00    -0.372 C  
HETATM   12  H   UNL     1     -12.799  11.778  64.070  1.00  0.00     0.000 HD 
HETATM   13  H1  UNL     1     -10.342  13.278  63.209  1.00  0.00     0.000 HD 
HETATM   14  H2  UNL     1      -9.777  14.415  64.311  1.00  0.00     0.000 HD 
HETATM   15  O   UNL     1     -12.682  12.095  64.958  1.00  0.00    -0.498 OA 
BRANCH   7  16
HETATM   16  O   UNL     1      -8.821  14.099  66.645  1.00  0.00    -0.209 OA 
BRANCH  16  17
HETATM   17  C   UNL     1      -7.674  14.125  67.545  1.00  0.00    -0.185 C  
HETATM   18  N   UNL     1      -8.365  12.108  68.823  1.00  0.00    -0.354 NA 
HETATM   19  C   UNL     1      -6.762  13.603  69.845  1.00  0.00     0.113 C  
HETATM   20  H1  UNL     1      -8.564  11.710  69.741  1.00  0.00     0.000 HD 
HETATM   21  H2  UNL     1      -7.662  11.564  68.322  1.00  0.00     0.000 HD 
HETATM   22  C   UNL     1      -6.289  15.046  70.022  1.00  0.00    -0.163 C  
HETATM   23  C   UNL     1      -7.976  13.523  68.933  1.00  0.00     0.087 C  
HETATM   24  N   UNL     1      -5.201  14.993  71.015  1.00  0.00    -0.135 NA 
HETATM   25  C   UNL     1      -5.864  15.684  68.663  1.00  0.00    -0.101 C  
HETATM   26  H   UNL     1      -6.003  16.620  66.314  1.00  0.00     0.000 HD 
HETATM   27  H1  UNL     1      -4.886  15.955  71.134  1.00  0.00     0.000 HD 
HETATM   28  C   UNL     1      -6.987  15.518  67.593  1.00  0.00    -0.179 C  
HETATM   29  H2  UNL     1      -4.452  14.346  70.765  1.00  0.00     0.000 HD 
HETATM   30  O   UNL     1      -6.423  15.769  66.284  1.00  0.00     0.653 OA 
BRANCH  25  31
HETATM   31  O   UNL     1      -5.601  17.119  68.763  1.00  0.00    -0.139 OA 
BRANCH  31  32
HETATM   32  C   UNL     1      -6.492  17.845  69.619  1.00  0.00    -0.127 C  
HETATM   33  O   UNL     1      -5.938  19.093  70.058  1.00  0.00    -0.252 OA 
HETATM   34  C   UNL     1      -5.796  20.049  68.994  1.00  0.00    -0.269 C  
HETATM   35  C   UNL     1      -7.165  20.376  68.379  1.00  0.00    -0.098 C  
HETATM   36  H   UNL     1      -9.246  16.910  68.068  1.00  0.00     0.000 HD 
HETATM   37  C   UNL     1      -7.819  19.092  67.832  1.00  0.00    -0.271 C  
HETATM   38  H1  UNL     1      -9.589  18.540  66.904  1.00  0.00     0.000 HD 
HETATM   39  O   UNL     1      -7.073  21.360  67.344  1.00  0.00    -0.644 OA 
HETATM   40  H   UNL     1      -7.919  21.562  66.964  1.00  0.00     0.000 HD 
HETATM   41  H2  UNL     1      -9.115  20.124  66.560  1.00  0.00     0.000 HD 
HETATM   42  C   UNL     1      -7.879  18.040  68.953  1.00  0.00    -0.187 C  
HETATM   43  N   UNL     1      -9.157  19.390  67.266  1.00  0.00    -0.292 NA 
HETATM   44  O   UNL     1      -8.397  16.791  68.476  1.00  0.00    -0.222 OA 
BRANCH  34  45
HETATM   45  C   UNL     1      -5.158  21.321  69.570  1.00  0.00    -0.175 C  
HETATM   46  O   UNL     1      -5.216  21.315  70.997  1.00  0.00    -0.549 OA 
HETATM   47  H   UNL     1      -4.821  22.102  71.353  1.00  0.00     0.000 HD 
ENDBRANCH  34  45
ENDBRANCH  31  32
ENDBRANCH  25  31
ENDBRANCH  16  17
ENDBRANCH   7  16
ENDBRANCH   2   5
TORSDOF 6
ENDMDL
MODEL      301
REMARK 921   NORMALIZED FREE ENERGY PREDICTED BY IDOCK:   -0.92 KCAL/MOL
REMARK 922        TOTAL FREE ENERGY PREDICTED BY IDOCK:   -2.30 KCAL/MOL
REMARK 923 INTER-LIGAND FREE ENERGY PREDICTED BY IDOCK:   -4.27 KCAL/MOL
REMARK 924 INTRA-LIGAND FREE ENERGY PREDICTED BY IDOCK:    1.97 KCAL/MOL
REMARK 927      BINDING AFFINITY PREDICTED BY RF-SCORE:    0.00 PKD
ROOT
HETATM    1  N   UNL     1     -10.585  15.065  67.824  1.00  0.00    -0.260 NA 
HETATM    2  C   UNL     1      -9.977  15.790  68.949  1.00  0.00    -0.223 C  
HETATM    3  H2  UNL     1     -10.663  14.069  68.027  1.00  0.00     0.000 HD 
HETATM    4  H1  UNL     1     -11.487  15.457  67.555  1.00  0.00     0.000 HD 
ENDROOT
BRANCH   2   5
HETATM    5  C   UNL     1      -8.606  15.194  69.358  1.00  0.00    -0.172 C  
HETATM    6  O   UNL     1      -8.280  14.011  68.611  1.00  0.00    -0.143 OA 
HETATM    7  C   UNL     1      -8.001  14.225  67.237  1.00  0.00    -0.168 C  
HETATM    8  C   UNL     1      -6.759  15.162  67.086  1.00  0.00     0.183 C  
HETATM    9  C   UNL     1      -7.468  16.231  69.290  1.00  0.00    -0.217 C  
HETATM   10  N   UNL     1      -5.509  14.538  67.572  1.00  0.00    -0.342 NA 
HETATM   11  C   UNL     1      -7.009  16.477  67.848  1.00  0.00    -0.155 C  
HETATM   12  H   UNL     1      -5.671  16.384  70.035  1.00  0.00     0.000 HD 
HETATM   13  H1  UNL     1      -4.698  15.150  67.473  1.00  0.00     0.000 HD 
HETATM   14  H2  UNL     1      -5.348  13.640  67.116  1.00  0.00     0.000 HD 
HETATM   15  O   UNL     1      -6.373  15.744  70.076  1.00  0.00    -0.168 OA 
BRANCH   7  16
HETATM   16  O   UNL     1      -7.742  12.972  66.582  1.00  0.00     0.258 OA 
BRANCH  16  17
HETATM   17  C   UNL     1      -8.640  11.869  66.897  1.00  0.00    -0.185 C  
HETATM   18  N   UNL     1     -10.697  13.056  66.164  1.00  0.00    -0.271 NA 
HETATM   19  C   UNL     1     -10.952  11.150  67.629  1.00  0.00    -0.323 C  
HETATM   20  H1  UNL     1     -11.637  13.362  66.414  1.00  0.00     0.000 HD 
HETATM   21  H2  UNL     1     -10.697  12.503  65.307  1.00  0.00     0.000 HD 
HETATM   22  C   UNL     1     -10.370  10.337  68.786  1.00  0.00    -0.195 C  
HETATM   23  C   UNL     1     -10.063  12.331  67.277  1.00  0.00    -0.204 C  
HETATM   24  N   UNL     1     -11.379   9.312  69.104  1.00  0.00    -0.429 NA 
HETATM   25  C   UNL     1      -8.970   9.747  68.429  1.00  0.00    -0.123 C  
HETATM   26  H   UNL     1      -6.509   9.613  67.849  1.00  0.00     0.000 HD 
HETATM   27  H1  UNL     1     -10.992   8.771  69.877  1.00  0.00     0.000 HD 
HETATM   28  C   UNL     1      -8.014  10.859  67.899  1.00  0.00    -0.111 C  
HETATM   29  H2  UNL     1     -11.650   8.743  68.302  1.00  0.00     0.000 HD 
HETATM   30  O   UNL     1      -6.892  10.231  67.236  1.00  0.00    -0.079 OA 
BRANCH  25  31
HETATM   31  O   UNL     1      -8.298   9.138  69.576  1.00  0.00    -0.115 OA 
BRANCH  31  32
HETATM   32  C   UNL     1      -6.931   8.765  69.356  1.00  0.00    -0.053 C  
HETATM   33  O   UNL     1      -6.021   9.496  70.187  1.00  0.00    -0.041 OA 
HETATM   34  C   UNL     1      -6.139   9.160  71.580  1.00  0.00    -0.076 C  
HETATM   35  C   UNL     1      -5.828   7.672  71.802  1.00  0.00    -0.036 C  
HETATM   36  H   UNL     1      -7.564   5.578  68.795  1.00  0.00     0.000 HD 
HETATM   37  C   UNL     1      -6.797   6.801  70.979  1.00  0.00    -0.058 C  
HETATM   38  H1  UNL     1      -7.126   4.787  70.614  1.00  0.00     0.000 HD 
HETATM   39  O   UNL     1      -5.891   7.306  73.184  1.00  0.00    -0.048 OA 
HETATM   40  H   UNL     1      -5.699   6.386  73.321  1.00  0.00     0.000 HD 
HETATM   41  H2  UNL     1      -6.478   5.096  72.143  1.00  0.00     0.000 HD 
HETATM   42  C   UNL     1      -6.735   7.233  69.504  1.00  0.00    -0.045 C  
HETATM   43  N   UNL     1      -6.484   5.363  71.159  1.00  0.00    -0.034 NA 
HETATM   44  O   UNL     1      -7.684   6.516  68.704  1.00  0.00    -0.098 OA 
BRANCH  34  45
HETATM   45  C   UNL     1      -5.153  10.030  72.372  1.00  0.00    -0.012 C  
HETATM   46  O   UNL     1      -5.185  11.381  71.910  1.00  0.00    -0.329 OA 
HETATM   47  H   UNL     1      -4.575  11.919  72.400  1.00  0.00     0.000 HD 
ENDBRANCH  34  45
ENDBRANCH  31  32
ENDBRANCH  25  31
ENDBRANCH  16  17
ENDBRANCH   7  16
ENDBRANCH   2   5
TORSDOF 6
ENDMDL
MODEL      302
REMARK 921   NORMALIZED FREE ENERGY PREDICTED BY IDOCK:   -0.78 KCAL/MOL
REMARK 922        TOTAL FREE ENERGY PREDICTED BY IDOCK:   -2.11 KCAL/MOL
REMARK 923 INTER-LIGAND FREE ENERGY PREDICTED BY IDOCK:   -2.13 KCAL/MOL
REMARK 924 INTRA-LIGAND FREE ENERGY PREDICTED BY IDOCK:    0.02 KCAL/MOL
REMARK 927      BINDING AFFINITY PREDICTED BY RF-SCORE:    0.00 PKD
ROOT
HETATM    1  N   UNL     1      -7.398   5.217  74.177  1.00  0.00    -0.086 NA 
HETATM    2  C   UNL     1      -8.072   3.989  73.730  1.00  0.00    -0.088 C  
HETATM    3  H2  UNL     1      -7.785   6.039  73.714  1.00  0.00     0.000 HD 
HETATM    4  H1  UNL     1      -7.418   5.321  75.191  1.00  0.00     0.000 HD 
ENDROOT
BRANCH   2   5
HETATM    5  C   UNL     1      -8.041   3.831  72.189  1.00  0.00    -0.076 C  
HETATM    6  O   UNL     1      -7.396   4.938  71.539  1.00  0.00    -0.065 OA 
HETATM    7  C   UNL     1      -5.997   5.032  71.757  1.00  0.00    -0.020 C  
HETATM    8  C   UNL     1      -5.284   3.757  71.201  1.00  0.00     0.000 C  
HETATM    9  C   UNL     1      -7.428   2.487  71.747  1.00  0.00    -0.040 C  
HETATM   10  N   UNL     1      -5.371   3.650  69.728  1.00  0.00    -0.008 NA 
HETATM   11  C   UNL     1      -5.898   2.500  71.846  1.00  0.00    -0.009 C  
HETATM   12  H   UNL     1      -7.451   1.410  70.120  1.00  0.00     0.000 HD 
HETATM   13  H1  UNL     1      -4.906   2.818  69.365  1.00  0.00     0.000 HD 
HETATM   14  H2  UNL     1      -5.016   4.493  69.279  1.00  0.00     0.000 HD 
HETATM   15  O   UNL     1      -7.829   2.238  70.393  1.00  0.00    -0.042 OA 
BRANCH   7  16
HETATM   16  O   UNL     1      -5.471   6.201  71.106  1.00  0.00    -0.017 OA 
BRANCH  16  17
HETATM   17  C   UNL     1      -6.435   7.077  70.452  1.00  0.00    -0.043 C  
HETATM   18  N   UNL     1      -6.646   8.634  72.378  1.00  0.00    -0.182 NA 
HETATM   19  C   UNL     1      -8.396   8.652  70.710  1.00  0.00    -0.172 C  
HETATM   20  H1  UNL     1      -7.277   9.097  73.031  1.00  0.00     0.000 HD 
HETATM   21  H2  UNL     1      -6.056   9.305  71.886  1.00  0.00     0.000 HD 
HETATM   22  C   UNL     1      -9.224   7.840  69.714  1.00  0.00    -0.150 C  
HETATM   23  C   UNL     1      -7.390   7.778  71.441  1.00  0.00    -0.067 C  
HETATM   24  N   UNL     1     -10.231   8.771  69.175  1.00  0.00    -0.203 NA 
HETATM   25  C   UNL     1      -8.326   7.188  68.616  1.00  0.00    -0.125 C  
HETATM   26  H   UNL     1      -6.594   5.705  67.515  1.00  0.00     0.000 HD 
HETATM   27  H1  UNL     1     -10.784   8.229  68.511  1.00  0.00     0.000 HD 
HETATM   28  C   UNL     1      -7.153   6.386  69.259  1.00  0.00    -0.080 C  
HETATM   29  H2  UNL     1      -9.830   9.621  68.776  1.00  0.00     0.000 HD 
HETATM   30  O   UNL     1      -6.155   6.127  68.244  1.00  0.00    -0.019 OA 
BRANCH  25  31
HETATM   31  O   UNL     1      -9.054   6.244  67.770  1.00  0.00    -0.117 OA 
BRANCH  31  32
HETATM   32  C   UNL     1      -9.492   6.765  66.508  1.00  0.00    -0.150 C  
HETATM   33  O   UNL     1      -8.451   7.458  65.808  1.00  0.00    -0.136 OA 
HETATM   34  C   UNL     1      -7.403   6.584  65.355  1.00  0.00    -0.076 C  
HETATM   35  C   UNL     1      -7.960   5.538  64.377  1.00  0.00    -0.120 C  
HETATM   36  H   UNL     1     -11.526   4.262  65.824  1.00  0.00     0.000 HD 
HETATM   37  C   UNL     1      -9.061   4.707  65.065  1.00  0.00    -0.156 C  
HETATM   38  H1  UNL     1     -10.359   3.166  64.575  1.00  0.00     0.000 HD 
HETATM   39  O   UNL     1      -6.939   4.676  63.867  1.00  0.00    -0.043 OA 
HETATM   40  H   UNL     1      -7.284   4.029  63.263  1.00  0.00     0.000 HD 
HETATM   41  H2  UNL     1      -8.908   3.124  63.710  1.00  0.00     0.000 HD 
HETATM   42  C   UNL     1     -10.130   5.656  65.632  1.00  0.00     0.349 C  
HETATM   43  N   UNL     1      -9.630   3.716  64.119  1.00  0.00    -0.149 NA 
HETATM   44  O   UNL     1     -11.135   4.941  66.362  1.00  0.00     0.026 OA 
BRANCH  34  45
HETATM   45  C   UNL     1      -6.330   7.437  64.662  1.00  0.00    -0.037 C  
HETATM   46  O   UNL     1      -5.130   6.688  64.477  1.00  0.00    -0.024 OA 
HETATM   47  H   UNL     1      -4.466   7.215  64.048  1.00  0.00     0.000 HD 
ENDBRANCH  34  45
ENDBRANCH  31  32
ENDBRANCH  25  31
ENDBRANCH  16  17
ENDBRANCH   7  16
ENDBRANCH   2   5
TORSDOF 6
ENDMDL
MODEL      303
REMARK 921   NORMALIZED FREE ENERGY PREDICTED BY IDOCK:   -0.78 KCAL/MOL
REMARK 922        TOTAL FREE ENERGY PREDICTED BY IDOCK:   -2.10 KCAL/MOL
REMARK 923 INTER-LIGAND FREE ENERGY PREDICTED BY IDOCK:   -5.54 KCAL/MOL
REMARK 924 INTRA-LIGAND FREE ENERGY PREDICTED BY IDOCK:    3.44 KCAL/MOL
REMARK 927      BINDING AFFINITY PREDICTED BY RF-SCORE:    0.00 PKD
ROOT
HETATM    1  N   UNL     1      -9.613  11.188  62.330  1.00  0.00    -0.564 NA 
HETATM    2  C   UNL     1      -9.165  12.186  63.312  1.00  0.00     0.658 C  
HETATM    3  H2  UNL     1     -10.608  11.288  62.131  1.00  0.00     0.000 HD 
HETATM    4  H1  UNL     1      -9.061  11.215  61.473  1.00  0.00     0.000 HD 
ENDROOT
BRANCH   2   5
HETATM    5  C   UNL     1     -10.003  12.146  64.614  1.00  0.00    -0.202 C  
HETATM    6  O   UNL     1     -10.058  13.423  65.269  1.00  0.00    -0.297 OA 
HETATM    7  C   UNL     1     -10.802  14.418  64.584  1.00  0.00    -0.346 C  
HETATM    8  C   UNL     1     -12.292  13.965  64.442  1.00  0.00    -0.361 C  
HETATM    9  C   UNL     1     -11.415  11.571  64.389  1.00  0.00    -0.159 C  
HETATM   10  N   UNL     1     -12.990  13.882  65.743  1.00  0.00    -0.524 NA 
HETATM   11  C   UNL     1     -12.349  12.597  63.737  1.00  0.00    -0.568 C  
HETATM   12  H   UNL     1     -12.812  10.813  65.521  1.00  0.00     0.000 HD 
HETATM   13  H1  UNL     1     -13.963  13.586  65.650  1.00  0.00     0.000 HD 
HETATM   14  H2  UNL     1     -12.923  14.763  66.251  1.00  0.00     0.000 HD 
HETATM   15  O   UNL     1     -11.941  11.168  65.660  1.00  0.00     0.335 OA 
BRANCH   7  16
HETATM   16  O   UNL     1     -10.743  15.663  65.301  1.00  0.00    -0.376 OA 
BRANCH  16  17
HETATM   17  C   UNL     1      -9.796  15.740  66.407  1.00  0.00    -0.276 C  
HETATM   18  N   UNL     1      -9.341  18.167  66.126  1.00  0.00    -0.505 NA 
HETATM   19  C   UNL     1      -7.742  16.852  67.375  1.00  0.00    -0.193 C  
HETATM   20  H1  UNL     1      -8.633  18.890  66.000  1.00  0.00     0.000 HD 
HETATM   21  H2  UNL     1      -9.936  18.360  66.931  1.00  0.00     0.000 HD 
HETATM   22  C   UNL     1      -7.046  15.500  67.540  1.00  0.00    -0.191 C  
HETATM   23  C   UNL     1      -8.725  16.833  66.215  1.00  0.00    -0.307 C  
HETATM   24  N   UNL     1      -6.043  15.692  68.602  1.00  0.00    -0.098 NA 
HETATM   25  C   UNL     1      -8.068  14.360  67.844  1.00  0.00    -0.151 C  
HETATM   26  H   UNL     1      -9.962  12.706  67.549  1.00  0.00     0.000 HD 
HETATM   27  H1  UNL     1      -5.579  14.791  68.712  1.00  0.00     0.000 HD 
HETATM   28  C   UNL     1      -9.220  14.349  66.794  1.00  0.00    -0.268 C  
HETATM   29  H2  UNL     1      -6.433  16.059  69.471  1.00  0.00     0.000 HD 
HETATM   30  O   UNL     1     -10.314  13.556  67.312  1.00  0.00    -0.240 OA 
BRANCH  25  31
HETATM   31  O   UNL     1      -7.465  13.028  67.807  1.00  0.00    -0.116 OA 
BRANCH  31  32
HETATM   32  C   UNL     1      -7.607  12.259  69.008  1.00  0.00     0.103 C  
HETATM   33  O   UNL     1      -8.964  11.866  69.253  1.00  0.00     0.364 OA 
HETATM   34  C   UNL     1      -9.452  10.910  68.297  1.00  0.00    -0.168 C  
HETATM   35  C   UNL     1      -8.613   9.623  68.348  1.00  0.00    -0.119 C  
HETATM   36  H   UNL     1      -4.720  10.693  68.719  1.00  0.00     0.000 HD 
HETATM   37  C   UNL     1      -7.136   9.943  68.046  1.00  0.00    -0.082 C  
HETATM   38  H1  UNL     1      -5.334   8.926  67.926  1.00  0.00     0.000 HD 
HETATM   39  O   UNL     1      -9.096   8.627  67.442  1.00  0.00    -0.132 OA 
HETATM   40  H   UNL     1      -8.577   7.832  67.473  1.00  0.00     0.000 HD 
HETATM   41  H2  UNL     1      -6.671   7.976  67.521  1.00  0.00     0.000 HD 
HETATM   42  C   UNL     1      -6.650  11.038  69.011  1.00  0.00    -0.065 C  
HETATM   43  N   UNL     1      -6.312   8.714  68.126  1.00  0.00    -0.051 NA 
HETATM   44  O   UNL     1      -5.306  11.440  68.717  1.00  0.00    -0.044 OA 
BRANCH  34  45
HETATM   45  C   UNL     1     -10.918  10.599  68.631  1.00  0.00    -0.246 C  
HETATM   46  O   UNL     1     -11.222  10.977  69.974  1.00  0.00    -0.355 OA 
HETATM   47  H   UNL     1     -12.129  10.785  70.181  1.00  0.00     0.000 HD 
ENDBRANCH  34  45
ENDBRANCH  31  32
ENDBRANCH  25  31
ENDBRANCH  16  17
ENDBRANCH   7  16
ENDBRANCH   2   5
TORSDOF 6
ENDMDL
MODEL      304
REMARK 921   NORMALIZED FREE ENERGY PREDICTED BY IDOCK:   -0.66 KCAL/MOL
REMARK 922        TOTAL FREE ENERGY PREDICTED BY IDOCK:   -1.95 KCAL/MOL
REMARK 923 INTER-LIGAND FREE ENERGY PREDICTED BY IDOCK:   -1.66 KCAL/MOL
REMARK 924 INTRA-LIGAND FREE ENERGY PREDICTED BY IDOCK:   -0.29 KCAL/MOL
REMARK 927      BINDING AFFINITY PREDICTED BY RF-SCORE:    0.00 PKD
ROOT
HETATM    1  N   UNL     1     -12.344  12.216  69.537  1.00  0.00    -0.065 NA 
HETATM    2  C   UNL     1     -11.975  11.420  70.717  1.00  0.00    -0.252 C  
HETATM    3  H2  UNL     1     -13.356  12.246  69.415  1.00  0.00     0.000 HD 
HETATM    4  H1  UNL     1     -11.949  13.155  69.565  1.00  0.00     0.000 HD 
ENDROOT
BRANCH   2   5
HETATM    5  C   UNL     1     -12.576   9.993  70.673  1.00  0.00    -0.220 C  
HETATM    6  O   UNL     1     -11.701   9.051  70.033  1.00  0.00    -0.017 OA 
HETATM    7  C   UNL     1     -10.516   8.746  70.750  1.00  0.00    -0.219 C  
HETATM    8  C   UNL     1     -10.879   8.099  72.127  1.00  0.00    -0.303 C  
HETATM    9  C   UNL     1     -13.013   9.494  72.065  1.00  0.00    -0.426 C  
HETATM   10  N   UNL     1     -11.517   6.772  71.984  1.00  0.00    -0.269 NA 
HETATM   11  C   UNL     1     -11.816   9.040  72.907  1.00  0.00     0.718 C  
HETATM   12  H   UNL     1     -14.195   8.096  72.740  1.00  0.00     0.000 HD 
HETATM   13  H1  UNL     1     -11.754   6.349  72.882  1.00  0.00     0.000 HD 
HETATM   14  H2  UNL     1     -10.937   6.145  71.427  1.00  0.00     0.000 HD 
HETATM   15  O   UNL     1     -13.926   8.404  71.882  1.00  0.00    -0.383 OA 
BRANCH   7  16
HETATM   16  O   UNL     1      -9.697   7.839  69.993  1.00  0.00    -0.175 OA 
BRANCH  16  17
HETATM   17  C   UNL     1     -10.239   7.366  68.726  1.00  0.00    -0.191 C  
HETATM   18  N   UNL     1     -12.115   6.104  69.758  1.00  0.00     0.271 NA 
HETATM   19  C   UNL     1     -11.485   5.544  67.492  1.00  0.00     1.529 C  
HETATM   20  H1  UNL     1     -12.596   5.208  69.835  1.00  0.00     0.000 HD 
HETATM   21  H2  UNL     1     -12.754   6.851  69.484  1.00  0.00     0.000 HD 
HETATM   22  C   UNL     1     -10.352   5.413  66.473  1.00  0.00    -0.269 C  
HETATM   23  C   UNL     1     -10.966   6.010  68.842  1.00  0.00    -0.325 C  
HETATM   24  N   UNL     1     -10.966   4.840  65.262  1.00  0.00    -0.792 NA 
HETATM   25  C   UNL     1      -9.639   6.779  66.226  1.00  0.00    -0.031 C  
HETATM   26  H   UNL     1      -8.264   8.866  66.632  1.00  0.00     0.000 HD 
HETATM   27  H1  UNL     1     -10.210   4.752  64.583  1.00  0.00     0.000 HD 
HETATM   28  C   UNL     1      -9.200   7.431  67.572  1.00  0.00    -0.130 C  
HETATM   29  H2  UNL     1     -11.764   5.374  64.917  1.00  0.00     0.000 HD 
HETATM   30  O   UNL     1      -8.899   8.827  67.337  1.00  0.00    -0.132 OA 
BRANCH  25  31
HETATM   31  O   UNL     1      -8.428   6.652  65.416  1.00  0.00    -0.150 OA 
BRANCH  31  32
HETATM   32  C   UNL     1      -8.582   6.981  64.029  1.00  0.00     0.482 C  
HETATM   33  O   UNL     1      -9.366   8.163  63.828  1.00  0.00     1.307 OA 
HETATM   34  C   UNL     1      -8.708   9.357  64.284  1.00  0.00    -0.197 C  
HETATM   35  C   UNL     1      -7.394   9.573  63.518  1.00  0.00    -0.107 C  
HETATM   36  H   UNL     1      -5.574   5.971  63.133  1.00  0.00     0.000 HD 
HETATM   37  C   UNL     1      -6.461   8.364  63.718  1.00  0.00    -0.072 C  
HETATM   38  H1  UNL     1      -4.585   7.745  63.086  1.00  0.00     0.000 HD 
HETATM   39  O   UNL     1      -6.730  10.778  63.911  1.00  0.00    -0.348 OA 
HETATM   40  H   UNL     1      -5.918  10.911  63.437  1.00  0.00     0.000 HD 
HETATM   41  H2  UNL     1      -4.741   9.424  63.188  1.00  0.00     0.000 HD 
HETATM   42  C   UNL     1      -7.207   7.079  63.318  1.00  0.00    -0.074 C  
HETATM   43  N   UNL     1      -5.203   8.546  62.954  1.00  0.00    -0.067 NA 
HETATM   44  O   UNL     1      -6.416   5.911  63.568  1.00  0.00    -0.028 OA 
BRANCH  34  45
HETATM   45  C   UNL     1      -9.654  10.546  64.059  1.00  0.00    -0.311 C  
HETATM   46  O   UNL     1      -9.179  11.706  64.741  1.00  0.00    -0.414 OA 
HETATM   47  H   UNL     1      -9.764  12.442  64.601  1.00  0.00     0.000 HD 
ENDBRANCH  34  45
ENDBRANCH  31  32
ENDBRANCH  25  31
ENDBRANCH  16  17
ENDBRANCH   7  16
ENDBRANCH   2   5
TORSDOF 6
ENDMDL
MODEL      305
REMARK 921   NORMALIZED FREE ENERGY PREDICTED BY IDOCK:   -0.19 KCAL/MOL
REMARK 922        TOTAL FREE ENERGY PREDICTED BY IDOCK:   -1.32 KCAL/MOL
REMARK 923 INTER-LIGAND FREE ENERGY PREDICTED BY IDOCK:   -2.51 KCAL/MOL
REMARK 924 INTRA-LIGAND FREE ENERGY PREDICTED BY IDOCK:    1.20 KCAL/MOL
REMARK 927      BINDING AFFINITY PREDICTED BY RF-SCORE:    0.00 PKD
ROOT
HETATM    1  N   UNL     1     -12.461  12.797  69.059  1.00  0.00     0.224 NA 
HETATM    2  C   UNL     1     -11.987  12.100  70.263  1.00  0.00    -0.305 C  
HETATM    3  H2  UNL     1     -13.478  12.770  68.994  1.00  0.00     0.000 HD 
HETATM    4  H1  UNL     1     -12.114  13.754  69.005  1.00  0.00     0.000 HD 
ENDROOT
BRANCH   2   5
HETATM    5  C   UNL     1     -12.515  10.645  70.345  1.00  0.00    -0.338 C  
HETATM    6  O   UNL     1     -11.637   9.709  69.699  1.00  0.00    -0.088 OA 
HETATM    7  C   UNL     1     -10.392   9.505  70.348  1.00  0.00    -0.276 C  
HETATM    8  C   UNL     1     -10.627   8.927  71.782  1.00  0.00    -0.362 C  
HETATM    9  C   UNL     1     -12.830  10.213  71.790  1.00  0.00    -0.452 C  
HETATM   10  N   UNL     1     -11.204   7.565  71.761  1.00  0.00    -0.241 NA 
HETATM   11  C   UNL     1     -11.556   9.868  72.571  1.00  0.00     1.748 C  
HETATM   12  H   UNL     1     -13.889   8.804  72.627  1.00  0.00     0.000 HD 
HETATM   13  H1  UNL     1     -11.357   7.187  72.697  1.00  0.00     0.000 HD 
HETATM   14  H2  UNL     1     -10.631   6.934  71.201  1.00  0.00     0.000 HD 
HETATM   15  O   UNL     1     -13.695   9.071  71.736  1.00  0.00    -0.390 OA 
BRANCH   7  16
HETATM   16  O   UNL     1      -9.580   8.594  69.588  1.00  0.00    -0.167 OA 
BRANCH  16  17
HETATM   17  C   UNL     1     -10.199   7.981  68.420  1.00  0.00    -0.207 C  
HETATM   18  N   UNL     1     -11.860   6.671  69.724  1.00  0.00    -0.654 NA 
HETATM   19  C   UNL     1     -11.402   5.978  67.453  1.00  0.00     0.214 C  
HETATM   20  H1  UNL     1     -12.256   5.750  69.914  1.00  0.00     0.000 HD 
HETATM   21  H2  UNL     1     -12.580   7.343  69.462  1.00  0.00     0.000 HD 
HETATM   22  C   UNL     1     -10.363   5.848  66.339  1.00  0.00    -0.111 C  
HETATM   23  C   UNL     1     -10.798   6.589  68.708  1.00  0.00    -0.299 C  
HETATM   24  N   UNL     1     -11.039   5.136  65.241  1.00  0.00    -0.411 NA 
HETATM   25  C   UNL     1      -9.790   7.239  65.922  1.00  0.00     0.513 C  
HETATM   26  H   UNL     1      -8.559   9.449  66.034  1.00  0.00     0.000 HD 
HETATM   27  H1  UNL     1     -10.345   5.049  64.497  1.00  0.00     0.000 HD 
HETATM   28  C   UNL     1      -9.281   8.029  67.166  1.00  0.00    -0.142 C  
HETATM   29  H2  UNL     1     -11.907   5.578  64.940  1.00  0.00     0.000 HD 
HETATM   30  O   UNL     1      -9.120   9.420  66.800  1.00  0.00    -0.135 OA 
BRANCH  25  31
HETATM   31  O   UNL     1      -8.654   7.138  65.006  1.00  0.00    -0.031 OA 
BRANCH  31  32
HETATM   32  C   UNL     1      -7.404   6.799  65.619  1.00  0.00    -0.079 C  
HETATM   33  O   UNL     1      -7.510   5.675  66.502  1.00  0.00    -0.084 OA 
HETATM   34  C   UNL     1      -7.780   4.443  65.812  1.00  0.00    -0.090 C  
HETATM   35  C   UNL     1      -6.643   4.116  64.831  1.00  0.00    -0.043 C  
HETATM   36  H   UNL     1      -5.554   7.565  63.000  1.00  0.00     0.000 HD 
HETATM   37  C   UNL     1      -6.487   5.256  63.806  1.00  0.00    -0.026 C  
HETATM   38  H1  UNL     1      -5.266   5.722  62.196  1.00  0.00     0.000 HD 
HETATM   39  O   UNL     1      -6.852   2.872  64.156  1.00  0.00    -0.035 OA 
HETATM   40  H   UNL     1      -6.149   2.671  63.549  1.00  0.00     0.000 HD 
HETATM   41  H2  UNL     1      -5.479   4.061  62.421  1.00  0.00     0.000 HD 
HETATM   42  C   UNL     1      -6.295   6.586  64.555  1.00  0.00    -0.038 C  
HETATM   43  N   UNL     1      -5.369   4.967  62.875  1.00  0.00    -0.013 NA 
HETATM   44  O   UNL     1      -6.233   7.696  63.651  1.00  0.00    -0.053 OA 
BRANCH  34  45
HETATM   45  C   UNL     1      -7.915   3.325  66.856  1.00  0.00    -0.080 C  
HETATM   46  O   UNL     1      -7.691   3.830  68.171  1.00  0.00    -0.065 OA 
HETATM   47  H   UNL     1      -7.775   3.139  68.817  1.00  0.00     0.000 HD 
ENDBRANCH  34  45
ENDBRANCH  31  32
ENDBRANCH  25  31
ENDBRANCH  16  17
ENDBRANCH   7  16
ENDBRANCH   2   5
TORSDOF 6
ENDMDL
MODEL      306
REMARK 921   NORMALIZED FREE ENERGY PREDICTED BY IDOCK:    0.19 KCAL/MOL
REMARK 922        TOTAL FREE ENERGY PREDICTED BY IDOCK:   -0.79 KCAL/MOL
REMARK 923 INTER-LIGAND FREE ENERGY PREDICTED BY IDOCK:   -2.33 KCAL/MOL
REMARK 924 INTRA-LIGAND FREE ENERGY PREDICTED BY IDOCK:    1.53 KCAL/MOL
REMARK 927      BINDING AFFINITY PREDICTED BY RF-SCORE:    0.00 PKD
ROOT
HETATM    1  N   UNL     1      -6.686  20.480  66.744  1.00  0.00    -0.245 NA 
HETATM    2  C   UNL     1      -6.834  19.083  67.177  1.00  0.00    -0.198 C  
HETATM    3  H2  UNL     1      -6.105  21.007  67.395  1.00  0.00     0.000 HD 
HETATM    4  H1  UNL     1      -6.331  20.553  65.791  1.00  0.00     0.000 HD 
ENDROOT
BRANCH   2   5
HETATM    5  C   UNL     1      -7.373  18.972  68.626  1.00  0.00    -0.318 C  
HETATM    6  O   UNL     1      -7.567  17.608  69.034  1.00  0.00    -0.245 OA 
HETATM    7  C   UNL     1      -6.375  16.857  69.207  1.00  0.00    -0.223 C  
HETATM    8  C   UNL     1      -5.498  17.501  70.329  1.00  0.00    -0.248 C  
HETATM    9  C   UNL     1      -6.503  19.742  69.639  1.00  0.00    -0.354 C  
HETATM   10  N   UNL     1      -6.127  17.416  71.666  1.00  0.00     1.749 NA 
HETATM   11  C   UNL     1      -5.220  18.976  69.984  1.00  0.00    -0.213 C  
HETATM   12  H   UNL     1      -6.745  20.428  71.450  1.00  0.00     0.000 HD 
HETATM   13  H1  UNL     1      -5.555  17.837  72.398  1.00  0.00     0.000 HD 
HETATM   14  H2  UNL     1      -6.366  16.452  71.896  1.00  0.00     0.000 HD 
HETATM   15  O   UNL     1      -7.281  19.953  70.825  1.00  0.00     0.314 OA 
BRANCH   7  16
HETATM   16  O   UNL     1      -6.691  15.500  69.562  1.00  0.00    -0.156 OA 
BRANCH  16  17
HETATM   17  C   UNL     1      -7.092  14.614  68.476  1.00  0.00    -0.112 C  
HETATM   18  N   UNL     1      -8.885  16.115  67.631  1.00  0.00    -0.185 NA 
HETATM   19  C   UNL     1      -8.959  13.786  66.985  1.00  0.00    -0.247 C  
HETATM   20  H1  UNL     1      -9.869  16.206  67.380  1.00  0.00     0.000 HD 
HETATM   21  H2  UNL     1      -8.274  16.394  66.864  1.00  0.00     0.000 HD 
HETATM   22  C   UNL     1      -8.682  12.337  67.384  1.00  0.00    -0.180 C  
HETATM   23  C   UNL     1      -8.582  14.752  68.096  1.00  0.00    -0.159 C  
HETATM   24  N   UNL     1      -9.204  11.509  66.283  1.00  0.00    -0.207 NA 
HETATM   25  C   UNL     1      -7.168  12.101  67.680  1.00  0.00    -0.123 C  
HETATM   26  H   UNL     1      -4.899  12.243  68.796  1.00  0.00     0.000 HD 
HETATM   27  H1  UNL     1      -9.019  10.542  66.550  1.00  0.00     0.000 HD 
HETATM   28  C   UNL     1      -6.629  13.148  68.702  1.00  0.00    -0.092 C  
HETATM   29  H2  UNL     1      -8.825  11.760  65.369  1.00  0.00     0.000 HD 
HETATM   30  O   UNL     1      -5.183  13.139  68.658  1.00  0.00    -0.064 OA 
BRANCH  25  31
HETATM   31  O   UNL     1      -6.897  10.785  68.259  1.00  0.00    -0.066 OA 
BRANCH  31  32
HETATM   32  C   UNL     1      -5.882  10.022  67.595  1.00  0.00    -0.042 C  
HETATM   33  O   UNL     1      -5.920   8.633  67.944  1.00  0.00    -0.045 OA 
HETATM   34  C   UNL     1      -7.088   7.961  67.445  1.00  0.00    -0.083 C  
HETATM   35  C   UNL     1      -7.128   8.022  65.910  1.00  0.00    -0.057 C  
HETATM   36  H   UNL     1      -5.983  11.745  64.786  1.00  0.00     0.000 HD 
HETATM   37  C   UNL     1      -7.139   9.490  65.440  1.00  0.00    -0.095 C  
HETATM   38  H1  UNL     1      -7.150  10.532  63.648  1.00  0.00     0.000 HD 
HETATM   39  O   UNL     1      -8.254   7.324  65.370  1.00  0.00    -0.131 OA 
HETATM   40  H   UNL     1      -8.279   7.362  64.421  1.00  0.00     0.000 HD 
HETATM   41  H2  UNL     1      -7.913   9.028  63.556  1.00  0.00     0.000 HD 
HETATM   42  C   UNL     1      -5.938  10.226  66.058  1.00  0.00    -0.089 C  
HETATM   43  N   UNL     1      -7.143   9.561  63.959  1.00  0.00    -0.104 NA 
HETATM   44  O   UNL     1      -5.948  11.620  65.727  1.00  0.00     0.082 OA 
BRANCH  34  45
HETATM   45  C   UNL     1      -7.043   6.500  67.914  1.00  0.00    -0.085 C  
HETATM   46  O   UNL     1      -8.173   5.776  67.429  1.00  0.00    -0.102 OA 
HETATM   47  H   UNL     1      -8.145   4.872  67.719  1.00  0.00     0.000 HD 
ENDBRANCH  34  45
ENDBRANCH  31  32
ENDBRANCH  25  31
ENDBRANCH  16  17
ENDBRANCH   7  16
ENDBRANCH   2   5
TORSDOF 6
ENDMDL
MODEL      307
REMARK 921   NORMALIZED FREE ENERGY PREDICTED BY IDOCK:    0.49 KCAL/MOL
REMARK 922        TOTAL FREE ENERGY PREDICTED BY IDOCK:   -0.39 KCAL/MOL
REMARK 923 INTER-LIGAND FREE ENERGY PREDICTED BY IDOCK:   -2.40 KCAL/MOL
REMARK 924 INTRA-LIGAND FREE ENERGY PREDICTED BY IDOCK:    2.00 KCAL/MOL
REMARK 927      BINDING AFFINITY PREDICTED BY RF-SCORE:    0.00 PKD
ROOT
HETATM    1  N   UNL     1      -9.331  11.372  64.498  1.00  0.00    -0.397 NA 
HETATM    2  C   UNL     1      -8.353  11.212  65.585  1.00  0.00     0.002 C  
HETATM    3  H2  UNL     1      -9.372  12.340  64.179  1.00  0.00     0.000 HD 
HETATM    4  H1  UNL     1      -9.153  10.736  63.722  1.00  0.00     0.000 HD 
ENDROOT
BRANCH   2   5
HETATM    5  C   UNL     1      -8.623  12.180  66.765  1.00  0.00    -0.163 C  
HETATM    6  O   UNL     1      -8.856  11.484  67.999  1.00  0.00    -0.146 OA 
HETATM    7  C   UNL     1      -7.723  10.823  68.540  1.00  0.00    -0.118 C  
HETATM    8  C   UNL     1      -6.602  11.865  68.860  1.00  0.00    -0.087 C  
HETATM    9  C   UNL     1      -7.518  13.243  66.920  1.00  0.00     0.437 C  
HETATM   10  N   UNL     1      -6.978  12.794  69.947  1.00  0.00    -0.217 NA 
HETATM   11  C   UNL     1      -6.265  12.666  67.589  1.00  0.00    -0.148 C  
HETATM   12  H   UNL     1      -7.361  14.975  67.804  1.00  0.00     0.000 HD 
HETATM   13  H1  UNL     1      -6.246  13.474  70.156  1.00  0.00     0.000 HD 
HETATM   14  H2  UNL     1      -7.254  12.284  70.786  1.00  0.00     0.000 HD 
HETATM   15  O   UNL     1      -8.043  14.320  67.708  1.00  0.00    -0.143 OA 
BRANCH   7  16
HETATM   16  O   UNL     1      -8.085  10.120  69.741  1.00  0.00    -0.168 OA 
BRANCH  16  17
HETATM   17  C   UNL     1      -9.212   9.201  69.649  1.00  0.00    -0.168 C  
HETATM   18  N   UNL     1     -10.441  10.181  71.574  1.00  0.00     0.467 NA 
HETATM   19  C   UNL     1     -11.041   7.949  70.866  1.00  0.00    -0.268 C  
HETATM   20  H1  UNL     1     -10.893  10.007  72.472  1.00  0.00     0.000 HD 
HETATM   21  H2  UNL     1     -11.070  10.648  70.921  1.00  0.00     0.000 HD 
HETATM   22  C   UNL     1     -10.563   6.617  70.286  1.00  0.00    -0.222 C  
HETATM   23  C   UNL     1      -9.895   8.938  71.007  1.00  0.00    -0.253 C  
HETATM   24  N   UNL     1     -11.732   5.721  70.320  1.00  0.00     0.351 NA 
HETATM   25  C   UNL     1      -9.955   6.796  68.860  1.00  0.00    -0.155 C  
HETATM   26  H   UNL     1      -8.395   7.515  66.999  1.00  0.00     0.000 HD 
HETATM   27  H1  UNL     1     -11.413   4.833  69.934  1.00  0.00     0.000 HD 
HETATM   28  C   UNL     1      -8.865   7.912  68.854  1.00  0.00    -0.142 C  
HETATM   29  H2  UNL     1     -12.552   6.102  69.847  1.00  0.00     0.000 HD 
HETATM   30  O   UNL     1      -8.607   8.303  67.485  1.00  0.00    -0.128 OA 
BRANCH  25  31
HETATM   31  O   UNL     1      -9.306   5.585  68.360  1.00  0.00    -0.108 OA 
BRANCH  31  32
HETATM   32  C   UNL     1      -8.919   4.639  69.365  1.00  0.00    -0.096 C  
HETATM   33  O   UNL     1      -8.776   3.311  68.846  1.00  0.00    -0.081 OA 
HETATM   34  C   UNL     1      -7.662   3.176  67.949  1.00  0.00    -0.063 C  
HETATM   35  C   UNL     1      -6.346   3.500  68.673  1.00  0.00    -0.033 C  
HETATM   36  H   UNL     1      -6.994   6.731  71.036  1.00  0.00     0.000 HD 
HETATM   37  C   UNL     1      -6.389   4.938  69.227  1.00  0.00    -0.031 C  
HETATM   38  H1  UNL     1      -5.166   6.202  70.325  1.00  0.00     0.000 HD 
HETATM   39  O   UNL     1      -5.206   3.333  67.826  1.00  0.00    -0.011 OA 
HETATM   40  H   UNL     1      -4.393   3.534  68.273  1.00  0.00     0.000 HD 
HETATM   41  H2  UNL     1      -4.311   5.090  69.383  1.00  0.00     0.000 HD 
HETATM   42  C   UNL     1      -7.638   5.102  70.109  1.00  0.00    -0.070 C  
HETATM   43  N   UNL     1      -5.137   5.250  69.959  1.00  0.00    -0.004 NA 
HETATM   44  O   UNL     1      -7.778   6.448  70.580  1.00  0.00    -0.100 OA 
BRANCH  34  45
HETATM   45  C   UNL     1      -7.635   1.733  67.426  1.00  0.00    -0.059 C  
HETATM   46  O   UNL     1      -8.203   1.657  66.118  1.00  0.00    -0.077 OA 
HETATM   47  H   UNL     1      -8.186   0.764  65.795  1.00  0.00     0.000 HD 
ENDBRANCH  34  45
ENDBRANCH  31  32
ENDBRANCH  25  31
ENDBRANCH  16  17
ENDBRANCH   7  16
ENDBRANCH   2   5
TORSDOF 6
ENDMDL
MODEL      308
REMARK 921   NORMALIZED FREE ENERGY PREDICTED BY IDOCK:    0.50 KCAL/MOL
REMARK 922        TOTAL FREE ENERGY PREDICTED BY IDOCK:   -0.38 KCAL/MOL
REMARK 923 INTER-LIGAND FREE ENERGY PREDICTED BY IDOCK:   -2.95 KCAL/MOL
REMARK 924 INTRA-LIGAND FREE ENERGY PREDICTED BY IDOCK:    2.57 KCAL/MOL
REMARK 927      BINDING AFFINITY PREDICTED BY RF-SCORE:    0.00 PKD
ROOT
HETATM    1  N   UNL     1     -11.525  13.772  69.678  1.00  0.00    -0.376 NA 
HETATM    2  C   UNL     1     -11.187  15.150  69.295  1.00  0.00    -0.278 C  
HETATM    3  H2  UNL     1     -10.692  13.185  69.716  1.00  0.00     0.000 HD 
HETATM    4  H1  UNL     1     -12.044  13.731  70.554  1.00  0.00     0.000 HD 
ENDROOT
BRANCH   2   5
HETATM    5  C   UNL     1     -10.397  15.212  67.963  1.00  0.00    -0.240 C  
HETATM    6  O   UNL     1      -8.985  15.039  68.157  1.00  0.00    -0.166 OA 
HETATM    7  C   UNL     1      -8.588  13.739  68.563  1.00  0.00    -0.122 C  
HETATM    8  C   UNL     1      -8.983  12.695  67.468  1.00  0.00    -0.187 C  
HETATM    9  C   UNL     1     -10.943  14.229  66.908  1.00  0.00    -0.304 C  
HETATM   10  N   UNL     1      -8.234  12.879  66.206  1.00  0.00    -0.012 NA 
HETATM   11  C   UNL     1     -10.495  12.790  67.188  1.00  0.00    -0.240 C  
HETATM   12  H   UNL     1     -10.806  14.042  64.971  1.00  0.00     0.000 HD 
HETATM   13  H1  UNL     1      -8.492  12.198  65.491  1.00  0.00     0.000 HD 
HETATM   14  H2  UNL     1      -7.228  12.870  66.374  1.00  0.00     0.000 HD 
HETATM   15  O   UNL     1     -10.470  14.648  65.622  1.00  0.00    -0.303 OA 
BRANCH   7  16
HETATM   16  O   UNL     1      -7.167  13.697  68.776  1.00  0.00    -0.100 OA 
BRANCH  16  17
HETATM   17  C   UNL     1      -6.524  12.394  68.667  1.00  0.00    -0.077 C  
HETATM   18  N   UNL     1      -5.154  12.999  66.684  1.00  0.00     0.269 NA 
HETATM   19  C   UNL     1      -5.490  10.651  67.154  1.00  0.00    -0.042 C  
HETATM   20  H1  UNL     1      -4.889  12.760  65.729  1.00  0.00     0.000 HD 
HETATM   21  H2  UNL     1      -4.338  13.089  67.289  1.00  0.00     0.000 HD 
HETATM   22  C   UNL     1      -6.434   9.575  67.690  1.00  0.00    -0.062 C  
HETATM   23  C   UNL     1      -6.124  12.031  67.222  1.00  0.00    -0.147 C  
HETATM   24  N   UNL     1      -5.755   8.290  67.452  1.00  0.00    -0.038 NA 
HETATM   25  C   UNL     1      -6.798   9.822  69.188  1.00  0.00    -0.054 C  
HETATM   26  H   UNL     1      -7.760  10.897  71.269  1.00  0.00     0.000 HD 
HETATM   27  H1  UNL     1      -6.385   7.572  67.810  1.00  0.00     0.000 HD 
HETATM   28  C   UNL     1      -7.316  11.277  69.404  1.00  0.00    -0.025 C  
HETATM   29  H2  UNL     1      -4.816   8.244  67.850  1.00  0.00     0.000 HD 
HETATM   30  O   UNL     1      -7.277  11.580  70.818  1.00  0.00     1.279 OA 
BRANCH  25  31
HETATM   31  O   UNL     1      -7.852   8.934  69.674  1.00  0.00    -0.084 OA 
BRANCH  31  32
HETATM   32  C   UNL     1      -8.121   7.794  68.847  1.00  0.00    -0.126 C  
HETATM   33  O   UNL     1      -7.374   6.637  69.245  1.00  0.00    -0.087 OA 
HETATM   34  C   UNL     1      -7.790   6.112  70.517  1.00  0.00    -0.106 C  
HETATM   35  C   UNL     1      -9.263   5.680  70.465  1.00  0.00    -0.150 C  
HETATM   36  H   UNL     1     -11.309   8.491  68.380  1.00  0.00     0.000 HD 
HETATM   37  C   UNL     1     -10.153   6.880  70.089  1.00  0.00    -0.182 C  
HETATM   38  H1  UNL     1     -12.163   7.262  69.753  1.00  0.00     0.000 HD 
HETATM   39  O   UNL     1      -9.704   5.108  71.700  1.00  0.00    -0.153 OA 
HETATM   40  H   UNL     1     -10.615   4.841  71.668  1.00  0.00     0.000 HD 
HETATM   41  H2  UNL     1     -11.891   6.014  70.859  1.00  0.00     0.000 HD 
HETATM   42  C   UNL     1      -9.641   7.496  68.775  1.00  0.00    -0.149 C  
HETATM   43  N   UNL     1     -11.574   6.467  70.002  1.00  0.00    -0.432 NA 
HETATM   44  O   UNL     1     -10.378   8.674  68.423  1.00  0.00    -0.203 OA 
BRANCH  34  45
HETATM   45  C   UNL     1      -6.898   4.910  70.857  1.00  0.00    -0.040 C  
HETATM   46  O   UNL     1      -5.692   5.337  71.491  1.00  0.00    -0.012 OA 
HETATM   47  H   UNL     1      -5.140   4.593  71.702  1.00  0.00     0.000 HD 
ENDBRANCH  34  45
ENDBRANCH  31  32
ENDBRANCH  25  31
ENDBRANCH  16  17
ENDBRANCH   7  16
ENDBRANCH   2   5
TORSDOF 6
ENDMDL
MODEL      309
REMARK 921   NORMALIZED FREE ENERGY PREDICTED BY IDOCK:    0.95 KCAL/MOL
REMARK 922        TOTAL FREE ENERGY PREDICTED BY IDOCK:    0.23 KCAL/MOL
REMARK 923 INTER-LIGAND FREE ENERGY PREDICTED BY IDOCK:    0.10 KCAL/MOL
REMARK 924 INTRA-LIGAND FREE ENERGY PREDICTED BY IDOCK:    0.13 KCAL/MOL
REMARK 927      BINDING AFFINITY PREDICTED BY RF-SCORE:    0.00 PKD
ROOT
HETATM    1  N   UNL     1     -12.803   6.895  69.230  1.00  0.00     2.490 NA 
HETATM    2  C   UNL     1     -11.879   6.084  70.036  1.00  0.00     0.465 C  
HETATM    3  H2  UNL     1     -12.674   6.719  68.234  1.00  0.00     0.000 HD 
HETATM    4  H1  UNL     1     -13.775   6.760  69.505  1.00  0.00     0.000 HD 
ENDROOT
BRANCH   2   5
HETATM    5  C   UNL     1     -10.401   6.289  69.617  1.00  0.00    -0.215 C  
HETATM    6  O   UNL     1      -9.966   7.646  69.795  1.00  0.00    -0.180 OA 
HETATM    7  C   UNL     1      -9.851   8.069  71.145  1.00  0.00    -0.166 C  
HETATM    8  C   UNL     1      -8.787   7.196  71.887  1.00  0.00    -0.123 C  
HETATM    9  C   UNL     1      -9.447   5.299  70.316  1.00  0.00    -0.168 C  
HETATM   10  N   UNL     1      -7.417   7.402  71.370  1.00  0.00    -0.079 NA 
HETATM   11  C   UNL     1      -9.166   5.709  71.766  1.00  0.00    -0.159 C  
HETATM   12  H   UNL     1      -7.635   4.649  70.002  1.00  0.00     0.000 HD 
HETATM   13  H1  UNL     1      -6.723   6.832  71.854  1.00  0.00     0.000 HD 
HETATM   14  H2  UNL     1      -7.161   8.389  71.393  1.00  0.00     0.000 HD 
HETATM   15  O   UNL     1      -8.223   5.259  69.572  1.00  0.00    -0.092 OA 
BRANCH   7  16
HETATM   16  O   UNL     1      -9.462   9.452  71.200  1.00  0.00    -0.242 OA 
BRANCH  16  17
HETATM   17  C   UNL     1      -9.978  10.321  70.149  1.00  0.00     0.006 C  
HETATM   18  N   UNL     1     -11.992  11.022  71.425  1.00  0.00    -0.096 NA 
HETATM   19  C   UNL     1     -12.007  11.329  69.027  1.00  0.00    -0.393 C  
HETATM   20  H1  UNL     1     -13.009  11.102  71.432  1.00  0.00     0.000 HD 
HETATM   21  H2  UNL     1     -11.543  11.917  71.621  1.00  0.00     0.000 HD 
HETATM   22  C   UNL     1     -11.562  10.796  67.665  1.00  0.00     0.000 C  
HETATM   23  C   UNL     1     -11.516  10.442  70.159  1.00  0.00    -0.319 C  
HETATM   24  N   UNL     1     -12.203  11.667  66.664  1.00  0.00     0.121 NA 
HETATM   25  C   UNL     1     -10.006  10.749  67.547  1.00  0.00    -0.174 C  
HETATM   26  H   UNL     1      -7.596  10.087  67.956  1.00  0.00     0.000 HD 
HETATM   27  H1  UNL     1     -11.906  11.311  65.755  1.00  0.00     0.000 HD 
HETATM   28  C   UNL     1      -9.378   9.989  68.755  1.00  0.00    -0.162 C  
HETATM   29  H2  UNL     1     -12.005  12.659  66.799  1.00  0.00     0.000 HD 
HETATM   30  O   UNL     1      -7.963  10.290  68.809  1.00  0.00    -0.099 OA 
BRANCH  25  31
HETATM   31  O   UNL     1      -9.546  10.058  66.342  1.00  0.00    -0.176 OA 
BRANCH  31  32
HETATM   32  C   UNL     1      -9.008  10.906  65.319  1.00  0.00    -0.186 C  
HETATM   33  O   UNL     1      -9.287  12.293  65.551  1.00  0.00    -0.097 OA 
HETATM   34  C   UNL     1      -8.590  12.822  66.691  1.00  0.00    -0.006 C  
HETATM   35  C   UNL     1      -7.070  12.714  66.490  1.00  0.00     1.029 C  
HETATM   36  H   UNL     1      -6.294   9.104  64.816  1.00  0.00     0.000 HD 
HETATM   37  C   UNL     1      -6.669  11.241  66.280  1.00  0.00    -0.011 C  
HETATM   38  H1  UNL     1      -4.943  10.153  65.912  1.00  0.00     0.000 HD 
HETATM   39  O   UNL     1      -6.338  13.273  67.584  1.00  0.00    -0.147 OA 
HETATM   40  H   UNL     1      -5.399  13.205  67.460  1.00  0.00     0.000 HD 
HETATM   41  H2  UNL     1      -4.672  11.564  66.800  1.00  0.00     0.000 HD 
HETATM   42  C   UNL     1      -7.490  10.654  65.120  1.00  0.00     0.041 C  
HETATM   43  N   UNL     1      -5.208  11.128  66.051  1.00  0.00    -0.157 NA 
HETATM   44  O   UNL     1      -7.223   9.258  64.938  1.00  0.00    -0.098 OA 
BRANCH  34  45
HETATM   45  C   UNL     1      -8.996  14.293  66.865  1.00  0.00    -0.236 C  
HETATM   46  O   UNL     1     -10.408  14.447  66.726  1.00  0.00    -0.268 OA 
HETATM   47  H   UNL     1     -10.660  15.357  66.834  1.00  0.00     0.000 HD 
ENDBRANCH  34  45
ENDBRANCH  31  32
ENDBRANCH  25  31
ENDBRANCH  16  17
ENDBRANCH   7  16
ENDBRANCH   2   5
TORSDOF 6
ENDMDL
MODEL      310
REMARK 921   NORMALIZED FREE ENERGY PREDICTED BY IDOCK:    2.09 KCAL/MOL
REMARK 922        TOTAL FREE ENERGY PREDICTED BY IDOCK:    1.77 KCAL/MOL
REMARK 923 INTER-LIGAND FREE ENERGY PREDICTED BY IDOCK:   -3.37 KCAL/MOL
REMARK 924 INTRA-LIGAND FREE ENERGY PREDICTED BY IDOCK:    5.14 KCAL/MOL
REMARK 927      BINDING AFFINITY PREDICTED BY RF-SCORE:    0.00 PKD
ROOT
HETATM    1  N   UNL     1      -9.611  11.192  62.330  1.00  0.00    -0.564 NA 
HETATM    2  C   UNL     1      -9.178  12.221  63.287  1.00  0.00     0.940 C  
HETATM    3  H2  UNL     1     -10.606  11.277  62.124  1.00  0.00     0.000 HD 
HETATM    4  H1  UNL     1      -9.056  11.201  61.475  1.00  0.00     0.000 HD 
ENDROOT
BRANCH   2   5
HETATM    5  C   UNL     1     -10.022  12.207  64.586  1.00  0.00    -0.202 C  
HETATM    6  O   UNL     1     -10.462  13.520  64.966  1.00  0.00    -0.335 OA 
HETATM    7  C   UNL     1     -11.430  14.102  64.106  1.00  0.00    -0.173 C  
HETATM    8  C   UNL     1     -12.723  13.224  64.090  1.00  0.00    -0.035 C  
HETATM    9  C   UNL     1     -11.203  11.219  64.511  1.00  0.00    -0.106 C  
HETATM   10  N   UNL     1     -13.421  13.209  65.394  1.00  0.00    -0.201 NA 
HETATM   11  C   UNL     1     -12.363  11.783  63.681  1.00  0.00    -0.488 C  
HETATM   12  H   UNL     1     -12.372  10.340  65.802  1.00  0.00     0.000 HD 
HETATM   13  H1  UNL     1     -14.265  12.636  65.383  1.00  0.00     0.000 HD 
HETATM   14  H2  UNL     1     -13.626  14.156  65.709  1.00  0.00     0.000 HD 
HETATM   15  O   UNL     1     -11.644  10.949  65.848  1.00  0.00     0.178 OA 
BRANCH   7  16
HETATM   16  O   UNL     1     -11.755  15.430  64.552  1.00  0.00    -0.393 OA 
BRANCH  16  17
HETATM   17  C   UNL     1     -10.915  15.993  65.601  1.00  0.00    -0.171 C  
HETATM   18  N   UNL     1     -11.135  18.339  64.809  1.00  0.00    -0.170 NA 
HETATM   19  C   UNL     1      -9.292  17.809  66.282  1.00  0.00    -0.219 C  
HETATM   20  H1  UNL     1     -10.649  19.188  64.523  1.00  0.00     0.000 HD 
HETATM   21  H2  UNL     1     -11.795  18.521  65.565  1.00  0.00     0.000 HD 
HETATM   22  C   UNL     1      -8.258  16.770  66.717  1.00  0.00    -0.235 C  
HETATM   23  C   UNL     1     -10.179  17.279  65.168  1.00  0.00     0.544 C  
HETATM   24  N   UNL     1      -7.394  17.449  67.699  1.00  0.00    -0.173 NA 
HETATM   25  C   UNL     1      -8.938  15.478  67.270  1.00  0.00    -0.201 C  
HETATM   26  H   UNL     1     -10.287  13.338  67.359  1.00  0.00     0.000 HD 
HETATM   27  H1  UNL     1      -6.704  16.755  67.988  1.00  0.00     0.000 HD 
HETATM   28  C   UNL     1      -9.995  14.930  66.263  1.00  0.00    -0.282 C  
HETATM   29  H2  UNL     1      -7.908  17.863  68.477  1.00  0.00     0.000 HD 
HETATM   30  O   UNL     1     -10.850  13.988  66.954  1.00  0.00    -0.286 OA 
BRANCH  25  31
HETATM   31  O   UNL     1      -7.990  14.390  67.504  1.00  0.00    -0.164 OA 
BRANCH  31  32
HETATM   32  C   UNL     1      -7.968  13.875  68.841  1.00  0.00     0.006 C  
HETATM   33  O   UNL     1      -9.063  14.355  69.634  1.00  0.00     0.328 OA 
HETATM   34  C   UNL     1     -10.334  13.843  69.201  1.00  0.00    -0.008 C  
HETATM   35  C   UNL     1     -10.362  12.310  69.308  1.00  0.00     0.278 C  
HETATM   36  H   UNL     1      -6.782  10.911  68.017  1.00  0.00     0.000 HD 
HETATM   37  C   UNL     1      -9.242  11.701  68.443  1.00  0.00    -0.182 C  
HETATM   38  H1  UNL     1      -8.495   9.819  67.993  1.00  0.00     0.000 HD 
HETATM   39  O   UNL     1     -11.629  11.764  68.930  1.00  0.00    -0.256 OA 
HETATM   40  H   UNL     1     -11.645  10.817  68.995  1.00  0.00     0.000 HD 
HETATM   41  H2  UNL     1     -10.147   9.821  68.345  1.00  0.00     0.000 HD 
HETATM   42  C   UNL     1      -7.895  12.325  68.847  1.00  0.00     0.091 C  
HETATM   43  N   UNL     1      -9.237  10.223  68.566  1.00  0.00    -0.139 NA 
HETATM   44  O   UNL     1      -6.827  11.860  68.013  1.00  0.00    -0.064 OA 
BRANCH  34  45
HETATM   45  C   UNL     1     -11.427  14.455  70.089  1.00  0.00    -0.220 C  
HETATM   46  O   UNL     1     -11.970  13.473  70.973  1.00  0.00    -0.464 OA 
HETATM   47  H   UNL     1     -12.646  13.852  71.522  1.00  0.00     0.000 HD 
ENDBRANCH  34  45
ENDBRANCH  31  32
ENDBRANCH  25  31
ENDBRANCH  16  17
ENDBRANCH   7  16
ENDBRANCH   2   5
TORSDOF 6
ENDMDL
MODEL      311
REMARK 921   NORMALIZED FREE ENERGY PREDICTED BY IDOCK:    2.30 KCAL/MOL
REMARK 922        TOTAL FREE ENERGY PREDICTED BY IDOCK:    2.05 KCAL/MOL
REMARK 923 INTER-LIGAND FREE ENERGY PREDICTED BY IDOCK:   -1.33 KCAL/MOL
REMARK 924 INTRA-LIGAND FREE ENERGY PREDICTED BY IDOCK:    3.38 KCAL/MOL
REMARK 927      BINDING AFFINITY PREDICTED BY RF-SCORE:    0.00 PKD
ROOT
HETATM    1  N   UNL     1      -9.831  11.232  69.537  1.00  0.00    -0.370 NA 
HETATM    2  C   UNL     1     -10.416  10.612  68.338  1.00  0.00    -0.188 C  
HETATM    3  H2  UNL     1      -9.334  12.091  69.302  1.00  0.00     0.000 HD 
HETATM    4  H1  UNL     1     -10.526  11.396  70.264  1.00  0.00     0.000 HD 
ENDROOT
BRANCH   2   5
HETATM    5  C   UNL     1      -9.360  10.364  67.232  1.00  0.00    -0.146 C  
HETATM    6  O   UNL     1      -9.212  11.491  66.354  1.00  0.00    -0.196 OA 
HETATM    7  C   UNL     1      -8.618  12.637  66.942  1.00  0.00    -0.151 C  
HETATM    8  C   UNL     1      -7.169  12.298  67.423  1.00  0.00    -0.147 C  
HETATM    9  C   UNL     1      -8.000   9.917  67.805  1.00  0.00    -0.105 C  
HETATM   10  N   UNL     1      -6.250  12.000  66.303  1.00  0.00    -0.380 NA 
HETATM   11  C   UNL     1      -7.214  11.098  68.387  1.00  0.00    -0.083 C  
HETATM   12  H   UNL     1      -6.412   9.028  67.101  1.00  0.00     0.000 HD 
HETATM   13  H1  UNL     1      -5.304  11.779  66.617  1.00  0.00     0.000 HD 
HETATM   14  H2  UNL     1      -6.241  12.761  65.625  1.00  0.00     0.000 HD 
HETATM   15  O   UNL     1      -7.251   9.303  66.748  1.00  0.00    -0.082 OA 
BRANCH   7  16
HETATM   16  O   UNL     1      -8.570  13.714  65.991  1.00  0.00     0.547 OA 
BRANCH  16  17
HETATM   17  C   UNL     1      -9.562  14.771  66.146  1.00  0.00    -0.309 C  
HETATM   18  N   UNL     1      -7.964  16.625  65.712  1.00  0.00    -0.053 NA 
HETATM   19  C   UNL     1     -10.039  17.157  66.834  1.00  0.00    -0.298 C  
HETATM   20  H1  UNL     1      -7.568  17.502  66.049  1.00  0.00     0.000 HD 
HETATM   21  H2  UNL     1      -8.350  16.723  64.773  1.00  0.00     0.000 HD 
HETATM   22  C   UNL     1     -11.123  16.696  67.809  1.00  0.00    -0.157 C  
HETATM   23  C   UNL     1      -8.963  16.098  66.656  1.00  0.00    -0.255 C  
HETATM   24  N   UNL     1     -12.023  17.849  67.984  1.00  0.00     1.540 NA 
HETATM   25  C   UNL     1     -11.846  15.410  67.299  1.00  0.00     0.142 C  
HETATM   26  H   UNL     1     -12.248  13.008  66.606  1.00  0.00     0.000 HD 
HETATM   27  H1  UNL     1     -12.745  17.541  68.635  1.00  0.00     0.000 HD 
HETATM   28  C   UNL     1     -10.816  14.298  66.932  1.00  0.00    -0.298 C  
HETATM   29  H2  UNL     1     -12.392  18.216  67.106  1.00  0.00     0.000 HD 
HETATM   30  O   UNL     1     -11.480  13.297  66.126  1.00  0.00    -0.309 OA 
BRANCH  25  31
HETATM   31  O   UNL     1     -12.744  14.827  68.295  1.00  0.00     0.364 OA 
BRANCH  31  32
HETATM   32  C   UNL     1     -12.097  14.133  69.369  1.00  0.00    -0.328 C  
HETATM   33  O   UNL     1     -10.741  14.557  69.561  1.00  0.00    -0.223 OA 
HETATM   34  C   UNL     1     -10.639  15.904  70.052  1.00  0.00    -0.316 C  
HETATM   35  C   UNL     1     -11.330  16.033  71.418  1.00  0.00    -0.304 C  
HETATM   36  H   UNL     1     -14.785  13.916  71.266  1.00  0.00     0.000 HD 
HETATM   37  C   UNL     1     -12.815  15.640  71.297  1.00  0.00    -0.487 C  
HETATM   38  H1  UNL     1     -14.468  15.468  72.538  1.00  0.00     0.000 HD 
HETATM   39  O   UNL     1     -11.211  17.350  71.963  1.00  0.00     0.275 OA 
HETATM   40  H   UNL     1     -11.639  17.429  72.807  1.00  0.00     0.000 HD 
HETATM   41  H2  UNL     1     -13.369  16.647  73.042  1.00  0.00     0.000 HD 
HETATM   42  C   UNL     1     -12.918  14.235  70.681  1.00  0.00    -0.257 C  
HETATM   43  N   UNL     1     -13.484  15.727  72.618  1.00  0.00    -0.532 NA 
HETATM   44  O   UNL     1     -14.282  13.853  70.462  1.00  0.00     0.949 OA 
BRANCH  34  45
HETATM   45  C   UNL     1      -9.151  16.261  70.176  1.00  0.00     1.206 C  
HETATM   46  O   UNL     1      -8.332  15.130  69.882  1.00  0.00    -0.386 OA 
HETATM   47  H   UNL     1      -7.412  15.350  69.959  1.00  0.00     0.000 HD 
ENDBRANCH  34  45
ENDBRANCH  31  32
ENDBRANCH  25  31
ENDBRANCH  16  17
ENDBRANCH   7  16
ENDBRANCH   2   5
TORSDOF 6
ENDMDL
MODEL      312
REMARK 921   NORMALIZED FREE ENERGY PREDICTED BY IDOCK:    2.47 KCAL/MOL
REMARK 922        TOTAL FREE ENERGY PREDICTED BY IDOCK:    2.28 KCAL/MOL
REMARK 923 INTER-LIGAND FREE ENERGY PREDICTED BY IDOCK:   -4.12 KCAL/MOL
REMARK 924 INTRA-LIGAND FREE ENERGY PREDICTED BY IDOCK:    6.40 KCAL/MOL
REMARK 927      BINDING AFFINITY PREDICTED BY RF-SCORE:    0.00 PKD
ROOT
HETATM    1  N   UNL     1     -11.717  13.881  69.802  1.00  0.00    -0.298 NA 
HETATM    2  C   UNL     1     -11.238  15.188  69.330  1.00  0.00    -0.283 C  
HETATM    3  H2  UNL     1     -10.939  13.272  70.054  1.00  0.00     0.000 HD 
HETATM    4  H1  UNL     1     -12.381  13.968  70.571  1.00  0.00     0.000 HD 
ENDROOT
BRANCH   2   5
HETATM    5  C   UNL     1     -10.229  15.056  68.161  1.00  0.00    -0.221 C  
HETATM    6  O   UNL     1      -8.906  14.732  68.616  1.00  0.00    -0.171 OA 
HETATM    7  C   UNL     1      -8.757  13.428  69.155  1.00  0.00     0.596 C  
HETATM    8  C   UNL     1      -9.090  12.360  68.063  1.00  0.00    -0.195 C  
HETATM    9  C   UNL     1     -10.707  14.068  67.079  1.00  0.00    -0.284 C  
HETATM   10  N   UNL     1      -8.116  12.358  66.949  1.00  0.00    -0.354 NA 
HETATM   11  C   UNL     1     -10.505  12.611  67.510  1.00  0.00    -0.229 C  
HETATM   12  H   UNL     1     -10.264  13.722  65.211  1.00  0.00     0.000 HD 
HETATM   13  H1  UNL     1      -8.333  11.661  66.237  1.00  0.00     0.000 HD 
HETATM   14  H2  UNL     1      -7.164  12.243  67.296  1.00  0.00     0.000 HD 
HETATM   15  O   UNL     1      -9.970  14.331  65.878  1.00  0.00    -0.299 OA 
BRANCH   7  16
HETATM   16  O   UNL     1      -7.412  13.235  69.623  1.00  0.00     0.395 OA 
BRANCH  16  17
HETATM   17  C   UNL     1      -6.647  12.163  68.999  1.00  0.00    -0.100 C  
HETATM   18  N   UNL     1      -5.352  13.670  67.506  1.00  0.00    -0.341 NA 
HETATM   19  C   UNL     1      -5.457  11.324  66.932  1.00  0.00    -0.098 C  
HETATM   20  H1  UNL     1      -5.069  13.881  66.550  1.00  0.00     0.000 HD 
HETATM   21  H2  UNL     1      -4.545  13.568  68.122  1.00  0.00     0.000 HD 
HETATM   22  C   UNL     1      -6.290  10.042  66.930  1.00  0.00    -0.065 C  
HETATM   23  C   UNL     1      -6.221  12.483  67.551  1.00  0.00    -0.155 C  
HETATM   24  N   UNL     1      -5.491   9.044  66.198  1.00  0.00    -0.040 NA 
HETATM   25  C   UNL     1      -6.668   9.599  68.379  1.00  0.00    -0.057 C  
HETATM   26  H   UNL     1      -7.720   9.603  70.682  1.00  0.00     0.000 HD 
HETATM   27  H1  UNL     1      -6.047   8.189  66.197  1.00  0.00     0.000 HD 
HETATM   28  C   UNL     1      -7.323  10.774  69.168  1.00  0.00    -0.115 C  
HETATM   29  H2  UNL     1      -4.550   8.919  66.574  1.00  0.00     0.000 HD 
HETATM   30  O   UNL     1      -7.307  10.453  70.578  1.00  0.00    -0.240 OA 
BRANCH  25  31
HETATM   31  O   UNL     1      -7.630   8.498  68.406  1.00  0.00    -0.093 OA 
BRANCH  31  32
HETATM   32  C   UNL     1      -8.835   8.720  67.664  1.00  0.00    -0.135 C  
HETATM   33  O   UNL     1      -8.903   7.924  66.474  1.00  0.00    -0.137 OA 
HETATM   34  C   UNL     1      -9.046   6.520  66.746  1.00  0.00    -0.144 C  
HETATM   35  C   UNL     1     -10.345   6.251  67.521  1.00  0.00    -0.200 C  
HETATM   36  H   UNL     1     -10.753   9.167  70.308  1.00  0.00     0.000 HD 
HETATM   37  C   UNL     1     -10.339   7.034  68.848  1.00  0.00    -0.190 C  
HETATM   38  H1  UNL     1     -11.600   7.328  70.468  1.00  0.00     0.000 HD 
HETATM   39  O   UNL     1     -10.547   4.858  67.772  1.00  0.00    -0.001 OA 
HETATM   40  H   UNL     1     -11.350   4.692  68.252  1.00  0.00     0.000 HD 
HETATM   41  H2  UNL     1     -11.787   5.817  69.735  1.00  0.00     0.000 HD 
HETATM   42  C   UNL     1     -10.090   8.523  68.555  1.00  0.00    -0.194 C  
HETATM   43  N   UNL     1     -11.604   6.810  69.589  1.00  0.00    -0.231 NA 
HETATM   44  O   UNL     1      -9.985   9.288  69.762  1.00  0.00    -0.180 OA 
BRANCH  34  45
HETATM   45  C   UNL     1      -9.064   5.768  65.407  1.00  0.00     0.027 C  
HETATM   46  O   UNL     1      -7.736   5.489  64.965  1.00  0.00    -0.084 OA 
HETATM   47  H   UNL     1      -7.747   5.024  64.137  1.00  0.00     0.000 HD 
ENDBRANCH  34  45
ENDBRANCH  31  32
ENDBRANCH  25  31
ENDBRANCH  16  17
ENDBRANCH   7  16
ENDBRANCH   2   5
TORSDOF 6
ENDMDL
MODEL      313
REMARK 921   NORMALIZED FREE ENERGY PREDICTED BY IDOCK:    2.62 KCAL/MOL
REMARK 922        TOTAL FREE ENERGY PREDICTED BY IDOCK:    2.48 KCAL/MOL
REMARK 923 INTER-LIGAND FREE ENERGY PREDICTED BY IDOCK:   -1.58 KCAL/MOL
REMARK 924 INTRA-LIGAND FREE ENERGY PREDICTED BY IDOCK:    4.06 KCAL/MOL
REMARK 927      BINDING AFFINITY PREDICTED BY RF-SCORE:    0.00 PKD
ROOT
HETATM    1  N   UNL     1     -11.097  10.810  66.978  1.00  0.00    -0.255 NA 
HETATM    2  C   UNL     1     -11.097   9.340  67.024  1.00  0.00     0.396 C  
HETATM    3  H2  UNL     1     -10.516  11.154  66.214  1.00  0.00     0.000 HD 
HETATM    4  H1  UNL     1     -12.039  11.195  66.926  1.00  0.00     0.000 HD 
ENDROOT
BRANCH   2   5
HETATM    5  C   UNL     1      -9.665   8.755  67.103  1.00  0.00    -0.191 C  
HETATM    6  O   UNL     1      -8.666   9.699  66.685  1.00  0.00    -0.132 OA 
HETATM    7  C   UNL     1      -8.478  10.802  67.556  1.00  0.00    -0.119 C  
HETATM    8  C   UNL     1      -8.005  10.299  68.959  1.00  0.00    -0.125 C  
HETATM    9  C   UNL     1      -9.340   8.176  68.494  1.00  0.00    -0.138 C  
HETATM   10  N   UNL     1      -6.659   9.687  68.923  1.00  0.00    -0.046 NA 
HETATM   11  C   UNL     1      -9.020   9.280  69.509  1.00  0.00    -0.154 C  
HETATM   12  H   UNL     1      -8.018   6.937  69.217  1.00  0.00     0.000 HD 
HETATM   13  H1  UNL     1      -6.350   9.358  69.838  1.00  0.00     0.000 HD 
HETATM   14  H2  UNL     1      -5.978  10.327  68.515  1.00  0.00     0.000 HD 
HETATM   15  O   UNL     1      -8.218   7.294  68.360  1.00  0.00    -0.123 OA 
BRANCH   7  16
HETATM   16  O   UNL     1      -7.497  11.703  67.012  1.00  0.00    -0.141 OA 
BRANCH  16  17
HETATM   17  C   UNL     1      -7.522  13.074  67.504  1.00  0.00    -0.156 C  
HETATM   18  N   UNL     1      -5.143  13.538  66.954  1.00  0.00     0.297 NA 
HETATM   19  C   UNL     1      -6.237  14.981  68.557  1.00  0.00    -0.094 C  
HETATM   20  H1  UNL     1      -4.238  13.859  67.298  1.00  0.00     0.000 HD 
HETATM   21  H2  UNL     1      -5.447  14.073  66.140  1.00  0.00     0.000 HD 
HETATM   22  C   UNL     1      -7.264  15.097  69.684  1.00  0.00    -0.194 C  
HETATM   23  C   UNL     1      -6.153  13.560  68.024  1.00  0.00    -0.133 C  
HETATM   24  N   UNL     1      -7.154  16.477  70.187  1.00  0.00     0.639 NA 
HETATM   25  C   UNL     1      -8.699  14.721  69.196  1.00  0.00    -0.085 C  
HETATM   26  H   UNL     1     -10.648  13.359  68.328  1.00  0.00     0.000 HD 
HETATM   27  H1  UNL     1      -7.839  16.554  70.939  1.00  0.00     0.000 HD 
HETATM   28  C   UNL     1      -8.700  13.334  68.484  1.00  0.00    -0.059 C  
HETATM   29  H2  UNL     1      -7.263  17.186  69.461  1.00  0.00     0.000 HD 
HETATM   30  O   UNL     1      -9.928  13.200  67.730  1.00  0.00    -0.216 OA 
BRANCH  25  31
HETATM   31  O   UNL     1      -9.666  14.624  70.288  1.00  0.00     0.495 OA 
BRANCH  31  32
HETATM   32  C   UNL     1     -10.877  15.367  70.099  1.00  0.00    -0.309 C  
HETATM   33  O   UNL     1     -10.731  16.427  69.146  1.00  0.00    -0.274 OA 
HETATM   34  C   UNL     1     -10.531  15.951  67.804  1.00  0.00    -0.287 C  
HETATM   35  C   UNL     1     -11.738  15.119  67.344  1.00  0.00    -0.175 C  
HETATM   36  H   UNL     1     -12.888  12.777  70.447  1.00  0.00     0.000 HD 
HETATM   37  C   UNL     1     -11.944  13.920  68.289  1.00  0.00    -0.357 C  
HETATM   38  H1  UNL     1     -13.263  12.334  68.500  1.00  0.00     0.000 HD 
HETATM   39  O   UNL     1     -11.598  14.664  65.995  1.00  0.00    -0.356 OA 
HETATM   40  H   UNL     1     -12.344  14.149  65.710  1.00  0.00     0.000 HD 
HETATM   41  H2  UNL     1     -13.065  12.836  66.899  1.00  0.00     0.000 HD 
HETATM   42  C   UNL     1     -12.060  14.431  69.735  1.00  0.00    -0.334 C  
HETATM   43  N   UNL     1     -13.127  13.128  67.874  1.00  0.00     1.958 NA 
HETATM   44  O   UNL     1     -12.164  13.350  70.670  1.00  0.00    -0.356 OA 
BRANCH  34  45
HETATM   45  C   UNL     1     -10.344  17.166  66.884  1.00  0.00    -0.308 C  
HETATM   46  O   UNL     1      -8.974  17.316  66.516  1.00  0.00    -0.248 OA 
HETATM   47  H   UNL     1      -8.858  18.068  65.946  1.00  0.00     0.000 HD 
ENDBRANCH  34  45
ENDBRANCH  31  32
ENDBRANCH  25  31
ENDBRANCH  16  17
ENDBRANCH   7  16
ENDBRANCH   2   5
TORSDOF 6
ENDMDL
MODEL      314
REMARK 921   NORMALIZED FREE ENERGY PREDICTED BY IDOCK:    3.06 KCAL/MOL
REMARK 922        TOTAL FREE ENERGY PREDICTED BY IDOCK:    3.07 KCAL/MOL
REMARK 923 INTER-LIGAND FREE ENERGY PREDICTED BY IDOCK:    2.82 KCAL/MOL
REMARK 924 INTRA-LIGAND FREE ENERGY PREDICTED BY IDOCK:    0.26 KCAL/MOL
REMARK 927      BINDING AFFINITY PREDICTED BY RF-SCORE:    0.00 PKD
ROOT
HETATM    1  N   UNL     1      -7.276   8.800  66.260  1.00  0.00    -0.085 NA 
HETATM    2  C   UNL     1      -7.445   7.802  65.194  1.00  0.00    -0.083 C  
HETATM    3  H2  UNL     1      -8.040   8.752  66.934  1.00  0.00     0.000 HD 
HETATM    4  H1  UNL     1      -6.371   8.721  66.723  1.00  0.00     0.000 HD 
ENDROOT
BRANCH   2   5
HETATM    5  C   UNL     1      -8.821   7.923  64.490  1.00  0.00     0.500 C  
HETATM    6  O   UNL     1      -9.641   8.951  65.067  1.00  0.00     0.086 OA 
HETATM    7  C   UNL     1      -9.188  10.277  64.846  1.00  0.00    -0.227 C  
HETATM    8  C   UNL     1      -9.164  10.583  63.313  1.00  0.00    -0.279 C  
HETATM    9  C   UNL     1      -8.689   8.101  62.965  1.00  0.00     0.324 C  
HETATM   10  N   UNL     1     -10.515  10.602  62.712  1.00  0.00    -0.674 NA 
HETATM   11  C   UNL     1      -8.295   9.535  62.592  1.00  0.00    -0.168 C  
HETATM   12  H   UNL     1      -9.868   7.878  61.426  1.00  0.00     0.000 HD 
HETATM   13  H1  UNL     1     -10.500  10.802  61.712  1.00  0.00     0.000 HD 
HETATM   14  H2  UNL     1     -11.125  11.254  63.206  1.00  0.00     0.000 HD 
HETATM   15  O   UNL     1      -9.948   7.768  62.367  1.00  0.00     3.148 OA 
BRANCH   7  16
HETATM   16  O   UNL     1     -10.052  11.215  65.510  1.00  0.00    -0.234 OA 
BRANCH  16  17
HETATM   17  C   UNL     1      -9.527  11.855  66.709  1.00  0.00    -0.201 C  
HETATM   18  N   UNL     1     -10.306  10.074  68.258  1.00  0.00    -0.183 NA 
HETATM   19  C   UNL     1      -9.769  12.236  69.198  1.00  0.00     0.430 C  
HETATM   20  H1  UNL     1     -10.839   9.852  69.099  1.00  0.00     0.000 HD 
HETATM   21  H2  UNL     1      -9.351   9.720  68.313  1.00  0.00     0.000 HD 
HETATM   22  C   UNL     1      -9.763  13.752  69.001  1.00  0.00     0.148 C  
HETATM   23  C   UNL     1     -10.333  11.519  67.982  1.00  0.00    -0.190 C  
HETATM   24  N   UNL     1      -9.317  14.322  70.285  1.00  0.00     0.996 NA 
HETATM   25  C   UNL     1      -8.875  14.172  67.788  1.00  0.00    -0.185 C  
HETATM   26  H   UNL     1      -8.044  14.434  65.411  1.00  0.00     0.000 HD 
HETATM   27  H1  UNL     1      -9.314  15.333  70.154  1.00  0.00     0.000 HD 
HETATM   28  C   UNL     1      -9.267  13.374  66.507  1.00  0.00    -0.169 C  
HETATM   29  H2  UNL     1      -8.424  13.949  70.608  1.00  0.00     0.000 HD 
HETATM   30  O   UNL     1      -8.203  13.505  65.535  1.00  0.00     2.373 OA 
BRANCH  25  31
HETATM   31  O   UNL     1      -9.007  15.588  67.447  1.00  0.00    -0.184 OA 
BRANCH  31  32
HETATM   32  C   UNL     1     -10.262  16.186  67.797  1.00  0.00    -0.267 C  
HETATM   33  O   UNL     1     -10.105  17.441  68.471  1.00  0.00    -0.309 OA 
HETATM   34  C   UNL     1      -9.577  18.473  67.620  1.00  0.00    -0.286 C  
HETATM   35  C   UNL     1     -10.524  18.732  66.439  1.00  0.00    -0.429 C  
HETATM   36  H   UNL     1     -11.864  15.144  65.110  1.00  0.00     0.000 HD 
HETATM   37  C   UNL     1     -10.715  17.440  65.622  1.00  0.00    -0.111 C  
HETATM   38  H1  UNL     1     -11.782  16.814  63.957  1.00  0.00     0.000 HD 
HETATM   39  O   UNL     1     -10.056  19.786  65.591  1.00  0.00    -0.388 OA 
HETATM   40  H   UNL     1     -10.642  19.946  64.861  1.00  0.00     0.000 HD 
HETATM   41  H2  UNL     1     -11.361  18.450  63.911  1.00  0.00     0.000 HD 
HETATM   42  C   UNL     1     -11.188  16.315  66.559  1.00  0.00     0.267 C  
HETATM   43  N   UNL     1     -11.656  17.670  64.498  1.00  0.00     0.444 NA 
HETATM   44  O   UNL     1     -11.297  15.065  65.868  1.00  0.00    -0.338 OA 
BRANCH  34  45
HETATM   45  C   UNL     1      -9.412  19.750  68.456  1.00  0.00    -0.312 C  
HETATM   46  O   UNL     1     -10.191  19.679  69.649  1.00  0.00    -0.595 OA 
HETATM   47  H   UNL     1     -10.089  20.469  70.167  1.00  0.00     0.000 HD 
ENDBRANCH  34  45
ENDBRANCH  31  32
ENDBRANCH  25  31
ENDBRANCH  16  17
ENDBRANCH   7  16
ENDBRANCH   2   5
TORSDOF 6
ENDMDL
MODEL      315
REMARK 921   NORMALIZED FREE ENERGY PREDICTED BY IDOCK:    3.24 KCAL/MOL
REMARK 922        TOTAL FREE ENERGY PREDICTED BY IDOCK:    3.32 KCAL/MOL
REMARK 923 INTER-LIGAND FREE ENERGY PREDICTED BY IDOCK:    1.03 KCAL/MOL
REMARK 924 INTRA-LIGAND FREE ENERGY PREDICTED BY IDOCK:    2.28 KCAL/MOL
REMARK 927      BINDING AFFINITY PREDICTED BY RF-SCORE:    0.00 PKD
ROOT
HETATM    1  N   UNL     1     -11.444  15.307  65.152  1.00  0.00    -0.303 NA 
HETATM    2  C   UNL     1     -11.345  14.134  66.033  1.00  0.00    -0.330 C  
HETATM    3  H2  UNL     1     -10.638  15.921  65.264  1.00  0.00     0.000 HD 
HETATM    4  H1  UNL     1     -11.575  15.046  64.175  1.00  0.00     0.000 HD 
ENDROOT
BRANCH   2   5
HETATM    5  C   UNL     1     -11.146  14.531  67.517  1.00  0.00    -0.307 C  
HETATM    6  O   UNL     1     -11.294  13.412  68.406  1.00  0.00    -0.257 OA 
HETATM    7  C   UNL     1     -10.268  12.436  68.322  1.00  0.00    -0.229 C  
HETATM    8  C   UNL     1      -8.891  13.078  68.694  1.00  0.00     0.061 C  
HETATM    9  C   UNL     1      -9.811  15.264  67.758  1.00  0.00    -0.220 C  
HETATM   10  N   UNL     1      -8.820  13.495  70.112  1.00  0.00     2.301 NA 
HETATM   11  C   UNL     1      -8.626  14.292  67.786  1.00  0.00    -0.177 C  
HETATM   12  H   UNL     1      -9.081  16.413  69.155  1.00  0.00     0.000 HD 
HETATM   13  H1  UNL     1      -7.921  13.913  70.355  1.00  0.00     0.000 HD 
HETATM   14  H2  UNL     1      -9.041  12.717  70.733  1.00  0.00     0.000 HD 
HETATM   15  O   UNL     1      -9.904  15.960  69.007  1.00  0.00    -0.207 OA 
BRANCH   7  16
HETATM   16  O   UNL     1     -10.547  11.344  69.214  1.00  0.00    -0.193 OA 
BRANCH  16  17
HETATM   17  C   UNL     1     -10.368   9.999  68.680  1.00  0.00    -0.190 C  
HETATM   18  N   UNL     1     -11.874  10.344  66.733  1.00  0.00     0.751 NA 
HETATM   19  C   UNL     1     -11.374   8.071  67.390  1.00  0.00     0.954 C  
HETATM   20  H1  UNL     1     -12.685  10.005  66.215  1.00  0.00     0.000 HD 
HETATM   21  H2  UNL     1     -11.056  10.438  66.131  1.00  0.00     0.000 HD 
HETATM   22  C   UNL     1     -11.082   7.105  68.538  1.00  0.00     0.058 C  
HETATM   23  C   UNL     1     -11.595   9.487  67.897  1.00  0.00     1.139 C  
HETATM   24  N   UNL     1     -11.015   5.765  67.928  1.00  0.00    -0.228 NA 
HETATM   25  C   UNL     1      -9.786   7.505  69.311  1.00  0.00    -0.163 C  
HETATM   26  H   UNL     1      -8.174   8.816  70.759  1.00  0.00     0.000 HD 
HETATM   27  H1  UNL     1     -10.820   5.120  68.695  1.00  0.00     0.000 HD 
HETATM   28  C   UNL     1      -9.836   9.001  69.746  1.00  0.00    -0.180 C  
HETATM   29  H2  UNL     1     -10.347   5.699  67.159  1.00  0.00     0.000 HD 
HETATM   30  O   UNL     1      -8.500   9.426  70.107  1.00  0.00    -0.165 OA 
BRANCH  25  31
HETATM   31  O   UNL     1      -9.587   6.727  70.533  1.00  0.00    -0.169 OA 
BRANCH  31  32
HETATM   32  C   UNL     1      -8.664   5.637  70.421  1.00  0.00    -0.133 C  
HETATM   33  O   UNL     1      -8.662   5.049  69.113  1.00  0.00    -0.091 OA 
HETATM   34  C   UNL     1      -8.124   5.923  68.106  1.00  0.00    -0.109 C  
HETATM   35  C   UNL     1      -6.662   6.274  68.425  1.00  0.00    -0.068 C  
HETATM   36  H   UNL     1      -6.388   6.948  72.413  1.00  0.00     0.000 HD 
HETATM   37  C   UNL     1      -6.572   6.959  69.802  1.00  0.00    -0.045 C  
HETATM   38  H1  UNL     1      -5.101   7.725  71.047  1.00  0.00     0.000 HD 
HETATM   39  O   UNL     1      -6.075   7.106  67.421  1.00  0.00    -0.034 OA 
HETATM   40  H   UNL     1      -5.171   7.323  67.618  1.00  0.00     0.000 HD 
HETATM   41  H2  UNL     1      -4.712   7.825  69.406  1.00  0.00     0.000 HD 
HETATM   42  C   UNL     1      -7.237   6.060  70.858  1.00  0.00    -0.074 C  
HETATM   43  N   UNL     1      -5.161   7.271  70.135  1.00  0.00    -0.022 NA 
HETATM   44  O   UNL     1      -7.262   6.689  72.146  1.00  0.00    -0.079 OA 
BRANCH  34  45
HETATM   45  C   UNL     1      -8.213   5.209  66.750  1.00  0.00    -0.108 C  
HETATM   46  O   UNL     1      -9.524   5.330  66.199  1.00  0.00    -0.151 OA 
HETATM   47  H   UNL     1      -9.579   4.888  65.360  1.00  0.00     0.000 HD 
ENDBRANCH  34  45
ENDBRANCH  31  32
ENDBRANCH  25  31
ENDBRANCH  16  17
ENDBRANCH   7  16
ENDBRANCH   2   5
TORSDOF 6
ENDMDL
MODEL      316
REMARK 921   NORMALIZED FREE ENERGY PREDICTED BY IDOCK:    3.32 KCAL/MOL
REMARK 922        TOTAL FREE ENERGY PREDICTED BY IDOCK:    3.43 KCAL/MOL
REMARK 923 INTER-LIGAND FREE ENERGY PREDICTED BY IDOCK:   -3.40 KCAL/MOL
REMARK 924 INTRA-LIGAND FREE ENERGY PREDICTED BY IDOCK:    6.82 KCAL/MOL
REMARK 927      BINDING AFFINITY PREDICTED BY RF-SCORE:    0.00 PKD
ROOT
HETATM    1  N   UNL     1      -8.069  10.776  64.760  1.00  0.00    -0.364 NA 
HETATM    2  C   UNL     1      -8.767  11.177  65.990  1.00  0.00    -0.183 C  
HETATM    3  H2  UNL     1      -8.690  10.264  64.134  1.00  0.00     0.000 HD 
HETATM    4  H1  UNL     1      -7.638  11.568  64.285  1.00  0.00     0.000 HD 
ENDROOT
BRANCH   2   5
HETATM    5  C   UNL     1      -9.422   9.972  66.712  1.00  0.00    -0.168 C  
HETATM    6  O   UNL     1      -8.452   9.015  67.167  1.00  0.00    -0.113 OA 
HETATM    7  C   UNL     1      -7.624   9.458  68.230  1.00  0.00    -0.082 C  
HETATM    8  C   UNL     1      -8.497   9.786  69.485  1.00  0.00    -0.170 C  
HETATM    9  C   UNL     1     -10.359  10.409  67.856  1.00  0.00    -0.190 C  
HETATM   10  N   UNL     1      -9.144   8.587  70.061  1.00  0.00    -0.145 NA 
HETATM   11  C   UNL     1      -9.573  10.821  69.107  1.00  0.00    -0.169 C  
HETATM   12  H   UNL     1     -11.806   9.580  68.869  1.00  0.00     0.000 HD 
HETATM   13  H1  UNL     1      -9.714   8.802  70.880  1.00  0.00     0.000 HD 
HETATM   14  H2  UNL     1      -8.454   7.867  70.274  1.00  0.00     0.000 HD 
HETATM   15  O   UNL     1     -11.229   9.312  68.163  1.00  0.00     0.026 OA 
BRANCH   7  16
HETATM   16  O   UNL     1      -6.662   8.443  68.565  1.00  0.00    -0.061 OA 
BRANCH  16  17
HETATM   17  C   UNL     1      -6.917   7.103  68.052  1.00  0.00    -0.079 C  
HETATM   18  N   UNL     1      -5.685   7.456  65.922  1.00  0.00    -0.035 NA 
HETATM   19  C   UNL     1      -7.269   5.632  66.025  1.00  0.00    -0.073 C  
HETATM   20  H1  UNL     1      -5.719   7.414  64.904  1.00  0.00     0.000 HD 
HETATM   21  H2  UNL     1      -4.907   6.911  66.295  1.00  0.00     0.000 HD 
HETATM   22  C   UNL     1      -8.596   5.118  66.586  1.00  0.00    -0.110 C  
HETATM   23  C   UNL     1      -6.968   7.041  66.511  1.00  0.00    -0.069 C  
HETATM   24  N   UNL     1      -8.824   3.812  65.944  1.00  0.00    -0.117 NA 
HETATM   25  C   UNL     1      -8.575   5.054  68.146  1.00  0.00    -0.102 C  
HETATM   26  H   UNL     1      -8.489   5.786  70.568  1.00  0.00     0.000 HD 
HETATM   27  H1  UNL     1      -9.709   3.470  66.318  1.00  0.00     0.000 HD 
HETATM   28  C   UNL     1      -8.121   6.416  68.754  1.00  0.00    -0.114 C  
HETATM   29  H2  UNL     1      -8.050   3.158  66.063  1.00  0.00     0.000 HD 
HETATM   30  O   UNL     1      -7.753   6.207  70.138  1.00  0.00    -0.093 OA 
BRANCH  25  31
HETATM   31  O   UNL     1      -9.887   4.762  68.722  1.00  0.00    -0.165 OA 
BRANCH  31  32
HETATM   32  C   UNL     1      -9.891   3.784  69.770  1.00  0.00     0.007 C  
HETATM   33  O   UNL     1      -8.992   2.697  69.511  1.00  0.00    -0.084 OA 
HETATM   34  C   UNL     1      -7.610   3.089  69.555  1.00  0.00    -0.044 C  
HETATM   35  C   UNL     1      -7.249   3.627  70.948  1.00  0.00    -0.033 C  
HETATM   36  H   UNL     1     -10.320   5.949  72.218  1.00  0.00     0.000 HD 
HETATM   37  C   UNL     1      -8.137   4.837  71.294  1.00  0.00    -0.101 C  
HETATM   38  H1  UNL     1      -8.409   6.145  72.880  1.00  0.00     0.000 HD 
HETATM   39  O   UNL     1      -5.867   3.986  71.048  1.00  0.00    -0.012 OA 
HETATM   40  H   UNL     1      -5.644   4.319  71.909  1.00  0.00     0.000 HD 
HETATM   41  H2  UNL     1      -6.829   5.560  72.754  1.00  0.00     0.000 HD 
HETATM   42  C   UNL     1      -9.615   4.436  71.150  1.00  0.00    -0.175 C  
HETATM   43  N   UNL     1      -7.821   5.344  72.651  1.00  0.00    -0.101 NA 
HETATM   44  O   UNL     1     -10.488   5.550  71.373  1.00  0.00    -0.226 OA 
BRANCH  34  45
HETATM   45  C   UNL     1      -6.750   1.862  69.223  1.00  0.00    -0.029 C  
HETATM   46  O   UNL     1      -5.797   2.172  68.206  1.00  0.00    -0.022 OA 
HETATM   47  H   UNL     1      -5.265   1.412  68.000  1.00  0.00     0.000 HD 
ENDBRANCH  34  45
ENDBRANCH  31  32
ENDBRANCH  25  31
ENDBRANCH  16  17
ENDBRANCH   7  16
ENDBRANCH   2   5
TORSDOF 6
ENDMDL
MODEL      317
REMARK 921   NORMALIZED FREE ENERGY PREDICTED BY IDOCK:    4.13 KCAL/MOL
REMARK 922        TOTAL FREE ENERGY PREDICTED BY IDOCK:    4.52 KCAL/MOL
REMARK 923 INTER-LIGAND FREE ENERGY PREDICTED BY IDOCK:   -3.70 KCAL/MOL
REMARK 924 INTRA-LIGAND FREE ENERGY PREDICTED BY IDOCK:    8.23 KCAL/MOL
REMARK 927      BINDING AFFINITY PREDICTED BY RF-SCORE:    0.00 PKD
ROOT
HETATM    1  N   UNL     1     -12.781   6.727  72.936  1.00  0.00     0.319 NA 
HETATM    2  C   UNL     1     -12.349   5.584  72.119  1.00  0.00     0.600 C  
HETATM    3  H2  UNL     1     -12.243   7.564  72.713  1.00  0.00     0.000 HD 
HETATM    4  H1  UNL     1     -13.783   6.901  72.857  1.00  0.00     0.000 HD 
ENDROOT
BRANCH   2   5
HETATM    5  C   UNL     1     -10.827   5.319  72.240  1.00  0.00    -0.207 C  
HETATM    6  O   UNL     1     -10.042   6.367  71.650  1.00  0.00    -0.185 OA 
HETATM    7  C   UNL     1     -10.083   7.608  72.336  1.00  0.00    -0.211 C  
HETATM    8  C   UNL     1      -9.516   7.435  73.783  1.00  0.00    -0.279 C  
HETATM    9  C   UNL     1     -10.390   5.040  73.691  1.00  0.00    -0.219 C  
HETATM   10  N   UNL     1      -8.073   7.109  73.797  1.00  0.00    -0.109 NA 
HETATM   11  C   UNL     1     -10.301   6.330  74.515  1.00  0.00    -0.233 C  
HETATM   12  H   UNL     1      -8.842   4.221  74.551  1.00  0.00     0.000 HD 
HETATM   13  H1  UNL     1      -7.703   6.996  74.741  1.00  0.00     0.000 HD 
HETATM   14  H2  UNL     1      -7.537   7.801  73.275  1.00  0.00     0.000 HD 
HETATM   15  O   UNL     1      -9.112   4.393  73.656  1.00  0.00    -0.102 OA 
BRANCH   7  16
HETATM   16  O   UNL     1      -9.307   8.592  71.630  1.00  0.00    -0.193 OA 
BRANCH  16  17
HETATM   17  C   UNL     1      -9.632   8.798  70.224  1.00  0.00    -0.177 C  
HETATM   18  N   UNL     1     -11.812   7.608  70.336  1.00  0.00    -0.490 NA 
HETATM   19  C   UNL     1     -10.803   7.923  68.161  1.00  0.00     0.002 C  
HETATM   20  H1  UNL     1     -12.398   6.870  69.946  1.00  0.00     0.000 HD 
HETATM   21  H2  UNL     1     -12.291   8.508  70.336  1.00  0.00     0.000 HD 
HETATM   22  C   UNL     1      -9.511   8.008  67.349  1.00  0.00    -0.151 C  
HETATM   23  C   UNL     1     -10.520   7.681  69.635  1.00  0.00    -0.235 C  
HETATM   24  N   UNL     1      -9.928   8.115  65.940  1.00  0.00    -0.369 NA 
HETATM   25  C   UNL     1      -8.609   9.190  67.825  1.00  0.00    -0.121 C  
HETATM   26  H   UNL     1      -7.113  10.617  69.287  1.00  0.00     0.000 HD 
HETATM   27  H1  UNL     1      -9.065   8.171  65.398  1.00  0.00     0.000 HD 
HETATM   28  C   UNL     1      -8.380   9.131  69.366  1.00  0.00    -0.124 C  
HETATM   29  H2  UNL     1     -10.573   8.885  65.762  1.00  0.00     0.000 HD 
HETATM   30  O   UNL     1      -7.879  10.413  69.812  1.00  0.00    -0.157 OA 
BRANCH  25  31
HETATM   31  O   UNL     1      -7.282   9.178  67.211  1.00  0.00    -0.082 OA 
BRANCH  31  32
HETATM   32  C   UNL     1      -7.063  10.179  66.209  1.00  0.00    -0.110 C  
HETATM   33  O   UNL     1      -6.819   9.617  64.913  1.00  0.00    -0.097 OA 
HETATM   34  C   UNL     1      -7.976   8.970  64.356  1.00  0.00    -0.133 C  
HETATM   35  C   UNL     1      -9.123   9.977  64.182  1.00  0.00    -0.255 C  
HETATM   36  H   UNL     1      -9.199  12.353  67.467  1.00  0.00     0.000 HD 
HETATM   37  C   UNL     1      -9.489  10.602  65.543  1.00  0.00    -0.214 C  
HETATM   38  H1  UNL     1     -10.814  12.014  66.282  1.00  0.00     0.000 HD 
HETATM   39  O   UNL     1     -10.280   9.382  63.587  1.00  0.00     0.577 OA 
HETATM   40  H   UNL     1     -10.989  10.005  63.480  1.00  0.00     0.000 HD 
HETATM   41  H2  UNL     1     -11.388  11.205  64.915  1.00  0.00     0.000 HD 
HETATM   42  C   UNL     1      -8.224  11.207  66.177  1.00  0.00    -0.128 C  
HETATM   43  N   UNL     1     -10.572  11.601  65.381  1.00  0.00    -0.272 NA 
HETATM   44  O   UNL     1      -8.487  11.724  67.487  1.00  0.00    -0.141 OA 
BRANCH  34  45
HETATM   45  C   UNL     1      -7.586   8.372  62.997  1.00  0.00    -0.120 C  
HETATM   46  O   UNL     1      -6.169   8.382  62.826  1.00  0.00    -0.085 OA 
HETATM   47  H   UNL     1      -5.928   8.012  61.985  1.00  0.00     0.000 HD 
ENDBRANCH  34  45
ENDBRANCH  31  32
ENDBRANCH  25  31
ENDBRANCH  16  17
ENDBRANCH   7  16
ENDBRANCH   2   5
TORSDOF 6
ENDMDL
MODEL      318
REMARK 921   NORMALIZED FREE ENERGY PREDICTED BY IDOCK:    4.15 KCAL/MOL
REMARK 922        TOTAL FREE ENERGY PREDICTED BY IDOCK:    4.55 KCAL/MOL
REMARK 923 INTER-LIGAND FREE ENERGY PREDICTED BY IDOCK:    3.49 KCAL/MOL
REMARK 924 INTRA-LIGAND FREE ENERGY PREDICTED BY IDOCK:    1.06 KCAL/MOL
REMARK 927      BINDING AFFINITY PREDICTED BY RF-SCORE:    0.00 PKD
ROOT
HETATM    1  N   UNL     1      -7.280   8.798  66.263  1.00  0.00    -0.085 NA 
HETATM    2  C   UNL     1      -7.471   7.819  65.183  1.00  0.00    -0.083 C  
HETATM    3  H2  UNL     1      -8.024   8.730  66.957  1.00  0.00     0.000 HD 
HETATM    4  H1  UNL     1      -6.362   8.719  66.699  1.00  0.00     0.000 HD 
ENDROOT
BRANCH   2   5
HETATM    5  C   UNL     1      -8.866   7.940  64.521  1.00  0.00     0.500 C  
HETATM    6  O   UNL     1      -9.687   8.934  65.154  1.00  0.00     0.105 OA 
HETATM    7  C   UNL     1      -9.261  10.275  64.966  1.00  0.00    -0.213 C  
HETATM    8  C   UNL     1      -9.284  10.632  63.444  1.00  0.00    -0.270 C  
HETATM    9  C   UNL     1      -8.779   8.171  62.999  1.00  0.00     0.324 C  
HETATM   10  N   UNL     1     -10.652  10.648  62.881  1.00  0.00    -0.587 NA 
HETATM   11  C   UNL     1      -8.418   9.623  62.665  1.00  0.00    -0.180 C  
HETATM   12  H   UNL     1      -9.996   7.980  61.486  1.00  0.00     0.000 HD 
HETATM   13  H1  UNL     1     -10.667  10.881  61.887  1.00  0.00     0.000 HD 
HETATM   14  H2  UNL     1     -11.258  11.273  63.412  1.00  0.00     0.000 HD 
HETATM   15  O   UNL     1     -10.049   7.837  62.424  1.00  0.00     3.738 OA 
BRANCH   7  16
HETATM   16  O   UNL     1     -10.122  11.174  65.684  1.00  0.00    -0.232 OA 
BRANCH  16  17
HETATM   17  C   UNL     1      -9.575  11.784  66.890  1.00  0.00    -0.193 C  
HETATM   18  N   UNL     1     -10.257   9.925  68.393  1.00  0.00    -0.170 NA 
HETATM   19  C   UNL     1      -9.745  12.064  69.397  1.00  0.00     0.761 C  
HETATM   20  H1  UNL     1     -10.755   9.658  69.241  1.00  0.00     0.000 HD 
HETATM   21  H2  UNL     1      -9.292   9.595  68.404  1.00  0.00     0.000 HD 
HETATM   22  C   UNL     1      -9.785  13.587  69.259  1.00  0.00     0.550 C  
HETATM   23  C   UNL     1     -10.330  11.379  68.173  1.00  0.00    -0.188 C  
HETATM   24  N   UNL     1      -9.312  14.120  70.548  1.00  0.00     1.922 NA 
HETATM   25  C   UNL     1      -8.948  14.076  68.035  1.00  0.00    -0.182 C  
HETATM   26  H   UNL     1      -8.202  14.448  65.645  1.00  0.00     0.000 HD 
HETATM   27  H1  UNL     1      -9.339  15.135  70.456  1.00  0.00     0.000 HD 
HETATM   28  C   UNL     1      -9.361  13.316  66.738  1.00  0.00    -0.252 C  
HETATM   29  H2  UNL     1      -8.399  13.760  70.829  1.00  0.00     0.000 HD 
HETATM   30  O   UNL     1      -8.334  13.512  65.737  1.00  0.00     1.440 OA 
BRANCH  25  31
HETATM   31  O   UNL     1      -9.128  15.499  67.753  1.00  0.00    -0.177 OA 
BRANCH  31  32
HETATM   32  C   UNL     1      -8.458  15.979  66.581  1.00  0.00    -0.288 C  
HETATM   33  O   UNL     1      -9.046  17.180  66.063  1.00  0.00    -0.473 OA 
HETATM   34  C   UNL     1      -8.859  18.314  66.927  1.00  0.00    -0.275 C  
HETATM   35  C   UNL     1      -7.362  18.609  67.109  1.00  0.00    -0.210 C  
HETATM   36  H   UNL     1      -5.442  15.065  67.549  1.00  0.00     0.000 HD 
HETATM   37  C   UNL     1      -6.651  17.381  67.711  1.00  0.00    -0.154 C  
HETATM   38  H1  UNL     1      -4.728  16.830  68.258  1.00  0.00     0.000 HD 
HETATM   39  O   UNL     1      -7.133  19.760  67.927  1.00  0.00    -0.258 OA 
HETATM   40  H   UNL     1      -6.208  19.943  68.040  1.00  0.00     0.000 HD 
HETATM   41  H2  UNL     1      -5.019  18.488  68.401  1.00  0.00     0.000 HD 
HETATM   42  C   UNL     1      -6.937  16.151  66.832  1.00  0.00    -0.152 C  
HETATM   43  N   UNL     1      -5.199  17.643  67.860  1.00  0.00    -0.130 NA 
HETATM   44  O   UNL     1      -6.373  14.960  67.394  1.00  0.00    -0.315 OA 
BRANCH  34  45
HETATM   45  C   UNL     1      -9.563  19.523  66.295  1.00  0.00    -0.392 C  
HETATM   46  O   UNL     1     -10.482  20.111  67.215  1.00  0.00    -0.387 OA 
HETATM   47  H   UNL     1     -10.918  20.859  66.825  1.00  0.00     0.000 HD 
ENDBRANCH  34  45
ENDBRANCH  31  32
ENDBRANCH  25  31
ENDBRANCH  16  17
ENDBRANCH   7  16
ENDBRANCH   2   5
TORSDOF 6
ENDMDL
MODEL      319
REMARK 921   NORMALIZED FREE ENERGY PREDICTED BY IDOCK:    5.86 KCAL/MOL
REMARK 922        TOTAL FREE ENERGY PREDICTED BY IDOCK:    6.87 KCAL/MOL
REMARK 923 INTER-LIGAND FREE ENERGY PREDICTED BY IDOCK:    0.04 KCAL/MOL
REMARK 924 INTRA-LIGAND FREE ENERGY PREDICTED BY IDOCK:    6.82 KCAL/MOL
REMARK 927      BINDING AFFINITY PREDICTED BY RF-SCORE:    0.00 PKD
ROOT
HETATM    1  N   UNL     1      -9.318  10.596  70.909  1.00  0.00     1.400 NA 
HETATM    2  C   UNL     1      -7.899  10.732  70.548  1.00  0.00     1.687 C  
HETATM    3  H2  UNL     1      -9.725   9.758  70.494  1.00  0.00     0.000 HD 
HETATM    4  H1  UNL     1      -9.463  10.615  71.918  1.00  0.00     0.000 HD 
ENDROOT
BRANCH   2   5
HETATM    5  C   UNL     1      -7.679  10.702  69.014  1.00  0.00    -0.130 C  
HETATM    6  O   UNL     1      -7.766  12.009  68.425  1.00  0.00    -0.126 OA 
HETATM    7  C   UNL     1      -6.709  12.893  68.761  1.00  0.00    -0.093 C  
HETATM    8  C   UNL     1      -5.347  12.308  68.262  1.00  0.00    -0.056 C  
HETATM    9  C   UNL     1      -6.366   9.997  68.621  1.00  0.00    -0.048 C  
HETATM   10  N   UNL     1      -5.257  12.247  66.787  1.00  0.00    -0.350 NA 
HETATM   11  C   UNL     1      -5.146  10.898  68.849  1.00  0.00    -0.041 C  
HETATM   12  H   UNL     1      -5.643   9.197  66.995  1.00  0.00     0.000 HD 
HETATM   13  H1  UNL     1      -4.368  11.865  66.462  1.00  0.00     0.000 HD 
HETATM   14  H2  UNL     1      -5.436  13.161  66.372  1.00  0.00     0.000 HD 
HETATM   15  O   UNL     1      -6.453   9.632  67.238  1.00  0.00    -0.068 OA 
BRANCH   7  16
HETATM   16  O   UNL     1      -6.928  14.181  68.160  1.00  0.00    -0.098 OA 
BRANCH  16  17
HETATM   17  C   UNL     1      -8.253  14.765  68.326  1.00  0.00    -0.142 C  
HETATM   18  N   UNL     1      -8.100  14.933  70.801  1.00  0.00     0.936 NA 
HETATM   19  C   UNL     1     -10.296  15.022  69.793  1.00  0.00    -0.172 C  
HETATM   20  H1  UNL     1      -8.532  14.706  71.697  1.00  0.00     0.000 HD 
HETATM   21  H2  UNL     1      -7.928  15.935  70.711  1.00  0.00     0.000 HD 
HETATM   22  C   UNL     1     -11.209  14.536  68.667  1.00  0.00    -0.261 C  
HETATM   23  C   UNL     1      -8.905  14.420  69.681  1.00  0.00     0.600 C  
HETATM   24  N   UNL     1     -12.542  15.088  68.964  1.00  0.00    -0.454 NA 
HETATM   25  C   UNL     1     -10.661  14.947  67.264  1.00  0.00    -0.272 C  
HETATM   26  H   UNL     1      -9.164  15.074  65.226  1.00  0.00     0.000 HD 
HETATM   27  H1  UNL     1     -13.151  14.763  68.212  1.00  0.00     0.000 HD 
HETATM   28  C   UNL     1      -9.172  14.513  67.098  1.00  0.00    -0.223 C  
HETATM   29  H2  UNL     1     -12.547  16.101  69.085  1.00  0.00     0.000 HD 
HETATM   30  O   UNL     1      -8.602  15.228  65.977  1.00  0.00    -0.069 OA 
BRANCH  25  31
HETATM   31  O   UNL     1     -11.395  14.328  66.161  1.00  0.00    -0.328 OA 
BRANCH  31  32
HETATM   32  C   UNL     1     -11.847  12.990  66.402  1.00  0.00    -0.405 C  
HETATM   33  O   UNL     1     -12.640  12.475  65.324  1.00  0.00    -0.645 OA 
HETATM   34  C   UNL     1     -11.881  12.258  64.123  1.00  0.00    -0.419 C  
HETATM   35  C   UNL     1     -10.766  11.230  64.369  1.00  0.00    -0.339 C  
HETATM   36  H   UNL     1      -9.126  12.022  67.991  1.00  0.00     0.000 HD 
HETATM   37  C   UNL     1      -9.829  11.726  65.487  1.00  0.00    -0.234 C  
HETATM   38  H1  UNL     1      -8.147  11.053  66.497  1.00  0.00     0.000 HD 
HETATM   39  O   UNL     1     -10.015  10.952  63.184  1.00  0.00    -0.327 OA 
HETATM   40  H   UNL     1      -9.326  10.316  63.337  1.00  0.00     0.000 HD 
HETATM   41  H2  UNL     1      -8.254  10.480  64.912  1.00  0.00     0.000 HD 
HETATM   42  C   UNL     1     -10.662  12.047  66.740  1.00  0.00    -0.243 C  
HETATM   43  N   UNL     1      -8.768  10.725  65.758  1.00  0.00    -0.182 NA 
HETATM   44  O   UNL     1      -9.851  12.599  67.785  1.00  0.00    -0.201 OA 
BRANCH  34  45
HETATM   45  C   UNL     1     -12.837  11.751  63.034  1.00  0.00     0.266 C  
HETATM   46  O   UNL     1     -14.194  11.841  63.468  1.00  0.00     1.081 OA 
HETATM   47  H   UNL     1     -14.785  11.527  62.794  1.00  0.00     0.000 HD 
ENDBRANCH  34  45
ENDBRANCH  31  32
ENDBRANCH  25  31
ENDBRANCH  16  17
ENDBRANCH   7  16
ENDBRANCH   2   5
TORSDOF 6
ENDMDL
MODEL      320
REMARK 921   NORMALIZED FREE ENERGY PREDICTED BY IDOCK:    6.29 KCAL/MOL
REMARK 922        TOTAL FREE ENERGY PREDICTED BY IDOCK:    7.45 KCAL/MOL
REMARK 923 INTER-LIGAND FREE ENERGY PREDICTED BY IDOCK:    3.06 KCAL/MOL
REMARK 924 INTRA-LIGAND FREE ENERGY PREDICTED BY IDOCK:    4.39 KCAL/MOL
REMARK 927      BINDING AFFINITY PREDICTED BY RF-SCORE:    0.00 PKD
ROOT
HETATM    1  N   UNL     1     -10.916  15.138  71.479  1.00  0.00    -0.532 NA 
HETATM    2  C   UNL     1     -11.268  13.750  71.143  1.00  0.00     1.532 C  
HETATM    3  H2  UNL     1     -11.585  15.795  71.077  1.00  0.00     0.000 HD 
HETATM    4  H1  UNL     1     -10.819  15.280  72.484  1.00  0.00     0.000 HD 
ENDROOT
BRANCH   2   5
HETATM    5  C   UNL     1     -11.416  13.536  69.616  1.00  0.00    -0.217 C  
HETATM    6  O   UNL     1     -10.219  13.011  69.020  1.00  0.00    -0.057 OA 
HETATM    7  C   UNL     1      -9.904  11.675  69.379  1.00  0.00     0.486 C  
HETATM    8  C   UNL     1     -11.049  10.715  68.916  1.00  0.00    -0.261 C  
HETATM    9  C   UNL     1     -12.644  12.676  69.258  1.00  0.00     0.591 C  
HETATM   10  N   UNL     1     -11.165  10.632  67.444  1.00  0.00    -0.371 NA 
HETATM   11  C   UNL     1     -12.388  11.186  69.513  1.00  0.00    -0.262 C  
HETATM   12  H   UNL     1     -13.707  12.360  67.652  1.00  0.00     0.000 HD 
HETATM   13  H1  UNL     1     -11.912  10.006  67.142  1.00  0.00     0.000 HD 
HETATM   14  H2  UNL     1     -10.274  10.370  67.021  1.00  0.00     0.000 HD 
HETATM   15  O   UNL     1     -12.950  12.890  67.874  1.00  0.00     1.182 OA 
BRANCH   7  16
HETATM   16  O   UNL     1      -8.665  11.276  68.769  1.00  0.00    -0.157 OA 
BRANCH  16  17
HETATM   17  C   UNL     1      -7.926  12.306  68.051  1.00  0.00    -0.150 C  
HETATM   18  N   UNL     1      -6.443  12.873  69.964  1.00  0.00    -0.363 NA 
HETATM   19  C   UNL     1      -6.650  14.486  68.175  1.00  0.00    -0.140 C  
HETATM   20  H1  UNL     1      -6.084  13.608  70.572  1.00  0.00     0.000 HD 
HETATM   21  H2  UNL     1      -5.688  12.352  69.518  1.00  0.00     0.000 HD 
HETATM   22  C   UNL     1      -7.557  15.117  67.117  1.00  0.00    -0.168 C  
HETATM   23  C   UNL     1      -7.383  13.419  68.972  1.00  0.00     0.023 C  
HETATM   24  N   UNL     1      -6.771  16.206  66.512  1.00  0.00    -0.102 NA 
HETATM   25  C   UNL     1      -8.058  14.059  66.084  1.00  0.00     1.689 C  
HETATM   26  H   UNL     1      -9.262  12.060  65.103  1.00  0.00     0.000 HD 
HETATM   27  H1  UNL     1      -7.376  16.627  65.807  1.00  0.00     0.000 HD 
HETATM   28  C   UNL     1      -8.694  12.832  66.806  1.00  0.00    -0.121 C  
HETATM   29  H2  UNL     1      -5.867  15.903  66.147  1.00  0.00     0.000 HD 
HETATM   30  O   UNL     1      -8.793  11.738  65.864  1.00  0.00    -0.133 OA 
BRANCH  25  31
HETATM   31  O   UNL     1      -9.084  14.583  65.183  1.00  0.00     0.805 OA 
BRANCH  31  32
HETATM   32  C   UNL     1     -10.403  14.660  65.738  1.00  0.00    -0.332 C  
HETATM   33  O   UNL     1     -10.394  14.803  67.164  1.00  0.00    -0.252 OA 
HETATM   34  C   UNL     1      -9.879  16.073  67.597  1.00  0.00    -0.235 C  
HETATM   35  C   UNL     1     -10.746  17.219  67.053  1.00  0.00    -0.152 C  
HETATM   36  H   UNL     1     -11.706  16.335  63.214  1.00  0.00     0.000 HD 
HETATM   37  C   UNL     1     -10.776  17.174  65.513  1.00  0.00    -0.117 C  
HETATM   38  H1  UNL     1     -11.658  18.225  63.958  1.00  0.00     0.000 HD 
HETATM   39  O   UNL     1     -10.293  18.500  67.499  1.00  0.00    -0.367 OA 
HETATM   40  H   UNL     1     -10.829  19.208  67.162  1.00  0.00     0.000 HD 
HETATM   41  H2  UNL     1     -11.358  19.171  65.325  1.00  0.00     0.000 HD 
HETATM   42  C   UNL     1     -11.236  15.778  65.057  1.00  0.00    -0.308 C  
HETATM   43  N   UNL     1     -11.639  18.254  64.978  1.00  0.00     1.213 NA 
HETATM   44  O   UNL     1     -11.196  15.650  63.631  1.00  0.00     0.284 OA 
BRANCH  34  45
HETATM   45  C   UNL     1      -9.876  16.095  69.132  1.00  0.00    -0.250 C  
HETATM   46  O   UNL     1      -8.766  16.845  69.626  1.00  0.00     0.303 OA 
HETATM   47  H   UNL     1      -8.765  16.859  70.575  1.00  0.00     0.000 HD 
ENDBRANCH  34  45
ENDBRANCH  31  32
ENDBRANCH  25  31
ENDBRANCH  16  17
ENDBRANCH   7  16
ENDBRANCH   2   5
TORSDOF 6
ENDMDL
MODEL      321
REMARK 921   NORMALIZED FREE ENERGY PREDICTED BY IDOCK:    6.77 KCAL/MOL
REMARK 922        TOTAL FREE ENERGY PREDICTED BY IDOCK:    8.09 KCAL/MOL
REMARK 923 INTER-LIGAND FREE ENERGY PREDICTED BY IDOCK:    2.88 KCAL/MOL
REMARK 924 INTRA-LIGAND FREE ENERGY PREDICTED BY IDOCK:    5.20 KCAL/MOL
REMARK 927      BINDING AFFINITY PREDICTED BY RF-SCORE:    0.00 PKD
ROOT
HETATM    1  N   UNL     1     -11.949   5.275  70.561  1.00  0.00     2.378 NA 
HETATM    2  C   UNL     1     -10.659   5.332  69.857  1.00  0.00    -0.221 C  
HETATM    3  H2  UNL     1     -12.728   5.297  69.903  1.00  0.00     0.000 HD 
HETATM    4  H1  UNL     1     -12.015   4.470  71.182  1.00  0.00     0.000 HD 
ENDROOT
BRANCH   2   5
HETATM    5  C   UNL     1     -10.560   6.556  68.912  1.00  0.00    -0.241 C  
HETATM    6  O   UNL     1      -9.286   6.635  68.253  1.00  0.00    -0.122 OA 
HETATM    7  C   UNL     1      -9.042   5.622  67.291  1.00  0.00    -0.110 C  
HETATM    8  C   UNL     1     -10.103   5.708  66.146  1.00  0.00    -0.048 C  
HETATM    9  C   UNL     1     -11.720   6.614  67.899  1.00  0.00     1.012 C  
HETATM   10  N   UNL     1      -9.980   6.945  65.345  1.00  0.00     0.771 NA 
HETATM   11  C   UNL     1     -11.518   5.621  66.748  1.00  0.00     0.853 C  
HETATM   12  H   UNL     1     -12.512   7.986  66.760  1.00  0.00     0.000 HD 
HETATM   13  H1  UNL     1     -10.673   7.001  64.597  1.00  0.00     0.000 HD 
HETATM   14  H2  UNL     1      -9.035   7.050  64.977  1.00  0.00     0.000 HD 
HETATM   15  O   UNL     1     -11.797   7.950  67.385  1.00  0.00     1.929 OA 
BRANCH   7  16
HETATM   16  O   UNL     1      -7.723   5.770  66.738  1.00  0.00    -0.098 OA 
BRANCH  16  17
HETATM   17  C   UNL     1      -7.052   7.042  66.974  1.00  0.00    -0.079 C  
HETATM   18  N   UNL     1      -5.145   6.045  68.218  1.00  0.00    -0.003 NA 
HETATM   19  C   UNL     1      -5.561   8.412  68.489  1.00  0.00    -0.037 C  
HETATM   20  H1  UNL     1      -4.590   6.055  69.073  1.00  0.00     0.000 HD 
HETATM   21  H2  UNL     1      -4.560   6.158  67.390  1.00  0.00     0.000 HD 
HETATM   22  C   UNL     1      -6.602   9.529  68.561  1.00  0.00    -0.053 C  
HETATM   23  C   UNL     1      -6.213   7.056  68.269  1.00  0.00    -0.035 C  
HETATM   24  N   UNL     1      -5.856  10.753  68.898  1.00  0.00    -0.040 NA 
HETATM   25  C   UNL     1      -7.420   9.640  67.236  1.00  0.00    -0.088 C  
HETATM   26  H   UNL     1      -9.006   9.061  65.349  1.00  0.00     0.000 HD 
HETATM   27  H1  UNL     1      -6.551  11.498  68.947  1.00  0.00     0.000 HD 
HETATM   28  C   UNL     1      -8.010   8.256  66.826  1.00  0.00    -0.099 C  
HETATM   29  H2  UNL     1      -5.087  10.952  68.257  1.00  0.00     0.000 HD 
HETATM   30  O   UNL     1      -8.420   8.318  65.440  1.00  0.00    -0.163 OA 
BRANCH  25  31
HETATM   31  O   UNL     1      -8.554  10.557  67.340  1.00  0.00    -0.122 OA 
BRANCH  31  32
HETATM   32  C   UNL     1      -8.413  11.790  66.623  1.00  0.00    -0.153 C  
HETATM   33  O   UNL     1      -9.673  12.416  66.351  1.00  0.00    -0.230 OA 
HETATM   34  C   UNL     1     -10.325  12.903  67.536  1.00  0.00    -0.223 C  
HETATM   35  C   UNL     1      -9.456  13.962  68.231  1.00  0.00    -0.217 C  
HETATM   36  H   UNL     1      -5.608  12.692  68.104  1.00  0.00     0.000 HD 
HETATM   37  C   UNL     1      -8.089  13.360  68.607  1.00  0.00    -0.040 C  
HETATM   38  H1  UNL     1      -6.323  13.985  69.498  1.00  0.00     0.000 HD 
HETATM   39  O   UNL     1     -10.091  14.506  69.392  1.00  0.00    -0.396 OA 
HETATM   40  H   UNL     1      -9.553  15.161  69.822  1.00  0.00     0.000 HD 
HETATM   41  H2  UNL     1      -7.686  14.816  70.051  1.00  0.00     0.000 HD 
HETATM   42  C   UNL     1      -7.440  12.755  67.350  1.00  0.00    -0.145 C  
HETATM   43  N   UNL     1      -7.228  14.384  69.248  1.00  0.00    -0.126 NA 
HETATM   44  O   UNL     1      -6.204  12.100  67.658  1.00  0.00    -0.080 OA 
BRANCH  34  45
HETATM   45  C   UNL     1     -11.675  13.510  67.129  1.00  0.00    -0.379 C  
HETATM   46  O   UNL     1     -12.240  12.798  66.029  1.00  0.00    -0.510 OA 
HETATM   47  H   UNL     1     -13.075  13.173  65.777  1.00  0.00     0.000 HD 
ENDBRANCH  34  45
ENDBRANCH  31  32
ENDBRANCH  25  31
ENDBRANCH  16  17
ENDBRANCH   7  16
ENDBRANCH   2   5
TORSDOF 6
ENDMDL
MODEL      322
REMARK 921   NORMALIZED FREE ENERGY PREDICTED BY IDOCK:    7.03 KCAL/MOL
REMARK 922        TOTAL FREE ENERGY PREDICTED BY IDOCK:    8.44 KCAL/MOL
REMARK 923 INTER-LIGAND FREE ENERGY PREDICTED BY IDOCK:   -1.70 KCAL/MOL
REMARK 924 INTRA-LIGAND FREE ENERGY PREDICTED BY IDOCK:   10.14 KCAL/MOL
REMARK 927      BINDING AFFINITY PREDICTED BY RF-SCORE:    0.00 PKD
ROOT
HETATM    1  N   UNL     1      -5.957  18.956  69.122  1.00  0.00    -0.222 NA 
HETATM    2  C   UNL     1      -7.350  19.240  68.747  1.00  0.00    -0.346 C  
HETATM    3  H2  UNL     1      -5.305  19.345  68.441  1.00  0.00     0.000 HD 
HETATM    4  H1  UNL     1      -5.738  19.274  70.065  1.00  0.00     0.000 HD 
ENDROOT
BRANCH   2   5
HETATM    5  C   UNL     1      -7.682  18.756  67.313  1.00  0.00    -0.231 C  
HETATM    6  O   UNL     1      -8.169  17.405  67.293  1.00  0.00    -0.199 OA 
HETATM    7  C   UNL     1      -9.453  17.219  67.867  1.00  0.00    -0.266 C  
HETATM    8  C   UNL     1     -10.515  18.051  67.077  1.00  0.00    -0.351 C  
HETATM    9  C   UNL     1      -8.643  19.709  66.576  1.00  0.00    -0.354 C  
HETATM   10  N   UNL     1     -10.710  17.563  65.695  1.00  0.00    -0.466 NA 
HETATM   11  C   UNL     1     -10.091  19.531  67.047  1.00  0.00    -0.509 C  
HETATM   12  H   UNL     1      -9.140  20.028  64.717  1.00  0.00     0.000 HD 
HETATM   13  H1  UNL     1     -11.404  18.106  65.179  1.00  0.00     0.000 HD 
HETATM   14  H2  UNL     1     -10.943  16.571  65.687  1.00  0.00     0.000 HD 
HETATM   15  O   UNL     1      -8.548  19.441  65.172  1.00  0.00     0.480 OA 
BRANCH   7  16
HETATM   16  O   UNL     1      -9.813  15.827  67.839  1.00  0.00    -0.216 OA 
BRANCH  16  17
HETATM   17  C   UNL     1      -9.228  14.977  68.868  1.00  0.00    -0.206 C  
HETATM   18  N   UNL     1      -7.695  16.728  69.741  1.00  0.00     0.480 NA 
HETATM   19  C   UNL     1      -7.196  14.422  70.267  1.00  0.00     0.391 C  
HETATM   20  H1  UNL     1      -6.734  16.978  69.971  1.00  0.00     0.000 HD 
HETATM   21  H2  UNL     1      -8.319  16.862  70.537  1.00  0.00     0.000 HD 
HETATM   22  C   UNL     1      -7.231  12.966  69.802  1.00  0.00     0.680 C  
HETATM   23  C   UNL     1      -7.773  15.356  69.216  1.00  0.00    -0.221 C  
HETATM   24  N   UNL     1      -6.537  12.193  70.847  1.00  0.00     0.216 NA 
HETATM   25  C   UNL     1      -8.691  12.482  69.533  1.00  0.00     1.619 C  
HETATM   26  H   UNL     1     -10.986  12.276  68.485  1.00  0.00     0.000 HD 
HETATM   27  H1  UNL     1      -6.559  11.222  70.536  1.00  0.00     0.000 HD 
HETATM   28  C   UNL     1      -9.437  13.464  68.580  1.00  0.00    -0.036 C  
HETATM   29  H2  UNL     1      -6.922  12.332  71.781  1.00  0.00     0.000 HD 
HETATM   30  O   UNL     1     -10.858  13.201  68.661  1.00  0.00    -0.248 OA 
BRANCH  25  31
HETATM   31  O   UNL     1      -8.748  11.167  68.896  1.00  0.00    -0.151 OA 
BRANCH  31  32
HETATM   32  C   UNL     1      -7.972  11.033  67.699  1.00  0.00    -0.115 C  
HETATM   33  O   UNL     1      -8.121   9.745  67.087  1.00  0.00    -0.115 OA 
HETATM   34  C   UNL     1      -9.435   9.531  66.545  1.00  0.00    -0.182 C  
HETATM   35  C   UNL     1      -9.741  10.567  65.453  1.00  0.00    -0.257 C  
HETATM   36  H   UNL     1      -8.357  14.159  66.725  1.00  0.00     0.000 HD 
HETATM   37  C   UNL     1      -9.652  11.991  66.035  1.00  0.00    -0.234 C  
HETATM   38  H1  UNL     1      -9.853  13.944  65.367  1.00  0.00     0.000 HD 
HETATM   39  O   UNL     1     -11.024  10.360  64.855  1.00  0.00     0.184 OA 
HETATM   40  H   UNL     1     -11.214  11.001  64.180  1.00  0.00     0.000 HD 
HETATM   41  H2  UNL     1     -10.802  12.839  64.512  1.00  0.00     0.000 HD 
HETATM   42  C   UNL     1      -8.277  12.179  66.699  1.00  0.00    -0.017 C  
HETATM   43  N   UNL     1      -9.912  13.001  64.981  1.00  0.00    -0.193 NA 
HETATM   44  O   UNL     1      -8.170  13.458  67.338  1.00  0.00    -0.171 OA 
BRANCH  34  45
HETATM   45  C   UNL     1      -9.490   8.113  65.959  1.00  0.00    -0.087 C  
HETATM   46  O   UNL     1     -10.321   7.268  66.754  1.00  0.00    -0.356 OA 
HETATM   47  H   UNL     1     -10.355   6.391  66.391  1.00  0.00     0.000 HD 
ENDBRANCH  34  45
ENDBRANCH  31  32
ENDBRANCH  25  31
ENDBRANCH  16  17
ENDBRANCH   7  16
ENDBRANCH   2   5
TORSDOF 6
ENDMDL
MODEL      323
REMARK 921   NORMALIZED FREE ENERGY PREDICTED BY IDOCK:    7.10 KCAL/MOL
REMARK 922        TOTAL FREE ENERGY PREDICTED BY IDOCK:    8.53 KCAL/MOL
REMARK 923 INTER-LIGAND FREE ENERGY PREDICTED BY IDOCK:    0.96 KCAL/MOL
REMARK 924 INTRA-LIGAND FREE ENERGY PREDICTED BY IDOCK:    7.58 KCAL/MOL
REMARK 927      BINDING AFFINITY PREDICTED BY RF-SCORE:    0.00 PKD
ROOT
HETATM    1  N   UNL     1     -12.666  13.915  68.703  1.00  0.00     0.002 NA 
HETATM    2  C   UNL     1     -12.566  13.277  70.025  1.00  0.00     0.010 C  
HETATM    3  H2  UNL     1     -13.609  13.833  68.326  1.00  0.00     0.000 HD 
HETATM    4  H1  UNL     1     -12.358  14.886  68.719  1.00  0.00     0.000 HD 
ENDROOT
BRANCH   2   5
HETATM    5  C   UNL     1     -13.034  11.800  70.000  1.00  0.00     0.568 C  
HETATM    6  O   UNL     1     -12.011  10.911  69.524  1.00  0.00    -0.305 OA 
HETATM    7  C   UNL     1     -10.900  10.753  70.392  1.00  0.00     0.142 C  
HETATM    8  C   UNL     1     -11.370  10.147  71.755  1.00  0.00     0.582 C  
HETATM    9  C   UNL     1     -13.592  11.336  71.360  1.00  0.00     0.428 C  
HETATM   10  N   UNL     1     -11.872   8.762  71.621  1.00  0.00    -0.307 NA 
HETATM   11  C   UNL     1     -12.471  11.037  72.362  1.00  0.00     1.189 C  
HETATM   12  H   UNL     1     -14.724   9.872  71.979  1.00  0.00     0.000 HD 
HETATM   13  H1  UNL     1     -12.179   8.366  72.511  1.00  0.00     0.000 HD 
HETATM   14  H2  UNL     1     -11.177   8.163  71.175  1.00  0.00     0.000 HD 
HETATM   15  O   UNL     1     -14.380  10.159  71.141  1.00  0.00     0.647 OA 
BRANCH   7  16
HETATM   16  O   UNL     1      -9.921   9.887  69.792  1.00  0.00    -0.217 OA 
BRANCH  16  17
HETATM   17  C   UNL     1     -10.426   8.724  69.075  1.00  0.00    -0.203 C  
HETATM   18  N   UNL     1     -11.858   7.929  70.945  1.00  0.00    -0.392 NA 
HETATM   19  C   UNL     1     -11.282   6.348  69.208  1.00  0.00    -0.440 C  
HETATM   20  H1  UNL     1     -12.100   7.151  71.558  1.00  0.00     0.000 HD 
HETATM   21  H2  UNL     1     -12.677   8.292  70.457  1.00  0.00     0.000 HD 
HETATM   22  C   UNL     1     -10.230   5.876  68.203  1.00  0.00    -0.184 C  
HETATM   23  C   UNL     1     -10.792   7.547  70.004  1.00  0.00    -0.249 C  
HETATM   24  N   UNL     1     -10.775   4.649  67.598  1.00  0.00     0.371 NA 
HETATM   25  C   UNL     1      -9.889   6.988  67.162  1.00  0.00    -0.173 C  
HETATM   26  H   UNL     1      -9.035   9.158  66.175  1.00  0.00     0.000 HD 
HETATM   27  H1  UNL     1     -10.074   4.334  66.928  1.00  0.00     0.000 HD 
HETATM   28  C   UNL     1      -9.522   8.326  67.875  1.00  0.00    -0.146 C  
HETATM   29  H2  UNL     1     -11.703   4.771  67.191  1.00  0.00     0.000 HD 
HETATM   30  O   UNL     1      -9.587   9.401  66.908  1.00  0.00    -0.148 OA 
BRANCH  25  31
HETATM   31  O   UNL     1      -8.748   6.647  66.315  1.00  0.00    -0.135 OA 
BRANCH  31  32
HETATM   32  C   UNL     1      -9.011   6.645  64.906  1.00  0.00     0.518 C  
HETATM   33  O   UNL     1      -8.163   7.550  64.187  1.00  0.00    -0.090 OA 
HETATM   34  C   UNL     1      -6.786   7.139  64.173  1.00  0.00    -0.051 C  
HETATM   35  C   UNL     1      -6.640   5.772  63.487  1.00  0.00    -0.033 C  
HETATM   36  H   UNL     1      -9.709   3.428  64.723  1.00  0.00     0.000 HD 
HETATM   37  C   UNL     1      -7.485   4.717  64.227  1.00  0.00    -0.071 C  
HETATM   38  H1  UNL     1      -7.938   2.702  64.042  1.00  0.00     0.000 HD 
HETATM   39  O   UNL     1      -5.277   5.347  63.412  1.00  0.00    -0.012 OA 
HETATM   40  H   UNL     1      -5.186   4.501  62.988  1.00  0.00     0.000 HD 
HETATM   41  H2  UNL     1      -6.409   3.104  63.448  1.00  0.00     0.000 HD 
HETATM   42  C   UNL     1      -8.939   5.210  64.322  1.00  0.00     0.040 C  
HETATM   43  N   UNL     1      -7.379   3.400  63.552  1.00  0.00    -0.053 NA 
HETATM   44  O   UNL     1      -9.753   4.307  65.080  1.00  0.00    -0.174 OA 
BRANCH  34  45
HETATM   45  C   UNL     1      -5.973   8.199  63.417  1.00  0.00    -0.071 C  
HETATM   46  O   UNL     1      -6.111   9.479  64.035  1.00  0.00    -0.087 OA 
HETATM   47  H   UNL     1      -5.608  10.135  63.568  1.00  0.00     0.000 HD 
ENDBRANCH  34  45
ENDBRANCH  31  32
ENDBRANCH  25  31
ENDBRANCH  16  17
ENDBRANCH   7  16
ENDBRANCH   2   5
TORSDOF 6
ENDMDL
MODEL      324
REMARK 921   NORMALIZED FREE ENERGY PREDICTED BY IDOCK:    7.43 KCAL/MOL
REMARK 922        TOTAL FREE ENERGY PREDICTED BY IDOCK:    8.98 KCAL/MOL
REMARK 923 INTER-LIGAND FREE ENERGY PREDICTED BY IDOCK:    2.93 KCAL/MOL
REMARK 924 INTRA-LIGAND FREE ENERGY PREDICTED BY IDOCK:    6.05 KCAL/MOL
REMARK 927      BINDING AFFINITY PREDICTED BY RF-SCORE:    0.00 PKD
ROOT
HETATM    1  N   UNL     1      -9.291  14.864  63.941  1.00  0.00     3.818 NA 
HETATM    2  C   UNL     1      -9.431  14.508  65.361  1.00  0.00     0.202 C  
HETATM    3  H2  UNL     1      -9.292  15.876  63.813  1.00  0.00     0.000 HD 
HETATM    4  H1  UNL     1      -8.466  14.441  63.517  1.00  0.00     0.000 HD 
ENDROOT
BRANCH   2   5
HETATM    5  C   UNL     1     -10.685  15.151  66.006  1.00  0.00    -0.329 C  
HETATM    6  O   UNL     1     -11.324  14.277  66.949  1.00  0.00    -0.317 OA 
HETATM    7  C   UNL     1     -10.590  14.035  68.138  1.00  0.00    -0.248 C  
HETATM    8  C   UNL     1     -10.367  15.377  68.909  1.00  0.00    -0.233 C  
HETATM    9  C   UNL     1     -10.384  16.527  66.632  1.00  0.00    -0.298 C  
HETATM   10  N   UNL     1     -11.627  15.957  69.423  1.00  0.00    -0.351 NA 
HETATM   11  C   UNL     1      -9.672  16.393  67.983  1.00  0.00    -0.235 C  
HETATM   12  H   UNL     1     -11.442  18.070  67.187  1.00  0.00     0.000 HD 
HETATM   13  H1  UNL     1     -11.482  16.833  69.925  1.00  0.00     0.000 HD 
HETATM   14  H2  UNL     1     -12.131  15.284  69.999  1.00  0.00     0.000 HD 
HETATM   15  O   UNL     1     -11.626  17.222  66.801  1.00  0.00     0.904 OA 
BRANCH   7  16
HETATM   16  O   UNL     1     -11.299  13.109  68.979  1.00  0.00    -0.254 OA 
BRANCH  16  17
HETATM   17  C   UNL     1     -11.065  11.691  68.737  1.00  0.00    -0.230 C  
HETATM   18  N   UNL     1     -13.372  10.991  69.341  1.00  0.00     0.525 NA 
HETATM   19  C   UNL     1     -11.639   9.305  69.347  1.00  0.00     0.379 C  
HETATM   20  H1  UNL     1     -13.952  10.382  69.919  1.00  0.00     0.000 HD 
HETATM   21  H2  UNL     1     -13.587  10.884  68.350  1.00  0.00     0.000 HD 
HETATM   22  C   UNL     1     -10.167   8.982  69.610  1.00  0.00    -0.206 C  
HETATM   23  C   UNL     1     -11.942  10.771  69.612  1.00  0.00    -0.313 C  
HETATM   24  N   UNL     1     -10.040   7.524  69.441  1.00  0.00    -0.185 NA 
HETATM   25  C   UNL     1      -9.222   9.804  68.679  1.00  0.00    -0.137 C  
HETATM   26  H   UNL     1      -8.015  11.767  67.631  1.00  0.00     0.000 HD 
HETATM   27  H1  UNL     1      -9.058   7.308  69.616  1.00  0.00     0.000 HD 
HETATM   28  C   UNL     1      -9.554  11.326  68.751  1.00  0.00    -0.151 C  
HETATM   29  H2  UNL     1     -10.377   7.187  68.539  1.00  0.00     0.000 HD 
HETATM   30  O   UNL     1      -8.938  11.991  67.623  1.00  0.00    -0.160 OA 
BRANCH  25  31
HETATM   31  O   UNL     1      -7.811   9.673  69.038  1.00  0.00    -0.074 OA 
BRANCH  31  32
HETATM   32  C   UNL     1      -6.916   9.472  67.937  1.00  0.00    -0.079 C  
HETATM   33  O   UNL     1      -7.595   9.429  66.676  1.00  0.00    -0.093 OA 
HETATM   34  C   UNL     1      -8.157  10.697  66.298  1.00  0.00    -0.151 C  
HETATM   35  C   UNL     1      -7.050  11.754  66.158  1.00  0.00     0.517 C  
HETATM   36  H   UNL     1      -4.443  11.236  69.218  1.00  0.00     0.000 HD 
HETATM   37  C   UNL     1      -6.292  11.905  67.491  1.00  0.00    -0.105 C  
HETATM   38  H1  UNL     1      -4.697  12.998  68.240  1.00  0.00     0.000 HD 
HETATM   39  O   UNL     1      -7.563  13.022  65.737  1.00  0.00     1.758 OA 
HETATM   40  H   UNL     1      -6.880  13.675  65.651  1.00  0.00     0.000 HD 
HETATM   41  H2  UNL     1      -5.541  13.794  67.013  1.00  0.00     0.000 HD 
HETATM   42  C   UNL     1      -5.777  10.525  67.937  1.00  0.00    -0.043 C  
HETATM   43  N   UNL     1      -5.199  12.898  67.357  1.00  0.00    -0.315 NA 
HETATM   44  O   UNL     1      -5.140  10.590  69.219  1.00  0.00    -0.039 OA 
BRANCH  34  45
HETATM   45  C   UNL     1      -8.891  10.520  64.961  1.00  0.00    -0.191 C  
HETATM   46  O   UNL     1      -9.810   9.430  65.029  1.00  0.00    -0.435 OA 
HETATM   47  H   UNL     1     -10.265   9.321  64.202  1.00  0.00     0.000 HD 
ENDBRANCH  34  45
ENDBRANCH  31  32
ENDBRANCH  25  31
ENDBRANCH  16  17
ENDBRANCH   7  16
ENDBRANCH   2   5
TORSDOF 6
ENDMDL
MODEL      325
REMARK 921   NORMALIZED FREE ENERGY PREDICTED BY IDOCK:    8.53 KCAL/MOL
REMARK 922        TOTAL FREE ENERGY PREDICTED BY IDOCK:   10.47 KCAL/MOL
REMARK 923 INTER-LIGAND FREE ENERGY PREDICTED BY IDOCK:    9.28 KCAL/MOL
REMARK 924 INTRA-LIGAND FREE ENERGY PREDICTED BY IDOCK:    1.18 KCAL/MOL
REMARK 927      BINDING AFFINITY PREDICTED BY RF-SCORE:    0.00 PKD
ROOT
HETATM    1  N   UNL     1      -9.584  15.753  68.868  1.00  0.00    -0.214 NA 
HETATM    2  C   UNL     1      -9.228  15.055  67.625  1.00  0.00    -0.182 C  
HETATM    3  H2  UNL     1      -9.013  16.588  68.999  1.00  0.00     0.000 HD 
HETATM    4  H1  UNL     1     -10.578  15.976  68.915  1.00  0.00     0.000 HD 
ENDROOT
BRANCH   2   5
HETATM    5  C   UNL     1      -7.717  14.717  67.554  1.00  0.00    -0.195 C  
HETATM    6  O   UNL     1      -7.349  13.668  68.463  1.00  0.00    -0.102 OA 
HETATM    7  C   UNL     1      -7.856  12.383  68.137  1.00  0.00    -0.146 C  
HETATM    8  C   UNL     1      -7.306  11.932  66.745  1.00  0.00    -0.011 C  
HETATM    9  C   UNL     1      -7.250  14.404  66.119  1.00  0.00     3.845 C  
HETATM   10  N   UNL     1      -5.844  11.706  66.753  1.00  0.00    -0.145 NA 
HETATM   11  C   UNL     1      -7.658  12.991  65.684  1.00  0.00     4.098 C  
HETATM   12  H   UNL     1      -5.535  14.344  65.190  1.00  0.00     0.000 HD 
HETATM   13  H1  UNL     1      -5.485  11.411  65.845  1.00  0.00     0.000 HD 
HETATM   14  H2  UNL     1      -5.581  11.044  67.483  1.00  0.00     0.000 HD 
HETATM   15  O   UNL     1      -5.823  14.537  66.075  1.00  0.00     4.565 OA 
BRANCH   7  16
HETATM   16  O   UNL     1      -7.470  11.428  69.140  1.00  0.00    -0.114 OA 
BRANCH  16  17
HETATM   17  C   UNL     1      -8.422  10.363  69.432  1.00  0.00    -0.134 C  
HETATM   18  N   UNL     1     -10.435  11.772  69.061  1.00  0.00    -0.380 NA 
HETATM   19  C   UNL     1     -10.699   9.732  70.332  1.00  0.00    -0.368 C  
HETATM   20  H1  UNL     1     -11.316  12.113  69.445  1.00  0.00     0.000 HD 
HETATM   21  H2  UNL     1     -10.569  11.323  68.155  1.00  0.00     0.000 HD 
HETATM   22  C   UNL     1     -10.073   8.752  71.324  1.00  0.00    -0.266 C  
HETATM   23  C   UNL     1      -9.754  10.880  70.013  1.00  0.00     0.835 C  
HETATM   24  N   UNL     1     -11.127   7.772  71.640  1.00  0.00    -0.234 NA 
HETATM   25  C   UNL     1      -8.771   8.107  70.754  1.00  0.00    -0.139 C  
HETATM   26  H   UNL     1      -6.401   7.865  69.895  1.00  0.00     0.000 HD 
HETATM   27  H1  UNL     1     -10.710   7.118  72.302  1.00  0.00     0.000 HD 
HETATM   28  C   UNL     1      -7.784   9.202  70.245  1.00  0.00    -0.113 C  
HETATM   29  H2  UNL     1     -11.525   7.320  70.815  1.00  0.00     0.000 HD 
HETATM   30  O   UNL     1      -6.791   8.575  69.399  1.00  0.00    -0.045 OA 
BRANCH  25  31
HETATM   31  O   UNL     1      -8.039   7.324  71.748  1.00  0.00    -0.099 OA 
BRANCH  31  32
HETATM   32  C   UNL     1      -8.080   5.903  71.558  1.00  0.00    -0.115 C  
HETATM   33  O   UNL     1      -9.326   5.458  71.005  1.00  0.00    -0.144 OA 
HETATM   34  C   UNL     1      -9.521   5.886  69.647  1.00  0.00    -0.143 C  
HETATM   35  C   UNL     1      -8.417   5.320  68.740  1.00  0.00    -0.092 C  
HETATM   36  H   UNL     1      -4.901   5.605  70.738  1.00  0.00     0.000 HD 
HETATM   37  C   UNL     1      -7.035   5.790  69.234  1.00  0.00    -0.064 C  
HETATM   38  H1  UNL     1      -5.045   5.532  68.713  1.00  0.00     0.000 HD 
HETATM   39  O   UNL     1      -8.601   5.686  67.370  1.00  0.00    -0.110 OA 
HETATM   40  H   UNL     1      -7.919   5.336  66.809  1.00  0.00     0.000 HD 
HETATM   41  H2  UNL     1      -6.102   5.433  67.399  1.00  0.00     0.000 HD 
HETATM   42  C   UNL     1      -6.873   5.412  70.716  1.00  0.00    -0.051 C  
HETATM   43  N   UNL     1      -5.960   5.221  68.386  1.00  0.00    -0.020 NA 
HETATM   44  O   UNL     1      -5.640   5.906  71.254  1.00  0.00    -0.019 OA 
BRANCH  34  45
HETATM   45  C   UNL     1     -10.896   5.391  69.178  1.00  0.00     0.026 C  
HETATM   46  O   UNL     1     -11.338   6.128  68.038  1.00  0.00    -0.440 OA 
HETATM   47  H   UNL     1     -12.189   5.821  67.747  1.00  0.00     0.000 HD 
ENDBRANCH  34  45
ENDBRANCH  31  32
ENDBRANCH  25  31
ENDBRANCH  16  17
ENDBRANCH   7  16
ENDBRANCH   2   5
TORSDOF 6
ENDMDL
MODEL      326
REMARK 921   NORMALIZED FREE ENERGY PREDICTED BY IDOCK:    9.47 KCAL/MOL
REMARK 922        TOTAL FREE ENERGY PREDICTED BY IDOCK:   11.74 KCAL/MOL
REMARK 923 INTER-LIGAND FREE ENERGY PREDICTED BY IDOCK:   -3.58 KCAL/MOL
REMARK 924 INTRA-LIGAND FREE ENERGY PREDICTED BY IDOCK:   15.32 KCAL/MOL
REMARK 927      BINDING AFFINITY PREDICTED BY RF-SCORE:    0.00 PKD
ROOT
HETATM    1  N   UNL     1     -10.168   9.801  67.439  1.00  0.00    -0.215 NA 
HETATM    2  C   UNL     1     -10.861  11.042  67.818  1.00  0.00    -0.249 C  
HETATM    3  H2  UNL     1      -9.504   9.967  66.684  1.00  0.00     0.000 HD 
HETATM    4  H1  UNL     1      -9.717   9.352  68.235  1.00  0.00     0.000 HD 
ENDROOT
BRANCH   2   5
HETATM    5  C   UNL     1     -11.547  11.724  66.608  1.00  0.00    -0.197 C  
HETATM    6  O   UNL     1     -11.153  13.097  66.460  1.00  0.00    -0.285 OA 
HETATM    7  C   UNL     1      -9.806  13.298  66.064  1.00  0.00    -0.263 C  
HETATM    8  C   UNL     1      -9.560  12.647  64.663  1.00  0.00     0.228 C  
HETATM    9  C   UNL     1     -11.346  10.939  65.297  1.00  0.00     0.443 C  
HETATM   10  N   UNL     1     -10.315  13.316  63.581  1.00  0.00    -0.535 NA 
HETATM   11  C   UNL     1      -9.945  11.156  64.714  1.00  0.00    -0.339 C  
HETATM   12  H   UNL     1     -12.216  10.891  63.551  1.00  0.00     0.000 HD 
HETATM   13  H1  UNL     1     -10.155  12.891  62.667  1.00  0.00     0.000 HD 
HETATM   14  H2  UNL     1     -10.114  14.316  63.560  1.00  0.00     0.000 HD 
HETATM   15  O   UNL     1     -12.339  11.374  64.359  1.00  0.00     0.157 OA 
BRANCH   7  16
HETATM   16  O   UNL     1      -9.511  14.703  65.999  1.00  0.00    -0.288 OA 
BRANCH  16  17
HETATM   17  C   UNL     1      -8.430  15.187  66.850  1.00  0.00    -0.244 C  
HETATM   18  N   UNL     1      -8.507  13.251  68.407  1.00  0.00    -0.249 NA 
HETATM   19  C   UNL     1      -7.425  15.275  69.168  1.00  0.00    -0.179 C  
HETATM   20  H1  UNL     1      -8.588  12.942  69.375  1.00  0.00     0.000 HD 
HETATM   21  H2  UNL     1      -7.671  12.873  67.961  1.00  0.00     0.000 HD 
HETATM   22  C   UNL     1      -7.400  16.803  69.137  1.00  0.00    -0.213 C  
HETATM   23  C   UNL     1      -8.553  14.719  68.315  1.00  0.00    -0.164 C  
HETATM   24  N   UNL     1      -6.353  17.208  70.092  1.00  0.00     0.063 NA 
HETATM   25  C   UNL     1      -7.170  17.346  67.691  1.00  0.00    -0.164 C  
HETATM   26  H   UNL     1      -7.558  17.869  65.245  1.00  0.00     0.000 HD 
HETATM   27  H1  UNL     1      -6.337  18.227  70.071  1.00  0.00     0.000 HD 
HETATM   28  C   UNL     1      -8.185  16.713  66.690  1.00  0.00    -0.266 C  
HETATM   29  H2  UNL     1      -5.445  16.781  69.907  1.00  0.00     0.000 HD 
HETATM   30  O   UNL     1      -7.709  16.936  65.342  1.00  0.00     0.422 OA 
BRANCH  25  31
HETATM   31  O   UNL     1      -7.342  18.794  67.591  1.00  0.00    -0.222 OA 
BRANCH  31  32
HETATM   32  C   UNL     1      -8.604  19.294  68.054  1.00  0.00    -0.321 C  
HETATM   33  O   UNL     1      -9.215  20.195  67.122  1.00  0.00    -0.345 OA 
HETATM   34  C   UNL     1      -9.644  19.546  65.914  1.00  0.00    -0.155 C  
HETATM   35  C   UNL     1     -10.695  18.468  66.226  1.00  0.00    -0.198 C  
HETATM   36  H   UNL     1      -9.505  16.508  69.570  1.00  0.00     0.000 HD 
HETATM   37  C   UNL     1     -10.106  17.421  67.191  1.00  0.00    -0.307 C  
HETATM   38  H1  UNL     1     -10.732  15.701  68.166  1.00  0.00     0.000 HD 
HETATM   39  O   UNL     1     -11.182  17.829  65.044  1.00  0.00    -0.566 OA 
HETATM   40  H   UNL     1     -11.831  17.163  65.237  1.00  0.00     0.000 HD 
HETATM   41  H2  UNL     1     -11.515  15.962  66.692  1.00  0.00     0.000 HD 
HETATM   42  C   UNL     1      -9.561  18.135  68.440  1.00  0.00    -0.337 C  
HETATM   43  N   UNL     1     -11.122  16.395  67.527  1.00  0.00    -0.183 NA 
HETATM   44  O   UNL     1      -8.919  17.217  69.334  1.00  0.00     0.083 OA 
BRANCH  34  45
HETATM   45  C   UNL     1     -10.240  20.609  64.980  1.00  0.00     1.220 C  
HETATM   46  O   UNL     1     -11.625  20.358  64.745  1.00  0.00     0.290 OA 
HETATM   47  H   UNL     1     -11.994  21.016  64.168  1.00  0.00     0.000 HD 
ENDBRANCH  34  45
ENDBRANCH  31  32
ENDBRANCH  25  31
ENDBRANCH  16  17
ENDBRANCH   7  16
ENDBRANCH   2   5
TORSDOF 6
ENDMDL
MODEL      327
REMARK 921   NORMALIZED FREE ENERGY PREDICTED BY IDOCK:   11.19 KCAL/MOL
REMARK 922        TOTAL FREE ENERGY PREDICTED BY IDOCK:   14.06 KCAL/MOL
REMARK 923 INTER-LIGAND FREE ENERGY PREDICTED BY IDOCK:   11.35 KCAL/MOL
REMARK 924 INTRA-LIGAND FREE ENERGY PREDICTED BY IDOCK:    2.71 KCAL/MOL
REMARK 927      BINDING AFFINITY PREDICTED BY RF-SCORE:    0.00 PKD
ROOT
HETATM    1  N   UNL     1     -10.707  11.606  63.527  1.00  0.00    -0.480 NA 
HETATM    2  C   UNL     1      -9.475  11.280  64.261  1.00  0.00    -0.178 C  
HETATM    3  H2  UNL     1     -10.844  12.615  63.467  1.00  0.00     0.000 HD 
HETATM    4  H1  UNL     1     -10.731  11.176  62.604  1.00  0.00     0.000 HD 
ENDROOT
BRANCH   2   5
HETATM    5  C   UNL     1      -9.438  11.935  65.665  1.00  0.00    -0.166 C  
HETATM    6  O   UNL     1     -10.508  12.873  65.859  1.00  0.00    -0.270 OA 
HETATM    7  C   UNL     1     -11.803  12.299  65.942  1.00  0.00    -0.354 C  
HETATM    8  C   UNL     1     -11.879  11.330  67.166  1.00  0.00     0.329 C  
HETATM    9  C   UNL     1      -9.393  10.893  66.800  1.00  0.00    -0.165 C  
HETATM   10  N   UNL     1     -11.758  12.034  68.461  1.00  0.00    -0.316 NA 
HETATM   11  C   UNL     1     -10.770  10.268  67.052  1.00  0.00    -0.281 C  
HETATM   12  H   UNL     1      -8.900  10.905  68.688  1.00  0.00     0.000 HD 
HETATM   13  H1  UNL     1     -11.808  11.402  69.261  1.00  0.00     0.000 HD 
HETATM   14  H2  UNL     1     -12.452  12.778  68.539  1.00  0.00     0.000 HD 
HETATM   15  O   UNL     1      -8.928  11.547  67.988  1.00  0.00    -0.156 OA 
BRANCH   7  16
HETATM   16  O   UNL     1     -12.795  13.331  66.082  1.00  0.00    -0.262 OA 
BRANCH  16  17
HETATM   17  C   UNL     1     -12.507  14.609  65.443  1.00  0.00    -0.160 C  
HETATM   18  N   UNL     1     -12.940  13.794  63.136  1.00  0.00    -0.001 NA 
HETATM   19  C   UNL     1     -11.644  15.818  63.397  1.00  0.00     2.081 C  
HETATM   20  H1  UNL     1     -12.579  13.697  62.187  1.00  0.00     0.000 HD 
HETATM   21  H2  UNL     1     -13.842  14.270  63.148  1.00  0.00     0.000 HD 
HETATM   22  C   UNL     1     -10.624  16.586  64.238  1.00  0.00     1.527 C  
HETATM   23  C   UNL     1     -11.961  14.463  64.007  1.00  0.00    -0.258 C  
HETATM   24  N   UNL     1     -10.316  17.810  63.477  1.00  0.00     7.816 NA 
HETATM   25  C   UNL     1     -11.159  16.864  65.678  1.00  0.00     0.178 C  
HETATM   26  H   UNL     1     -11.964  16.470  68.046  1.00  0.00     0.000 HD 
HETATM   27  H1  UNL     1      -9.636  18.322  64.038  1.00  0.00     0.000 HD 
HETATM   28  C   UNL     1     -11.664  15.550  66.349  1.00  0.00     0.327 C  
HETATM   29  H2  UNL     1     -11.142  18.359  63.235  1.00  0.00     0.000 HD 
HETATM   30  O   UNL     1     -12.479  15.895  67.493  1.00  0.00     1.077 OA 
BRANCH  25  31
HETATM   31  O   UNL     1     -10.138  17.414  66.569  1.00  0.00    -0.295 OA 
BRANCH  31  32
HETATM   32  C   UNL     1     -10.612  17.840  67.853  1.00  0.00    -0.382 C  
HETATM   33  O   UNL     1     -10.982  16.740  68.696  1.00  0.00    -0.338 OA 
HETATM   34  C   UNL     1      -9.857  15.946  69.108  1.00  0.00    -0.247 C  
HETATM   35  C   UNL     1      -8.866  16.798  69.917  1.00  0.00     1.218 C  
HETATM   36  H   UNL     1      -8.566  20.412  68.105  1.00  0.00     0.000 HD 
HETATM   37  C   UNL     1      -8.374  17.986  69.068  1.00  0.00    -0.014 C  
HETATM   38  H1  UNL     1      -7.117  19.620  69.288  1.00  0.00     0.000 HD 
HETATM   39  O   UNL     1      -7.752  16.033  70.386  1.00  0.00     0.977 OA 
HETATM   40  H   UNL     1      -7.139  16.559  70.886  1.00  0.00     0.000 HD 
HETATM   41  H2  UNL     1      -6.667  18.294  70.232  1.00  0.00     0.000 HD 
HETATM   42  C   UNL     1      -9.589  18.774  68.550  1.00  0.00    -0.369 C  
HETATM   43  N   UNL     1      -7.443  18.834  69.851  1.00  0.00     0.489 NA 
HETATM   44  O   UNL     1      -9.193  19.840  67.679  1.00  0.00    -0.318 OA 
BRANCH  34  45
HETATM   45  C   UNL     1     -10.375  14.782  69.964  1.00  0.00     0.110 C  
HETATM   46  O   UNL     1      -9.728  13.562  69.603  1.00  0.00     0.229 OA 
HETATM   47  H   UNL     1     -10.049  12.841  70.133  1.00  0.00     0.000 HD 
ENDBRANCH  34  45
ENDBRANCH  31  32
ENDBRANCH  25  31
ENDBRANCH  16  17
ENDBRANCH   7  16
ENDBRANCH   2   5
TORSDOF 6
ENDMDL
MODEL      328
REMARK 921   NORMALIZED FREE ENERGY PREDICTED BY IDOCK:   12.13 KCAL/MOL
REMARK 922        TOTAL FREE ENERGY PREDICTED BY IDOCK:   15.33 KCAL/MOL
REMARK 923 INTER-LIGAND FREE ENERGY PREDICTED BY IDOCK:    6.20 KCAL/MOL
REMARK 924 INTRA-LIGAND FREE ENERGY PREDICTED BY IDOCK:    9.13 KCAL/MOL
REMARK 927      BINDING AFFINITY PREDICTED BY RF-SCORE:    0.00 PKD
ROOT
HETATM    1  N   UNL     1     -12.913  13.014  68.107  1.00  0.00     1.283 NA 
HETATM    2  C   UNL     1     -12.654  12.852  69.545  1.00  0.00     0.402 C  
HETATM    3  H2  UNL     1     -13.887  12.811  67.883  1.00  0.00     0.000 HD 
HETATM    4  H1  UNL     1     -12.642  13.936  67.767  1.00  0.00     0.000 HD 
ENDROOT
BRANCH   2   5
HETATM    5  C   UNL     1     -13.067  11.451  70.061  1.00  0.00     0.552 C  
HETATM    6  O   UNL     1     -12.078  10.450  69.771  1.00  0.00    -0.228 OA 
HETATM    7  C   UNL     1     -10.863  10.577  70.493  1.00  0.00     0.008 C  
HETATM    8  C   UNL     1     -11.139  10.451  72.027  1.00  0.00     2.501 C  
HETATM    9  C   UNL     1     -13.435  11.458  71.558  1.00  0.00     0.111 C  
HETATM   10  N   UNL     1     -11.601   9.101  72.415  1.00  0.00    -0.082 NA 
HETATM   11  C   UNL     1     -12.188  11.496  72.449  1.00  0.00     2.207 C  
HETATM   12  H   UNL     1     -14.426  10.282  72.758  1.00  0.00     0.000 HD 
HETATM   13  H1  UNL     1     -11.781   9.018  73.416  1.00  0.00     0.000 HD 
HETATM   14  H2  UNL     1     -10.945   8.386  72.101  1.00  0.00     0.000 HD 
HETATM   15  O   UNL     1     -14.199  10.278  71.835  1.00  0.00     0.267 OA 
BRANCH   7  16
HETATM   16  O   UNL     1      -9.934   9.558  70.085  1.00  0.00    -0.209 OA 
BRANCH  16  17
HETATM   17  C   UNL     1     -10.474   8.218  69.891  1.00  0.00    -0.223 C  
HETATM   18  N   UNL     1     -11.597   8.121  72.106  1.00  0.00    -0.331 NA 
HETATM   19  C   UNL     1     -11.184   6.036  70.953  1.00  0.00    -0.335 C  
HETATM   20  H1  UNL     1     -11.714   7.604  72.977  1.00  0.00     0.000 HD 
HETATM   21  H2  UNL     1     -12.492   8.293  71.648  1.00  0.00     0.000 HD 
HETATM   22  C   UNL     1     -10.257   5.245  70.030  1.00  0.00    -0.288 C  
HETATM   23  C   UNL     1     -10.652   7.437  71.209  1.00  0.00    -0.216 C  
HETATM   24  N   UNL     1     -10.818   3.884  69.968  1.00  0.00     2.210 NA 
HETATM   25  C   UNL     1     -10.117   5.928  68.633  1.00  0.00    -0.168 C  
HETATM   26  H   UNL     1      -9.514   7.620  66.849  1.00  0.00     0.000 HD 
HETATM   27  H1  UNL     1     -10.199   3.356  69.352  1.00  0.00     0.000 HD 
HETATM   28  C   UNL     1      -9.723   7.429  68.783  1.00  0.00    -0.149 C  
HETATM   29  H2  UNL     1     -11.798   3.859  69.682  1.00  0.00     0.000 HD 
HETATM   30  O   UNL     1      -9.972   8.103  67.526  1.00  0.00    -0.163 OA 
BRANCH  25  31
HETATM   31  O   UNL     1      -9.086   5.313  67.798  1.00  0.00    -0.109 OA 
BRANCH  31  32
HETATM   32  C   UNL     1      -9.248   3.909  67.560  1.00  0.00    -0.172 C  
HETATM   33  O   UNL     1      -9.328   3.593  66.164  1.00  0.00    -0.163 OA 
HETATM   34  C   UNL     1      -8.089   3.812  65.468  1.00  0.00    -0.097 C  
HETATM   35  C   UNL     1      -6.981   2.921  66.051  1.00  0.00    -0.056 C  
HETATM   36  H   UNL     1      -7.364   2.943  70.087  1.00  0.00     0.000 HD 
HETATM   37  C   UNL     1      -6.790   3.228  67.549  1.00  0.00    -0.049 C  
HETATM   38  H1  UNL     1      -5.620   2.553  69.122  1.00  0.00     0.000 HD 
HETATM   39  O   UNL     1      -5.740   3.075  65.355  1.00  0.00    -0.017 OA 
HETATM   40  H   UNL     1      -5.055   2.525  65.716  1.00  0.00     0.000 HD 
HETATM   41  H2  UNL     1      -4.868   2.412  67.616  1.00  0.00     0.000 HD 
HETATM   42  C   UNL     1      -8.142   3.085  68.270  1.00  0.00    -0.065 C  
HETATM   43  N   UNL     1      -5.746   2.349  68.130  1.00  0.00    -0.018 NA 
HETATM   44  O   UNL     1      -8.042   3.447  69.653  1.00  0.00    -0.049 OA 
BRANCH  34  45
HETATM   45  C   UNL     1      -8.305   3.484  63.984  1.00  0.00    -0.090 C  
HETATM   46  O   UNL     1      -7.692   2.240  63.646  1.00  0.00    -0.064 OA 
HETATM   47  H   UNL     1      -7.826   2.037  62.728  1.00  0.00     0.000 HD 
ENDBRANCH  34  45
ENDBRANCH  31  32
ENDBRANCH  25  31
ENDBRANCH  16  17
ENDBRANCH   7  16
ENDBRANCH   2   5
TORSDOF 6
ENDMDL
MODEL      329
REMARK 921   NORMALIZED FREE ENERGY PREDICTED BY IDOCK:   13.22 KCAL/MOL
REMARK 922        TOTAL FREE ENERGY PREDICTED BY IDOCK:   16.81 KCAL/MOL
REMARK 923 INTER-LIGAND FREE ENERGY PREDICTED BY IDOCK:    0.01 KCAL/MOL
REMARK 924 INTRA-LIGAND FREE ENERGY PREDICTED BY IDOCK:   16.80 KCAL/MOL
REMARK 927      BINDING AFFINITY PREDICTED BY RF-SCORE:    0.00 PKD
ROOT
HETATM    1  N   UNL     1      -5.163  19.884  68.353  1.00  0.00    -0.190 NA 
HETATM    2  C   UNL     1      -6.588  20.244  68.385  1.00  0.00    -0.300 C  
HETATM    3  H2  UNL     1      -4.732  20.168  67.473  1.00  0.00     0.000 HD 
HETATM    4  H1  UNL     1      -4.652  20.259  69.151  1.00  0.00     0.000 HD 
ENDROOT
BRANCH   2   5
HETATM    5  C   UNL     1      -7.365  19.674  67.171  1.00  0.00    -0.217 C  
HETATM    6  O   UNL     1      -8.014  18.429  67.473  1.00  0.00    -0.233 OA 
HETATM    7  C   UNL     1      -9.102  18.522  68.379  1.00  0.00    -0.322 C  
HETATM    8  C   UNL     1     -10.221  19.432  67.776  1.00  0.00    -0.419 C  
HETATM    9  C   UNL     1      -8.356  20.692  66.574  1.00  0.00     0.102 C  
HETATM   10  N   UNL     1     -10.853  18.842  66.576  1.00  0.00    -0.255 NA 
HETATM   11  C   UNL     1      -9.629  20.809  67.422  1.00  0.00    -0.484 C  
HETATM   12  H   UNL     1      -9.301  20.893  64.879  1.00  0.00     0.000 HD 
HETATM   13  H1  UNL     1     -11.583  19.436  66.182  1.00  0.00     0.000 HD 
HETATM   14  H2  UNL     1     -11.209  17.907  66.773  1.00  0.00     0.000 HD 
HETATM   15  O   UNL     1      -8.689  20.266  65.247  1.00  0.00     0.150 OA 
BRANCH   7  16
HETATM   16  O   UNL     1      -9.638  17.215  68.648  1.00  0.00    -0.264 OA 
BRANCH  16  17
HETATM   17  C   UNL     1      -8.843  16.344  69.505  1.00  0.00     0.160 C  
HETATM   18  N   UNL     1      -7.067  18.029  69.929  1.00  0.00     0.423 NA 
HETATM   19  C   UNL     1      -6.545  15.705  70.344  1.00  0.00     0.238 C  
HETATM   20  H1  UNL     1      -6.069  18.238  69.901  1.00  0.00     0.000 HD 
HETATM   21  H2  UNL     1      -7.459  18.193  70.857  1.00  0.00     0.000 HD 
HETATM   22  C   UNL     1      -6.758  14.250  69.925  1.00  0.00    -0.068 C  
HETATM   23  C   UNL     1      -7.334  16.659  69.462  1.00  0.00     0.034 C  
HETATM   24  N   UNL     1      -5.851  13.452  70.768  1.00  0.00    -0.303 NA 
HETATM   25  C   UNL     1      -8.257  13.830  70.047  1.00  0.00     1.932 C  
HETATM   26  H   UNL     1     -10.751  13.721  69.626  1.00  0.00     0.000 HD 
HETATM   27  H1  UNL     1      -5.993  12.482  70.488  1.00  0.00     0.000 HD 
HETATM   28  C   UNL     1      -9.182  14.840  69.303  1.00  0.00    -0.031 C  
HETATM   29  H2  UNL     1      -5.977  13.612  71.768  1.00  0.00     0.000 HD 
HETATM   30  O   UNL     1     -10.544  14.640  69.749  1.00  0.00    -0.166 OA 
BRANCH  25  31
HETATM   31  O   UNL     1      -8.530  12.516  69.466  1.00  0.00     0.977 OA 
BRANCH  31  32
HETATM   32  C   UNL     1      -8.178  12.374  68.084  1.00  0.00    -0.173 C  
HETATM   33  O   UNL     1      -9.190  11.700  67.324  1.00  0.00    -0.165 OA 
HETATM   34  C   UNL     1     -10.394  12.472  67.185  1.00  0.00    -0.220 C  
HETATM   35  C   UNL     1     -10.106  13.789  66.449  1.00  0.00    -0.295 C  
HETATM   36  H   UNL     1      -6.604  15.262  67.863  1.00  0.00     0.000 HD 
HETATM   37  C   UNL     1      -9.057  14.609  67.224  1.00  0.00    -0.206 C  
HETATM   38  H1  UNL     1      -8.051  16.411  67.018  1.00  0.00     0.000 HD 
HETATM   39  O   UNL     1     -11.290  14.568  66.249  1.00  0.00    -0.340 OA 
HETATM   40  H   UNL     1     -11.112  15.382  65.795  1.00  0.00     0.000 HD 
HETATM   41  H2  UNL     1      -9.586  16.413  66.313  1.00  0.00     0.000 HD 
HETATM   42  C   UNL     1      -7.807  13.742  67.453  1.00  0.00    -0.153 C  
HETATM   43  N   UNL     1      -8.746  15.868  66.505  1.00  0.00    -0.287 NA 
HETATM   44  O   UNL     1      -6.831  14.425  68.249  1.00  0.00    -0.091 OA 
BRANCH  34  45
HETATM   45  C   UNL     1     -11.414  11.637  66.397  1.00  0.00    -0.165 C  
HETATM   46  O   UNL     1     -12.552  11.334  67.203  1.00  0.00     1.342 OA 
HETATM   47  H   UNL     1     -13.183  10.818  66.715  1.00  0.00     0.000 HD 
ENDBRANCH  34  45
ENDBRANCH  31  32
ENDBRANCH  25  31
ENDBRANCH  16  17
ENDBRANCH   7  16
ENDBRANCH   2   5
TORSDOF 6
ENDMDL
MODEL      330
REMARK 921   NORMALIZED FREE ENERGY PREDICTED BY IDOCK:   14.46 KCAL/MOL
REMARK 922        TOTAL FREE ENERGY PREDICTED BY IDOCK:   18.48 KCAL/MOL
REMARK 923 INTER-LIGAND FREE ENERGY PREDICTED BY IDOCK:    1.22 KCAL/MOL
REMARK 924 INTRA-LIGAND FREE ENERGY PREDICTED BY IDOCK:   17.26 KCAL/MOL
REMARK 927      BINDING AFFINITY PREDICTED BY RF-SCORE:    0.00 PKD
ROOT
HETATM    1  N   UNL     1      -9.520  19.931  65.730  1.00  0.00    -0.455 NA 
HETATM    2  C   UNL     1      -8.672  18.732  65.794  1.00  0.00     0.420 C  
HETATM    3  H2  UNL     1     -10.463  19.734  66.066  1.00  0.00     0.000 HD 
HETATM    4  H1  UNL     1      -9.110  20.721  66.227  1.00  0.00     0.000 HD 
ENDROOT
BRANCH   2   5
HETATM    5  C   UNL     1      -9.296  17.531  65.039  1.00  0.00     2.714 C  
HETATM    6  O   UNL     1      -8.800  16.270  65.515  1.00  0.00    -0.277 OA 
HETATM    7  C   UNL     1      -9.212  15.916  66.825  1.00  0.00    -0.240 C  
HETATM    8  C   UNL     1     -10.770  15.791  66.877  1.00  0.00    -0.299 C  
HETATM    9  C   UNL     1     -10.837  17.566  65.046  1.00  0.00     0.407 C  
HETATM   10  N   UNL     1     -11.281  14.664  66.066  1.00  0.00    -0.339 NA 
HETATM   11  C   UNL     1     -11.409  17.106  66.392  1.00  0.00     0.925 C  
HETATM   12  H   UNL     1     -12.257  16.732  64.001  1.00  0.00     0.000 HD 
HETATM   13  H1  UNL     1     -12.297  14.582  66.100  1.00  0.00     0.000 HD 
HETATM   14  H2  UNL     1     -10.834  13.788  66.336  1.00  0.00     0.000 HD 
HETATM   15  O   UNL     1     -11.307  16.711  63.996  1.00  0.00    -1.120 OA 
BRANCH   7  16
HETATM   16  O   UNL     1      -8.616  14.667  67.214  1.00  0.00    -0.188 OA 
BRANCH  16  17
HETATM   17  C   UNL     1      -9.384  13.459  66.938  1.00  0.00    -0.252 C  
HETATM   18  N   UNL     1     -10.645  13.518  69.079  1.00  0.00    -0.404 NA 
HETATM   19  C   UNL     1     -10.558  11.424  67.873  1.00  0.00    -0.224 C  
HETATM   20  H1  UNL     1     -10.913  13.011  69.922  1.00  0.00     0.000 HD 
HETATM   21  H2  UNL     1     -11.460  13.870  68.577  1.00  0.00     0.000 HD 
HETATM   22  C   UNL     1      -9.739  10.496  66.976  1.00  0.00    -0.177 C  
HETATM   23  C   UNL     1      -9.790  12.691  68.213  1.00  0.00    -0.227 C  
HETATM   24  N   UNL     1     -10.540   9.269  66.830  1.00  0.00    -0.188 NA 
HETATM   25  C   UNL     1      -9.384  11.177  65.617  1.00  0.00    -0.219 C  
HETATM   26  H   UNL     1      -8.360  12.770  63.936  1.00  0.00     0.000 HD 
HETATM   27  H1  UNL     1      -9.994   8.649  66.231  1.00  0.00     0.000 HD 
HETATM   28  C   UNL     1      -8.725  12.571  65.846  1.00  0.00     0.512 C  
HETATM   29  H2  UNL     1     -11.487   9.437  66.487  1.00  0.00     0.000 HD 
HETATM   30  O   UNL     1      -8.763  13.313  64.604  1.00  0.00     2.290 OA 
BRANCH  25  31
HETATM   31  O   UNL     1      -8.435  10.399  64.820  1.00  0.00    -0.171 OA 
BRANCH  31  32
HETATM   32  C   UNL     1      -7.201  10.082  65.478  1.00  0.00    -0.133 C  
HETATM   33  O   UNL     1      -6.800  11.092  66.413  1.00  0.00    -0.133 OA 
HETATM   34  C   UNL     1      -7.666  11.173  67.557  1.00  0.00    -0.116 C  
HETATM   35  C   UNL     1      -7.664   9.844  68.328  1.00  0.00    -0.085 C  
HETATM   36  H   UNL     1      -7.745   6.834  65.613  1.00  0.00     0.000 HD 
HETATM   37  C   UNL     1      -8.132   8.699  67.408  1.00  0.00    -0.102 C  
HETATM   38  H1  UNL     1      -8.410   6.648  67.524  1.00  0.00     0.000 HD 
HETATM   39  O   UNL     1      -8.480   9.897  69.502  1.00  0.00    -0.146 OA 
HETATM   40  H   UNL     1      -8.478   9.076  69.978  1.00  0.00     0.000 HD 
HETATM   41  H2  UNL     1      -8.639   7.442  68.997  1.00  0.00     0.000 HD 
HETATM   42  C   UNL     1      -7.260   8.681  66.141  1.00  0.00    -0.085 C  
HETATM   43  N   UNL     1      -8.100   7.405  68.133  1.00  0.00    -0.123 NA 
HETATM   44  O   UNL     1      -7.709   7.691  65.207  1.00  0.00    -0.096 OA 
BRANCH  34  45
HETATM   45  C   UNL     1      -7.167  12.309  68.461  1.00  0.00    -0.103 C  
HETATM   46  O   UNL     1      -6.645  13.385  67.681  1.00  0.00    -0.151 OA 
HETATM   47  H   UNL     1      -6.336  14.088  68.240  1.00  0.00     0.000 HD 
ENDBRANCH  34  45
ENDBRANCH  31  32
ENDBRANCH  25  31
ENDBRANCH  16  17
ENDBRANCH   7  16
ENDBRANCH   2   5
TORSDOF 6
ENDMDL
MODEL      331
REMARK 921   NORMALIZED FREE ENERGY PREDICTED BY IDOCK:   15.62 KCAL/MOL
REMARK 922        TOTAL FREE ENERGY PREDICTED BY IDOCK:   20.04 KCAL/MOL
REMARK 923 INTER-LIGAND FREE ENERGY PREDICTED BY IDOCK:   10.14 KCAL/MOL
REMARK 924 INTRA-LIGAND FREE ENERGY PREDICTED BY IDOCK:    9.90 KCAL/MOL
REMARK 927      BINDING AFFINITY PREDICTED BY RF-SCORE:    0.00 PKD
ROOT
HETATM    1  N   UNL     1     -11.253  18.394  71.803  1.00  0.00     2.264 NA 
HETATM    2  C   UNL     1     -11.332  17.764  70.477  1.00  0.00     2.834 C  
HETATM    3  H2  UNL     1     -10.944  19.363  71.732  1.00  0.00     0.000 HD 
HETATM    4  H1  UNL     1     -12.131  18.324  72.316  1.00  0.00     0.000 HD 
ENDROOT
BRANCH   2   5
HETATM    5  C   UNL     1      -9.998  17.870  69.696  1.00  0.00     0.357 C  
HETATM    6  O   UNL     1      -9.027  16.908  70.140  1.00  0.00     1.347 OA 
HETATM    7  C   UNL     1      -9.332  15.558  69.829  1.00  0.00    -0.132 C  
HETATM    8  C   UNL     1      -9.413  15.374  68.279  1.00  0.00    -0.200 C  
HETATM    9  C   UNL     1     -10.200  17.798  68.170  1.00  0.00    -0.382 C  
HETATM   10  N   UNL     1      -8.108  15.569  67.611  1.00  0.00    -0.138 NA 
HETATM   11  C   UNL     1     -10.443  16.360  67.696  1.00  0.00    -0.302 C  
HETATM   12  H   UNL     1      -9.152  18.285  66.598  1.00  0.00     0.000 HD 
HETATM   13  H1  UNL     1      -8.161  15.449  66.599  1.00  0.00     0.000 HD 
HETATM   14  H2  UNL     1      -7.396  14.960  68.015  1.00  0.00     0.000 HD 
HETATM   15  O   UNL     1      -9.028  18.330  67.539  1.00  0.00    -0.252 OA 
BRANCH   7  16
HETATM   16  O   UNL     1      -8.323  14.685  70.366  1.00  0.00     0.841 OA 
BRANCH  16  17
HETATM   17  C   UNL     1      -7.675  13.778  69.427  1.00  0.00     0.371 C  
HETATM   18  N   UNL     1      -5.676  15.217  69.091  1.00  0.00    -0.098 NA 
HETATM   19  C   UNL     1      -6.141  13.519  67.434  1.00  0.00     0.094 C  
HETATM   20  H1  UNL     1      -5.076  15.695  68.419  1.00  0.00     0.000 HD 
HETATM   21  H2  UNL     1      -5.141  14.596  69.698  1.00  0.00     0.000 HD 
HETATM   22  C   UNL     1      -7.207  12.730  66.673  1.00  0.00     0.781 C  
HETATM   23  C   UNL     1      -6.767  14.501  68.410  1.00  0.00    -0.105 C  
HETATM   24  N   UNL     1      -6.476  11.917  65.684  1.00  0.00     0.546 NA 
HETATM   25  C   UNL     1      -8.097  11.886  67.638  1.00  0.00    -0.148 C  
HETATM   26  H   UNL     1      -9.768  11.297  69.448  1.00  0.00     0.000 HD 
HETATM   27  H1  UNL     1      -7.187  11.392  65.176  1.00  0.00     0.000 HD 
HETATM   28  C   UNL     1      -8.672  12.774  68.785  1.00  0.00     0.182 C  
HETATM   29  H2  UNL     1      -5.749  11.331  66.095  1.00  0.00     0.000 HD 
HETATM   30  O   UNL     1      -9.159  11.912  69.840  1.00  0.00     1.741 OA 
BRANCH  25  31
HETATM   31  O   UNL     1      -9.249  11.282  66.970  1.00  0.00    -0.162 OA 
BRANCH  31  32
HETATM   32  C   UNL     1     -10.508  11.918  67.226  1.00  0.00    -0.222 C  
HETATM   33  O   UNL     1     -10.462  13.334  67.013  1.00  0.00    -0.247 OA 
HETATM   34  C   UNL     1     -10.292  13.689  65.631  1.00  0.00    -0.300 C  
HETATM   35  C   UNL     1     -11.467  13.163  64.792  1.00  0.00    -0.323 C  
HETATM   36  H   UNL     1     -12.351   9.428  66.097  1.00  0.00     0.000 HD 
HETATM   37  C   UNL     1     -11.565  11.631  64.922  1.00  0.00    -0.084 C  
HETATM   38  H1  UNL     1     -12.782  10.102  64.229  1.00  0.00     0.000 HD 
HETATM   39  O   UNL     1     -11.359  13.535  63.415  1.00  0.00    -0.516 OA 
HETATM   40  H   UNL     1     -12.085  13.210  62.897  1.00  0.00     0.000 HD 
HETATM   41  H2  UNL     1     -12.680  11.413  63.169  1.00  0.00     0.000 HD 
HETATM   42  C   UNL     1     -11.649  11.255  66.411  1.00  0.00     0.303 C  
HETATM   43  N   UNL     1     -12.718  11.116  64.144  1.00  0.00     1.029 NA 
HETATM   44  O   UNL     1     -11.652   9.834  66.596  1.00  0.00     0.844 OA 
BRANCH  34  45
HETATM   45  C   UNL     1     -10.214  15.219  65.531  1.00  0.00    -0.388 C  
HETATM   46  O   UNL     1      -9.680  15.618  64.269  1.00  0.00     0.608 OA 
HETATM   47  H   UNL     1      -9.632  16.564  64.207  1.00  0.00     0.000 HD 
ENDBRANCH  34  45
ENDBRANCH  31  32
ENDBRANCH  25  31
ENDBRANCH  16  17
ENDBRANCH   7  16
ENDBRANCH   2   5
TORSDOF 6
ENDMDL
MODEL      332
REMARK 921   NORMALIZED FREE ENERGY PREDICTED BY IDOCK:   16.60 KCAL/MOL
REMARK 922        TOTAL FREE ENERGY PREDICTED BY IDOCK:   21.36 KCAL/MOL
REMARK 923 INTER-LIGAND FREE ENERGY PREDICTED BY IDOCK:   17.81 KCAL/MOL
REMARK 924 INTRA-LIGAND FREE ENERGY PREDICTED BY IDOCK:    3.55 KCAL/MOL
REMARK 927      BINDING AFFINITY PREDICTED BY RF-SCORE:    0.00 PKD
ROOT
HETATM    1  N   UNL     1     -14.155   9.392  69.839  1.00  0.00     1.125 NA 
HETATM    2  C   UNL     1     -13.200  10.330  69.231  1.00  0.00     2.317 C  
HETATM    3  H2  UNL     1     -13.725   8.481  69.999  1.00  0.00     0.000 HD 
HETATM    4  H1  UNL     1     -14.566   9.761  70.696  1.00  0.00     0.000 HD 
ENDROOT
BRANCH   2   5
HETATM    5  C   UNL     1     -12.575   9.770  67.929  1.00  0.00     6.043 C  
HETATM    6  O   UNL     1     -12.259  10.806  66.985  1.00  0.00     0.907 OA 
HETATM    7  C   UNL     1     -11.193  11.662  67.365  1.00  0.00    -0.298 C  
HETATM    8  C   UNL     1      -9.876  10.834  67.523  1.00  0.00    -0.172 C  
HETATM    9  C   UNL     1     -11.354   8.869  68.201  1.00  0.00     0.752 C  
HETATM   10  N   UNL     1      -9.395  10.274  66.241  1.00  0.00    -0.162 NA 
HETATM   11  C   UNL     1     -10.103   9.692  68.531  1.00  0.00    -0.195 C  
HETATM   12  H   UNL     1     -10.368   7.513  67.202  1.00  0.00     0.000 HD 
HETATM   13  H1  UNL     1      -8.536   9.734  66.343  1.00  0.00     0.000 HD 
HETATM   14  H2  UNL     1      -9.285  11.007  65.540  1.00  0.00     0.000 HD 
HETATM   15  O   UNL     1     -11.121   8.069  67.035  1.00  0.00    -0.035 OA 
BRANCH   7  16
HETATM   16  O   UNL     1     -11.002  12.686  66.375  1.00  0.00    -0.260 OA 
BRANCH  16  17
HETATM   17  C   UNL     1      -9.755  13.438  66.441  1.00  0.00    -0.277 C  
HETATM   18  N   UNL     1      -8.848  12.530  64.313  1.00  0.00     0.816 NA 
HETATM   19  C   UNL     1      -7.293  13.530  65.871  1.00  0.00     4.537 C  
HETATM   20  H1  UNL     1      -8.069  12.058  63.853  1.00  0.00     0.000 HD 
HETATM   21  H2  UNL     1      -9.081  13.409  63.851  1.00  0.00     0.000 HD 
HETATM   22  C   UNL     1      -6.928  13.778  67.335  1.00  0.00    -0.047 C  
HETATM   23  C   UNL     1      -8.576  12.725  65.746  1.00  0.00     1.047 C  
HETATM   24  N   UNL     1      -5.617  14.449  67.314  1.00  0.00    -0.163 NA 
HETATM   25  C   UNL     1      -8.035  14.593  68.074  1.00  0.00    -0.136 C  
HETATM   26  H   UNL     1     -10.260  15.201  69.119  1.00  0.00     0.000 HD 
HETATM   27  H1  UNL     1      -5.373  14.614  68.290  1.00  0.00     0.000 HD 
HETATM   28  C   UNL     1      -9.436  13.936  67.879  1.00  0.00    -0.212 C  
HETATM   29  H2  UNL     1      -5.599  15.293  66.740  1.00  0.00     0.000 HD 
HETATM   30  O   UNL     1     -10.455  14.897  68.241  1.00  0.00    -0.232 OA 
BRANCH  25  31
HETATM   31  O   UNL     1      -7.817  14.673  69.518  1.00  0.00    -0.093 OA 
BRANCH  31  32
HETATM   32  C   UNL     1      -7.598  15.994  70.031  1.00  0.00     0.611 C  
HETATM   33  O   UNL     1      -6.689  16.754  69.225  1.00  0.00    -0.212 OA 
HETATM   34  C   UNL     1      -7.225  17.085  67.933  1.00  0.00    -0.154 C  
HETATM   35  C   UNL     1      -8.492  17.942  68.081  1.00  0.00    -0.267 C  
HETATM   36  H   UNL     1     -10.676  16.413  71.136  1.00  0.00     0.000 HD 
HETATM   37  C   UNL     1      -9.553  17.180  68.899  1.00  0.00    -0.237 C  
HETATM   38  H1  UNL     1     -11.470  17.507  69.619  1.00  0.00     0.000 HD 
HETATM   39  O   UNL     1      -9.033  18.332  66.816  1.00  0.00    -0.268 OA 
HETATM   40  H   UNL     1      -9.816  18.861  66.907  1.00  0.00     0.000 HD 
HETATM   41  H2  UNL     1     -11.138  18.338  68.186  1.00  0.00     0.000 HD 
HETATM   42  C   UNL     1      -8.939  16.745  70.241  1.00  0.00     2.335 C  
HETATM   43  N   UNL     1     -10.767  18.012  69.078  1.00  0.00     0.140 NA 
HETATM   44  O   UNL     1      -9.855  15.952  71.007  1.00  0.00     1.096 OA 
BRANCH  34  45
HETATM   45  C   UNL     1      -6.154  17.855  67.149  1.00  0.00    -0.145 C  
HETATM   46  O   UNL     1      -5.362  16.964  66.364  1.00  0.00    -0.350 OA 
HETATM   47  H   UNL     1      -4.700  17.441  65.878  1.00  0.00     0.000 HD 
ENDBRANCH  34  45
ENDBRANCH  31  32
ENDBRANCH  25  31
ENDBRANCH  16  17
ENDBRANCH   7  16
ENDBRANCH   2   5
TORSDOF 6
ENDMDL
MODEL      333
REMARK 921   NORMALIZED FREE ENERGY PREDICTED BY IDOCK:   16.91 KCAL/MOL
REMARK 922        TOTAL FREE ENERGY PREDICTED BY IDOCK:   21.79 KCAL/MOL
REMARK 923 INTER-LIGAND FREE ENERGY PREDICTED BY IDOCK:   -3.02 KCAL/MOL
REMARK 924 INTRA-LIGAND FREE ENERGY PREDICTED BY IDOCK:   24.81 KCAL/MOL
REMARK 927      BINDING AFFINITY PREDICTED BY RF-SCORE:    0.00 PKD
ROOT
HETATM    1  N   UNL     1     -10.556  15.047  67.736  1.00  0.00    -0.260 NA 
HETATM    2  C   UNL     1      -9.901  15.678  68.891  1.00  0.00    -0.219 C  
HETATM    3  H2  UNL     1     -10.689  14.048  67.888  1.00  0.00     0.000 HD 
HETATM    4  H1  UNL     1     -11.435  15.503  67.494  1.00  0.00     0.000 HD 
ENDROOT
BRANCH   2   5
HETATM    5  C   UNL     1      -8.565  14.984  69.259  1.00  0.00    -0.167 C  
HETATM    6  O   UNL     1      -8.242  13.911  68.361  1.00  0.00    -0.146 OA 
HETATM    7  C   UNL     1      -7.902  14.311  67.043  1.00  0.00     0.079 C  
HETATM    8  C   UNL     1      -6.629  15.218  67.074  1.00  0.00     0.413 C  
HETATM    9  C   UNL     1      -7.397  15.983  69.383  1.00  0.00    -0.212 C  
HETATM   10  N   UNL     1      -5.418  14.490  67.509  1.00  0.00    -0.342 NA 
HETATM   11  C   UNL     1      -6.874  16.417  68.009  1.00  0.00    -0.147 C  
HETATM   12  H   UNL     1      -5.628  15.968  70.206  1.00  0.00     0.000 HD 
HETATM   13  H1  UNL     1      -4.587  15.082  67.529  1.00  0.00     0.000 HD 
HETATM   14  H2  UNL     1      -5.263  13.662  66.935  1.00  0.00     0.000 HD 
HETATM   15  O   UNL     1      -6.348  15.352  70.129  1.00  0.00    -0.149 OA 
BRANCH   7  16
HETATM   16  O   UNL     1      -7.650  13.156  66.224  1.00  0.00     1.078 OA 
BRANCH  16  17
HETATM   17  C   UNL     1      -8.562  12.030  66.380  1.00  0.00    -0.037 C  
HETATM   18  N   UNL     1     -10.581  13.293  65.670  1.00  0.00    -0.278 NA 
HETATM   19  C   UNL     1     -10.906  11.248  66.919  1.00  0.00    -0.333 C  
HETATM   20  H1  UNL     1     -11.533  13.575  65.904  1.00  0.00     0.000 HD 
HETATM   21  H2  UNL     1     -10.538  12.830  64.763  1.00  0.00     0.000 HD 
HETATM   22  C   UNL     1     -10.381  10.320  68.015  1.00  0.00    -0.181 C  
HETATM   23  C   UNL     1     -10.002  12.456  66.734  1.00  0.00    -0.225 C  
HETATM   24  N   UNL     1     -11.403   9.272  68.177  1.00  0.00    -0.293 NA 
HETATM   25  C   UNL     1      -8.964   9.764  67.669  1.00  0.00    -0.128 C  
HETATM   26  H   UNL     1      -6.477   9.681  67.201  1.00  0.00     0.000 HD 
HETATM   27  H1  UNL     1     -11.054   8.653  68.908  1.00  0.00     0.000 HD 
HETATM   28  C   UNL     1      -7.985  10.921  67.304  1.00  0.00    -0.123 C  
HETATM   29  H2  UNL     1     -11.633   8.788  67.308  1.00  0.00     0.000 HD 
HETATM   30  O   UNL     1      -6.830  10.359  66.637  1.00  0.00    -0.088 OA 
BRANCH  25  31
HETATM   31  O   UNL     1      -8.349   9.040  68.780  1.00  0.00    -0.119 OA 
BRANCH  31  32
HETATM   32  C   UNL     1      -6.931   8.855  68.679  1.00  0.00    -0.064 C  
HETATM   33  O   UNL     1      -6.301   9.861  67.875  1.00  0.00    -0.055 OA 
HETATM   34  C   UNL     1      -6.329  11.163  68.483  1.00  0.00    -0.046 C  
HETATM   35  C   UNL     1      -5.578  11.147  69.824  1.00  0.00    -0.062 C  
HETATM   36  H   UNL     1      -6.545   7.711  71.747  1.00  0.00     0.000 HD 
HETATM   37  C   UNL     1      -6.221  10.121  70.777  1.00  0.00    -0.069 C  
HETATM   38  H1  UNL     1      -5.909   9.393  72.693  1.00  0.00     0.000 HD 
HETATM   39  O   UNL     1      -5.544  12.437  70.440  1.00  0.00    -0.133 OA 
HETATM   40  H   UNL     1      -5.080  12.427  71.269  1.00  0.00     0.000 HD 
HETATM   41  H2  UNL     1      -5.408  10.994  72.492  1.00  0.00     0.000 HD 
HETATM   42  C   UNL     1      -6.275   8.750  70.081  1.00  0.00    -0.034 C  
HETATM   43  N   UNL     1      -5.483  10.072  72.062  1.00  0.00    -0.263 NA 
HETATM   44  O   UNL     1      -6.946   7.775  70.888  1.00  0.00    -0.048 OA 
BRANCH  34  45
HETATM   45  C   UNL     1      -5.669  12.159  67.520  1.00  0.00    -0.117 C  
HETATM   46  O   UNL     1      -6.387  12.224  66.288  1.00  0.00    -0.252 OA 
HETATM   47  H   UNL     1      -5.979  12.841  65.691  1.00  0.00     0.000 HD 
ENDBRANCH  34  45
ENDBRANCH  31  32
ENDBRANCH  25  31
ENDBRANCH  16  17
ENDBRANCH   7  16
ENDBRANCH   2   5
TORSDOF 6
ENDMDL
MODEL      334
REMARK 921   NORMALIZED FREE ENERGY PREDICTED BY IDOCK:   23.24 KCAL/MOL
REMARK 922        TOTAL FREE ENERGY PREDICTED BY IDOCK:   30.34 KCAL/MOL
REMARK 923 INTER-LIGAND FREE ENERGY PREDICTED BY IDOCK:   21.32 KCAL/MOL
REMARK 924 INTRA-LIGAND FREE ENERGY PREDICTED BY IDOCK:    9.03 KCAL/MOL
REMARK 927      BINDING AFFINITY PREDICTED BY RF-SCORE:    0.00 PKD
ROOT
HETATM    1  N   UNL     1      -8.505  13.183  70.932  1.00  0.00     6.177 NA 
HETATM    2  C   UNL     1      -7.513  12.564  71.824  1.00  0.00     9.608 C  
HETATM    3  H2  UNL     1      -9.370  12.644  70.914  1.00  0.00     0.000 HD 
HETATM    4  H1  UNL     1      -8.683  14.158  71.170  1.00  0.00     0.000 HD 
ENDROOT
BRANCH   2   5
HETATM    5  C   UNL     1      -7.243  11.082  71.463  1.00  0.00     4.420 C  
HETATM    6  O   UNL     1      -8.204  10.563  70.530  1.00  0.00     0.398 OA 
HETATM    7  C   UNL     1      -8.124  11.105  69.221  1.00  0.00     0.055 C  
HETATM    8  C   UNL     1      -6.728  10.781  68.595  1.00  0.00    -0.058 C  
HETATM    9  C   UNL     1      -5.801  10.849  70.970  1.00  0.00     0.050 C  
HETATM   10  N   UNL     1      -6.530   9.335  68.356  1.00  0.00    -0.054 NA 
HETATM   11  C   UNL     1      -5.615  11.309  69.519  1.00  0.00    -0.057 C  
HETATM   12  H   UNL     1      -4.624   9.305  70.777  1.00  0.00     0.000 HD 
HETATM   13  H1  UNL     1      -5.619   9.124  67.947  1.00  0.00     0.000 HD 
HETATM   14  H2  UNL     1      -7.284   8.952  67.786  1.00  0.00     0.000 HD 
HETATM   15  O   UNL     1      -5.513   9.449  71.081  1.00  0.00    -0.044 OA 
BRANCH   7  16
HETATM   16  O   UNL     1      -9.162  10.554  68.392  1.00  0.00    -0.143 OA 
BRANCH  16  17
HETATM   17  C   UNL     1     -10.223  11.464  67.979  1.00  0.00    -0.185 C  
HETATM   18  N   UNL     1     -11.032  10.016  66.127  1.00  0.00     0.244 NA 
HETATM   19  C   UNL     1     -11.644  12.355  66.086  1.00  0.00    -0.452 C  
HETATM   20  H1  UNL     1     -11.253   9.951  65.134  1.00  0.00     0.000 HD 
HETATM   21  H2  UNL     1     -11.822   9.734  66.708  1.00  0.00     0.000 HD 
HETATM   22  C   UNL     1     -11.233  13.792  66.408  1.00  0.00    -0.316 C  
HETATM   23  C   UNL     1     -10.558  11.365  66.475  1.00  0.00    -0.263 C  
HETATM   24  N   UNL     1     -12.307  14.647  65.872  1.00  0.00    -0.194 NA 
HETATM   25  C   UNL     1     -10.981  13.990  67.936  1.00  0.00    -0.247 C  
HETATM   26  H   UNL     1      -9.939  13.781  70.234  1.00  0.00     0.000 HD 
HETATM   27  H1  UNL     1     -12.032  15.605  66.086  1.00  0.00     0.000 HD 
HETATM   28  C   UNL     1      -9.992  12.916  68.482  1.00  0.00    -0.165 C  
HETATM   29  H2  UNL     1     -13.235  14.401  66.216  1.00  0.00     0.000 HD 
HETATM   30  O   UNL     1     -10.080  12.893  69.926  1.00  0.00     1.295 OA 
BRANCH  25  31
HETATM   31  O   UNL     1     -10.394  15.291  68.254  1.00  0.00    -0.229 OA 
BRANCH  31  32
HETATM   32  C   UNL     1      -9.450  15.786  67.295  1.00  0.00    -0.212 C  
HETATM   33  O   UNL     1      -9.870  15.562  65.943  1.00  0.00    -0.301 OA 
HETATM   34  C   UNL     1     -11.018  16.344  65.575  1.00  0.00    -0.119 C  
HETATM   35  C   UNL     1     -10.704  17.845  65.688  1.00  0.00    -0.052 C  
HETATM   36  H   UNL     1      -8.547  18.411  69.074  1.00  0.00     0.000 HD 
HETATM   37  C   UNL     1     -10.288  18.190  67.130  1.00  0.00    -0.379 C  
HETATM   38  H1  UNL     1      -9.673  19.858  68.198  1.00  0.00     0.000 HD 
HETATM   39  O   UNL     1     -11.809  18.660  65.286  1.00  0.00     2.177 OA 
HETATM   40  H   UNL     1     -11.615  19.587  65.356  1.00  0.00     0.000 HD 
HETATM   41  H2  UNL     1     -10.709  20.225  66.915  1.00  0.00     0.000 HD 
HETATM   42  C   UNL     1      -9.120  17.280  67.550  1.00  0.00    -0.223 C  
HETATM   43  N   UNL     1      -9.949  19.629  67.243  1.00  0.00    -0.368 NA 
HETATM   44  O   UNL     1      -8.749  17.496  68.918  1.00  0.00    -0.240 OA 
BRANCH  34  45
HETATM   45  C   UNL     1     -11.400  15.991  64.131  1.00  0.00     0.028 C  
HETATM   46  O   UNL     1     -12.126  17.060  63.523  1.00  0.00     1.164 OA 
HETATM   47  H   UNL     1     -12.363  16.841  62.630  1.00  0.00     0.000 HD 
ENDBRANCH  34  45
ENDBRANCH  31  32
ENDBRANCH  25  31
ENDBRANCH  16  17
ENDBRANCH   7  16
ENDBRANCH   2   5
TORSDOF 6
ENDMDL
MODEL      335
REMARK 921   NORMALIZED FREE ENERGY PREDICTED BY IDOCK:   24.70 KCAL/MOL
REMARK 922        TOTAL FREE ENERGY PREDICTED BY IDOCK:   32.31 KCAL/MOL
REMARK 923 INTER-LIGAND FREE ENERGY PREDICTED BY IDOCK:   27.72 KCAL/MOL
REMARK 924 INTRA-LIGAND FREE ENERGY PREDICTED BY IDOCK:    4.59 KCAL/MOL
REMARK 927      BINDING AFFINITY PREDICTED BY RF-SCORE:    0.00 PKD
ROOT
HETATM    1  N   UNL     1      -9.162  14.920  63.958  1.00  0.00     3.668 NA 
HETATM    2  C   UNL     1      -9.418  15.426  65.315  1.00  0.00     0.177 C  
HETATM    3  H2  UNL     1      -8.895  15.676  63.328  1.00  0.00     0.000 HD 
HETATM    4  H1  UNL     1      -8.470  14.171  63.949  1.00  0.00     0.000 HD 
ENDROOT
BRANCH   2   5
HETATM    5  C   UNL     1     -10.469  16.564  65.328  1.00  0.00    -0.213 C  
HETATM    6  O   UNL     1     -11.114  16.697  66.604  1.00  0.00     0.014 OA 
HETATM    7  C   UNL     1     -10.286  17.179  67.650  1.00  0.00    -0.329 C  
HETATM    8  C   UNL     1      -9.768  18.613  67.301  1.00  0.00    -0.302 C  
HETATM    9  C   UNL     1      -9.887  17.910  64.852  1.00  0.00     2.741 C  
HETATM   10  N   UNL     1     -10.852  19.618  67.261  1.00  0.00    -0.458 NA 
HETATM   11  C   UNL     1      -9.044  18.582  65.942  1.00  0.00     0.213 C  
HETATM   12  H   UNL     1     -10.620  19.592  64.189  1.00  0.00     0.000 HD 
HETATM   13  H1  UNL     1     -10.514  20.554  67.033  1.00  0.00     0.000 HD 
HETATM   14  H2  UNL     1     -11.378  19.622  68.134  1.00  0.00     0.000 HD 
HETATM   15  O   UNL     1     -10.979  18.762  64.482  1.00  0.00     0.309 OA 
BRANCH   7  16
HETATM   16  O   UNL     1     -11.020  17.220  68.886  1.00  0.00    -0.194 OA 
BRANCH  16  17
HETATM   17  C   UNL     1     -10.797  16.122  69.818  1.00  0.00    -0.333 C  
HETATM   18  N   UNL     1     -13.194  15.875  70.427  1.00  0.00    -0.686 NA 
HETATM   19  C   UNL     1     -11.543  14.932  71.921  1.00  0.00    -0.335 C  
HETATM   20  H1  UNL     1     -13.880  15.842  71.181  1.00  0.00     0.000 HD 
HETATM   21  H2  UNL     1     -13.249  15.049  69.832  1.00  0.00     0.000 HD 
HETATM   22  C   UNL     1     -10.146  15.058  72.529  1.00  0.00     3.976 C  
HETATM   23  C   UNL     1     -11.836  16.072  70.958  1.00  0.00    -0.394 C  
HETATM   24  N   UNL     1     -10.042  13.977  73.524  1.00  0.00     6.173 NA 
HETATM   25  C   UNL     1      -9.035  15.008  71.433  1.00  0.00     3.781 C  
HETATM   26  H   UNL     1      -7.607  15.656  69.445  1.00  0.00     0.000 HD 
HETATM   27  H1  UNL     1      -9.110  14.061  73.930  1.00  0.00     0.000 HD 
HETATM   28  C   UNL     1      -9.322  16.040  70.300  1.00  0.00     0.987 C  
HETATM   29  H2  UNL     1     -10.239  13.051  73.143  1.00  0.00     0.000 HD 
HETATM   30  O   UNL     1      -8.509  15.707  69.150  1.00  0.00    -0.217 OA 
BRANCH  25  31
HETATM   31  O   UNL     1      -7.706  15.328  71.953  1.00  0.00     3.485 OA 
BRANCH  31  32
HETATM   32  C   UNL     1      -6.661  14.433  71.550  1.00  0.00     0.949 C  
HETATM   33  O   UNL     1      -7.165  13.216  70.986  1.00  0.00     2.180 OA 
HETATM   34  C   UNL     1      -7.813  13.412  69.718  1.00  0.00     1.288 C  
HETATM   35  C   UNL     1      -6.824  13.988  68.692  1.00  0.00    -0.103 C  
HETATM   36  H   UNL     1      -4.586  16.800  70.568  1.00  0.00     0.000 HD 
HETATM   37  C   UNL     1      -6.264  15.332  69.196  1.00  0.00    -0.108 C  
HETATM   38  H1  UNL     1      -4.911  16.770  68.563  1.00  0.00     0.000 HD 
HETATM   39  O   UNL     1      -7.419  14.155  67.402  1.00  0.00    -0.188 OA 
HETATM   40  H   UNL     1      -6.808  14.512  66.768  1.00  0.00     0.000 HD 
HETATM   41  H2  UNL     1      -5.676  15.962  67.293  1.00  0.00     0.000 HD 
HETATM   42  C   UNL     1      -5.658  15.133  70.596  1.00  0.00    -0.122 C  
HETATM   43  N   UNL     1      -5.282  15.880  68.230  1.00  0.00    -0.100 NA 
HETATM   44  O   UNL     1      -5.200  16.372  71.153  1.00  0.00    -0.171 OA 
BRANCH  34  45
HETATM   45  C   UNL     1      -8.346  12.056  69.234  1.00  0.00     0.643 C  
HETATM   46  O   UNL     1      -9.135  11.432  70.247  1.00  0.00     1.392 OA 
HETATM   47  H   UNL     1      -9.465  10.593  69.948  1.00  0.00     0.000 HD 
ENDBRANCH  34  45
ENDBRANCH  31  32
ENDBRANCH  25  31
ENDBRANCH  16  17
ENDBRANCH   7  16
ENDBRANCH   2   5
TORSDOF 6
ENDMDL
MODEL      336
REMARK 921   NORMALIZED FREE ENERGY PREDICTED BY IDOCK:   25.07 KCAL/MOL
REMARK 922        TOTAL FREE ENERGY PREDICTED BY IDOCK:   32.81 KCAL/MOL
REMARK 923 INTER-LIGAND FREE ENERGY PREDICTED BY IDOCK:   24.09 KCAL/MOL
REMARK 924 INTRA-LIGAND FREE ENERGY PREDICTED BY IDOCK:    8.72 KCAL/MOL
REMARK 927      BINDING AFFINITY PREDICTED BY RF-SCORE:    0.00 PKD
ROOT
HETATM    1  N   UNL     1      -9.068  10.317  69.363  1.00  0.00    -0.264 NA 
HETATM    2  C   UNL     1      -9.884   9.139  69.035  1.00  0.00    -0.174 C  
HETATM    3  H2  UNL     1      -9.563  11.181  69.142  1.00  0.00     0.000 HD 
HETATM    4  H1  UNL     1      -8.753  10.311  70.332  1.00  0.00     0.000 HD 
ENDROOT
BRANCH   2   5
HETATM    5  C   UNL     1     -10.363   9.148  67.562  1.00  0.00    -0.261 C  
HETATM    6  O   UNL     1     -10.254  10.448  66.960  1.00  0.00    -0.205 OA 
HETATM    7  C   UNL     1      -8.927  10.899  66.741  1.00  0.00    -0.150 C  
HETATM    8  C   UNL     1      -8.190   9.929  65.760  1.00  0.00    -0.125 C  
HETATM    9  C   UNL     1      -9.662   8.074  66.707  1.00  0.00    -0.237 C  
HETATM   10  N   UNL     1      -8.764   9.949  64.397  1.00  0.00    -0.185 NA 
HETATM   11  C   UNL     1      -8.240   8.496  66.320  1.00  0.00    -0.109 C  
HETATM   12  H   UNL     1     -10.015   7.198  65.000  1.00  0.00     0.000 HD 
HETATM   13  H1  UNL     1      -8.283   9.316  63.758  1.00  0.00     0.000 HD 
HETATM   14  H2  UNL     1      -8.788  10.898  64.024  1.00  0.00     0.000 HD 
HETATM   15  O   UNL     1     -10.447   7.860  65.527  1.00  0.00     1.837 OA 
BRANCH   7  16
HETATM   16  O   UNL     1      -8.939  12.226  66.187  1.00  0.00    -0.138 OA 
BRANCH  16  17
HETATM   17  C   UNL     1      -9.751  13.219  66.880  1.00  0.00    -0.248 C  
HETATM   18  N   UNL     1     -10.520  14.348  64.804  1.00  0.00    -0.526 NA 
HETATM   19  C   UNL     1     -10.699  15.563  66.887  1.00  0.00    -0.317 C  
HETATM   20  H1  UNL     1     -10.601  15.228  64.295  1.00  0.00     0.000 HD 
HETATM   21  H2  UNL     1     -11.424  13.885  64.900  1.00  0.00     0.000 HD 
HETATM   22  C   UNL     1     -10.094  15.841  68.263  1.00  0.00    -0.222 C  
HETATM   23  C   UNL     1      -9.873  14.551  66.110  1.00  0.00    -0.318 C  
HETATM   24  N   UNL     1     -10.909  16.918  68.851  1.00  0.00    -0.307 NA 
HETATM   25  C   UNL     1     -10.039  14.550  69.139  1.00  0.00    -0.137 C  
HETATM   26  H   UNL     1      -9.399  12.240  69.954  1.00  0.00     0.000 HD 
HETATM   27  H1  UNL     1     -10.505  17.103  69.768  1.00  0.00     0.000 HD 
HETATM   28  C   UNL     1      -9.344  13.384  68.371  1.00  0.00    -0.165 C  
HETATM   29  H2  UNL     1     -11.907  16.705  68.879  1.00  0.00     0.000 HD 
HETATM   30  O   UNL     1      -9.647  12.139  69.043  1.00  0.00     0.072 OA 
BRANCH  25  31
HETATM   31  O   UNL     1      -9.285  14.733  70.378  1.00  0.00     0.713 OA 
BRANCH  31  32
HETATM   32  C   UNL     1      -7.869  14.891  70.215  1.00  0.00     0.672 C  
HETATM   33  O   UNL     1      -7.276  15.659  71.270  1.00  0.00     1.975 OA 
HETATM   34  C   UNL     1      -7.297  14.981  72.538  1.00  0.00     4.785 C  
HETATM   35  C   UNL     1      -6.501  13.669  72.458  1.00  0.00     2.420 C  
HETATM   36  H   UNL     1      -7.369  11.904  68.913  1.00  0.00     0.000 HD 
HETATM   37  C   UNL     1      -7.102  12.752  71.375  1.00  0.00     5.273 C  
HETATM   38  H1  UNL     1      -6.718  10.890  70.549  1.00  0.00     0.000 HD 
HETATM   39  O   UNL     1      -6.458  12.985  73.714  1.00  0.00     1.566 OA 
HETATM   40  H   UNL     1      -5.967  12.174  73.665  1.00  0.00     0.000 HD 
HETATM   41  H2  UNL     1      -6.240  11.020  72.164  1.00  0.00     0.000 HD 
HETATM   42  C   UNL     1      -7.166  13.519  70.043  1.00  0.00     0.794 C  
HETATM   43  N   UNL     1      -6.320  11.497  71.266  1.00  0.00     0.607 NA 
HETATM   44  O   UNL     1      -7.800  12.744  69.018  1.00  0.00     0.071 OA 
BRANCH  34  45
HETATM   45  C   UNL     1      -6.679  15.911  73.592  1.00  0.00     6.203 C  
HETATM   46  O   UNL     1      -5.272  16.040  73.392  1.00  0.00     1.185 OA 
HETATM   47  H   UNL     1      -4.890  16.615  74.044  1.00  0.00     0.000 HD 
ENDBRANCH  34  45
ENDBRANCH  31  32
ENDBRANCH  25  31
ENDBRANCH  16  17
ENDBRANCH   7  16
ENDBRANCH   2   5
TORSDOF 6
ENDMDL
MODEL      337
REMARK 921   NORMALIZED FREE ENERGY PREDICTED BY IDOCK:   25.51 KCAL/MOL
REMARK 922        TOTAL FREE ENERGY PREDICTED BY IDOCK:   33.41 KCAL/MOL
REMARK 923 INTER-LIGAND FREE ENERGY PREDICTED BY IDOCK:    7.82 KCAL/MOL
REMARK 924 INTRA-LIGAND FREE ENERGY PREDICTED BY IDOCK:   25.59 KCAL/MOL
REMARK 927      BINDING AFFINITY PREDICTED BY RF-SCORE:    0.00 PKD
ROOT
HETATM    1  N   UNL     1     -10.149   9.784  67.462  1.00  0.00    -0.184 NA 
HETATM    2  C   UNL     1     -10.929  10.923  67.967  1.00  0.00    -0.265 C  
HETATM    3  H2  UNL     1      -9.308  10.098  66.978  1.00  0.00     0.000 HD 
HETATM    4  H1  UNL     1      -9.922   9.115  68.197  1.00  0.00     0.000 HD 
ENDROOT
BRANCH   2   5
HETATM    5  C   UNL     1     -11.273  11.940  66.849  1.00  0.00    -0.325 C  
HETATM    6  O   UNL     1     -10.866  13.276  67.182  1.00  0.00    -0.255 OA 
HETATM    7  C   UNL     1      -9.464  13.487  67.217  1.00  0.00    -0.230 C  
HETATM    8  C   UNL     1      -8.848  13.210  65.807  1.00  0.00     0.848 C  
HETATM    9  C   UNL     1     -10.723  11.513  65.474  1.00  0.00    -0.272 C  
HETATM   10  N   UNL     1      -9.293  14.185  64.787  1.00  0.00     0.311 NA 
HETATM   11  C   UNL     1      -9.219  11.785  65.354  1.00  0.00    -0.023 C  
HETATM   12  H   UNL     1     -11.096  11.977  63.616  1.00  0.00     0.000 HD 
HETATM   13  H1  UNL     1      -8.891  14.004  63.867  1.00  0.00     0.000 HD 
HETATM   14  H2  UNL     1      -9.103  15.141  65.088  1.00  0.00     0.000 HD 
HETATM   15  O   UNL     1     -11.435  12.240  64.464  1.00  0.00    -0.318 OA 
BRANCH   7  16
HETATM   16  O   UNL     1      -9.175  14.840  67.611  1.00  0.00    -0.186 OA 
BRANCH  16  17
HETATM   17  C   UNL     1     -10.246  15.814  67.447  1.00  0.00    -0.270 C  
HETATM   18  N   UNL     1     -11.550  14.425  65.851  1.00  0.00    -0.356 NA 
HETATM   19  C   UNL     1     -12.014  16.797  65.929  1.00  0.00     2.374 C  
HETATM   20  H1  UNL     1     -12.001  14.377  64.937  1.00  0.00     0.000 HD 
HETATM   21  H2  UNL     1     -12.198  14.189  66.602  1.00  0.00     0.000 HD 
HETATM   22  C   UNL     1     -11.454  18.205  66.131  1.00  0.00     1.662 C  
HETATM   23  C   UNL     1     -10.928  15.741  66.064  1.00  0.00    -0.177 C  
HETATM   24  N   UNL     1     -12.569  19.125  65.851  1.00  0.00     6.436 NA 
HETATM   25  C   UNL     1     -10.841  18.381  67.556  1.00  0.00    -0.267 C  
HETATM   26  H   UNL     1      -9.305  18.100  69.549  1.00  0.00     0.000 HD 
HETATM   27  H1  UNL     1     -12.196  20.065  65.985  1.00  0.00     0.000 HD 
HETATM   28  C   UNL     1      -9.817  17.247  67.867  1.00  0.00    -0.283 C  
HETATM   29  H2  UNL     1     -13.405  18.935  66.405  1.00  0.00     0.000 HD 
HETATM   30  O   UNL     1      -9.567  17.224  69.292  1.00  0.00    -0.134 OA 
BRANCH  25  31
HETATM   31  O   UNL     1     -10.118  19.643  67.714  1.00  0.00    -0.362 OA 
BRANCH  31  32
HETATM   32  C   UNL     1      -8.930  19.770  66.922  1.00  0.00    -0.339 C  
HETATM   33  O   UNL     1      -7.738  19.785  67.717  1.00  0.00    -0.275 OA 
HETATM   34  C   UNL     1      -7.469  18.522  68.348  1.00  0.00    -0.296 C  
HETATM   35  C   UNL     1      -7.272  17.424  67.292  1.00  0.00    -0.167 C  
HETATM   36  H   UNL     1     -10.048  17.979  64.390  1.00  0.00     0.000 HD 
HETATM   37  C   UNL     1      -8.533  17.302  66.414  1.00  0.00    -0.269 C  
HETATM   38  H1  UNL     1      -9.175  16.189  64.788  1.00  0.00     0.000 HD 
HETATM   39  O   UNL     1      -6.957  16.158  67.879  1.00  0.00    -0.121 OA 
HETATM   40  H   UNL     1      -6.835  15.479  67.225  1.00  0.00     0.000 HD 
HETATM   41  H2  UNL     1      -8.068  15.371  65.768  1.00  0.00     0.000 HD 
HETATM   42  C   UNL     1      -8.869  18.681  65.820  1.00  0.00     0.460 C  
HETATM   43  N   UNL     1      -8.340  16.269  65.368  1.00  0.00     0.886 NA 
HETATM   44  O   UNL     1     -10.086  18.647  65.065  1.00  0.00     0.618 OA 
BRANCH  34  45
HETATM   45  C   UNL     1      -6.201  18.668  69.202  1.00  0.00    -0.255 C  
HETATM   46  O   UNL     1      -5.133  17.892  68.659  1.00  0.00    -0.147 OA 
HETATM   47  H   UNL     1      -4.349  17.983  69.187  1.00  0.00     0.000 HD 
ENDBRANCH  34  45
ENDBRANCH  31  32
ENDBRANCH  25  31
ENDBRANCH  16  17
ENDBRANCH   7  16
ENDBRANCH   2   5
TORSDOF 6
ENDMDL
MODEL      338
REMARK 921   NORMALIZED FREE ENERGY PREDICTED BY IDOCK:   25.78 KCAL/MOL
REMARK 922        TOTAL FREE ENERGY PREDICTED BY IDOCK:   33.77 KCAL/MOL
REMARK 923 INTER-LIGAND FREE ENERGY PREDICTED BY IDOCK:   20.13 KCAL/MOL
REMARK 924 INTRA-LIGAND FREE ENERGY PREDICTED BY IDOCK:   13.64 KCAL/MOL
REMARK 927      BINDING AFFINITY PREDICTED BY RF-SCORE:    0.00 PKD
ROOT
HETATM    1  N   UNL     1     -13.518   6.961  68.548  1.00  0.00     9.155 NA 
HETATM    2  C   UNL     1     -12.555   6.018  69.136  1.00  0.00     5.245 C  
HETATM    3  H2  UNL     1     -13.408   7.016  67.535  1.00  0.00     0.000 HD 
HETATM    4  H1  UNL     1     -14.480   6.738  68.801  1.00  0.00     0.000 HD 
ENDROOT
BRANCH   2   5
HETATM    5  C   UNL     1     -11.093   6.356  68.751  1.00  0.00    -0.326 C  
HETATM    6  O   UNL     1     -10.741   7.710  69.077  1.00  0.00    -0.202 OA 
HETATM    7  C   UNL     1     -10.650   7.990  70.465  1.00  0.00    -0.220 C  
HETATM    8  C   UNL     1      -9.535   7.107  71.114  1.00  0.00    -0.157 C  
HETATM    9  C   UNL     1     -10.081   5.355  69.342  1.00  0.00    -0.234 C  
HETATM   10  N   UNL     1      -8.180   7.449  70.629  1.00  0.00    -0.111 NA 
HETATM   11  C   UNL     1      -9.823   5.621  70.830  1.00  0.00    -0.237 C  
HETATM   12  H   UNL     1      -8.233   4.853  68.969  1.00  0.00     0.000 HD 
HETATM   13  H1  UNL     1      -7.452   6.873  71.053  1.00  0.00     0.000 HD 
HETATM   14  H2  UNL     1      -7.984   8.441  70.762  1.00  0.00     0.000 HD 
HETATM   15  O   UNL     1      -8.857   5.470  68.605  1.00  0.00    -0.108 OA 
BRANCH   7  16
HETATM   16  O   UNL     1     -10.345   9.379  70.673  1.00  0.00    -0.241 OA 
BRANCH  16  17
HETATM   17  C   UNL     1     -10.081  10.178  69.482  1.00  0.00    -0.235 C  
HETATM   18  N   UNL     1     -12.191   9.545  68.331  1.00  0.00     1.371 NA 
HETATM   19  C   UNL     1     -10.394  10.445  66.987  1.00  0.00    -0.295 C  
HETATM   20  H1  UNL     1     -12.617   9.162  67.487  1.00  0.00     0.000 HD 
HETATM   21  H2  UNL     1     -12.581  10.456  68.570  1.00  0.00     0.000 HD 
HETATM   22  C   UNL     1      -8.884  10.552  66.774  1.00  0.00    -0.131 C  
HETATM   23  C   UNL     1     -10.726   9.599  68.205  1.00  0.00    -0.217 C  
HETATM   24  N   UNL     1      -8.708  11.283  65.507  1.00  0.00    -0.369 NA 
HETATM   25  C   UNL     1      -8.178  11.231  67.990  1.00  0.00    -0.134 C  
HETATM   26  H   UNL     1      -7.300  11.619  70.333  1.00  0.00     0.000 HD 
HETATM   27  H1  UNL     1      -7.701  11.354  65.364  1.00  0.00     0.000 HD 
HETATM   28  C   UNL     1      -8.576  10.533  69.326  1.00  0.00    -0.126 C  
HETATM   29  H2  UNL     1      -9.188  12.183  65.484  1.00  0.00     0.000 HD 
HETATM   30  O   UNL     1      -8.220  11.401  70.428  1.00  0.00     1.813 OA 
BRANCH  25  31
HETATM   31  O   UNL     1      -6.719  11.167  67.911  1.00  0.00    -0.062 OA 
BRANCH  31  32
HETATM   32  C   UNL     1      -6.107  12.164  67.084  1.00  0.00    -0.143 C  
HETATM   33  O   UNL     1      -6.718  12.257  65.790  1.00  0.00     1.445 OA 
HETATM   34  C   UNL     1      -8.057  12.776  65.838  1.00  0.00     1.664 C  
HETATM   35  C   UNL     1      -8.063  14.197  66.422  1.00  0.00     0.989 C  
HETATM   36  H   UNL     1      -5.477  14.267  69.544  1.00  0.00     0.000 HD 
HETATM   37  C   UNL     1      -7.465  14.187  67.842  1.00  0.00    -0.152 C  
HETATM   38  H1  UNL     1      -7.037  15.552  69.343  1.00  0.00     0.000 HD 
HETATM   39  O   UNL     1      -9.375  14.767  66.445  1.00  0.00    -0.273 OA 
HETATM   40  H   UNL     1      -9.378  15.646  66.806  1.00  0.00     0.000 HD 
HETATM   41  H2  UNL     1      -8.353  15.998  68.382  1.00  0.00     0.000 HD 
HETATM   42  C   UNL     1      -6.069  13.541  67.797  1.00  0.00    -0.143 C  
HETATM   43  N   UNL     1      -7.433  15.559  68.403  1.00  0.00    -0.113 NA 
HETATM   44  O   UNL     1      -5.500  13.423  69.107  1.00  0.00    -0.073 OA 
BRANCH  34  45
HETATM   45  C   UNL     1      -8.621  12.789  64.410  1.00  0.00     3.214 C  
HETATM   46  O   UNL     1      -9.999  12.414  64.406  1.00  0.00    -0.463 OA 
HETATM   47  H   UNL     1     -10.348  12.423  63.523  1.00  0.00     0.000 HD 
ENDBRANCH  34  45
ENDBRANCH  31  32
ENDBRANCH  25  31
ENDBRANCH  16  17
ENDBRANCH   7  16
ENDBRANCH   2   5
TORSDOF 6
ENDMDL
MODEL      339
REMARK 921   NORMALIZED FREE ENERGY PREDICTED BY IDOCK:   27.38 KCAL/MOL
REMARK 922        TOTAL FREE ENERGY PREDICTED BY IDOCK:   35.94 KCAL/MOL
REMARK 923 INTER-LIGAND FREE ENERGY PREDICTED BY IDOCK:   29.43 KCAL/MOL
REMARK 924 INTRA-LIGAND FREE ENERGY PREDICTED BY IDOCK:    6.51 KCAL/MOL
REMARK 927      BINDING AFFINITY PREDICTED BY RF-SCORE:    0.00 PKD
ROOT
HETATM    1  N   UNL     1      -9.068  10.317  69.363  1.00  0.00    -0.264 NA 
HETATM    2  C   UNL     1      -9.884   9.139  69.035  1.00  0.00    -0.174 C  
HETATM    3  H2  UNL     1      -9.563  11.181  69.142  1.00  0.00     0.000 HD 
HETATM    4  H1  UNL     1      -8.753  10.311  70.332  1.00  0.00     0.000 HD 
ENDROOT
BRANCH   2   5
HETATM    5  C   UNL     1     -10.363   9.148  67.562  1.00  0.00    -0.261 C  
HETATM    6  O   UNL     1     -10.168   7.880  66.916  1.00  0.00    -0.263 OA 
HETATM    7  C   UNL     1     -10.998   6.830  67.388  1.00  0.00    -0.337 C  
HETATM    8  C   UNL     1     -12.500   7.189  67.144  1.00  0.00     6.826 C  
HETATM    9  C   UNL     1     -11.820   9.632  67.419  1.00  0.00     2.784 C  
HETATM   10  N   UNL     1     -12.848   7.250  65.708  1.00  0.00     9.086 NA 
HETATM   11  C   UNL     1     -12.822   8.539  67.810  1.00  0.00    11.530 C  
HETATM   12  H   UNL     1     -12.927  10.320  65.967  1.00  0.00     0.000 HD 
HETATM   13  H1  UNL     1     -13.828   7.484  65.549  1.00  0.00     0.000 HD 
HETATM   14  H2  UNL     1     -12.597   6.383  65.234  1.00  0.00     0.000 HD 
HETATM   15  O   UNL     1     -12.029  10.022  66.055  1.00  0.00     2.571 OA 
BRANCH   7  16
HETATM   16  O   UNL     1     -10.679   5.603  66.710  1.00  0.00    -0.291 OA 
BRANCH  16  17
HETATM   17  C   UNL     1      -9.274   5.220  66.673  1.00  0.00    -0.130 C  
HETATM   18  N   UNL     1      -9.365   4.306  64.363  1.00  0.00    -0.158 NA 
HETATM   19  C   UNL     1      -7.526   3.627  65.778  1.00  0.00    -0.077 C  
HETATM   20  H1  UNL     1      -9.182   3.506  63.758  1.00  0.00     0.000 HD 
HETATM   21  H2  UNL     1      -8.902   5.149  64.024  1.00  0.00     0.000 HD 
HETATM   22  C   UNL     1      -7.054   3.294  67.194  1.00  0.00    -0.058 C  
HETATM   23  C   UNL     1      -8.997   4.009  65.757  1.00  0.00    -0.131 C  
HETATM   24  N   UNL     1      -5.664   2.824  67.054  1.00  0.00    -0.021 NA 
HETATM   25  C   UNL     1      -7.207   4.516  68.153  1.00  0.00    -0.065 C  
HETATM   26  H   UNL     1      -8.271   6.340  69.549  1.00  0.00     0.000 HD 
HETATM   27  H1  UNL     1      -5.350   2.602  67.999  1.00  0.00     0.000 HD 
HETATM   28  C   UNL     1      -8.654   5.095  68.093  1.00  0.00    -0.102 C  
HETATM   29  H2  UNL     1      -5.057   3.484  66.566  1.00  0.00     0.000 HD 
HETATM   30  O   UNL     1      -8.651   6.416  68.682  1.00  0.00    -0.122 OA 
BRANCH  25  31
HETATM   31  O   UNL     1      -6.958   4.176  69.554  1.00  0.00    -0.044 OA 
BRANCH  31  32
HETATM   32  C   UNL     1      -7.954   3.348  70.168  1.00  0.00    -0.046 C  
HETATM   33  O   UNL     1      -7.423   2.549  71.233  1.00  0.00    -0.033 OA 
HETATM   34  C   UNL     1      -7.023   3.327  72.373  1.00  0.00    -0.031 C  
HETATM   35  C   UNL     1      -8.227   4.083  72.957  1.00  0.00    -0.089 C  
HETATM   36  H   UNL     1     -10.407   5.528  69.860  1.00  0.00     0.000 HD 
HETATM   37  C   UNL     1      -8.836   5.012  71.889  1.00  0.00    -0.129 C  
HETATM   38  H1  UNL     1     -10.424   6.336  71.724  1.00  0.00     0.000 HD 
HETATM   39  O   UNL     1      -7.880   4.836  74.123  1.00  0.00    -0.098 OA 
HETATM   40  H   UNL     1      -8.624   5.304  74.484  1.00  0.00     0.000 HD 
HETATM   41  H2  UNL     1      -9.801   6.224  73.290  1.00  0.00     0.000 HD 
HETATM   42  C   UNL     1      -9.173   4.186  70.635  1.00  0.00    -0.125 C  
HETATM   43  N   UNL     1     -10.021   5.721  72.432  1.00  0.00    -0.168 NA 
HETATM   44  O   UNL     1      -9.661   5.015  69.574  1.00  0.00    -0.136 OA 
BRANCH  34  45
HETATM   45  C   UNL     1      -6.435   2.376  73.425  1.00  0.00    -0.017 C  
HETATM   46  O   UNL     1      -5.642   3.094  74.370  1.00  0.00     0.000 OA 
HETATM   47  H   UNL     1      -5.278   2.506  75.021  1.00  0.00     0.000 HD 
ENDBRANCH  34  45
ENDBRANCH  31  32
ENDBRANCH  25  31
ENDBRANCH  16  17
ENDBRANCH   7  16
ENDBRANCH   2   5
TORSDOF 6
ENDMDL
MODEL      340
REMARK 921   NORMALIZED FREE ENERGY PREDICTED BY IDOCK:   30.95 KCAL/MOL
REMARK 922        TOTAL FREE ENERGY PREDICTED BY IDOCK:   40.75 KCAL/MOL
REMARK 923 INTER-LIGAND FREE ENERGY PREDICTED BY IDOCK:    7.13 KCAL/MOL
REMARK 924 INTRA-LIGAND FREE ENERGY PREDICTED BY IDOCK:   33.63 KCAL/MOL
REMARK 927      BINDING AFFINITY PREDICTED BY RF-SCORE:    0.00 PKD
ROOT
HETATM    1  N   UNL     1     -10.568  11.627  68.558  1.00  0.00    -0.208 NA 
HETATM    2  C   UNL     1     -12.036  11.707  68.529  1.00  0.00    -0.217 C  
HETATM    3  H2  UNL     1     -10.250  10.660  68.497  1.00  0.00     0.000 HD 
HETATM    4  H1  UNL     1     -10.136  12.203  67.836  1.00  0.00     0.000 HD 
ENDROOT
BRANCH   2   5
HETATM    5  C   UNL     1     -12.693  10.831  69.626  1.00  0.00     0.170 C  
HETATM    6  O   UNL     1     -12.326   9.447  69.512  1.00  0.00     0.805 OA 
HETATM    7  C   UNL     1     -10.970   9.157  69.812  1.00  0.00    -0.181 C  
HETATM    8  C   UNL     1     -10.658   9.545  71.295  1.00  0.00    -0.288 C  
HETATM    9  C   UNL     1     -12.425  11.368  71.046  1.00  0.00    -0.383 C  
HETATM   10  N   UNL     1     -11.388   8.707  72.271  1.00  0.00    -0.363 NA 
HETATM   11  C   UNL     1     -11.009  11.027  71.525  1.00  0.00     2.896 C  
HETATM   12  H   UNL     1     -13.229  11.119  72.807  1.00  0.00     0.000 HD 
HETATM   13  H1  UNL     1     -11.185   8.960  73.238  1.00  0.00     0.000 HD 
HETATM   14  H2  UNL     1     -11.210   7.716  72.107  1.00  0.00     0.000 HD 
HETATM   15  O   UNL     1     -13.393  10.789  71.931  1.00  0.00    -0.427 OA 
BRANCH   7  16
HETATM   16  O   UNL     1     -10.706   7.758  69.615  1.00  0.00    -0.243 OA 
BRANCH  16  17
HETATM   17  C   UNL     1     -10.849   7.249  68.257  1.00  0.00    -0.058 C  
HETATM   18  N   UNL     1     -12.611   5.594  68.837  1.00  0.00     5.558 NA 
HETATM   19  C   UNL     1     -11.396   5.278  66.770  1.00  0.00     1.042 C  
HETATM   20  H1  UNL     1     -12.905   4.618  68.801  1.00  0.00     0.000 HD 
HETATM   21  H2  UNL     1     -13.311   6.213  68.427  1.00  0.00     0.000 HD 
HETATM   22  C   UNL     1     -10.064   5.420  66.033  1.00  0.00    -0.075 C  
HETATM   23  C   UNL     1     -11.294   5.772  68.204  1.00  0.00     0.683 C  
HETATM   24  N   UNL     1     -10.266   4.796  64.714  1.00  0.00    -0.389 NA 
HETATM   25  C   UNL     1      -9.605   6.910  65.956  1.00  0.00     0.155 C  
HETATM   26  H   UNL     1      -8.806   9.205  66.666  1.00  0.00     0.000 HD 
HETATM   27  H1  UNL     1      -9.377   4.890  64.223  1.00  0.00     0.000 HD 
HETATM   28  C   UNL     1      -9.615   7.571  67.368  1.00  0.00    -0.149 C  
HETATM   29  H2  UNL     1     -11.060   5.177  64.199  1.00  0.00     0.000 HD 
HETATM   30  O   UNL     1      -9.559   9.008  67.210  1.00  0.00    -0.147 OA 
BRANCH  25  31
HETATM   31  O   UNL     1      -8.245   7.063  65.440  1.00  0.00    -0.129 OA 
BRANCH  31  32
HETATM   32  C   UNL     1      -7.393   7.923  66.207  1.00  0.00    -0.075 C  
HETATM   33  O   UNL     1      -8.101   8.619  67.241  1.00  0.00    -0.101 OA 
HETATM   34  C   UNL     1      -8.566   7.749  68.287  1.00  0.00    -0.124 C  
HETATM   35  C   UNL     1      -7.381   7.049  68.970  1.00  0.00    -0.093 C  
HETATM   36  H   UNL     1      -4.758   5.947  66.082  1.00  0.00     0.000 HD 
HETATM   37  C   UNL     1      -6.583   6.231  67.936  1.00  0.00    -0.062 C  
HETATM   38  H1  UNL     1      -4.889   5.036  67.893  1.00  0.00     0.000 HD 
HETATM   39  O   UNL     1      -7.798   6.208  70.049  1.00  0.00    -0.101 OA 
HETATM   40  H   UNL     1      -7.065   5.775  70.471  1.00  0.00     0.000 HD 
HETATM   41  H2  UNL     1      -5.692   5.012  69.379  1.00  0.00     0.000 HD 
HETATM   42  C   UNL     1      -6.173   7.150  66.772  1.00  0.00    -0.039 C  
HETATM   43  N   UNL     1      -5.416   5.579  68.578  1.00  0.00    -0.007 NA 
HETATM   44  O   UNL     1      -5.505   6.421  65.736  1.00  0.00    -0.013 OA 
BRANCH  34  45
HETATM   45  C   UNL     1      -9.341   8.593  69.308  1.00  0.00    -0.153 C  
HETATM   46  O   UNL     1      -8.599   9.757  69.672  1.00  0.00    -0.158 OA 
HETATM   47  H   UNL     1      -9.079  10.279  70.304  1.00  0.00     0.000 HD 
ENDBRANCH  34  45
ENDBRANCH  31  32
ENDBRANCH  25  31
ENDBRANCH  16  17
ENDBRANCH   7  16
ENDBRANCH   2   5
TORSDOF 6
ENDMDL
MODEL      341
REMARK 921   NORMALIZED FREE ENERGY PREDICTED BY IDOCK:   31.52 KCAL/MOL
REMARK 922        TOTAL FREE ENERGY PREDICTED BY IDOCK:   41.52 KCAL/MOL
REMARK 923 INTER-LIGAND FREE ENERGY PREDICTED BY IDOCK:    5.70 KCAL/MOL
REMARK 924 INTRA-LIGAND FREE ENERGY PREDICTED BY IDOCK:   35.82 KCAL/MOL
REMARK 927      BINDING AFFINITY PREDICTED BY RF-SCORE:    0.00 PKD
ROOT
HETATM    1  N   UNL     1      -8.427  10.926  64.237  1.00  0.00    -0.375 NA 
HETATM    2  C   UNL     1      -7.417  10.211  65.032  1.00  0.00    -0.140 C  
HETATM    3  H2  UNL     1      -8.127  11.879  64.032  1.00  0.00     0.000 HD 
HETATM    4  H1  UNL     1      -8.672  10.425  63.384  1.00  0.00     0.000 HD 
ENDROOT
BRANCH   2   5
HETATM    5  C   UNL     1      -7.044  10.972  66.329  1.00  0.00    -0.092 C  
HETATM    6  O   UNL     1      -7.829  10.549  67.455  1.00  0.00    -0.104 OA 
HETATM    7  C   UNL     1      -7.562   9.233  67.914  1.00  0.00    -0.084 C  
HETATM    8  C   UNL     1      -6.075   9.125  68.384  1.00  0.00    -0.045 C  
HETATM    9  C   UNL     1      -5.536  10.905  66.639  1.00  0.00    -0.082 C  
HETATM   10  N   UNL     1      -5.793   9.944  69.583  1.00  0.00    -0.040 NA 
HETATM   11  C   UNL     1      -5.139   9.551  67.238  1.00  0.00    -0.036 C  
HETATM   12  H   UNL     1      -4.293  11.917  67.752  1.00  0.00     0.000 HD 
HETATM   13  H1  UNL     1      -4.823   9.873  69.891  1.00  0.00     0.000 HD 
HETATM   14  H2  UNL     1      -6.435   9.714  70.342  1.00  0.00     0.000 HD 
HETATM   15  O   UNL     1      -5.223  11.958  67.560  1.00  0.00    -0.062 OA 
BRANCH   7  16
HETATM   16  O   UNL     1      -8.437   8.900  69.004  1.00  0.00    -0.129 OA 
BRANCH  16  17
HETATM   17  C   UNL     1      -8.103   9.460  70.308  1.00  0.00    -0.164 C  
HETATM   18  N   UNL     1      -5.645   9.355  69.958  1.00  0.00    -0.034 NA 
HETATM   19  C   UNL     1      -6.459   9.550  72.227  1.00  0.00     0.482 C  
HETATM   20  H1  UNL     1      -4.748   9.029  70.319  1.00  0.00     0.000 HD 
HETATM   21  H2  UNL     1      -5.638  10.360  69.786  1.00  0.00     0.000 HD 
HETATM   22  C   UNL     1      -7.556   9.189  73.229  1.00  0.00     0.956 C  
HETATM   23  C   UNL     1      -6.747   8.966  70.853  1.00  0.00    -0.068 C  
HETATM   24  N   UNL     1      -7.095   9.702  74.531  1.00  0.00     0.221 NA 
HETATM   25  C   UNL     1      -8.944   9.753  72.791  1.00  0.00     4.673 C  
HETATM   26  H   UNL     1     -11.068  10.107  71.459  1.00  0.00     0.000 HD 
HETATM   27  H1  UNL     1      -7.827   9.462  75.199  1.00  0.00     0.000 HD 
HETATM   28  C   UNL     1      -9.274   9.343  71.323  1.00  0.00     0.060 C  
HETATM   29  H2  UNL     1      -6.863  10.696  74.519  1.00  0.00     0.000 HD 
HETATM   30  O   UNL     1     -10.352  10.178  70.838  1.00  0.00    -0.050 OA 
BRANCH  25  31
HETATM   31  O   UNL     1     -10.047   9.259  73.614  1.00  0.00     3.133 OA 
BRANCH  31  32
HETATM   32  C   UNL     1     -10.354   7.868  73.454  1.00  0.00    -0.105 C  
HETATM   33  O   UNL     1     -11.645   7.654  72.869  1.00  0.00    -0.325 OA 
HETATM   34  C   UNL     1     -11.716   8.074  71.496  1.00  0.00    -0.284 C  
HETATM   35  C   UNL     1     -10.715   7.282  70.639  1.00  0.00    -0.235 C  
HETATM   36  H   UNL     1      -7.269   6.946  72.747  1.00  0.00     0.000 HD 
HETATM   37  C   UNL     1      -9.284   7.493  71.169  1.00  0.00    -0.147 C  
HETATM   38  H1  UNL     1      -7.365   6.846  70.721  1.00  0.00     0.000 HD 
HETATM   39  O   UNL     1     -10.786   7.639  69.256  1.00  0.00    -0.353 OA 
HETATM   40  H   UNL     1     -10.168   7.150  68.726  1.00  0.00     0.000 HD 
HETATM   41  H2  UNL     1      -8.384   6.914  69.375  1.00  0.00     0.000 HD 
HETATM   42  C   UNL     1      -9.240   7.133  72.663  1.00  0.00    -0.138 C  
HETATM   43  N   UNL     1      -8.313   6.706  70.370  1.00  0.00    -0.125 NA 
HETATM   44  O   UNL     1      -7.951   7.396  73.232  1.00  0.00    -0.097 OA 
BRANCH  34  45
HETATM   45  C   UNL     1     -13.146   7.838  70.992  1.00  0.00    -0.003 C  
HETATM   46  O   UNL     1     -13.899   7.081  71.939  1.00  0.00    -0.510 OA 
HETATM   47  H   UNL     1     -14.784   6.935  71.628  1.00  0.00     0.000 HD 
ENDBRANCH  34  45
ENDBRANCH  31  32
ENDBRANCH  25  31
ENDBRANCH  16  17
ENDBRANCH   7  16
ENDBRANCH   2   5
TORSDOF 6
ENDMDL
MODEL      342
REMARK 921   NORMALIZED FREE ENERGY PREDICTED BY IDOCK:   34.69 KCAL/MOL
REMARK 922        TOTAL FREE ENERGY PREDICTED BY IDOCK:   45.80 KCAL/MOL
REMARK 923 INTER-LIGAND FREE ENERGY PREDICTED BY IDOCK:    2.10 KCAL/MOL
REMARK 924 INTRA-LIGAND FREE ENERGY PREDICTED BY IDOCK:   43.69 KCAL/MOL
REMARK 927      BINDING AFFINITY PREDICTED BY RF-SCORE:    0.00 PKD
ROOT
HETATM    1  N   UNL     1      -9.484   7.054  65.977  1.00  0.00    -0.397 NA 
HETATM    2  C   UNL     1     -10.489   6.064  66.388  1.00  0.00    -0.076 C  
HETATM    3  H2  UNL     1      -8.715   7.098  66.645  1.00  0.00     0.000 HD 
HETATM    4  H1  UNL     1      -9.141   6.886  65.031  1.00  0.00     0.000 HD 
ENDROOT
BRANCH   2   5
HETATM    5  C   UNL     1     -11.010   6.320  67.825  1.00  0.00    -0.332 C  
HETATM    6  O   UNL     1      -9.943   6.504  68.768  1.00  0.00    -0.137 OA 
HETATM    7  C   UNL     1      -9.200   7.702  68.610  1.00  0.00    -0.141 C  
HETATM    8  C   UNL     1     -10.137   8.939  68.804  1.00  0.00    -0.200 C  
HETATM    9  C   UNL     1     -12.020   7.483  67.888  1.00  0.00     2.719 C  
HETATM   10  N   UNL     1     -10.647   9.059  70.187  1.00  0.00    -0.216 NA 
HETATM   11  C   UNL     1     -11.322   8.846  67.824  1.00  0.00     0.826 C  
HETATM   12  H   UNL     1     -13.381   8.084  69.151  1.00  0.00     0.000 HD 
HETATM   13  H1  UNL     1     -11.259   9.866  70.314  1.00  0.00     0.000 HD 
HETATM   14  H2  UNL     1      -9.881   9.072  70.859  1.00  0.00     0.000 HD 
HETATM   15  O   UNL     1     -12.758   7.367  69.112  1.00  0.00     2.705 OA 
BRANCH   7  16
HETATM   16  O   UNL     1      -8.131   7.753  69.570  1.00  0.00    -0.121 OA 
BRANCH  16  17
HETATM   17  C   UNL     1      -7.701   6.483  70.142  1.00  0.00    -0.102 C  
HETATM   18  N   UNL     1      -6.957   5.518  67.976  1.00  0.00    -0.064 NA 
HETATM   19  C   UNL     1      -7.386   3.997  69.807  1.00  0.00    -0.049 C  
HETATM   20  H1  UNL     1      -7.030   4.737  67.324  1.00  0.00     0.000 HD 
HETATM   21  H2  UNL     1      -5.989   5.696  68.242  1.00  0.00     0.000 HD 
HETATM   22  C   UNL     1      -8.229   3.688  71.045  1.00  0.00    -0.066 C  
HETATM   23  C   UNL     1      -7.812   5.302  69.155  1.00  0.00    -0.085 C  
HETATM   24  N   UNL     1      -7.802   2.353  71.498  1.00  0.00    -0.040 NA 
HETATM   25  C   UNL     1      -8.079   4.796  72.134  1.00  0.00    -0.107 C  
HETATM   26  H   UNL     1      -8.224   7.040  73.297  1.00  0.00     0.000 HD 
HETATM   27  H1  UNL     1      -8.365   2.147  72.324  1.00  0.00     0.000 HD 
HETATM   28  C   UNL     1      -8.342   6.210  71.532  1.00  0.00    -0.127 C  
HETATM   29  H2  UNL     1      -6.797   2.279  71.660  1.00  0.00     0.000 HD 
HETATM   30  O   UNL     1      -7.833   7.208  72.447  1.00  0.00    -0.092 OA 
BRANCH  25  31
HETATM   31  O   UNL     1      -9.022   4.639  73.241  1.00  0.00    -0.113 OA 
BRANCH  31  32
HETATM   32  C   UNL     1      -9.304   5.835  73.978  1.00  0.00    -0.133 C  
HETATM   33  O   UNL     1      -8.120   6.572  74.307  1.00  0.00    -0.119 OA 
HETATM   34  C   UNL     1      -7.479   7.147  73.155  1.00  0.00    -0.072 C  
HETATM   35  C   UNL     1      -8.422   8.135  72.452  1.00  0.00    -0.179 C  
HETATM   36  H   UNL     1     -12.132   6.501  72.420  1.00  0.00     0.000 HD 
HETATM   37  C   UNL     1      -9.713   7.414  72.016  1.00  0.00    -0.154 C  
HETATM   38  H1  UNL     1     -11.500   7.889  71.078  1.00  0.00     0.000 HD 
HETATM   39  O   UNL     1      -7.805   8.764  71.325  1.00  0.00    -0.120 OA 
HETATM   40  H   UNL     1      -8.388   9.375  70.891  1.00  0.00     0.000 HD 
HETATM   41  H2  UNL     1     -10.206   8.859  70.590  1.00  0.00     0.000 HD 
HETATM   42  C   UNL     1     -10.341   6.721  73.238  1.00  0.00    -0.269 C  
HETATM   43  N   UNL     1     -10.646   8.367  71.367  1.00  0.00    -0.221 NA 
HETATM   44  O   UNL     1     -11.498   5.958  72.873  1.00  0.00    -0.256 OA 
BRANCH  34  45
HETATM   45  C   UNL     1      -6.207   7.870  73.621  1.00  0.00    -0.077 C  
HETATM   46  O   UNL     1      -5.821   8.872  72.681  1.00  0.00    -0.078 OA 
HETATM   47  H   UNL     1      -5.034   9.319  72.969  1.00  0.00     0.000 HD 
ENDBRANCH  34  45
ENDBRANCH  31  32
ENDBRANCH  25  31
ENDBRANCH  16  17
ENDBRANCH   7  16
ENDBRANCH   2   5
TORSDOF 6
ENDMDL
MODEL      343
REMARK 921   NORMALIZED FREE ENERGY PREDICTED BY IDOCK:   38.43 KCAL/MOL
REMARK 922        TOTAL FREE ENERGY PREDICTED BY IDOCK:   50.85 KCAL/MOL
REMARK 923 INTER-LIGAND FREE ENERGY PREDICTED BY IDOCK:   26.29 KCAL/MOL
REMARK 924 INTRA-LIGAND FREE ENERGY PREDICTED BY IDOCK:   24.56 KCAL/MOL
REMARK 927      BINDING AFFINITY PREDICTED BY RF-SCORE:    0.00 PKD
ROOT
HETATM    1  N   UNL     1      -7.838  13.524  71.270  1.00  0.00     4.548 NA 
HETATM    2  C   UNL     1      -7.054  12.809  72.287  1.00  0.00     8.045 C  
HETATM    3  H2  UNL     1      -8.786  13.153  71.207  1.00  0.00     0.000 HD 
HETATM    4  H1  UNL     1      -7.847  14.532  71.427  1.00  0.00     0.000 HD 
ENDROOT
BRANCH   2   5
HETATM    5  C   UNL     1      -7.040  11.278  72.047  1.00  0.00     6.496 C  
HETATM    6  O   UNL     1      -8.149  10.841  71.245  1.00  0.00     2.912 OA 
HETATM    7  C   UNL     1      -8.111  11.255  69.889  1.00  0.00     1.125 C  
HETATM    8  C   UNL     1      -6.841  10.669  69.189  1.00  0.00    -0.079 C  
HETATM    9  C   UNL     1      -5.700  10.784  71.467  1.00  0.00     0.277 C  
HETATM   10  N   UNL     1      -6.882   9.195  69.072  1.00  0.00    -0.055 NA 
HETATM   11  C   UNL     1      -5.582  11.089  69.969  1.00  0.00    -0.075 C  
HETATM   12  H   UNL     1      -4.787   9.065  71.329  1.00  0.00     0.000 HD 
HETATM   13  H1  UNL     1      -6.053   8.812  68.616  1.00  0.00     0.000 HD 
HETATM   14  H2  UNL     1      -7.733   8.888  68.602  1.00  0.00     0.000 HD 
HETATM   15  O   UNL     1      -5.613   9.370  71.687  1.00  0.00    -0.067 OA 
BRANCH   7  16
HETATM   16  O   UNL     1      -9.290  10.807  69.200  1.00  0.00    -0.190 OA 
BRANCH  16  17
HETATM   17  C   UNL     1     -10.342  11.794  68.990  1.00  0.00    -0.059 C  
HETATM   18  N   UNL     1     -11.536  10.466  67.261  1.00  0.00    -0.381 NA 
HETATM   19  C   UNL     1     -11.991  12.838  67.382  1.00  0.00    -0.335 C  
HETATM   20  H1  UNL     1     -11.920  10.451  66.317  1.00  0.00     0.000 HD 
HETATM   21  H2  UNL     1     -12.237  10.212  67.956  1.00  0.00     0.000 HD 
HETATM   22  C   UNL     1     -11.440  14.235  67.669  1.00  0.00    -0.346 C  
HETATM   23  C   UNL     1     -10.924  11.770  67.561  1.00  0.00    -0.256 C  
HETATM   24  N   UNL     1     -12.528  15.172  67.340  1.00  0.00     0.033 NA 
HETATM   25  C   UNL     1     -10.930  14.361  69.139  1.00  0.00    -0.265 C  
HETATM   26  H   UNL     1      -9.543  14.005  71.227  1.00  0.00     0.000 HD 
HETATM   27  H1  UNL     1     -12.160  16.103  67.531  1.00  0.00     0.000 HD 
HETATM   28  C   UNL     1      -9.937  13.210  69.486  1.00  0.00     1.006 C  
HETATM   29  H2  UNL     1     -13.402  14.970  67.826  1.00  0.00     0.000 HD 
HETATM   30  O   UNL     1      -9.790  13.140  70.924  1.00  0.00     5.523 OA 
BRANCH  25  31
HETATM   31  O   UNL     1     -10.214  15.611  69.389  1.00  0.00    -0.224 OA 
BRANCH  31  32
HETATM   32  C   UNL     1      -9.656  16.240  68.228  1.00  0.00    -0.218 C  
HETATM   33  O   UNL     1      -8.232  16.094  68.153  1.00  0.00    -0.153 OA 
HETATM   34  C   UNL     1      -7.819  14.739  67.913  1.00  0.00    -0.137 C  
HETATM   35  C   UNL     1      -8.376  14.236  66.572  1.00  0.00     0.390 C  
HETATM   36  H   UNL     1     -12.199  15.546  66.247  1.00  0.00     0.000 HD 
HETATM   37  C   UNL     1      -9.915  14.311  66.579  1.00  0.00    -0.281 C  
HETATM   38  H1  UNL     1     -11.481  13.909  65.280  1.00  0.00     0.000 HD 
HETATM   39  O   UNL     1      -7.948  12.904  66.274  1.00  0.00     0.023 OA 
HETATM   40  H   UNL     1      -8.293  12.593  65.445  1.00  0.00     0.000 HD 
HETATM   41  H2  UNL     1     -10.128  12.930  65.026  1.00  0.00     0.000 HD 
HETATM   42  C   UNL     1     -10.350  15.743  66.932  1.00  0.00    -0.295 C  
HETATM   43  N   UNL     1     -10.462  13.860  65.276  1.00  0.00    -0.349 NA 
HETATM   44  O   UNL     1     -11.775  15.850  67.040  1.00  0.00     0.210 OA 
BRANCH  34  45
HETATM   45  C   UNL     1      -6.284  14.698  67.897  1.00  0.00    -0.158 C  
HETATM   46  O   UNL     1      -5.815  13.585  67.136  1.00  0.00    -0.375 OA 
HETATM   47  H   UNL     1      -4.865  13.560  67.126  1.00  0.00     0.000 HD 
ENDBRANCH  34  45
ENDBRANCH  31  32
ENDBRANCH  25  31
ENDBRANCH  16  17
ENDBRANCH   7  16
ENDBRANCH   2   5
TORSDOF 6
ENDMDL
MODEL      344
REMARK 921   NORMALIZED FREE ENERGY PREDICTED BY IDOCK:   42.18 KCAL/MOL
REMARK 922        TOTAL FREE ENERGY PREDICTED BY IDOCK:   55.93 KCAL/MOL
REMARK 923 INTER-LIGAND FREE ENERGY PREDICTED BY IDOCK:   20.59 KCAL/MOL
REMARK 924 INTRA-LIGAND FREE ENERGY PREDICTED BY IDOCK:   35.34 KCAL/MOL
REMARK 927      BINDING AFFINITY PREDICTED BY RF-SCORE:    0.00 PKD
ROOT
HETATM    1  N   UNL     1     -13.521   6.989  68.481  1.00  0.00     9.217 NA 
HETATM    2  C   UNL     1     -12.537   6.071  69.073  1.00  0.00     5.623 C  
HETATM    3  H2  UNL     1     -13.544   6.900  67.465  1.00  0.00     0.000 HD 
HETATM    4  H1  UNL     1     -14.451   6.869  68.882  1.00  0.00     0.000 HD 
ENDROOT
BRANCH   2   5
HETATM    5  C   UNL     1     -11.124   6.254  68.464  1.00  0.00    -0.308 C  
HETATM    6  O   UNL     1     -10.723   7.633  68.418  1.00  0.00    -0.155 OA 
HETATM    7  C   UNL     1     -10.474   8.230  69.680  1.00  0.00    -0.221 C  
HETATM    8  C   UNL     1      -9.302   7.485  70.399  1.00  0.00    -0.161 C  
HETATM    9  C   UNL     1     -10.062   5.385  69.167  1.00  0.00    -0.223 C  
HETATM   10  N   UNL     1      -8.007   7.653  69.705  1.00  0.00    -0.121 NA 
HETATM   11  C   UNL     1      -9.636   5.986  70.511  1.00  0.00    -0.198 C  
HETATM   12  H   UNL     1      -8.273   4.742  68.730  1.00  0.00     0.000 HD 
HETATM   13  H1  UNL     1      -7.242   7.167  70.174  1.00  0.00     0.000 HD 
HETATM   14  H2  UNL     1      -7.788   8.640  69.574  1.00  0.00     0.000 HD 
HETATM   15  O   UNL     1      -8.928   5.277  68.297  1.00  0.00    -0.108 OA 
BRANCH   7  16
HETATM   16  O   UNL     1     -10.134   9.617  69.515  1.00  0.00    -0.185 OA 
BRANCH  16  17
HETATM   17  C   UNL     1      -9.902  10.077  68.152  1.00  0.00    -0.142 C  
HETATM   18  N   UNL     1     -12.088   9.274  67.284  1.00  0.00     3.197 NA 
HETATM   19  C   UNL     1     -10.331   9.724  65.685  1.00  0.00    -0.036 C  
HETATM   20  H1  UNL     1     -12.569   8.712  66.582  1.00  0.00     0.000 HD 
HETATM   21  H2  UNL     1     -12.434  10.233  67.299  1.00  0.00     0.000 HD 
HETATM   22  C   UNL     1      -8.831   9.704  65.391  1.00  0.00    -0.171 C  
HETATM   23  C   UNL     1     -10.630   9.227  67.090  1.00  0.00    -0.216 C  
HETATM   24  N   UNL     1      -8.693  10.084  63.975  1.00  0.00    -0.189 NA 
HETATM   25  C   UNL     1      -8.041  10.633  66.367  1.00  0.00    -0.148 C  
HETATM   26  H   UNL     1      -7.034  11.557  68.498  1.00  0.00     0.000 HD 
HETATM   27  H1  UNL     1      -7.692  10.071  63.779  1.00  0.00     0.000 HD 
HETATM   28  C   UNL     1      -8.396  10.313  67.851  1.00  0.00    -0.114 C  
HETATM   29  H2  UNL     1      -9.142  10.971  63.744  1.00  0.00     0.000 HD 
HETATM   30  O   UNL     1      -7.955  11.412  68.682  1.00  0.00    -0.135 OA 
BRANCH  25  31
HETATM   31  O   UNL     1      -6.591  10.484  66.249  1.00  0.00    -0.101 OA 
BRANCH  31  32
HETATM   32  C   UNL     1      -5.836  10.940  67.378  1.00  0.00    -0.046 C  
HETATM   33  O   UNL     1      -5.325  12.267  67.200  1.00  0.00    -0.198 OA 
HETATM   34  C   UNL     1      -6.357  13.268  67.183  1.00  0.00     0.408 C  
HETATM   35  C   UNL     1      -7.121  13.273  68.517  1.00  0.00    -0.105 C  
HETATM   36  H   UNL     1      -7.698   9.419  69.634  1.00  0.00     0.000 HD 
HETATM   37  C   UNL     1      -7.750  11.890  68.771  1.00  0.00    -0.074 C  
HETATM   38  H1  UNL     1      -8.878  10.958  70.240  1.00  0.00     0.000 HD 
HETATM   39  O   UNL     1      -8.129  14.288  68.558  1.00  0.00    -0.138 OA 
HETATM   40  H   UNL     1      -8.602  14.291  69.382  1.00  0.00     0.000 HD 
HETATM   41  H2  UNL     1      -9.152  12.622  70.136  1.00  0.00     0.000 HD 
HETATM   42  C   UNL     1      -6.654  10.814  68.691  1.00  0.00    -0.056 C  
HETATM   43  N   UNL     1      -8.462  11.874  70.072  1.00  0.00     2.183 NA 
HETATM   44  O   UNL     1      -7.197   9.496  68.830  1.00  0.00    -0.070 OA 
BRANCH  34  45
HETATM   45  C   UNL     1      -5.700  14.634  66.945  1.00  0.00     1.639 C  
HETATM   46  O   UNL     1      -6.500  15.435  66.074  1.00  0.00     1.939 OA 
HETATM   47  H   UNL     1      -6.093  16.281  65.927  1.00  0.00     0.000 HD 
ENDBRANCH  34  45
ENDBRANCH  31  32
ENDBRANCH  25  31
ENDBRANCH  16  17
ENDBRANCH   7  16
ENDBRANCH   2   5
TORSDOF 6
ENDMDL
MODEL      345
REMARK 921   NORMALIZED FREE ENERGY PREDICTED BY IDOCK:   45.05 KCAL/MOL
REMARK 922        TOTAL FREE ENERGY PREDICTED BY IDOCK:   59.80 KCAL/MOL
REMARK 923 INTER-LIGAND FREE ENERGY PREDICTED BY IDOCK:   26.10 KCAL/MOL
REMARK 924 INTRA-LIGAND FREE ENERGY PREDICTED BY IDOCK:   33.71 KCAL/MOL
REMARK 927      BINDING AFFINITY PREDICTED BY RF-SCORE:    0.00 PKD
ROOT
HETATM    1  N   UNL     1     -10.117   9.767  67.431  1.00  0.00    -0.194 NA 
HETATM    2  C   UNL     1     -10.844  11.011  67.723  1.00  0.00    -0.249 C  
HETATM    3  H2  UNL     1      -9.144   9.956  67.191  1.00  0.00     0.000 HD 
HETATM    4  H1  UNL     1     -10.184   9.093  68.193  1.00  0.00     0.000 HD 
ENDROOT
BRANCH   2   5
HETATM    5  C   UNL     1     -10.742  12.036  66.565  1.00  0.00    -0.258 C  
HETATM    6  O   UNL     1     -10.365  13.343  67.024  1.00  0.00    -0.245 OA 
HETATM    7  C   UNL     1      -9.034  13.453  67.504  1.00  0.00    -0.207 C  
HETATM    8  C   UNL     1      -8.026  13.113  66.358  1.00  0.00     0.984 C  
HETATM    9  C   UNL     1      -9.817  11.553  65.430  1.00  0.00    -0.235 C  
HETATM   10  N   UNL     1      -8.052  14.105  65.261  1.00  0.00     3.909 NA 
HETATM   11  C   UNL     1      -8.337  11.714  65.796  1.00  0.00     0.280 C  
HETATM   12  H   UNL     1      -9.547  12.019  63.555  1.00  0.00     0.000 HD 
HETATM   13  H1  UNL     1      -7.394  13.883  64.513  1.00  0.00     0.000 HD 
HETATM   14  H2  UNL     1      -7.898  15.048  65.616  1.00  0.00     0.000 HD 
HETATM   15  O   UNL     1     -10.117  12.316  64.255  1.00  0.00    -0.308 OA 
BRANCH   7  16
HETATM   16  O   UNL     1      -8.787  14.785  67.984  1.00  0.00    -0.161 OA 
BRANCH  16  17
HETATM   17  C   UNL     1      -9.400  15.876  67.236  1.00  0.00    -0.211 C  
HETATM   18  N   UNL     1      -9.315  14.703  65.046  1.00  0.00     0.059 NA 
HETATM   19  C   UNL     1      -9.584  17.106  65.034  1.00  0.00     1.951 C  
HETATM   20  H1  UNL     1      -9.014  14.742  64.072  1.00  0.00     0.000 HD 
HETATM   21  H2  UNL     1     -10.313  14.508  65.124  1.00  0.00     0.000 HD 
HETATM   22  C   UNL     1      -9.248  18.436  65.710  1.00  0.00     0.451 C  
HETATM   23  C   UNL     1      -8.945  15.935  65.762  1.00  0.00    -0.060 C  
HETATM   24  N   UNL     1      -9.816  19.482  64.842  1.00  0.00     1.369 NA 
HETATM   25  C   UNL     1      -9.776  18.486  67.178  1.00  0.00    -0.304 C  
HETATM   26  H   UNL     1     -10.052  17.958  69.638  1.00  0.00     0.000 HD 
HETATM   27  H1  UNL     1      -9.591  20.369  65.292  1.00  0.00     0.000 HD 
HETATM   28  C   UNL     1      -9.307  17.236  67.982  1.00  0.00    -0.264 C  
HETATM   29  H2  UNL     1     -10.812  19.360  64.654  1.00  0.00     0.000 HD 
HETATM   30  O   UNL     1     -10.108  17.127  69.182  1.00  0.00    -0.292 OA 
BRANCH  25  31
HETATM   31  O   UNL     1      -9.299  19.654  67.916  1.00  0.00    -0.319 OA 
BRANCH  31  32
HETATM   32  C   UNL     1      -7.985  19.529  68.476  1.00  0.00    -0.348 C  
HETATM   33  O   UNL     1      -7.999  19.479  69.908  1.00  0.00     0.231 OA 
HETATM   34  C   UNL     1      -8.593  18.276  70.422  1.00  0.00     3.441 C  
HETATM   35  C   UNL     1      -7.802  17.044  69.954  1.00  0.00     1.249 C  
HETATM   36  H   UNL     1      -6.801  17.614  66.067  1.00  0.00     0.000 HD 
HETATM   37  C   UNL     1      -7.776  16.987  68.415  1.00  0.00    -0.230 C  
HETATM   38  H1  UNL     1      -6.968  15.783  66.932  1.00  0.00     0.000 HD 
HETATM   39  O   UNL     1      -8.335  15.826  70.482  1.00  0.00     1.021 OA 
HETATM   40  H   UNL     1      -7.847  15.065  70.193  1.00  0.00     0.000 HD 
HETATM   41  H2  UNL     1      -7.323  14.949  68.357  1.00  0.00     0.000 HD 
HETATM   42  C   UNL     1      -7.228  18.318  67.870  1.00  0.00    -0.228 C  
HETATM   43  N   UNL     1      -6.985  15.821  67.951  1.00  0.00    -0.128 NA 
HETATM   44  O   UNL     1      -7.265  18.356  66.438  1.00  0.00    -0.216 OA 
BRANCH  34  45
HETATM   45  C   UNL     1      -8.592  18.353  71.955  1.00  0.00    12.694 C  
HETATM   46  O   UNL     1      -8.221  19.659  72.396  1.00  0.00     2.912 OA 
HETATM   47  H   UNL     1      -8.220  19.707  73.345  1.00  0.00     0.000 HD 
ENDBRANCH  34  45
ENDBRANCH  31  32
ENDBRANCH  25  31
ENDBRANCH  16  17
ENDBRANCH   7  16
ENDBRANCH   2   5
TORSDOF 6
ENDMDL
MODEL      346
REMARK 921   NORMALIZED FREE ENERGY PREDICTED BY IDOCK:   45.06 KCAL/MOL
REMARK 922        TOTAL FREE ENERGY PREDICTED BY IDOCK:   59.81 KCAL/MOL
REMARK 923 INTER-LIGAND FREE ENERGY PREDICTED BY IDOCK:   34.01 KCAL/MOL
REMARK 924 INTRA-LIGAND FREE ENERGY PREDICTED BY IDOCK:   25.79 KCAL/MOL
REMARK 927      BINDING AFFINITY PREDICTED BY RF-SCORE:    0.00 PKD
ROOT
HETATM    1  N   UNL     1      -7.906  13.535  71.326  1.00  0.00     4.548 NA 
HETATM    2  C   UNL     1      -7.161  12.846  72.390  1.00  0.00     7.910 C  
HETATM    3  H2  UNL     1      -8.881  13.238  71.308  1.00  0.00     0.000 HD 
HETATM    4  H1  UNL     1      -7.831  14.549  71.397  1.00  0.00     0.000 HD 
ENDROOT
BRANCH   2   5
HETATM    5  C   UNL     1      -7.274  11.304  72.282  1.00  0.00     8.140 C  
HETATM    6  O   UNL     1      -8.488  10.891  71.634  1.00  0.00     5.671 OA 
HETATM    7  C   UNL     1      -8.565  11.193  70.250  1.00  0.00     2.429 C  
HETATM    8  C   UNL     1      -7.418  10.460  69.481  1.00  0.00    -0.148 C  
HETATM    9  C   UNL     1      -6.038  10.667  71.617  1.00  0.00     0.760 C  
HETATM   10  N   UNL     1      -7.568   8.989  69.496  1.00  0.00    -0.075 NA 
HETATM   11  C   UNL     1      -6.058  10.845  70.094  1.00  0.00    -0.132 C  
HETATM   12  H   UNL     1      -5.262   8.879  71.536  1.00  0.00     0.000 HD 
HETATM   13  H1  UNL     1      -6.820   8.510  68.993  1.00  0.00     0.000 HD 
HETATM   14  H2  UNL     1      -8.483   8.711  69.140  1.00  0.00     0.000 HD 
HETATM   15  O   UNL     1      -6.024   9.272  71.947  1.00  0.00    -0.120 OA 
BRANCH   7  16
HETATM   16  O   UNL     1      -9.837  10.782  69.723  1.00  0.00    -0.032 OA 
BRANCH  16  17
HETATM   17  C   UNL     1     -10.185  11.270  68.394  1.00  0.00    -0.195 C  
HETATM   18  N   UNL     1     -12.148   9.770  68.125  1.00  0.00     0.790 NA 
HETATM   19  C   UNL     1     -11.193  10.752  66.133  1.00  0.00     0.203 C  
HETATM   20  H1  UNL     1     -12.609   9.068  67.546  1.00  0.00     0.000 HD 
HETATM   21  H2  UNL     1     -12.764  10.560  68.320  1.00  0.00     0.000 HD 
HETATM   22  C   UNL     1      -9.926  11.228  65.421  1.00  0.00    -0.250 C  
HETATM   23  C   UNL     1     -10.881  10.208  67.518  1.00  0.00    -0.290 C  
HETATM   24  N   UNL     1     -10.348  11.608  64.062  1.00  0.00    -0.320 NA 
HETATM   25  C   UNL     1      -9.225  12.383  66.203  1.00  0.00    -0.101 C  
HETATM   26  H   UNL     1      -7.982  13.625  68.026  1.00  0.00     0.000 HD 
HETATM   27  H1  UNL     1      -9.503  11.925  63.586  1.00  0.00     0.000 HD 
HETATM   28  C   UNL     1      -8.997  11.989  67.695  1.00  0.00    -0.172 C  
HETATM   29  H2  UNL     1     -11.107  12.291  64.045  1.00  0.00     0.000 HD 
HETATM   30  O   UNL     1      -8.708  13.186  68.454  1.00  0.00    -0.174 OA 
BRANCH  25  31
HETATM   31  O   UNL     1      -7.910  12.723  65.662  1.00  0.00     2.036 OA 
BRANCH  31  32
HETATM   32  C   UNL     1      -7.370  11.779  64.729  1.00  0.00     2.707 C  
HETATM   33  O   UNL     1      -6.342  10.963  65.305  1.00  0.00    -0.014 OA 
HETATM   34  C   UNL     1      -6.839  10.055  66.303  1.00  0.00    -0.099 C  
HETATM   35  C   UNL     1      -7.865   9.090  65.688  1.00  0.00    -0.102 C  
HETATM   36  H   UNL     1     -10.218  11.219  63.166  1.00  0.00     0.000 HD 
HETATM   37  C   UNL     1      -9.039   9.882  65.083  1.00  0.00    -0.211 C  
HETATM   38  H1  UNL     1     -10.797   9.487  64.056  1.00  0.00     0.000 HD 
HETATM   39  O   UNL     1      -8.351   8.139  66.640  1.00  0.00    -0.107 OA 
HETATM   40  H   UNL     1      -8.985   7.542  66.260  1.00  0.00     0.000 HD 
HETATM   41  H2  UNL     1     -10.340   8.248  65.109  1.00  0.00     0.000 HD 
HETATM   42  C   UNL     1      -8.490  10.918  64.087  1.00  0.00     0.113 C  
HETATM   43  N   UNL     1     -10.019   8.962  64.456  1.00  0.00     1.564 NA 
HETATM   44  O   UNL     1      -9.533  11.747  63.559  1.00  0.00    -0.228 OA 
BRANCH  34  45
HETATM   45  C   UNL     1      -5.651   9.270  66.875  1.00  0.00    -0.040 C  
HETATM   46  O   UNL     1      -6.077   8.006  67.385  1.00  0.00    -0.048 OA 
HETATM   47  H   UNL     1      -5.342   7.520  67.739  1.00  0.00     0.000 HD 
ENDBRANCH  34  45
ENDBRANCH  31  32
ENDBRANCH  25  31
ENDBRANCH  16  17
ENDBRANCH   7  16
ENDBRANCH   2   5
TORSDOF 6
ENDMDL
MODEL      347
REMARK 921   NORMALIZED FREE ENERGY PREDICTED BY IDOCK:   59.05 KCAL/MOL
REMARK 922        TOTAL FREE ENERGY PREDICTED BY IDOCK:   78.71 KCAL/MOL
REMARK 923 INTER-LIGAND FREE ENERGY PREDICTED BY IDOCK:   41.02 KCAL/MOL
REMARK 924 INTRA-LIGAND FREE ENERGY PREDICTED BY IDOCK:   37.69 KCAL/MOL
REMARK 927      BINDING AFFINITY PREDICTED BY RF-SCORE:    0.00 PKD
ROOT
HETATM    1  N   UNL     1     -10.419  14.982  72.789  1.00  0.00     1.608 NA 
HETATM    2  C   UNL     1     -10.523  13.974  71.723  1.00  0.00     4.647 C  
HETATM    3  H2  UNL     1     -10.984  15.803  72.575  1.00  0.00     0.000 HD 
HETATM    4  H1  UNL     1     -10.654  14.602  73.705  1.00  0.00     0.000 HD 
ENDROOT
BRANCH   2   5
HETATM    5  C   UNL     1     -10.166  14.552  70.331  1.00  0.00     0.815 C  
HETATM    6  O   UNL     1     -10.468  15.953  70.228  1.00  0.00    -0.291 OA 
HETATM    7  C   UNL     1      -9.650  16.805  71.013  1.00  0.00     4.099 C  
HETATM    8  C   UNL     1      -8.158  16.673  70.563  1.00  0.00     3.266 C  
HETATM    9  C   UNL     1      -8.706  14.264  69.929  1.00  0.00     1.137 C  
HETATM   10  N   UNL     1      -7.927  17.180  69.193  1.00  0.00    -0.120 NA 
HETATM   11  C   UNL     1      -7.724  15.197  70.646  1.00  0.00     1.263 C  
HETATM   12  H   UNL     1      -7.692  14.252  68.262  1.00  0.00     0.000 HD 
HETATM   13  H1  UNL     1      -6.953  17.094  68.900  1.00  0.00     0.000 HD 
HETATM   14  H2  UNL     1      -8.253  18.142  69.100  1.00  0.00     0.000 HD 
HETATM   15  O   UNL     1      -8.592  14.430  68.510  1.00  0.00    -0.168 OA 
BRANCH   7  16
HETATM   16  O   UNL     1     -10.076  18.171  70.871  1.00  0.00     2.215 OA 
BRANCH  16  17
HETATM   17  C   UNL     1     -10.434  18.611  69.528  1.00  0.00     0.747 C  
HETATM   18  N   UNL     1     -12.564  17.332  69.449  1.00  0.00     3.247 NA 
HETATM   19  C   UNL     1     -11.607  18.070  67.355  1.00  0.00     1.328 C  
HETATM   20  H1  UNL     1     -13.129  16.653  68.940  1.00  0.00     0.000 HD 
HETATM   21  H2  UNL     1     -13.077  18.198  69.615  1.00  0.00     0.000 HD 
HETATM   22  C   UNL     1     -10.333  18.351  66.557  1.00  0.00    -0.400 C  
HETATM   23  C   UNL     1     -11.288  17.582  68.758  1.00  0.00     0.811 C  
HETATM   24  N   UNL     1     -10.779  18.690  65.194  1.00  0.00    -0.399 NA 
HETATM   25  C   UNL     1      -9.469  19.465  67.227  1.00  0.00    -0.318 C  
HETATM   26  H   UNL     1      -8.003  20.669  68.904  1.00  0.00     0.000 HD 
HETATM   27  H1  UNL     1      -9.929  18.877  64.662  1.00  0.00     0.000 HD 
HETATM   28  C   UNL     1      -9.210  19.142  68.731  1.00  0.00    -0.359 C  
HETATM   29  H2  UNL     1     -11.456  19.453  65.164  1.00  0.00     0.000 HD 
HETATM   30  O   UNL     1      -8.751  20.344  69.392  1.00  0.00     0.619 OA 
BRANCH  25  31
HETATM   31  O   UNL     1      -8.153  19.617  66.607  1.00  0.00    -0.279 OA 
BRANCH  31  32
HETATM   32  C   UNL     1      -7.247  18.526  66.820  1.00  0.00    -0.211 C  
HETATM   33  O   UNL     1      -7.737  17.584  67.783  1.00  0.00    -0.198 OA 
HETATM   34  C   UNL     1      -8.885  16.854  67.320  1.00  0.00    -0.195 C  
HETATM   35  C   UNL     1      -8.534  16.044  66.062  1.00  0.00    -0.062 C  
HETATM   36  H   UNL     1      -6.204  18.371  63.697  1.00  0.00     0.000 HD 
HETATM   37  C   UNL     1      -8.041  16.987  64.947  1.00  0.00     4.603 C  
HETATM   38  H1  UNL     1      -7.341  16.837  63.001  1.00  0.00     0.000 HD 
HETATM   39  O   UNL     1      -9.640  15.266  65.594  1.00  0.00    -0.336 OA 
HETATM   40  H   UNL     1      -9.423  14.766  64.816  1.00  0.00     0.000 HD 
HETATM   41  H2  UNL     1      -8.430  15.616  63.420  1.00  0.00     0.000 HD 
HETATM   42  C   UNL     1      -6.874  17.834  65.483  1.00  0.00     0.088 C  
HETATM   43  N   UNL     1      -7.667  16.213  63.739  1.00  0.00    14.724 NA 
HETATM   44  O   UNL     1      -6.432  18.795  64.516  1.00  0.00    -0.415 OA 
BRANCH  34  45
HETATM   45  C   UNL     1      -9.344  15.913  68.443  1.00  0.00    -0.201 C  
HETATM   46  O   UNL     1     -10.428  15.094  68.006  1.00  0.00    -0.241 OA 
HETATM   47  H   UNL     1     -10.712  14.512  68.701  1.00  0.00     0.000 HD 
ENDBRANCH  34  45
ENDBRANCH  31  32
ENDBRANCH  25  31
ENDBRANCH  16  17
ENDBRANCH   7  16
ENDBRANCH   2   5
TORSDOF 6
ENDMDL
MODEL      348
REMARK 921   NORMALIZED FREE ENERGY PREDICTED BY IDOCK:   74.49 KCAL/MOL
REMARK 922        TOTAL FREE ENERGY PREDICTED BY IDOCK:   99.57 KCAL/MOL
REMARK 923 INTER-LIGAND FREE ENERGY PREDICTED BY IDOCK:   86.82 KCAL/MOL
REMARK 924 INTRA-LIGAND FREE ENERGY PREDICTED BY IDOCK:   12.74 KCAL/MOL
REMARK 927      BINDING AFFINITY PREDICTED BY RF-SCORE:    0.00 PKD
ROOT
HETATM    1  N   UNL     1      -9.363  13.444  64.768  1.00  0.00     0.122 NA 
HETATM    2  C   UNL     1      -7.909  13.230  64.759  1.00  0.00     8.143 C  
HETATM    3  H2  UNL     1      -9.810  12.909  65.512  1.00  0.00     0.000 HD 
HETATM    4  H1  UNL     1      -9.607  14.432  64.827  1.00  0.00     0.000 HD 
ENDROOT
BRANCH   2   5
HETATM    5  C   UNL     1      -7.537  11.728  64.668  1.00  0.00     2.518 C  
HETATM    6  O   UNL     1      -7.948  10.993  65.832  1.00  0.00    -0.140 OA 
HETATM    7  C   UNL     1      -9.351  10.843  65.985  1.00  0.00    -0.190 C  
HETATM    8  C   UNL     1      -9.936  10.050  64.770  1.00  0.00    -0.178 C  
HETATM    9  C   UNL     1      -8.058  11.069  63.376  1.00  0.00     0.313 C  
HETATM   10  N   UNL     1      -9.467   8.648  64.723  1.00  0.00    -0.017 NA 
HETATM   11  C   UNL     1      -9.559  10.764  63.459  1.00  0.00    -0.359 C  
HETATM   12  H   UNL     1      -7.645   9.449  62.370  1.00  0.00     0.000 HD 
HETATM   13  H1  UNL     1      -9.849   8.131  63.930  1.00  0.00     0.000 HD 
HETATM   14  H2  UNL     1      -9.661   8.168  65.601  1.00  0.00     0.000 HD 
HETATM   15  O   UNL     1      -7.324   9.856  63.167  1.00  0.00    -0.121 OA 
BRANCH   7  16
HETATM   16  O   UNL     1      -9.645  10.141  67.204  1.00  0.00    -0.162 OA 
BRANCH  16  17
HETATM   17  C   UNL     1      -9.648  10.929  68.430  1.00  0.00    -0.177 C  
HETATM   18  N   UNL     1     -12.117  11.202  68.499  1.00  0.00    -0.710 NA 
HETATM   19  C   UNL     1     -10.771  12.738  69.794  1.00  0.00     0.605 C  
HETATM   20  H1  UNL     1     -12.899  11.855  68.556  1.00  0.00     0.000 HD 
HETATM   21  H2  UNL     1     -12.164  10.494  69.232  1.00  0.00     0.000 HD 
HETATM   22  C   UNL     1      -9.463  13.522  69.895  1.00  0.00     2.190 C  
HETATM   23  C   UNL     1     -10.830  11.916  68.517  1.00  0.00    -0.221 C  
HETATM   24  N   UNL     1      -9.589  14.361  71.100  1.00  0.00     2.623 NA 
HETATM   25  C   UNL     1      -8.223  12.574  69.921  1.00  0.00     2.515 C  
HETATM   26  H   UNL     1      -6.490  10.885  69.178  1.00  0.00     0.000 HD 
HETATM   27  H1  UNL     1      -8.717  14.885  71.167  1.00  0.00     0.000 HD 
HETATM   28  C   UNL     1      -8.264  11.570  68.729  1.00  0.00    -0.082 C  
HETATM   29  H2  UNL     1      -9.815  13.833  71.944  1.00  0.00     0.000 HD 
HETATM   30  O   UNL     1      -7.335  10.493  68.996  1.00  0.00    -0.084 OA 
BRANCH  25  31
HETATM   31  O   UNL     1      -6.954  13.291  69.813  1.00  0.00     0.127 OA 
BRANCH  31  32
HETATM   32  C   UNL     1      -6.447  13.827  71.042  1.00  0.00     0.532 C  
HETATM   33  O   UNL     1      -6.585  15.252  71.119  1.00  0.00     0.537 OA 
HETATM   34  C   UNL     1      -7.954  15.679  71.218  1.00  0.00     3.988 C  
HETATM   35  C   UNL     1      -8.602  15.112  72.491  1.00  0.00     8.012 C  
HETATM   36  H   UNL     1      -7.376  11.270  72.904  1.00  0.00     0.000 HD 
HETATM   37  C   UNL     1      -8.544  13.572  72.472  1.00  0.00    14.209 C  
HETATM   38  H1  UNL     1      -9.098  11.996  73.700  1.00  0.00     0.000 HD 
HETATM   39  O   UNL     1      -9.954  15.551  72.651  1.00  0.00     2.947 OA 
HETATM   40  H   UNL     1     -10.356  15.201  73.437  1.00  0.00     0.000 HD 
HETATM   41  H2  UNL     1     -10.085  13.357  73.866  1.00  0.00     0.000 HD 
HETATM   42  C   UNL     1      -7.086  13.125  72.268  1.00  0.00     6.829 C  
HETATM   43  N   UNL     1      -9.137  13.015  73.712  1.00  0.00    14.987 NA 
HETATM   44  O   UNL     1      -6.984  11.700  72.153  1.00  0.00     5.029 OA 
BRANCH  34  45
HETATM   45  C   UNL     1      -7.979  17.213  71.250  1.00  0.00     7.740 C  
HETATM   46  O   UNL     1      -9.316  17.700  71.133  1.00  0.00     5.299 OA 
HETATM   47  H   UNL     1      -9.332  18.650  71.153  1.00  0.00     0.000 HD 
ENDBRANCH  34  45
ENDBRANCH  31  32
ENDBRANCH  25  31
ENDBRANCH  16  17
ENDBRANCH   7  16
ENDBRANCH   2   5
TORSDOF 6
ENDMDL
