MODEL        1
REMARK 921   NORMALIZED FREE ENERGY PREDICTED BY IDOCK:   -5.54 KCAL/MOL
REMARK 922        TOTAL FREE ENERGY PREDICTED BY IDOCK:   -6.45 KCAL/MOL
REMARK 923 INTER-LIGAND FREE ENERGY PREDICTED BY IDOCK:   -6.19 KCAL/MOL
REMARK 924 INTRA-LIGAND FREE ENERGY PREDICTED BY IDOCK:   -0.26 KCAL/MOL
REMARK 927      BINDING AFFINITY PREDICTED BY RF-SCORE:    0.00 PKD
ROOT
HETATM    1  C   UNL     1     -10.399  12.094  63.613  1.00  0.00    -0.482 C  
HETATM    2  C   UNL     1     -11.765  12.760  63.529  1.00  0.00    -0.530 C  
HETATM    3  N   UNL     1     -12.809  11.780  63.145  1.00  0.00    -0.879 NA 
HETATM    4  H1  UNL     1     -13.724  12.227  63.089  1.00  0.00     0.000 HD 
HETATM    5  H2  UNL     1     -12.819  10.976  63.772  1.00  0.00     0.000 HD 
ENDROOT
BRANCH   2   6
HETATM    6  C   UNL     1     -12.143  13.452  64.858  1.00  0.00    -0.392 C  
HETATM    7  O   UNL     1     -13.282  13.821  65.129  1.00  0.00    -0.757 OA 
HETATM    8  N   UNL     1     -11.039  13.559  65.694  1.00  0.00    -0.289 N  
HETATM    9  H   UNL     1     -10.148  13.157  65.403  1.00  0.00     0.000 HD 
BRANCH   8  10
HETATM   10  C   UNL     1     -11.132  14.213  66.939  1.00  0.00    -0.307 A  
HETATM   11  C   UNL     1     -10.855  15.591  67.041  1.00  0.00    -0.314 A  
HETATM   12  C   UNL     1     -10.342  16.430  65.904  1.00  0.00    -0.378 C  
HETATM   13  C   UNL     1     -11.112  16.241  68.263  1.00  0.00    -0.346 A  
HETATM   14  C   UNL     1     -11.609  15.540  69.356  1.00  0.00    -0.366 A  
HETATM   15  C   UNL     1     -11.831  14.170  69.261  1.00  0.00    -0.381 A  
HETATM   16  C   UNL     1     -11.596  13.490  68.058  1.00  0.00    -0.372 A  
HETATM   17  C   UNL     1     -11.716  11.991  68.026  1.00  0.00    -0.398 C  
ENDBRANCH   8  10
ENDBRANCH   2   6
TORSDOF 2
ENDMDL
MODEL        2
REMARK 921   NORMALIZED FREE ENERGY PREDICTED BY IDOCK:   -5.29 KCAL/MOL
REMARK 922        TOTAL FREE ENERGY PREDICTED BY IDOCK:   -6.17 KCAL/MOL
REMARK 923 INTER-LIGAND FREE ENERGY PREDICTED BY IDOCK:   -5.94 KCAL/MOL
REMARK 924 INTRA-LIGAND FREE ENERGY PREDICTED BY IDOCK:   -0.23 KCAL/MOL
REMARK 927      BINDING AFFINITY PREDICTED BY RF-SCORE:    0.00 PKD
ROOT
HETATM    1  C   UNL     1     -10.095  12.176  63.727  1.00  0.00    -0.404 C  
HETATM    2  C   UNL     1     -11.510  12.710  63.555  1.00  0.00    -0.491 C  
HETATM    3  N   UNL     1     -12.447  11.619  63.194  1.00  0.00    -0.949 NA 
HETATM    4  H1  UNL     1     -13.396  11.977  63.080  1.00  0.00     0.000 HD 
HETATM    5  H2  UNL     1     -12.412  10.855  63.868  1.00  0.00     0.000 HD 
ENDROOT
BRANCH   2   6
HETATM    6  C   UNL     1     -12.002  13.439  64.825  1.00  0.00    -0.390 C  
HETATM    7  O   UNL     1     -13.163  13.800  64.993  1.00  0.00    -0.733 OA 
HETATM    8  N   UNL     1     -10.969  13.592  65.741  1.00  0.00    -0.277 N  
HETATM    9  H   UNL     1     -10.052  13.195  65.535  1.00  0.00     0.000 HD 
BRANCH   8  10
HETATM   10  C   UNL     1     -11.168  14.286  66.952  1.00  0.00    -0.326 A  
HETATM   11  C   UNL     1     -11.557  13.592  68.114  1.00  0.00    -0.368 A  
HETATM   12  C   UNL     1     -11.894  12.126  68.144  1.00  0.00    -0.362 C  
HETATM   13  C   UNL     1     -11.592  14.291  69.336  1.00  0.00    -0.354 A  
HETATM   14  C   UNL     1     -11.272  15.642  69.397  1.00  0.00    -0.313 A  
HETATM   15  C   UNL     1     -10.939  16.331  68.236  1.00  0.00    -0.348 A  
HETATM   16  C   UNL     1     -10.885  15.667  67.002  1.00  0.00    -0.294 A  
HETATM   17  C   UNL     1     -10.655  16.465  65.748  1.00  0.00    -0.327 C  
ENDBRANCH   8  10
ENDBRANCH   2   6
TORSDOF 2
ENDMDL
MODEL        3
REMARK 921   NORMALIZED FREE ENERGY PREDICTED BY IDOCK:   -5.29 KCAL/MOL
REMARK 922        TOTAL FREE ENERGY PREDICTED BY IDOCK:   -6.17 KCAL/MOL
REMARK 923 INTER-LIGAND FREE ENERGY PREDICTED BY IDOCK:   -5.92 KCAL/MOL
REMARK 924 INTRA-LIGAND FREE ENERGY PREDICTED BY IDOCK:   -0.24 KCAL/MOL
REMARK 927      BINDING AFFINITY PREDICTED BY RF-SCORE:    0.00 PKD
ROOT
HETATM    1  C   UNL     1     -10.885  12.110  63.481  1.00  0.00    -0.518 C  
HETATM    2  C   UNL     1     -11.368  13.440  64.042  1.00  0.00    -0.320 C  
HETATM    3  N   UNL     1     -12.368  14.063  63.141  1.00  0.00    -1.094 NA 
HETATM    4  H1  UNL     1     -12.693  14.953  63.518  1.00  0.00     0.000 HD 
HETATM    5  H2  UNL     1     -13.144  13.431  62.946  1.00  0.00     0.000 HD 
ENDROOT
BRANCH   2   6
HETATM    6  C   UNL     1     -11.956  13.278  65.462  1.00  0.00    -0.405 C  
HETATM    7  O   UNL     1     -13.160  13.260  65.699  1.00  0.00    -0.436 OA 
HETATM    8  N   UNL     1     -10.946  13.125  66.403  1.00  0.00    -0.286 N  
HETATM    9  H   UNL     1      -9.974  13.086  66.095  1.00  0.00     0.000 HD 
BRANCH   8  10
HETATM   10  C   UNL     1     -11.243  13.024  67.777  1.00  0.00    -0.279 A  
HETATM   11  C   UNL     1     -11.435  14.185  68.552  1.00  0.00    -0.333 A  
HETATM   12  C   UNL     1     -11.233  15.582  68.034  1.00  0.00    -0.332 C  
HETATM   13  C   UNL     1     -11.885  14.043  69.878  1.00  0.00    -0.393 A  
HETATM   14  C   UNL     1     -12.118  12.787  70.425  1.00  0.00    -0.382 A  
HETATM   15  C   UNL     1     -11.877  11.644  69.668  1.00  0.00    -0.419 A  
HETATM   16  C   UNL     1     -11.437  11.746  68.341  1.00  0.00    -0.354 A  
HETATM   17  C   UNL     1     -11.057  10.496  67.596  1.00  0.00    -0.375 C  
ENDBRANCH   8  10
ENDBRANCH   2   6
TORSDOF 2
ENDMDL
MODEL        4
REMARK 921   NORMALIZED FREE ENERGY PREDICTED BY IDOCK:   -5.27 KCAL/MOL
REMARK 922        TOTAL FREE ENERGY PREDICTED BY IDOCK:   -6.15 KCAL/MOL
REMARK 923 INTER-LIGAND FREE ENERGY PREDICTED BY IDOCK:   -5.92 KCAL/MOL
REMARK 924 INTRA-LIGAND FREE ENERGY PREDICTED BY IDOCK:   -0.23 KCAL/MOL
REMARK 927      BINDING AFFINITY PREDICTED BY RF-SCORE:    0.00 PKD
ROOT
HETATM    1  C   UNL     1     -10.602  15.201  65.230  1.00  0.00    -0.432 C  
HETATM    2  C   UNL     1     -11.990  14.628  64.977  1.00  0.00    -0.364 C  
HETATM    3  N   UNL     1     -12.429  14.901  63.587  1.00  0.00    -1.008 NA 
HETATM    4  H1  UNL     1     -13.358  14.517  63.417  1.00  0.00     0.000 HD 
HETATM    5  H2  UNL     1     -11.751  14.562  62.905  1.00  0.00     0.000 HD 
ENDROOT
BRANCH   2   6
HETATM    6  C   UNL     1     -12.041  13.111  65.266  1.00  0.00    -0.429 C  
HETATM    7  O   UNL     1     -12.967  12.386  64.916  1.00  0.00    -0.762 OA 
HETATM    8  N   UNL     1     -10.896  12.694  65.933  1.00  0.00    -0.265 N  
HETATM    9  H   UNL     1     -10.151  13.364  66.119  1.00  0.00     0.000 HD 
BRANCH   8  10
HETATM   10  C   UNL     1     -10.750  11.358  66.357  1.00  0.00    -0.275 A  
HETATM   11  C   UNL     1     -10.186  10.396  65.496  1.00  0.00    -0.316 A  
HETATM   12  C   UNL     1      -9.812  10.667  64.064  1.00  0.00    -0.399 C  
HETATM   13  C   UNL     1      -9.910   9.113  66.007  1.00  0.00    -0.342 A  
HETATM   14  C   UNL     1     -10.204   8.790  67.326  1.00  0.00    -0.332 A  
HETATM   15  C   UNL     1     -10.808   9.730  68.155  1.00  0.00    -0.264 A  
HETATM   16  C   UNL     1     -11.090  11.021  67.683  1.00  0.00    -0.363 A  
HETATM   17  C   UNL     1     -11.864  11.969  68.558  1.00  0.00    -0.369 C  
ENDBRANCH   8  10
ENDBRANCH   2   6
TORSDOF 2
ENDMDL
MODEL        5
REMARK 921   NORMALIZED FREE ENERGY PREDICTED BY IDOCK:   -5.19 KCAL/MOL
REMARK 922        TOTAL FREE ENERGY PREDICTED BY IDOCK:   -6.06 KCAL/MOL
REMARK 923 INTER-LIGAND FREE ENERGY PREDICTED BY IDOCK:   -5.92 KCAL/MOL
REMARK 924 INTRA-LIGAND FREE ENERGY PREDICTED BY IDOCK:   -0.14 KCAL/MOL
REMARK 927      BINDING AFFINITY PREDICTED BY RF-SCORE:    0.00 PKD
ROOT
HETATM    1  C   UNL     1     -13.047   7.144  71.495  1.00  0.00    -0.427 C  
HETATM    2  C   UNL     1     -13.586   8.551  71.719  1.00  0.00    -0.388 C  
HETATM    3  N   UNL     1     -14.043   8.726  73.118  1.00  0.00    -1.183 NA 
HETATM    4  H1  UNL     1     -14.403   9.668  73.268  1.00  0.00     0.000 HD 
HETATM    5  H2  UNL     1     -13.309   8.492  73.786  1.00  0.00     0.000 HD 
ENDROOT
BRANCH   2   6
HETATM    6  C   UNL     1     -12.535   9.626  71.361  1.00  0.00    -0.373 C  
HETATM    7  O   UNL     1     -11.374   9.597  71.758  1.00  0.00    -0.347 OA 
HETATM    8  N   UNL     1     -13.076  10.587  70.517  1.00  0.00    -0.418 N  
HETATM    9  H   UNL     1     -14.036  10.484  70.188  1.00  0.00     0.000 HD 
BRANCH   8  10
HETATM   10  C   UNL     1     -12.318  11.703  70.108  1.00  0.00    -0.219 A  
HETATM   11  C   UNL     1     -11.473  11.616  68.984  1.00  0.00    -0.356 A  
HETATM   12  C   UNL     1     -11.222  10.345  68.219  1.00  0.00    -0.330 C  
HETATM   13  C   UNL     1     -10.856  12.790  68.512  1.00  0.00    -0.279 A  
HETATM   14  C   UNL     1     -11.056  14.009  69.148  1.00  0.00    -0.294 A  
HETATM   15  C   UNL     1     -11.851  14.076  70.288  1.00  0.00    -0.373 A  
HETATM   16  C   UNL     1     -12.489  12.929  70.782  1.00  0.00    -0.370 A  
HETATM   17  C   UNL     1     -13.229  13.007  72.089  1.00  0.00    -0.558 C  
ENDBRANCH   8  10
ENDBRANCH   2   6
TORSDOF 2
ENDMDL
MODEL        6
REMARK 921   NORMALIZED FREE ENERGY PREDICTED BY IDOCK:   -5.11 KCAL/MOL
REMARK 922        TOTAL FREE ENERGY PREDICTED BY IDOCK:   -5.97 KCAL/MOL
REMARK 923 INTER-LIGAND FREE ENERGY PREDICTED BY IDOCK:   -5.76 KCAL/MOL
REMARK 924 INTRA-LIGAND FREE ENERGY PREDICTED BY IDOCK:   -0.21 KCAL/MOL
REMARK 927      BINDING AFFINITY PREDICTED BY RF-SCORE:    0.00 PKD
ROOT
HETATM    1  C   UNL     1     -12.000  14.301  65.397  1.00  0.00    -0.383 C  
HETATM    2  C   UNL     1     -10.952  15.337  65.016  1.00  0.00    -0.437 C  
HETATM    3  N   UNL     1     -11.478  16.269  63.989  1.00  0.00    -1.521 NA 
HETATM    4  H1  UNL     1     -10.776  16.964  63.735  1.00  0.00     0.000 HD 
HETATM    5  H2  UNL     1     -12.349  16.706  64.289  1.00  0.00     0.000 HD 
ENDROOT
BRANCH   2   6
HETATM    6  C   UNL     1     -10.457  16.125  66.249  1.00  0.00    -0.315 C  
HETATM    7  O   UNL     1     -10.899  15.959  67.382  1.00  0.00    -0.316 OA 
HETATM    8  N   UNL     1      -9.437  17.002  65.901  1.00  0.00    -0.150 N  
HETATM    9  H   UNL     1      -9.093  17.016  64.941  1.00  0.00     0.000 HD 
BRANCH   8  10
HETATM   10  C   UNL     1      -8.872  17.873  66.855  1.00  0.00    -0.253 A  
HETATM   11  C   UNL     1      -9.444  19.138  67.091  1.00  0.00    -0.367 A  
HETATM   12  C   UNL     1     -10.592  19.701  66.300  1.00  0.00    -0.585 C  
HETATM   13  C   UNL     1      -8.950  19.912  68.158  1.00  0.00    -0.330 A  
HETATM   14  C   UNL     1      -7.906  19.453  68.953  1.00  0.00    -0.370 A  
HETATM   15  C   UNL     1      -7.313  18.224  68.680  1.00  0.00    -0.303 A  
HETATM   16  C   UNL     1      -7.784  17.421  67.631  1.00  0.00    -0.203 A  
HETATM   17  C   UNL     1      -7.038  16.165  67.276  1.00  0.00    -0.231 C  
ENDBRANCH   8  10
ENDBRANCH   2   6
TORSDOF 2
ENDMDL
MODEL        7
REMARK 921   NORMALIZED FREE ENERGY PREDICTED BY IDOCK:   -5.08 KCAL/MOL
REMARK 922        TOTAL FREE ENERGY PREDICTED BY IDOCK:   -5.94 KCAL/MOL
REMARK 923 INTER-LIGAND FREE ENERGY PREDICTED BY IDOCK:   -5.78 KCAL/MOL
REMARK 924 INTRA-LIGAND FREE ENERGY PREDICTED BY IDOCK:   -0.16 KCAL/MOL
REMARK 927      BINDING AFFINITY PREDICTED BY RF-SCORE:    0.00 PKD
ROOT
HETATM    1  C   UNL     1     -12.274  14.414  65.292  1.00  0.00    -0.377 C  
HETATM    2  C   UNL     1     -11.118  15.338  64.938  1.00  0.00    -0.424 C  
HETATM    3  N   UNL     1     -11.537  16.354  63.944  1.00  0.00    -1.602 NA 
HETATM    4  H1  UNL     1     -10.763  16.974  63.707  1.00  0.00     0.000 HD 
HETATM    5  H2  UNL     1     -12.354  16.876  64.261  1.00  0.00     0.000 HD 
ENDROOT
BRANCH   2   6
HETATM    6  C   UNL     1     -10.535  16.027  66.193  1.00  0.00    -0.326 C  
HETATM    7  O   UNL     1     -10.913  15.785  67.335  1.00  0.00    -0.320 OA 
HETATM    8  N   UNL     1      -9.522  16.912  65.848  1.00  0.00    -0.176 N  
HETATM    9  H   UNL     1      -9.234  16.991  64.872  1.00  0.00     0.000 HD 
BRANCH   8  10
HETATM   10  C   UNL     1      -8.884  17.702  66.826  1.00  0.00    -0.258 A  
HETATM   11  C   UNL     1      -7.776  17.199  67.535  1.00  0.00    -0.190 A  
HETATM   12  C   UNL     1      -7.264  15.791  67.404  1.00  0.00    -0.235 C  
HETATM   13  C   UNL     1      -7.070  18.070  68.386  1.00  0.00    -0.247 A  
HETATM   14  C   UNL     1      -7.464  19.394  68.544  1.00  0.00    -0.366 A  
HETATM   15  C   UNL     1      -8.591  19.867  67.879  1.00  0.00    -0.341 A  
HETATM   16  C   UNL     1      -9.314  19.032  67.016  1.00  0.00    -0.345 A  
HETATM   17  C   UNL     1     -10.601  19.531  66.419  1.00  0.00    -0.571 C  
ENDBRANCH   8  10
ENDBRANCH   2   6
TORSDOF 2
ENDMDL
MODEL        8
REMARK 921   NORMALIZED FREE ENERGY PREDICTED BY IDOCK:   -5.07 KCAL/MOL
REMARK 922        TOTAL FREE ENERGY PREDICTED BY IDOCK:   -5.93 KCAL/MOL
REMARK 923 INTER-LIGAND FREE ENERGY PREDICTED BY IDOCK:   -5.77 KCAL/MOL
REMARK 924 INTRA-LIGAND FREE ENERGY PREDICTED BY IDOCK:   -0.16 KCAL/MOL
REMARK 927      BINDING AFFINITY PREDICTED BY RF-SCORE:    0.00 PKD
ROOT
HETATM    1  C   UNL     1     -10.181  17.991  68.588  1.00  0.00    -0.385 C  
HETATM    2  C   UNL     1     -10.979  16.746  68.225  1.00  0.00    -0.327 C  
HETATM    3  N   UNL     1     -10.419  16.093  67.017  1.00  0.00    -0.306 NA 
HETATM    4  H1  UNL     1     -10.953  15.259  66.774  1.00  0.00     0.000 HD 
HETATM    5  H2  UNL     1      -9.427  15.886  67.127  1.00  0.00     0.000 HD 
ENDROOT
BRANCH   2   6
HETATM    6  C   UNL     1     -11.034  15.742  69.399  1.00  0.00    -0.296 C  
HETATM    7  O   UNL     1     -10.183  15.686  70.281  1.00  0.00    -0.287 OA 
HETATM    8  N   UNL     1     -12.178  14.958  69.327  1.00  0.00    -0.545 N  
HETATM    9  H   UNL     1     -12.860  15.130  68.589  1.00  0.00     0.000 HD 
BRANCH   8  10
HETATM   10  C   UNL     1     -12.410  13.927  70.260  1.00  0.00    -0.345 A  
HETATM   11  C   UNL     1     -13.101  14.194  71.458  1.00  0.00    -0.424 A  
HETATM   12  C   UNL     1     -13.535  15.569  71.889  1.00  0.00    -0.576 C  
HETATM   13  C   UNL     1     -13.453  13.113  72.289  1.00  0.00    -0.665 A  
HETATM   14  C   UNL     1     -13.110  11.809  71.950  1.00  0.00    -0.482 A  
HETATM   15  C   UNL     1     -12.382  11.560  70.791  1.00  0.00    -0.472 A  
HETATM   16  C   UNL     1     -12.022  12.611  69.935  1.00  0.00    -0.365 A  
HETATM   17  C   UNL     1     -11.122  12.328  68.764  1.00  0.00    -0.295 C  
ENDBRANCH   8  10
ENDBRANCH   2   6
TORSDOF 2
ENDMDL
MODEL        9
REMARK 921   NORMALIZED FREE ENERGY PREDICTED BY IDOCK:   -5.02 KCAL/MOL
REMARK 922        TOTAL FREE ENERGY PREDICTED BY IDOCK:   -5.87 KCAL/MOL
REMARK 923 INTER-LIGAND FREE ENERGY PREDICTED BY IDOCK:   -5.59 KCAL/MOL
REMARK 924 INTRA-LIGAND FREE ENERGY PREDICTED BY IDOCK:   -0.28 KCAL/MOL
REMARK 927      BINDING AFFINITY PREDICTED BY RF-SCORE:    0.00 PKD
ROOT
HETATM    1  C   UNL     1     -10.638  15.281  65.133  1.00  0.00    -0.453 C  
HETATM    2  C   UNL     1     -11.997  14.637  64.897  1.00  0.00    -0.400 C  
HETATM    3  N   UNL     1     -12.444  14.841  63.499  1.00  0.00    -0.939 NA 
HETATM    4  H1  UNL     1     -13.354  14.409  63.340  1.00  0.00     0.000 HD 
HETATM    5  H2  UNL     1     -11.749  14.510  62.829  1.00  0.00     0.000 HD 
ENDROOT
BRANCH   2   6
HETATM    6  C   UNL     1     -11.980  13.130  65.239  1.00  0.00    -0.398 C  
HETATM    7  O   UNL     1     -12.886  12.358  64.942  1.00  0.00    -0.711 OA 
HETATM    8  N   UNL     1     -10.800  12.781  65.885  1.00  0.00    -0.265 N  
HETATM    9  H   UNL     1     -10.077  13.486  66.025  1.00  0.00     0.000 HD 
BRANCH   8  10
HETATM   10  C   UNL     1     -10.588  11.467  66.349  1.00  0.00    -0.259 A  
HETATM   11  C   UNL     1     -11.004  11.094  67.642  1.00  0.00    -0.323 A  
HETATM   12  C   UNL     1     -11.581  12.051  68.648  1.00  0.00    -0.372 C  
HETATM   13  C   UNL     1     -10.920   9.738  68.011  1.00  0.00    -0.236 A  
HETATM   14  C   UNL     1     -10.421   8.785  67.130  1.00  0.00    -0.354 A  
HETATM   15  C   UNL     1      -9.965   9.172  65.874  1.00  0.00    -0.232 A  
HETATM   16  C   UNL     1     -10.041  10.512  65.468  1.00  0.00    -0.349 A  
HETATM   17  C   UNL     1      -9.418  10.919  64.161  1.00  0.00    -0.295 C  
ENDBRANCH   8  10
ENDBRANCH   2   6
TORSDOF 2
ENDMDL
MODEL       10
REMARK 921   NORMALIZED FREE ENERGY PREDICTED BY IDOCK:   -5.01 KCAL/MOL
REMARK 922        TOTAL FREE ENERGY PREDICTED BY IDOCK:   -5.86 KCAL/MOL
REMARK 923 INTER-LIGAND FREE ENERGY PREDICTED BY IDOCK:   -5.68 KCAL/MOL
REMARK 924 INTRA-LIGAND FREE ENERGY PREDICTED BY IDOCK:   -0.18 KCAL/MOL
REMARK 927      BINDING AFFINITY PREDICTED BY RF-SCORE:    0.00 PKD
ROOT
HETATM    1  C   UNL     1      -9.755  12.206  66.398  1.00  0.00    -0.243 C  
HETATM    2  C   UNL     1      -9.834  11.930  67.893  1.00  0.00    -0.190 C  
HETATM    3  N   UNL     1      -8.726  12.600  68.614  1.00  0.00    -0.380 NA 
HETATM    4  H1  UNL     1      -8.779  12.416  69.616  1.00  0.00     0.000 HD 
HETATM    5  H2  UNL     1      -8.698  13.600  68.416  1.00  0.00     0.000 HD 
ENDROOT
BRANCH   2   6
HETATM    6  C   UNL     1     -11.195  12.366  68.481  1.00  0.00    -0.279 C  
HETATM    7  O   UNL     1     -12.259  12.256  67.880  1.00  0.00    -0.409 OA 
HETATM    8  N   UNL     1     -11.044  12.858  69.771  1.00  0.00    -0.466 N  
HETATM    9  H   UNL     1     -10.123  12.845  70.209  1.00  0.00     0.000 HD 
BRANCH   8  10
HETATM   10  C   UNL     1     -12.144  13.374  70.485  1.00  0.00    -0.323 A  
HETATM   11  C   UNL     1     -12.891  12.541  71.342  1.00  0.00    -0.359 A  
HETATM   12  C   UNL     1     -12.665  11.060  71.479  1.00  0.00    -0.521 C  
HETATM   13  C   UNL     1     -13.879  13.125  72.156  1.00  0.00    -0.506 A  
HETATM   14  C   UNL     1     -14.133  14.491  72.106  1.00  0.00    -0.616 A  
HETATM   15  C   UNL     1     -13.426  15.298  71.220  1.00  0.00    -0.591 A  
HETATM   16  C   UNL     1     -12.428  14.753  70.400  1.00  0.00    -0.405 A  
HETATM   17  C   UNL     1     -11.777  15.622  69.359  1.00  0.00    -0.395 C  
ENDBRANCH   8  10
ENDBRANCH   2   6
TORSDOF 2
ENDMDL
MODEL       11
REMARK 921   NORMALIZED FREE ENERGY PREDICTED BY IDOCK:   -4.98 KCAL/MOL
REMARK 922        TOTAL FREE ENERGY PREDICTED BY IDOCK:   -5.82 KCAL/MOL
REMARK 923 INTER-LIGAND FREE ENERGY PREDICTED BY IDOCK:   -5.60 KCAL/MOL
REMARK 924 INTRA-LIGAND FREE ENERGY PREDICTED BY IDOCK:   -0.22 KCAL/MOL
REMARK 927      BINDING AFFINITY PREDICTED BY RF-SCORE:    0.00 PKD
ROOT
HETATM    1  C   UNL     1      -9.856  15.697  65.588  1.00  0.00    -0.369 C  
HETATM    2  C   UNL     1     -10.834  14.669  65.036  1.00  0.00    -0.417 C  
HETATM    3  N   UNL     1     -10.119  13.606  64.290  1.00  0.00    -0.763 NA 
HETATM    4  H1  UNL     1     -10.774  12.917  63.920  1.00  0.00     0.000 HD 
HETATM    5  H2  UNL     1      -9.394  13.169  64.859  1.00  0.00     0.000 HD 
ENDROOT
BRANCH   2   6
HETATM    6  C   UNL     1     -11.699  14.047  66.156  1.00  0.00    -0.384 C  
HETATM    7  O   UNL     1     -12.917  13.921  66.079  1.00  0.00    -0.378 OA 
HETATM    8  N   UNL     1     -10.909  13.631  67.220  1.00  0.00    -0.282 N  
HETATM    9  H   UNL     1      -9.895  13.719  67.157  1.00  0.00     0.000 HD 
BRANCH   8  10
HETATM   10  C   UNL     1     -11.489  13.089  68.385  1.00  0.00    -0.310 A  
HETATM   11  C   UNL     1     -11.617  11.693  68.532  1.00  0.00    -0.379 A  
HETATM   12  C   UNL     1     -11.270  10.700  67.458  1.00  0.00    -0.326 C  
HETATM   13  C   UNL     1     -12.052  11.184  69.771  1.00  0.00    -0.414 A  
HETATM   14  C   UNL     1     -12.370  12.035  70.823  1.00  0.00    -0.403 A  
HETATM   15  C   UNL     1     -12.289  13.413  70.651  1.00  0.00    -0.423 A  
HETATM   16  C   UNL     1     -11.851  13.957  69.435  1.00  0.00    -0.384 A  
HETATM   17  C   UNL     1     -11.904  15.447  69.236  1.00  0.00    -0.365 C  
ENDBRANCH   8  10
ENDBRANCH   2   6
TORSDOF 2
ENDMDL
MODEL       12
REMARK 921   NORMALIZED FREE ENERGY PREDICTED BY IDOCK:   -4.93 KCAL/MOL
REMARK 922        TOTAL FREE ENERGY PREDICTED BY IDOCK:   -5.77 KCAL/MOL
REMARK 923 INTER-LIGAND FREE ENERGY PREDICTED BY IDOCK:   -5.54 KCAL/MOL
REMARK 924 INTRA-LIGAND FREE ENERGY PREDICTED BY IDOCK:   -0.23 KCAL/MOL
REMARK 927      BINDING AFFINITY PREDICTED BY RF-SCORE:    0.00 PKD
ROOT
HETATM    1  C   UNL     1     -11.231   6.509  69.897  1.00  0.00    -0.456 C  
HETATM    2  C   UNL     1     -10.482   7.642  69.209  1.00  0.00    -0.218 C  
HETATM    3  N   UNL     1     -10.913   7.782  67.798  1.00  0.00    -0.501 NA 
HETATM    4  H1  UNL     1     -10.412   8.541  67.337  1.00  0.00     0.000 HD 
HETATM    5  H2  UNL     1     -11.924   7.897  67.723  1.00  0.00     0.000 HD 
ENDROOT
BRANCH   2   6
HETATM    6  C   UNL     1     -10.663   8.982  69.959  1.00  0.00    -0.229 C  
HETATM    7  O   UNL     1      -9.890   9.383  70.823  1.00  0.00    -0.264 OA 
HETATM    8  N   UNL     1     -11.782   9.662  69.496  1.00  0.00    -0.438 N  
HETATM    9  H   UNL     1     -12.322   9.273  68.723  1.00  0.00     0.000 HD 
BRANCH   8  10
HETATM   10  C   UNL     1     -12.181  10.882  70.078  1.00  0.00    -0.347 A  
HETATM   11  C   UNL     1     -12.887  10.892  71.297  1.00  0.00    -0.536 A  
HETATM   12  C   UNL     1     -13.363   9.651  72.001  1.00  0.00    -0.547 C  
HETATM   13  C   UNL     1     -13.129  12.128  71.925  1.00  0.00    -0.475 A  
HETATM   14  C   UNL     1     -12.700  13.319  71.351  1.00  0.00    -0.401 A  
HETATM   15  C   UNL     1     -12.048  13.304  70.122  1.00  0.00    -0.403 A  
HETATM   16  C   UNL     1     -11.782  12.091  69.470  1.00  0.00    -0.408 A  
HETATM   17  C   UNL     1     -11.199  12.115  68.084  1.00  0.00    -0.320 C  
ENDBRANCH   8  10
ENDBRANCH   2   6
TORSDOF 2
ENDMDL
MODEL       13
REMARK 921   NORMALIZED FREE ENERGY PREDICTED BY IDOCK:   -4.91 KCAL/MOL
REMARK 922        TOTAL FREE ENERGY PREDICTED BY IDOCK:   -5.74 KCAL/MOL
REMARK 923 INTER-LIGAND FREE ENERGY PREDICTED BY IDOCK:   -5.55 KCAL/MOL
REMARK 924 INTRA-LIGAND FREE ENERGY PREDICTED BY IDOCK:   -0.19 KCAL/MOL
REMARK 927      BINDING AFFINITY PREDICTED BY RF-SCORE:    0.00 PKD
ROOT
HETATM    1  C   UNL     1     -10.130  17.890  68.768  1.00  0.00    -0.384 C  
HETATM    2  C   UNL     1     -10.939  16.697  68.280  1.00  0.00    -0.341 C  
HETATM    3  N   UNL     1     -10.323  16.100  67.071  1.00  0.00    -0.287 NA 
HETATM    4  H1  UNL     1     -10.865  15.299  66.744  1.00  0.00     0.000 HD 
HETATM    5  H2  UNL     1      -9.346  15.854  67.227  1.00  0.00     0.000 HD 
ENDROOT
BRANCH   2   6
HETATM    6  C   UNL     1     -11.096  15.626  69.384  1.00  0.00    -0.303 C  
HETATM    7  O   UNL     1     -10.277  15.453  70.281  1.00  0.00    -0.274 OA 
HETATM    8  N   UNL     1     -12.289  14.931  69.233  1.00  0.00    -0.574 N  
HETATM    9  H   UNL     1     -12.937  15.198  68.492  1.00  0.00     0.000 HD 
BRANCH   8  10
HETATM   10  C   UNL     1     -12.619  13.861  70.091  1.00  0.00    -0.224 A  
HETATM   11  C   UNL     1     -12.128  12.566  69.834  1.00  0.00    -0.322 A  
HETATM   12  C   UNL     1     -11.337  12.195  68.609  1.00  0.00    -0.330 C  
HETATM   13  C   UNL     1     -12.345  11.560  70.795  1.00  0.00    -0.472 A  
HETATM   14  C   UNL     1     -13.046  11.828  71.965  1.00  0.00    -0.436 A  
HETATM   15  C   UNL     1     -13.571  13.097  72.186  1.00  0.00    -0.637 A  
HETATM   16  C   UNL     1     -13.367  14.126  71.256  1.00  0.00    -0.370 A  
HETATM   17  C   UNL     1     -14.060  15.446  71.458  1.00  0.00    -0.596 C  
ENDBRANCH   8  10
ENDBRANCH   2   6
TORSDOF 2
ENDMDL
MODEL       14
REMARK 921   NORMALIZED FREE ENERGY PREDICTED BY IDOCK:   -4.83 KCAL/MOL
REMARK 922        TOTAL FREE ENERGY PREDICTED BY IDOCK:   -5.66 KCAL/MOL
REMARK 923 INTER-LIGAND FREE ENERGY PREDICTED BY IDOCK:   -5.45 KCAL/MOL
REMARK 924 INTRA-LIGAND FREE ENERGY PREDICTED BY IDOCK:   -0.21 KCAL/MOL
REMARK 927      BINDING AFFINITY PREDICTED BY RF-SCORE:    0.00 PKD
ROOT
HETATM    1  C   UNL     1     -11.557  13.649  67.156  1.00  0.00    -0.392 C  
HETATM    2  C   UNL     1     -10.765  13.040  68.306  1.00  0.00    -0.245 C  
HETATM    3  N   UNL     1     -10.595  14.017  69.407  1.00  0.00    -0.440 NA 
HETATM    4  H1  UNL     1     -10.065  13.609  70.177  1.00  0.00     0.000 HD 
HETATM    5  H2  UNL     1     -11.490  14.390  69.722  1.00  0.00     0.000 HD 
ENDROOT
BRANCH   2   6
HETATM    6  C   UNL     1     -11.432  11.749  68.835  1.00  0.00    -0.297 C  
HETATM    7  O   UNL     1     -12.280  11.120  68.209  1.00  0.00    -0.613 OA 
HETATM    8  N   UNL     1     -10.916  11.398  70.075  1.00  0.00    -0.454 N  
HETATM    9  H   UNL     1     -10.162  11.951  70.481  1.00  0.00     0.000 HD 
BRANCH   8  10
HETATM   10  C   UNL     1     -11.420  10.286  70.782  1.00  0.00    -0.351 A  
HETATM   11  C   UNL     1     -12.575  10.413  71.578  1.00  0.00    -0.544 A  
HETATM   12  C   UNL     1     -13.281  11.717  71.831  1.00  0.00    -0.475 C  
HETATM   13  C   UNL     1     -13.138   9.251  72.138  1.00  0.00    -0.520 A  
HETATM   14  C   UNL     1     -12.559   8.004  71.932  1.00  0.00    -0.359 A  
HETATM   15  C   UNL     1     -11.390   7.895  71.187  1.00  0.00    -0.289 A  
HETATM   16  C   UNL     1     -10.805   9.029  70.605  1.00  0.00    -0.295 A  
HETATM   17  C   UNL     1      -9.472   8.899  69.922  1.00  0.00    -0.177 C  
ENDBRANCH   8  10
ENDBRANCH   2   6
TORSDOF 2
ENDMDL
MODEL       15
REMARK 921   NORMALIZED FREE ENERGY PREDICTED BY IDOCK:   -4.82 KCAL/MOL
REMARK 922        TOTAL FREE ENERGY PREDICTED BY IDOCK:   -5.65 KCAL/MOL
REMARK 923 INTER-LIGAND FREE ENERGY PREDICTED BY IDOCK:   -5.50 KCAL/MOL
REMARK 924 INTRA-LIGAND FREE ENERGY PREDICTED BY IDOCK:   -0.15 KCAL/MOL
REMARK 927      BINDING AFFINITY PREDICTED BY RF-SCORE:    0.00 PKD
ROOT
HETATM    1  C   UNL     1      -9.817  10.387  66.324  1.00  0.00    -0.272 C  
HETATM    2  C   UNL     1      -9.799  11.738  67.025  1.00  0.00    -0.197 C  
HETATM    3  N   UNL     1      -9.605  12.837  66.049  1.00  0.00    -0.389 NA 
HETATM    4  H1  UNL     1      -9.594  13.743  66.518  1.00  0.00     0.000 HD 
HETATM    5  H2  UNL     1     -10.302  12.807  65.305  1.00  0.00     0.000 HD 
ENDROOT
BRANCH   2   6
HETATM    6  C   UNL     1     -11.089  11.972  67.844  1.00  0.00    -0.236 C  
HETATM    7  O   UNL     1     -12.217  11.846  67.380  1.00  0.00    -0.502 OA 
HETATM    8  N   UNL     1     -10.788  12.302  69.159  1.00  0.00    -0.408 N  
HETATM    9  H   UNL     1      -9.815  12.313  69.465  1.00  0.00     0.000 HD 
BRANCH   8  10
HETATM   10  C   UNL     1     -11.808  12.621  70.079  1.00  0.00    -0.285 A  
HETATM   11  C   UNL     1     -12.363  11.621  70.901  1.00  0.00    -0.436 A  
HETATM   12  C   UNL     1     -12.017  10.161  70.797  1.00  0.00    -0.442 C  
HETATM   13  C   UNL     1     -13.262  12.004  71.914  1.00  0.00    -0.469 A  
HETATM   14  C   UNL     1     -13.616  13.336  72.091  1.00  0.00    -0.655 A  
HETATM   15  C   UNL     1     -13.102  14.311  71.242  1.00  0.00    -0.425 A  
HETATM   16  C   UNL     1     -12.196  13.968  70.227  1.00  0.00    -0.430 A  
HETATM   17  C   UNL     1     -11.765  15.020  69.243  1.00  0.00    -0.349 C  
ENDBRANCH   8  10
ENDBRANCH   2   6
TORSDOF 2
ENDMDL
MODEL       16
REMARK 921   NORMALIZED FREE ENERGY PREDICTED BY IDOCK:   -4.80 KCAL/MOL
REMARK 922        TOTAL FREE ENERGY PREDICTED BY IDOCK:   -5.63 KCAL/MOL
REMARK 923 INTER-LIGAND FREE ENERGY PREDICTED BY IDOCK:   -5.41 KCAL/MOL
REMARK 924 INTRA-LIGAND FREE ENERGY PREDICTED BY IDOCK:   -0.22 KCAL/MOL
REMARK 927      BINDING AFFINITY PREDICTED BY RF-SCORE:    0.00 PKD
ROOT
HETATM    1  C   UNL     1     -11.608   6.572  69.872  1.00  0.00    -0.433 C  
HETATM    2  C   UNL     1     -10.659   7.609  69.287  1.00  0.00    -0.201 C  
HETATM    3  N   UNL     1     -10.950   7.843  67.853  1.00  0.00    -0.478 NA 
HETATM    4  H1  UNL     1     -10.314   8.538  67.461  1.00  0.00     0.000 HD 
HETATM    5  H2  UNL     1     -11.926   8.098  67.703  1.00  0.00     0.000 HD 
ENDROOT
BRANCH   2   6
HETATM    6  C   UNL     1     -10.719   8.940  70.069  1.00  0.00    -0.228 C  
HETATM    7  O   UNL     1      -9.862   9.291  70.875  1.00  0.00    -0.262 OA 
HETATM    8  N   UNL     1     -11.839   9.677  69.709  1.00  0.00    -0.447 N  
HETATM    9  H   UNL     1     -12.457   9.328  68.976  1.00  0.00     0.000 HD 
BRANCH   8  10
HETATM   10  C   UNL     1     -12.135  10.903  70.340  1.00  0.00    -0.363 A  
HETATM   11  C   UNL     1     -11.718  12.119  69.764  1.00  0.00    -0.381 A  
HETATM   12  C   UNL     1     -10.853  12.214  68.537  1.00  0.00    -0.267 C  
HETATM   13  C   UNL     1     -12.167  13.324  70.336  1.00  0.00    -0.404 A  
HETATM   14  C   UNL     1     -12.988  13.323  71.457  1.00  0.00    -0.426 A  
HETATM   15  C   UNL     1     -13.354  12.118  72.050  1.00  0.00    -0.470 A  
HETATM   16  C   UNL     1     -12.933  10.897  71.503  1.00  0.00    -0.556 A  
HETATM   17  C   UNL     1     -13.231   9.621  72.241  1.00  0.00    -0.492 C  
ENDBRANCH   8  10
ENDBRANCH   2   6
TORSDOF 2
ENDMDL
MODEL       17
REMARK 921   NORMALIZED FREE ENERGY PREDICTED BY IDOCK:   -4.80 KCAL/MOL
REMARK 922        TOTAL FREE ENERGY PREDICTED BY IDOCK:   -5.62 KCAL/MOL
REMARK 923 INTER-LIGAND FREE ENERGY PREDICTED BY IDOCK:   -5.39 KCAL/MOL
REMARK 924 INTRA-LIGAND FREE ENERGY PREDICTED BY IDOCK:   -0.24 KCAL/MOL
REMARK 927      BINDING AFFINITY PREDICTED BY RF-SCORE:    0.00 PKD
ROOT
HETATM    1  C   UNL     1     -10.741  19.472  66.991  1.00  0.00    -0.592 C  
HETATM    2  C   UNL     1      -9.845  19.093  68.162  1.00  0.00    -0.369 C  
HETATM    3  N   UNL     1     -10.266  19.793  69.399  1.00  0.00    -0.611 NA 
HETATM    4  H1  UNL     1      -9.666  19.539  70.183  1.00  0.00     0.000 HD 
HETATM    5  H2  UNL     1     -11.250  19.628  69.608  1.00  0.00     0.000 HD 
ENDROOT
BRANCH   2   6
HETATM    6  C   UNL     1      -9.825  17.565  68.393  1.00  0.00    -0.325 C  
HETATM    7  O   UNL     1      -8.898  16.975  68.937  1.00  0.00    -0.266 OA 
HETATM    8  N   UNL     1     -10.999  16.979  67.936  1.00  0.00    -0.298 N  
HETATM    9  H   UNL     1     -11.741  17.568  67.559  1.00  0.00     0.000 HD 
BRANCH   8  10
HETATM   10  C   UNL     1     -11.179  15.582  67.985  1.00  0.00    -0.332 A  
HETATM   11  C   UNL     1     -11.701  14.972  69.143  1.00  0.00    -0.345 A  
HETATM   12  C   UNL     1     -11.992  15.710  70.422  1.00  0.00    -0.405 C  
HETATM   13  C   UNL     1     -12.016  13.601  69.099  1.00  0.00    -0.394 A  
HETATM   14  C   UNL     1     -11.799  12.853  67.948  1.00  0.00    -0.388 A  
HETATM   15  C   UNL     1     -11.235  13.452  66.826  1.00  0.00    -0.332 A  
HETATM   16  C   UNL     1     -10.918  14.818  66.829  1.00  0.00    -0.327 A  
HETATM   17  C   UNL     1     -10.187  15.405  65.653  1.00  0.00    -0.403 C  
ENDBRANCH   8  10
ENDBRANCH   2   6
TORSDOF 2
ENDMDL
MODEL       18
REMARK 921   NORMALIZED FREE ENERGY PREDICTED BY IDOCK:   -4.79 KCAL/MOL
REMARK 922        TOTAL FREE ENERGY PREDICTED BY IDOCK:   -5.61 KCAL/MOL
REMARK 923 INTER-LIGAND FREE ENERGY PREDICTED BY IDOCK:   -5.46 KCAL/MOL
REMARK 924 INTRA-LIGAND FREE ENERGY PREDICTED BY IDOCK:   -0.16 KCAL/MOL
REMARK 927      BINDING AFFINITY PREDICTED BY RF-SCORE:    0.00 PKD
ROOT
HETATM    1  C   UNL     1     -10.264  10.738  64.453  1.00  0.00    -0.432 C  
HETATM    2  C   UNL     1     -10.118  12.160  64.974  1.00  0.00    -0.263 C  
HETATM    3  N   UNL     1     -10.250  13.144  63.873  1.00  0.00    -0.744 NA 
HETATM    4  H1  UNL     1     -10.152  14.097  64.223  1.00  0.00     0.000 HD 
HETATM    5  H2  UNL     1     -11.121  13.019  63.359  1.00  0.00     0.000 HD 
ENDROOT
BRANCH   2   6
HETATM    6  C   UNL     1     -11.143  12.466  66.090  1.00  0.00    -0.302 C  
HETATM    7  O   UNL     1     -12.356  12.468  65.912  1.00  0.00    -0.626 OA 
HETATM    8  N   UNL     1     -10.503  12.697  67.301  1.00  0.00    -0.227 N  
HETATM    9  H   UNL     1      -9.489  12.604  67.360  1.00  0.00     0.000 HD 
BRANCH   8  10
HETATM   10  C   UNL     1     -11.235  13.058  68.451  1.00  0.00    -0.269 A  
HETATM   11  C   UNL     1     -11.676  12.070  69.353  1.00  0.00    -0.402 A  
HETATM   12  C   UNL     1     -11.516  10.592  69.123  1.00  0.00    -0.349 C  
HETATM   13  C   UNL     1     -12.263  12.479  70.565  1.00  0.00    -0.382 A  
HETATM   14  C   UNL     1     -12.426  13.827  70.864  1.00  0.00    -0.451 A  
HETATM   15  C   UNL     1     -12.033  14.795  69.945  1.00  0.00    -0.378 A  
HETATM   16  C   UNL     1     -11.437  14.426  68.730  1.00  0.00    -0.319 A  
HETATM   17  C   UNL     1     -11.148  15.485  67.702  1.00  0.00    -0.311 C  
ENDBRANCH   8  10
ENDBRANCH   2   6
TORSDOF 2
ENDMDL
MODEL       19
REMARK 921   NORMALIZED FREE ENERGY PREDICTED BY IDOCK:   -4.78 KCAL/MOL
REMARK 922        TOTAL FREE ENERGY PREDICTED BY IDOCK:   -5.60 KCAL/MOL
REMARK 923 INTER-LIGAND FREE ENERGY PREDICTED BY IDOCK:   -5.36 KCAL/MOL
REMARK 924 INTRA-LIGAND FREE ENERGY PREDICTED BY IDOCK:   -0.24 KCAL/MOL
REMARK 927      BINDING AFFINITY PREDICTED BY RF-SCORE:    0.00 PKD
ROOT
HETATM    1  C   UNL     1     -11.829  15.037  64.591  1.00  0.00    -0.378 C  
HETATM    2  C   UNL     1     -10.502  15.365  65.261  1.00  0.00    -0.415 C  
HETATM    3  N   UNL     1     -10.340  16.829  65.424  1.00  0.00    -0.632 NA 
HETATM    4  H1  UNL     1      -9.451  17.050  65.873  1.00  0.00     0.000 HD 
HETATM    5  H2  UNL     1     -11.127  17.242  65.924  1.00  0.00     0.000 HD 
ENDROOT
BRANCH   2   6
HETATM    6  C   UNL     1     -10.364  14.657  66.628  1.00  0.00    -0.273 C  
HETATM    7  O   UNL     1      -9.316  14.614  67.265  1.00  0.00    -0.196 OA 
HETATM    8  N   UNL     1     -11.579  14.118  67.033  1.00  0.00    -0.362 N  
HETATM    9  H   UNL     1     -12.410  14.267  66.461  1.00  0.00     0.000 HD 
BRANCH   8  10
HETATM   10  C   UNL     1     -11.680  13.370  68.223  1.00  0.00    -0.356 A  
HETATM   11  C   UNL     1     -11.986  14.008  69.441  1.00  0.00    -0.390 A  
HETATM   12  C   UNL     1     -12.113  15.498  69.599  1.00  0.00    -0.352 C  
HETATM   13  C   UNL     1     -12.235  13.212  70.575  1.00  0.00    -0.405 A  
HETATM   14  C   UNL     1     -12.161  11.825  70.506  1.00  0.00    -0.439 A  
HETATM   15  C   UNL     1     -11.807  11.206  69.312  1.00  0.00    -0.422 A  
HETATM   16  C   UNL     1     -11.561  11.966  68.159  1.00  0.00    -0.400 A  
HETATM   17  C   UNL     1     -11.050  11.280  66.922  1.00  0.00    -0.339 C  
ENDBRANCH   8  10
ENDBRANCH   2   6
TORSDOF 2
ENDMDL
MODEL       20
REMARK 921   NORMALIZED FREE ENERGY PREDICTED BY IDOCK:   -4.77 KCAL/MOL
REMARK 922        TOTAL FREE ENERGY PREDICTED BY IDOCK:   -5.59 KCAL/MOL
REMARK 923 INTER-LIGAND FREE ENERGY PREDICTED BY IDOCK:   -5.32 KCAL/MOL
REMARK 924 INTRA-LIGAND FREE ENERGY PREDICTED BY IDOCK:   -0.27 KCAL/MOL
REMARK 927      BINDING AFFINITY PREDICTED BY RF-SCORE:    0.00 PKD
ROOT
HETATM    1  C   UNL     1     -10.003  16.486  65.719  1.00  0.00    -0.302 C  
HETATM    2  C   UNL     1     -11.325  15.905  65.237  1.00  0.00    -0.049 C  
HETATM    3  N   UNL     1     -11.550  16.217  63.806  1.00  0.00    -1.482 NA 
HETATM    4  H1  UNL     1     -12.436  15.827  63.483  1.00  0.00     0.000 HD 
HETATM    5  H2  UNL     1     -10.769  15.909  63.226  1.00  0.00     0.000 HD 
ENDROOT
BRANCH   2   6
HETATM    6  C   UNL     1     -11.394  14.379  65.469  1.00  0.00    -0.334 C  
HETATM    7  O   UNL     1     -12.445  13.763  65.616  1.00  0.00    -0.455 OA 
HETATM    8  N   UNL     1     -10.124  13.817  65.453  1.00  0.00    -0.450 N  
HETATM    9  H   UNL     1      -9.316  14.406  65.254  1.00  0.00     0.000 HD 
BRANCH   8  10
HETATM   10  C   UNL     1      -9.935  12.443  65.706  1.00  0.00    -0.254 A  
HETATM   11  C   UNL     1      -9.712  11.985  67.019  1.00  0.00    -0.204 A  
HETATM   12  C   UNL     1      -9.546  12.892  68.207  1.00  0.00    -0.212 C  
HETATM   13  C   UNL     1      -9.687  10.597  67.254  1.00  0.00    -0.195 A  
HETATM   14  C   UNL     1      -9.857   9.692  66.213  1.00  0.00    -0.323 A  
HETATM   15  C   UNL     1     -10.025  10.153  64.911  1.00  0.00    -0.358 A  
HETATM   16  C   UNL     1     -10.065  11.528  64.640  1.00  0.00    -0.318 A  
HETATM   17  C   UNL     1     -10.111  11.994  63.211  1.00  0.00    -0.379 C  
ENDBRANCH   8  10
ENDBRANCH   2   6
TORSDOF 2
ENDMDL
MODEL       21
REMARK 921   NORMALIZED FREE ENERGY PREDICTED BY IDOCK:   -4.76 KCAL/MOL
REMARK 922        TOTAL FREE ENERGY PREDICTED BY IDOCK:   -5.58 KCAL/MOL
REMARK 923 INTER-LIGAND FREE ENERGY PREDICTED BY IDOCK:   -5.34 KCAL/MOL
REMARK 924 INTRA-LIGAND FREE ENERGY PREDICTED BY IDOCK:   -0.24 KCAL/MOL
REMARK 927      BINDING AFFINITY PREDICTED BY RF-SCORE:    0.00 PKD
ROOT
HETATM    1  C   UNL     1     -11.615  13.588  64.107  1.00  0.00    -0.415 C  
HETATM    2  C   UNL     1     -10.678  14.685  64.594  1.00  0.00    -0.286 C  
HETATM    3  N   UNL     1     -11.214  16.026  64.258  1.00  0.00    -1.049 NA 
HETATM    4  H1  UNL     1     -10.587  16.761  64.585  1.00  0.00     0.000 HD 
HETATM    5  H2  UNL     1     -12.161  16.153  64.615  1.00  0.00     0.000 HD 
ENDROOT
BRANCH   2   6
HETATM    6  C   UNL     1     -10.418  14.578  66.113  1.00  0.00    -0.298 C  
HETATM    7  O   UNL     1      -9.297  14.476  66.602  1.00  0.00    -0.256 OA 
HETATM    8  N   UNL     1     -11.607  14.648  66.827  1.00  0.00    -0.371 N  
HETATM    9  H   UNL     1     -12.484  14.802  66.329  1.00  0.00     0.000 HD 
BRANCH   8  10
HETATM   10  C   UNL     1     -11.621  14.509  68.230  1.00  0.00    -0.329 A  
HETATM   11  C   UNL     1     -11.462  15.637  69.058  1.00  0.00    -0.369 A  
HETATM   12  C   UNL     1     -11.160  17.019  68.546  1.00  0.00    -0.156 C  
HETATM   13  C   UNL     1     -11.640  15.484  70.446  1.00  0.00    -0.359 A  
HETATM   14  C   UNL     1     -11.945  14.245  70.997  1.00  0.00    -0.374 A  
HETATM   15  C   UNL     1     -12.049  13.126  70.176  1.00  0.00    -0.392 A  
HETATM   16  C   UNL     1     -11.888  13.242  68.788  1.00  0.00    -0.371 A  
HETATM   17  C   UNL     1     -11.872  11.996  67.945  1.00  0.00    -0.320 C  
ENDBRANCH   8  10
ENDBRANCH   2   6
TORSDOF 2
ENDMDL
MODEL       22
REMARK 921   NORMALIZED FREE ENERGY PREDICTED BY IDOCK:   -4.76 KCAL/MOL
REMARK 922        TOTAL FREE ENERGY PREDICTED BY IDOCK:   -5.58 KCAL/MOL
REMARK 923 INTER-LIGAND FREE ENERGY PREDICTED BY IDOCK:   -5.30 KCAL/MOL
REMARK 924 INTRA-LIGAND FREE ENERGY PREDICTED BY IDOCK:   -0.28 KCAL/MOL
REMARK 927      BINDING AFFINITY PREDICTED BY RF-SCORE:    0.00 PKD
ROOT
HETATM    1  C   UNL     1     -13.088   7.590  71.679  1.00  0.00    -0.401 C  
HETATM    2  C   UNL     1     -11.708   7.659  71.040  1.00  0.00    -0.286 C  
HETATM    3  N   UNL     1     -11.671   6.891  69.773  1.00  0.00    -0.615 NA 
HETATM    4  H1  UNL     1     -10.747   6.938  69.345  1.00  0.00     0.000 HD 
HETATM    5  H2  UNL     1     -12.401   7.194  69.128  1.00  0.00     0.000 HD 
ENDROOT
BRANCH   2   6
HETATM    6  C   UNL     1     -11.268   9.120  70.792  1.00  0.00    -0.277 C  
HETATM    7  O   UNL     1     -10.191   9.575  71.163  1.00  0.00    -0.301 OA 
HETATM    8  N   UNL     1     -12.235   9.814  70.076  1.00  0.00    -0.463 N  
HETATM    9  H   UNL     1     -13.069   9.325  69.754  1.00  0.00     0.000 HD 
BRANCH   8  10
HETATM   10  C   UNL     1     -12.078  11.185  69.786  1.00  0.00    -0.344 A  
HETATM   11  C   UNL     1     -12.496  12.160  70.713  1.00  0.00    -0.362 A  
HETATM   12  C   UNL     1     -13.223  11.846  71.992  1.00  0.00    -0.461 C  
HETATM   13  C   UNL     1     -12.180  13.509  70.461  1.00  0.00    -0.433 A  
HETATM   14  C   UNL     1     -11.489  13.879  69.313  1.00  0.00    -0.348 A  
HETATM   15  C   UNL     1     -11.125  12.915  68.378  1.00  0.00    -0.293 A  
HETATM   16  C   UNL     1     -11.415  11.561  68.600  1.00  0.00    -0.354 A  
HETATM   17  C   UNL     1     -11.131  10.562  67.512  1.00  0.00    -0.358 C  
ENDBRANCH   8  10
ENDBRANCH   2   6
TORSDOF 2
ENDMDL
MODEL       23
REMARK 921   NORMALIZED FREE ENERGY PREDICTED BY IDOCK:   -4.75 KCAL/MOL
REMARK 922        TOTAL FREE ENERGY PREDICTED BY IDOCK:   -5.56 KCAL/MOL
REMARK 923 INTER-LIGAND FREE ENERGY PREDICTED BY IDOCK:   -5.41 KCAL/MOL
REMARK 924 INTRA-LIGAND FREE ENERGY PREDICTED BY IDOCK:   -0.15 KCAL/MOL
REMARK 927      BINDING AFFINITY PREDICTED BY RF-SCORE:    0.00 PKD
ROOT
HETATM    1  C   UNL     1      -9.841  18.595  68.641  1.00  0.00    -0.427 C  
HETATM    2  C   UNL     1     -10.779  17.543  68.068  1.00  0.00    -0.341 C  
HETATM    3  N   UNL     1     -10.410  17.208  66.671  1.00  0.00    -0.323 NA 
HETATM    4  H1  UNL     1     -11.038  16.502  66.287  1.00  0.00     0.000 HD 
HETATM    5  H2  UNL     1      -9.433  16.923  66.599  1.00  0.00     0.000 HD 
ENDROOT
BRANCH   2   6
HETATM    6  C   UNL     1     -10.800  16.264  68.936  1.00  0.00    -0.317 C  
HETATM    7  O   UNL     1      -9.892  15.950  69.699  1.00  0.00    -0.268 OA 
HETATM    8  N   UNL     1     -11.984  15.561  68.756  1.00  0.00    -0.552 N  
HETATM    9  H   UNL     1     -12.708  15.943  68.148  1.00  0.00     0.000 HD 
BRANCH   8  10
HETATM   10  C   UNL     1     -12.199  14.326  69.401  1.00  0.00    -0.278 A  
HETATM   11  C   UNL     1     -11.893  13.117  68.744  1.00  0.00    -0.361 A  
HETATM   12  C   UNL     1     -11.437  13.031  67.314  1.00  0.00    -0.380 C  
HETATM   13  C   UNL     1     -11.971  11.916  69.474  1.00  0.00    -0.355 A  
HETATM   14  C   UNL     1     -12.361  11.913  70.808  1.00  0.00    -0.416 A  
HETATM   15  C   UNL     1     -12.711  13.106  71.434  1.00  0.00    -0.390 A  
HETATM   16  C   UNL     1     -12.637  14.323  70.741  1.00  0.00    -0.427 A  
HETATM   17  C   UNL     1     -13.149  15.574  71.400  1.00  0.00    -0.580 C  
ENDBRANCH   8  10
ENDBRANCH   2   6
TORSDOF 2
ENDMDL
MODEL       24
REMARK 921   NORMALIZED FREE ENERGY PREDICTED BY IDOCK:   -4.72 KCAL/MOL
REMARK 922        TOTAL FREE ENERGY PREDICTED BY IDOCK:   -5.54 KCAL/MOL
REMARK 923 INTER-LIGAND FREE ENERGY PREDICTED BY IDOCK:   -5.34 KCAL/MOL
REMARK 924 INTRA-LIGAND FREE ENERGY PREDICTED BY IDOCK:   -0.20 KCAL/MOL
REMARK 927      BINDING AFFINITY PREDICTED BY RF-SCORE:    0.00 PKD
ROOT
HETATM    1  C   UNL     1     -10.469  17.547  65.724  1.00  0.00    -0.212 C  
HETATM    2  C   UNL     1     -11.315  16.346  65.325  1.00  0.00     0.158 C  
HETATM    3  N   UNL     1     -11.623  16.374  63.875  1.00  0.00    -1.602 NA 
HETATM    4  H1  UNL     1     -12.189  15.569  63.607  1.00  0.00     0.000 HD 
HETATM    5  H2  UNL     1     -10.776  16.443  63.312  1.00  0.00     0.000 HD 
ENDROOT
BRANCH   2   6
HETATM    6  C   UNL     1     -10.625  15.014  65.699  1.00  0.00    -0.346 C  
HETATM    7  O   UNL     1      -9.446  14.932  66.028  1.00  0.00    -0.296 OA 
HETATM    8  N   UNL     1     -11.524  13.957  65.642  1.00  0.00    -0.312 N  
HETATM    9  H   UNL     1     -12.503  14.140  65.423  1.00  0.00     0.000 HD 
BRANCH   8  10
HETATM   10  C   UNL     1     -11.103  12.633  65.884  1.00  0.00    -0.289 A  
HETATM   11  C   UNL     1     -10.624  11.834  64.826  1.00  0.00    -0.351 A  
HETATM   12  C   UNL     1     -10.627  12.261  63.384  1.00  0.00    -0.427 C  
HETATM   13  C   UNL     1     -10.066  10.578  65.130  1.00  0.00    -0.383 A  
HETATM   14  C   UNL     1     -10.004  10.120  66.441  1.00  0.00    -0.295 A  
HETATM   15  C   UNL     1     -10.526  10.894  67.473  1.00  0.00    -0.252 A  
HETATM   16  C   UNL     1     -11.082  12.154  67.210  1.00  0.00    -0.341 A  
HETATM   17  C   UNL     1     -11.758  12.906  68.324  1.00  0.00    -0.390 C  
ENDBRANCH   8  10
ENDBRANCH   2   6
TORSDOF 2
ENDMDL
MODEL       25
REMARK 921   NORMALIZED FREE ENERGY PREDICTED BY IDOCK:   -4.70 KCAL/MOL
REMARK 922        TOTAL FREE ENERGY PREDICTED BY IDOCK:   -5.52 KCAL/MOL
REMARK 923 INTER-LIGAND FREE ENERGY PREDICTED BY IDOCK:   -5.41 KCAL/MOL
REMARK 924 INTRA-LIGAND FREE ENERGY PREDICTED BY IDOCK:   -0.11 KCAL/MOL
REMARK 927      BINDING AFFINITY PREDICTED BY RF-SCORE:    0.00 PKD
ROOT
HETATM    1  C   UNL     1      -9.993  13.199  66.335  1.00  0.00    -0.282 C  
HETATM    2  C   UNL     1     -10.189  12.579  67.711  1.00  0.00    -0.217 C  
HETATM    3  N   UNL     1      -8.936  12.634  68.501  1.00  0.00    -0.365 NA 
HETATM    4  H1  UNL     1      -9.068  12.219  69.423  1.00  0.00     0.000 HD 
HETATM    5  H2  UNL     1      -8.573  13.585  68.564  1.00  0.00     0.000 HD 
ENDROOT
BRANCH   2   6
HETATM    6  C   UNL     1     -11.340  13.262  68.485  1.00  0.00    -0.284 C  
HETATM    7  O   UNL     1     -12.301  13.793  67.938  1.00  0.00    -0.245 OA 
HETATM    8  N   UNL     1     -11.145  13.159  69.856  1.00  0.00    -0.448 N  
HETATM    9  H   UNL     1     -10.345  12.636  70.212  1.00  0.00     0.000 HD 
BRANCH   8  10
HETATM   10  C   UNL     1     -12.038  13.765  70.763  1.00  0.00    -0.319 A  
HETATM   11  C   UNL     1     -12.014  15.160  70.960  1.00  0.00    -0.386 A  
HETATM   12  C   UNL     1     -11.001  16.079  70.335  1.00  0.00    -0.347 C  
HETATM   13  C   UNL     1     -13.022  15.746  71.750  1.00  0.00    -0.505 A  
HETATM   14  C   UNL     1     -14.009  14.969  72.343  1.00  0.00    -0.593 A  
HETATM   15  C   UNL     1     -13.995  13.586  72.185  1.00  0.00    -0.575 A  
HETATM   16  C   UNL     1     -13.012  12.968  71.398  1.00  0.00    -0.373 A  
HETATM   17  C   UNL     1     -12.942  11.466  71.358  1.00  0.00    -0.468 C  
ENDBRANCH   8  10
ENDBRANCH   2   6
TORSDOF 2
ENDMDL
MODEL       26
REMARK 921   NORMALIZED FREE ENERGY PREDICTED BY IDOCK:   -4.70 KCAL/MOL
REMARK 922        TOTAL FREE ENERGY PREDICTED BY IDOCK:   -5.51 KCAL/MOL
REMARK 923 INTER-LIGAND FREE ENERGY PREDICTED BY IDOCK:   -5.31 KCAL/MOL
REMARK 924 INTRA-LIGAND FREE ENERGY PREDICTED BY IDOCK:   -0.20 KCAL/MOL
REMARK 927      BINDING AFFINITY PREDICTED BY RF-SCORE:    0.00 PKD
ROOT
HETATM    1  C   UNL     1     -12.062  11.819  70.316  1.00  0.00    -0.426 C  
HETATM    2  C   UNL     1     -11.930  13.183  69.652  1.00  0.00    -0.306 C  
HETATM    3  N   UNL     1     -11.251  14.146  70.552  1.00  0.00    -0.482 NA 
HETATM    4  H1  UNL     1     -11.161  15.059  70.107  1.00  0.00     0.000 HD 
HETATM    5  H2  UNL     1     -10.349  13.792  70.870  1.00  0.00     0.000 HD 
ENDROOT
BRANCH   2   6
HETATM    6  C   UNL     1     -11.179  13.090  68.305  1.00  0.00    -0.275 C  
HETATM    7  O   UNL     1     -10.129  13.679  68.073  1.00  0.00    -0.235 OA 
HETATM    8  N   UNL     1     -11.835  12.233  67.430  1.00  0.00    -0.322 N  
HETATM    9  H   UNL     1     -12.669  11.736  67.743  1.00  0.00     0.000 HD 
BRANCH   8  10
HETATM   10  C   UNL     1     -11.366  12.041  66.114  1.00  0.00    -0.351 A  
HETATM   11  C   UNL     1     -10.396  11.057  65.842  1.00  0.00    -0.315 A  
HETATM   12  C   UNL     1      -9.714  10.234  66.901  1.00  0.00    -0.229 C  
HETATM   13  C   UNL     1     -10.069  10.786  64.500  1.00  0.00    -0.415 A  
HETATM   14  C   UNL     1     -10.672  11.486  63.461  1.00  0.00    -0.483 A  
HETATM   15  C   UNL     1     -11.592  12.491  63.742  1.00  0.00    -0.552 A  
HETATM   16  C   UNL     1     -11.948  12.783  65.066  1.00  0.00    -0.456 A  
HETATM   17  C   UNL     1     -12.840  13.962  65.343  1.00  0.00    -0.466 C  
ENDBRANCH   8  10
ENDBRANCH   2   6
TORSDOF 2
ENDMDL
MODEL       27
REMARK 921   NORMALIZED FREE ENERGY PREDICTED BY IDOCK:   -4.68 KCAL/MOL
REMARK 922        TOTAL FREE ENERGY PREDICTED BY IDOCK:   -5.49 KCAL/MOL
REMARK 923 INTER-LIGAND FREE ENERGY PREDICTED BY IDOCK:   -5.34 KCAL/MOL
REMARK 924 INTRA-LIGAND FREE ENERGY PREDICTED BY IDOCK:   -0.15 KCAL/MOL
REMARK 927      BINDING AFFINITY PREDICTED BY RF-SCORE:    0.00 PKD
ROOT
HETATM    1  C   UNL     1     -13.964  14.963  71.497  1.00  0.00    -0.571 C  
HETATM    2  C   UNL     1     -12.807  15.698  70.834  1.00  0.00    -0.442 C  
HETATM    3  N   UNL     1     -12.023  16.462  71.834  1.00  0.00    -0.658 NA 
HETATM    4  H1  UNL     1     -11.247  16.953  71.390  1.00  0.00     0.000 HD 
HETATM    5  H2  UNL     1     -11.704  15.865  72.597  1.00  0.00     0.000 HD 
ENDROOT
BRANCH   2   6
HETATM    6  C   UNL     1     -11.886  14.728  70.060  1.00  0.00    -0.311 C  
HETATM    7  O   UNL     1     -10.663  14.824  70.044  1.00  0.00    -0.184 OA 
HETATM    8  N   UNL     1     -12.627  13.737  69.430  1.00  0.00    -0.250 N  
HETATM    9  H   UNL     1     -13.638  13.705  69.561  1.00  0.00     0.000 HD 
BRANCH   8  10
HETATM   10  C   UNL     1     -12.002  12.774  68.611  1.00  0.00    -0.233 A  
HETATM   11  C   UNL     1     -11.713  11.490  69.116  1.00  0.00    -0.395 A  
HETATM   12  C   UNL     1     -11.928  11.084  70.548  1.00  0.00    -0.474 C  
HETATM   13  C   UNL     1     -11.237  10.509  68.227  1.00  0.00    -0.354 A  
HETATM   14  C   UNL     1     -11.033  10.798  66.883  1.00  0.00    -0.255 A  
HETATM   15  C   UNL     1     -11.273  12.082  66.404  1.00  0.00    -0.389 A  
HETATM   16  C   UNL     1     -11.757  13.083  67.258  1.00  0.00    -0.429 A  
HETATM   17  C   UNL     1     -11.877  14.492  66.743  1.00  0.00    -0.390 C  
ENDBRANCH   8  10
ENDBRANCH   2   6
TORSDOF 2
ENDMDL
MODEL       28
REMARK 921   NORMALIZED FREE ENERGY PREDICTED BY IDOCK:   -4.66 KCAL/MOL
REMARK 922        TOTAL FREE ENERGY PREDICTED BY IDOCK:   -5.47 KCAL/MOL
REMARK 923 INTER-LIGAND FREE ENERGY PREDICTED BY IDOCK:   -5.31 KCAL/MOL
REMARK 924 INTRA-LIGAND FREE ENERGY PREDICTED BY IDOCK:   -0.16 KCAL/MOL
REMARK 927      BINDING AFFINITY PREDICTED BY RF-SCORE:    0.00 PKD
ROOT
HETATM    1  C   UNL     1     -11.447  13.167  63.877  1.00  0.00    -0.451 C  
HETATM    2  C   UNL     1     -10.866  14.112  64.919  1.00  0.00    -0.411 C  
HETATM    3  N   UNL     1     -10.711  15.479  64.366  1.00  0.00    -0.666 NA 
HETATM    4  H1  UNL     1     -10.323  16.113  65.064  1.00  0.00     0.000 HD 
HETATM    5  H2  UNL     1     -11.588  15.832  63.984  1.00  0.00     0.000 HD 
ENDROOT
BRANCH   2   6
HETATM    6  C   UNL     1     -11.730  14.148  66.200  1.00  0.00    -0.393 C  
HETATM    7  O   UNL     1     -12.956  14.189  66.188  1.00  0.00    -0.280 OA 
HETATM    8  N   UNL     1     -10.934  14.094  67.337  1.00  0.00    -0.293 N  
HETATM    9  H   UNL     1      -9.924  13.992  67.239  1.00  0.00     0.000 HD 
BRANCH   8  10
HETATM   10  C   UNL     1     -11.502  14.177  68.625  1.00  0.00    -0.299 A  
HETATM   11  C   UNL     1     -11.882  13.007  69.312  1.00  0.00    -0.370 A  
HETATM   12  C   UNL     1     -11.827  11.628  68.714  1.00  0.00    -0.387 C  
HETATM   13  C   UNL     1     -12.296  13.117  70.653  1.00  0.00    -0.405 A  
HETATM   14  C   UNL     1     -12.351  14.354  71.285  1.00  0.00    -0.432 A  
HETATM   15  C   UNL     1     -12.024  15.509  70.583  1.00  0.00    -0.416 A  
HETATM   16  C   UNL     1     -11.598  15.438  69.249  1.00  0.00    -0.354 A  
HETATM   17  C   UNL     1     -11.382  16.711  68.478  1.00  0.00    -0.152 C  
ENDBRANCH   8  10
ENDBRANCH   2   6
TORSDOF 2
ENDMDL
MODEL       29
REMARK 921   NORMALIZED FREE ENERGY PREDICTED BY IDOCK:   -4.64 KCAL/MOL
REMARK 922        TOTAL FREE ENERGY PREDICTED BY IDOCK:   -5.45 KCAL/MOL
REMARK 923 INTER-LIGAND FREE ENERGY PREDICTED BY IDOCK:   -5.19 KCAL/MOL
REMARK 924 INTRA-LIGAND FREE ENERGY PREDICTED BY IDOCK:   -0.26 KCAL/MOL
REMARK 927      BINDING AFFINITY PREDICTED BY RF-SCORE:    0.00 PKD
ROOT
HETATM    1  C   UNL     1     -12.101  11.787  70.485  1.00  0.00    -0.439 C  
HETATM    2  C   UNL     1     -11.967  13.119  69.760  1.00  0.00    -0.314 C  
HETATM    3  N   UNL     1     -11.278  14.118  70.611  1.00  0.00    -0.474 NA 
HETATM    4  H1  UNL     1     -11.187  15.010  70.125  1.00  0.00     0.000 HD 
HETATM    5  H2  UNL     1     -10.375  13.774  70.939  1.00  0.00     0.000 HD 
ENDROOT
BRANCH   2   6
HETATM    6  C   UNL     1     -11.225  12.961  68.413  1.00  0.00    -0.270 C  
HETATM    7  O   UNL     1     -10.161  13.516  68.157  1.00  0.00    -0.235 OA 
HETATM    8  N   UNL     1     -11.907  12.093  67.569  1.00  0.00    -0.305 N  
HETATM    9  H   UNL     1     -12.751  11.628  67.903  1.00  0.00     0.000 HD 
BRANCH   8  10
HETATM   10  C   UNL     1     -11.449  11.845  66.260  1.00  0.00    -0.301 A  
HETATM   11  C   UNL     1     -11.804  12.710  65.206  1.00  0.00    -0.452 A  
HETATM   12  C   UNL     1     -12.760  13.863  65.351  1.00  0.00    -0.525 C  
HETATM   13  C   UNL     1     -11.201  12.522  63.948  1.00  0.00    -0.496 A  
HETATM   14  C   UNL     1     -10.289  11.495  63.737  1.00  0.00    -0.450 A  
HETATM   15  C   UNL     1      -9.983  10.614  64.770  1.00  0.00    -0.391 A  
HETATM   16  C   UNL     1     -10.557  10.775  66.039  1.00  0.00    -0.224 A  
HETATM   17  C   UNL     1     -10.312   9.731  67.093  1.00  0.00    -0.311 C  
ENDBRANCH   8  10
ENDBRANCH   2   6
TORSDOF 2
ENDMDL
MODEL       30
REMARK 921   NORMALIZED FREE ENERGY PREDICTED BY IDOCK:   -4.64 KCAL/MOL
REMARK 922        TOTAL FREE ENERGY PREDICTED BY IDOCK:   -5.44 KCAL/MOL
REMARK 923 INTER-LIGAND FREE ENERGY PREDICTED BY IDOCK:   -5.16 KCAL/MOL
REMARK 924 INTRA-LIGAND FREE ENERGY PREDICTED BY IDOCK:   -0.28 KCAL/MOL
REMARK 927      BINDING AFFINITY PREDICTED BY RF-SCORE:    0.00 PKD
ROOT
HETATM    1  C   UNL     1     -12.611  12.444  70.759  1.00  0.00    -0.298 C  
HETATM    2  C   UNL     1     -11.715  11.657  69.812  1.00  0.00    -0.352 C  
HETATM    3  N   UNL     1     -12.468  10.558  69.163  1.00  0.00    -0.712 NA 
HETATM    4  H1  UNL     1     -11.869  10.031  68.528  1.00  0.00     0.000 HD 
HETATM    5  H2  UNL     1     -13.305  10.901  68.692  1.00  0.00     0.000 HD 
ENDROOT
BRANCH   2   6
HETATM    6  C   UNL     1     -11.075  12.571  68.743  1.00  0.00    -0.270 C  
HETATM    7  O   UNL     1      -9.927  12.433  68.334  1.00  0.00    -0.220 OA 
HETATM    8  N   UNL     1     -11.981  13.527  68.300  1.00  0.00    -0.362 N  
HETATM    9  H   UNL     1     -12.937  13.515  68.655  1.00  0.00     0.000 HD 
BRANCH   8  10
HETATM   10  C   UNL     1     -11.599  14.512  67.367  1.00  0.00    -0.385 A  
HETATM   11  C   UNL     1     -11.043  15.730  67.806  1.00  0.00    -0.313 A  
HETATM   12  C   UNL     1     -10.920  16.124  69.253  1.00  0.00    -0.315 C  
HETATM   13  C   UNL     1     -10.528  16.620  66.845  1.00  0.00    -0.271 A  
HETATM   14  C   UNL     1     -10.582  16.320  65.489  1.00  0.00    -0.369 A  
HETATM   15  C   UNL     1     -11.179  15.138  65.062  1.00  0.00    -0.414 A  
HETATM   16  C   UNL     1     -11.695  14.222  65.991  1.00  0.00    -0.384 A  
HETATM   17  C   UNL     1     -12.452  13.022  65.494  1.00  0.00    -0.496 C  
ENDBRANCH   8  10
ENDBRANCH   2   6
TORSDOF 2
ENDMDL
MODEL       31
REMARK 921   NORMALIZED FREE ENERGY PREDICTED BY IDOCK:   -4.63 KCAL/MOL
REMARK 922        TOTAL FREE ENERGY PREDICTED BY IDOCK:   -5.43 KCAL/MOL
REMARK 923 INTER-LIGAND FREE ENERGY PREDICTED BY IDOCK:   -5.27 KCAL/MOL
REMARK 924 INTRA-LIGAND FREE ENERGY PREDICTED BY IDOCK:   -0.17 KCAL/MOL
REMARK 927      BINDING AFFINITY PREDICTED BY RF-SCORE:    0.00 PKD
ROOT
HETATM    1  C   UNL     1     -13.253  10.046  71.239  1.00  0.00    -0.469 C  
HETATM    2  C   UNL     1     -13.039   8.978  72.303  1.00  0.00    -0.445 C  
HETATM    3  N   UNL     1     -14.205   8.897  73.214  1.00  0.00    -1.237 NA 
HETATM    4  H1  UNL     1     -14.061   8.181  73.927  1.00  0.00     0.000 HD 
HETATM    5  H2  UNL     1     -15.074   8.750  72.702  1.00  0.00     0.000 HD 
ENDROOT
BRANCH   2   6
HETATM    6  C   UNL     1     -12.756   7.595  71.672  1.00  0.00    -0.343 C  
HETATM    7  O   UNL     1     -13.635   6.853  71.246  1.00  0.00    -0.250 OA 
HETATM    8  N   UNL     1     -11.391   7.339  71.630  1.00  0.00    -0.249 N  
HETATM    9  H   UNL     1     -10.736   8.052  71.949  1.00  0.00     0.000 HD 
BRANCH   8  10
HETATM   10  C   UNL     1     -10.899   6.108  71.152  1.00  0.00    -0.270 A  
HETATM   11  C   UNL     1     -10.662   5.922  69.775  1.00  0.00    -0.411 A  
HETATM   12  C   UNL     1     -11.007   6.937  68.720  1.00  0.00    -0.210 C  
HETATM   13  C   UNL     1     -10.023   4.741  69.355  1.00  0.00    -0.269 A  
HETATM   14  C   UNL     1      -9.650   3.764  70.271  1.00  0.00    -0.257 A  
HETATM   15  C   UNL     1      -9.934   3.933  71.622  1.00  0.00    -0.223 A  
HETATM   16  C   UNL     1     -10.562   5.101  72.079  1.00  0.00    -0.266 A  
HETATM   17  C   UNL     1     -10.977   5.195  73.522  1.00  0.00    -0.370 C  
ENDBRANCH   8  10
ENDBRANCH   2   6
TORSDOF 2
ENDMDL
MODEL       32
REMARK 921   NORMALIZED FREE ENERGY PREDICTED BY IDOCK:   -4.62 KCAL/MOL
REMARK 922        TOTAL FREE ENERGY PREDICTED BY IDOCK:   -5.42 KCAL/MOL
REMARK 923 INTER-LIGAND FREE ENERGY PREDICTED BY IDOCK:   -5.15 KCAL/MOL
REMARK 924 INTRA-LIGAND FREE ENERGY PREDICTED BY IDOCK:   -0.27 KCAL/MOL
REMARK 927      BINDING AFFINITY PREDICTED BY RF-SCORE:    0.00 PKD
ROOT
HETATM    1  C   UNL     1     -13.277  14.926  71.009  1.00  0.00    -0.456 C  
HETATM    2  C   UNL     1     -12.280  15.614  70.087  1.00  0.00    -0.361 C  
HETATM    3  N   UNL     1     -11.346  16.468  70.859  1.00  0.00    -0.494 NA 
HETATM    4  H1  UNL     1     -10.678  16.929  70.241  1.00  0.00     0.000 HD 
HETATM    5  H2  UNL     1     -10.877  15.943  71.596  1.00  0.00     0.000 HD 
ENDROOT
BRANCH   2   6
HETATM    6  C   UNL     1     -11.491  14.591  69.238  1.00  0.00    -0.288 C  
HETATM    7  O   UNL     1     -10.275  14.637  69.080  1.00  0.00    -0.231 OA 
HETATM    8  N   UNL     1     -12.337  13.618  68.721  1.00  0.00    -0.316 N  
HETATM    9  H   UNL     1     -13.326  13.630  68.967  1.00  0.00     0.000 HD 
BRANCH   8  10
HETATM   10  C   UNL     1     -11.847  12.614  67.861  1.00  0.00    -0.332 A  
HETATM   11  C   UNL     1     -11.779  12.837  66.472  1.00  0.00    -0.463 A  
HETATM   12  C   UNL     1     -12.308  14.071  65.793  1.00  0.00    -0.506 C  
HETATM   13  C   UNL     1     -11.139  11.877  65.666  1.00  0.00    -0.362 A  
HETATM   14  C   UNL     1     -10.603  10.720  66.220  1.00  0.00    -0.257 A  
HETATM   15  C   UNL     1     -10.720  10.484  67.586  1.00  0.00    -0.324 A  
HETATM   16  C   UNL     1     -11.343  11.422  68.422  1.00  0.00    -0.346 A  
HETATM   17  C   UNL     1     -11.574  11.077  69.867  1.00  0.00    -0.416 C  
ENDBRANCH   8  10
ENDBRANCH   2   6
TORSDOF 2
ENDMDL
MODEL       33
REMARK 921   NORMALIZED FREE ENERGY PREDICTED BY IDOCK:   -4.61 KCAL/MOL
REMARK 922        TOTAL FREE ENERGY PREDICTED BY IDOCK:   -5.41 KCAL/MOL
REMARK 923 INTER-LIGAND FREE ENERGY PREDICTED BY IDOCK:   -5.32 KCAL/MOL
REMARK 924 INTRA-LIGAND FREE ENERGY PREDICTED BY IDOCK:   -0.09 KCAL/MOL
REMARK 927      BINDING AFFINITY PREDICTED BY RF-SCORE:    0.00 PKD
ROOT
HETATM    1  C   UNL     1     -13.726  14.479  71.394  1.00  0.00    -0.448 C  
HETATM    2  C   UNL     1     -12.821  15.695  71.252  1.00  0.00    -0.487 C  
HETATM    3  N   UNL     1     -12.254  16.088  72.564  1.00  0.00    -0.480 NA 
HETATM    4  H1  UNL     1     -11.647  16.902  72.470  1.00  0.00     0.000 HD 
HETATM    5  H2  UNL     1     -11.772  15.310  73.015  1.00  0.00     0.000 HD 
ENDROOT
BRANCH   2   6
HETATM    6  C   UNL     1     -11.686  15.445  70.233  1.00  0.00    -0.327 C  
HETATM    7  O   UNL     1     -10.517  15.255  70.554  1.00  0.00    -0.242 OA 
HETATM    8  N   UNL     1     -12.180  15.432  68.934  1.00  0.00    -0.604 N  
HETATM    9  H   UNL     1     -13.183  15.532  68.777  1.00  0.00     0.000 HD 
BRANCH   8  10
HETATM   10  C   UNL     1     -11.315  15.283  67.831  1.00  0.00    -0.334 A  
HETATM   11  C   UNL     1     -11.181  14.032  67.196  1.00  0.00    -0.327 A  
HETATM   12  C   UNL     1     -11.830  12.767  67.688  1.00  0.00    -0.396 C  
HETATM   13  C   UNL     1     -10.435  13.958  66.005  1.00  0.00    -0.299 A  
HETATM   14  C   UNL     1      -9.823  15.086  65.472  1.00  0.00    -0.352 A  
HETATM   15  C   UNL     1      -9.918  16.307  66.133  1.00  0.00    -0.355 A  
HETATM   16  C   UNL     1     -10.661  16.421  67.318  1.00  0.00    -0.293 A  
HETATM   17  C   UNL     1     -10.633  17.718  68.079  1.00  0.00    -0.372 C  
ENDBRANCH   8  10
ENDBRANCH   2   6
TORSDOF 2
ENDMDL
MODEL       34
REMARK 921   NORMALIZED FREE ENERGY PREDICTED BY IDOCK:   -4.61 KCAL/MOL
REMARK 922        TOTAL FREE ENERGY PREDICTED BY IDOCK:   -5.41 KCAL/MOL
REMARK 923 INTER-LIGAND FREE ENERGY PREDICTED BY IDOCK:   -5.16 KCAL/MOL
REMARK 924 INTRA-LIGAND FREE ENERGY PREDICTED BY IDOCK:   -0.25 KCAL/MOL
REMARK 927      BINDING AFFINITY PREDICTED BY RF-SCORE:    0.00 PKD
ROOT
HETATM    1  C   UNL     1     -12.367  14.808  70.205  1.00  0.00    -0.400 C  
HETATM    2  C   UNL     1     -11.892  15.670  69.044  1.00  0.00    -0.364 C  
HETATM    3  N   UNL     1     -10.976  16.736  69.517  1.00  0.00    -0.358 NA 
HETATM    4  H1  UNL     1     -10.657  17.314  68.739  1.00  0.00     0.000 HD 
HETATM    5  H2  UNL     1     -10.193  16.352  70.046  1.00  0.00     0.000 HD 
ENDROOT
BRANCH   2   6
HETATM    6  C   UNL     1     -11.206  14.823  67.948  1.00  0.00    -0.306 C  
HETATM    7  O   UNL     1     -10.002  14.864  67.716  1.00  0.00    -0.220 OA 
HETATM    8  N   UNL     1     -12.126  14.004  67.306  1.00  0.00    -0.488 N  
HETATM    9  H   UNL     1     -13.096  13.994  67.621  1.00  0.00     0.000 HD 
BRANCH   8  10
HETATM   10  C   UNL     1     -11.739  13.186  66.226  1.00  0.00    -0.375 A  
HETATM   11  C   UNL     1     -11.697  13.707  64.918  1.00  0.00    -0.379 A  
HETATM   12  C   UNL     1     -12.155  15.092  64.550  1.00  0.00    -0.373 C  
HETATM   13  C   UNL     1     -11.155  12.909  63.892  1.00  0.00    -0.454 A  
HETATM   14  C   UNL     1     -10.688  11.626  64.153  1.00  0.00    -0.418 A  
HETATM   15  C   UNL     1     -10.780  11.101  65.438  1.00  0.00    -0.259 A  
HETATM   16  C   UNL     1     -11.306  11.869  66.487  1.00  0.00    -0.403 A  
HETATM   17  C   UNL     1     -11.517  11.229  67.832  1.00  0.00    -0.360 C  
ENDBRANCH   8  10
ENDBRANCH   2   6
TORSDOF 2
ENDMDL
MODEL       35
REMARK 921   NORMALIZED FREE ENERGY PREDICTED BY IDOCK:   -4.57 KCAL/MOL
REMARK 922        TOTAL FREE ENERGY PREDICTED BY IDOCK:   -5.36 KCAL/MOL
REMARK 923 INTER-LIGAND FREE ENERGY PREDICTED BY IDOCK:   -5.18 KCAL/MOL
REMARK 924 INTRA-LIGAND FREE ENERGY PREDICTED BY IDOCK:   -0.18 KCAL/MOL
REMARK 927      BINDING AFFINITY PREDICTED BY RF-SCORE:    0.00 PKD
ROOT
HETATM    1  C   UNL     1     -11.373  14.504  67.545  1.00  0.00    -0.355 C  
HETATM    2  C   UNL     1     -10.478  13.321  67.885  1.00  0.00    -0.240 C  
HETATM    3  N   UNL     1      -9.459  13.701  68.892  1.00  0.00    -0.408 NA 
HETATM    4  H1  UNL     1      -8.859  12.909  69.121  1.00  0.00     0.000 HD 
HETATM    5  H2  UNL     1      -9.886  14.103  69.727  1.00  0.00     0.000 HD 
ENDROOT
BRANCH   2   6
HETATM    6  C   UNL     1     -11.299  12.111  68.386  1.00  0.00    -0.286 C  
HETATM    7  O   UNL     1     -12.173  11.565  67.720  1.00  0.00    -0.560 OA 
HETATM    8  N   UNL     1     -10.888  11.723  69.654  1.00  0.00    -0.456 N  
HETATM    9  H   UNL     1     -10.103  12.201  70.096  1.00  0.00     0.000 HD 
BRANCH   8  10
HETATM   10  C   UNL     1     -11.538  10.677  70.339  1.00  0.00    -0.351 A  
HETATM   11  C   UNL     1     -11.129   9.342  70.153  1.00  0.00    -0.260 A  
HETATM   12  C   UNL     1     -10.083   8.915  69.160  1.00  0.00    -0.202 C  
HETATM   13  C   UNL     1     -11.693   8.344  70.970  1.00  0.00    -0.296 A  
HETATM   14  C   UNL     1     -12.650   8.659  71.928  1.00  0.00    -0.411 A  
HETATM   15  C   UNL     1     -13.085   9.973  72.070  1.00  0.00    -0.541 A  
HETATM   16  C   UNL     1     -12.539  10.995  71.280  1.00  0.00    -0.517 A  
HETATM   17  C   UNL     1     -13.125  12.378  71.362  1.00  0.00    -0.299 C  
ENDBRANCH   8  10
ENDBRANCH   2   6
TORSDOF 2
ENDMDL
MODEL       36
REMARK 921   NORMALIZED FREE ENERGY PREDICTED BY IDOCK:   -4.55 KCAL/MOL
REMARK 922        TOTAL FREE ENERGY PREDICTED BY IDOCK:   -5.35 KCAL/MOL
REMARK 923 INTER-LIGAND FREE ENERGY PREDICTED BY IDOCK:   -5.11 KCAL/MOL
REMARK 924 INTRA-LIGAND FREE ENERGY PREDICTED BY IDOCK:   -0.24 KCAL/MOL
REMARK 927      BINDING AFFINITY PREDICTED BY RF-SCORE:    0.00 PKD
ROOT
HETATM    1  C   UNL     1     -12.728  10.347  71.424  1.00  0.00    -0.551 C  
HETATM    2  C   UNL     1     -11.629   9.367  71.037  1.00  0.00    -0.330 C  
HETATM    3  N   UNL     1     -12.197   8.036  70.713  1.00  0.00    -0.502 NA 
HETATM    4  H1  UNL     1     -11.461   7.379  70.453  1.00  0.00     0.000 HD 
HETATM    5  H2  UNL     1     -12.916   8.099  69.993  1.00  0.00     0.000 HD 
ENDROOT
BRANCH   2   6
HETATM    6  C   UNL     1     -10.788   9.893  69.852  1.00  0.00    -0.278 C  
HETATM    7  O   UNL     1      -9.591  10.148  69.933  1.00  0.00    -0.213 OA 
HETATM    8  N   UNL     1     -11.561   9.997  68.703  1.00  0.00    -0.506 N  
HETATM    9  H   UNL     1     -12.535   9.693  68.723  1.00  0.00     0.000 HD 
BRANCH   8  10
HETATM   10  C   UNL     1     -11.020  10.516  67.509  1.00  0.00    -0.303 A  
HETATM   11  C   UNL     1     -10.385   9.662  66.585  1.00  0.00    -0.279 A  
HETATM   12  C   UNL     1     -10.133   8.200  66.830  1.00  0.00    -0.367 C  
HETATM   13  C   UNL     1     -10.000  10.187  65.337  1.00  0.00    -0.377 A  
HETATM   14  C   UNL     1     -10.219  11.523  65.024  1.00  0.00    -0.328 A  
HETATM   15  C   UNL     1     -10.801  12.371  65.962  1.00  0.00    -0.308 A  
HETATM   16  C   UNL     1     -11.205  11.882  67.212  1.00  0.00    -0.376 A  
HETATM   17  C   UNL     1     -11.704  12.848  68.252  1.00  0.00    -0.390 C  
ENDBRANCH   8  10
ENDBRANCH   2   6
TORSDOF 2
ENDMDL
MODEL       37
REMARK 921   NORMALIZED FREE ENERGY PREDICTED BY IDOCK:   -4.54 KCAL/MOL
REMARK 922        TOTAL FREE ENERGY PREDICTED BY IDOCK:   -5.33 KCAL/MOL
REMARK 923 INTER-LIGAND FREE ENERGY PREDICTED BY IDOCK:   -5.13 KCAL/MOL
REMARK 924 INTRA-LIGAND FREE ENERGY PREDICTED BY IDOCK:   -0.20 KCAL/MOL
REMARK 927      BINDING AFFINITY PREDICTED BY RF-SCORE:    0.00 PKD
ROOT
HETATM    1  C   UNL     1      -9.326  14.184  67.666  1.00  0.00    -0.209 C  
HETATM    2  C   UNL     1     -10.180  13.248  66.822  1.00  0.00    -0.254 C  
HETATM    3  N   UNL     1      -9.336  12.435  65.914  1.00  0.00    -0.422 NA 
HETATM    4  H1  UNL     1      -9.908  11.808  65.349  1.00  0.00     0.000 HD 
HETATM    5  H2  UNL     1      -8.614  11.928  66.426  1.00  0.00     0.000 HD 
ENDROOT
BRANCH   2   6
HETATM    6  C   UNL     1     -11.059  12.330  67.701  1.00  0.00    -0.268 C  
HETATM    7  O   UNL     1     -11.967  11.635  67.257  1.00  0.00    -0.627 OA 
HETATM    8  N   UNL     1     -10.655  12.381  69.029  1.00  0.00    -0.410 N  
HETATM    9  H   UNL     1      -9.842  12.940  69.286  1.00  0.00     0.000 HD 
BRANCH   8  10
HETATM   10  C   UNL     1     -11.353  11.670  70.027  1.00  0.00    -0.091 A  
HETATM   11  C   UNL     1     -12.333  12.315  70.807  1.00  0.00    -0.383 A  
HETATM   12  C   UNL     1     -12.630  13.788  70.731  1.00  0.00    -0.410 C  
HETATM   13  C   UNL     1     -13.117  11.539  71.680  1.00  0.00    -0.478 A  
HETATM   14  C   UNL     1     -12.921  10.167  71.791  1.00  0.00    -0.567 A  
HETATM   15  C   UNL     1     -11.917   9.546  71.055  1.00  0.00    -0.407 A  
HETATM   16  C   UNL     1     -11.122  10.286  70.168  1.00  0.00    -0.385 A  
HETATM   17  C   UNL     1      -9.960   9.614  69.489  1.00  0.00    -0.223 C  
ENDBRANCH   8  10
ENDBRANCH   2   6
TORSDOF 2
ENDMDL
MODEL       38
REMARK 921   NORMALIZED FREE ENERGY PREDICTED BY IDOCK:   -4.51 KCAL/MOL
REMARK 922        TOTAL FREE ENERGY PREDICTED BY IDOCK:   -5.30 KCAL/MOL
REMARK 923 INTER-LIGAND FREE ENERGY PREDICTED BY IDOCK:   -5.17 KCAL/MOL
REMARK 924 INTRA-LIGAND FREE ENERGY PREDICTED BY IDOCK:   -0.12 KCAL/MOL
REMARK 927      BINDING AFFINITY PREDICTED BY RF-SCORE:    0.00 PKD
ROOT
HETATM    1  C   UNL     1      -9.669  10.681  63.131  1.00  0.00    -0.375 C  
HETATM    2  C   UNL     1     -10.489  11.887  63.570  1.00  0.00    -0.459 C  
HETATM    3  N   UNL     1     -11.927  11.686  63.271  1.00  0.00    -0.892 NA 
HETATM    4  H1  UNL     1     -12.477  12.493  63.566  1.00  0.00     0.000 HD 
HETATM    5  H2  UNL     1     -12.279  10.821  63.681  1.00  0.00     0.000 HD 
ENDROOT
BRANCH   2   6
HETATM    6  C   UNL     1     -10.292  12.193  65.072  1.00  0.00    -0.287 C  
HETATM    7  O   UNL     1      -9.286  12.726  65.528  1.00  0.00     0.025 OA 
HETATM    8  N   UNL     1     -11.410  11.815  65.806  1.00  0.00    -0.292 N  
HETATM    9  H   UNL     1     -12.226  11.441  65.322  1.00  0.00     0.000 HD 
BRANCH   8  10
HETATM   10  C   UNL     1     -11.433  11.942  67.209  1.00  0.00    -0.317 A  
HETATM   11  C   UNL     1     -11.726  13.183  67.807  1.00  0.00    -0.401 A  
HETATM   12  C   UNL     1     -11.919  14.461  67.037  1.00  0.00    -0.424 C  
HETATM   13  C   UNL     1     -11.897  13.235  69.203  1.00  0.00    -0.378 A  
HETATM   14  C   UNL     1     -11.759  12.094  69.984  1.00  0.00    -0.330 A  
HETATM   15  C   UNL     1     -11.418  10.882  69.391  1.00  0.00    -0.373 A  
HETATM   16  C   UNL     1     -11.249  10.790  68.002  1.00  0.00    -0.372 A  
HETATM   17  C   UNL     1     -10.750   9.502  67.407  1.00  0.00    -0.297 C  
ENDBRANCH   8  10
ENDBRANCH   2   6
TORSDOF 2
ENDMDL
MODEL       39
REMARK 921   NORMALIZED FREE ENERGY PREDICTED BY IDOCK:   -4.50 KCAL/MOL
REMARK 922        TOTAL FREE ENERGY PREDICTED BY IDOCK:   -5.29 KCAL/MOL
REMARK 923 INTER-LIGAND FREE ENERGY PREDICTED BY IDOCK:   -5.03 KCAL/MOL
REMARK 924 INTRA-LIGAND FREE ENERGY PREDICTED BY IDOCK:   -0.26 KCAL/MOL
REMARK 927      BINDING AFFINITY PREDICTED BY RF-SCORE:    0.00 PKD
ROOT
HETATM    1  C   UNL     1      -9.862  11.322  63.262  1.00  0.00    -0.418 C  
HETATM    2  C   UNL     1     -11.069  12.244  63.371  1.00  0.00    -0.418 C  
HETATM    3  N   UNL     1     -12.330  11.490  63.177  1.00  0.00    -0.932 NA 
HETATM    4  H1  UNL     1     -13.139  12.107  63.251  1.00  0.00     0.000 HD 
HETATM    5  H2  UNL     1     -12.400  10.701  63.819  1.00  0.00     0.000 HD 
ENDROOT
BRANCH   2   6
HETATM    6  C   UNL     1     -11.095  12.990  64.724  1.00  0.00    -0.322 C  
HETATM    7  O   UNL     1     -11.964  12.823  65.573  1.00  0.00    -0.399 OA 
HETATM    8  N   UNL     1      -9.996  13.831  64.848  1.00  0.00    -0.620 N  
HETATM    9  H   UNL     1      -9.291  13.848  64.111  1.00  0.00     0.000 HD 
BRANCH   8  10
HETATM   10  C   UNL     1      -9.842  14.662  65.976  1.00  0.00    -0.322 A  
HETATM   11  C   UNL     1     -10.427  15.943  66.002  1.00  0.00    -0.357 A  
HETATM   12  C   UNL     1     -11.141  16.564  64.833  1.00  0.00    -0.199 C  
HETATM   13  C   UNL     1     -10.387  16.678  67.202  1.00  0.00    -0.300 A  
HETATM   14  C   UNL     1      -9.766  16.165  68.335  1.00  0.00    -0.219 A  
HETATM   15  C   UNL     1      -9.147  14.920  68.286  1.00  0.00    -0.179 A  
HETATM   16  C   UNL     1      -9.174  14.156  67.110  1.00  0.00    -0.237 A  
HETATM   17  C   UNL     1      -8.381  12.879  67.047  1.00  0.00    -0.112 C  
ENDBRANCH   8  10
ENDBRANCH   2   6
TORSDOF 2
ENDMDL
MODEL       40
REMARK 921   NORMALIZED FREE ENERGY PREDICTED BY IDOCK:   -4.50 KCAL/MOL
REMARK 922        TOTAL FREE ENERGY PREDICTED BY IDOCK:   -5.28 KCAL/MOL
REMARK 923 INTER-LIGAND FREE ENERGY PREDICTED BY IDOCK:   -5.02 KCAL/MOL
REMARK 924 INTRA-LIGAND FREE ENERGY PREDICTED BY IDOCK:   -0.27 KCAL/MOL
REMARK 927      BINDING AFFINITY PREDICTED BY RF-SCORE:    0.00 PKD
ROOT
HETATM    1  C   UNL     1     -12.701  10.750  71.405  1.00  0.00    -0.544 C  
HETATM    2  C   UNL     1     -11.662   9.677  71.109  1.00  0.00    -0.372 C  
HETATM    3  N   UNL     1     -12.306   8.356  70.913  1.00  0.00    -0.494 NA 
HETATM    4  H1  UNL     1     -11.610   7.638  70.714  1.00  0.00     0.000 HD 
HETATM    5  H2  UNL     1     -13.027   8.392  70.193  1.00  0.00     0.000 HD 
ENDROOT
BRANCH   2   6
HETATM    6  C   UNL     1     -10.804  10.041  69.876  1.00  0.00    -0.285 C  
HETATM    7  O   UNL     1      -9.590  10.212  69.923  1.00  0.00    -0.213 OA 
HETATM    8  N   UNL     1     -11.585  10.110  68.730  1.00  0.00    -0.512 N  
HETATM    9  H   UNL     1     -12.578   9.883  68.784  1.00  0.00     0.000 HD 
BRANCH   8  10
HETATM   10  C   UNL     1     -11.026  10.488  67.492  1.00  0.00    -0.303 A  
HETATM   11  C   UNL     1     -11.009  11.843  67.104  1.00  0.00    -0.319 A  
HETATM   12  C   UNL     1     -11.662  12.949  67.886  1.00  0.00    -0.405 C  
HETATM   13  C   UNL     1     -10.303  12.200  65.940  1.00  0.00    -0.286 A  
HETATM   14  C   UNL     1      -9.653  11.240  65.173  1.00  0.00    -0.269 A  
HETATM   15  C   UNL     1      -9.718   9.899  65.537  1.00  0.00    -0.370 A  
HETATM   16  C   UNL     1     -10.404   9.506  66.695  1.00  0.00    -0.280 A  
HETATM   17  C   UNL     1     -10.572   8.040  66.987  1.00  0.00    -0.364 C  
ENDBRANCH   8  10
ENDBRANCH   2   6
TORSDOF 2
ENDMDL
MODEL       41
REMARK 921   NORMALIZED FREE ENERGY PREDICTED BY IDOCK:   -4.46 KCAL/MOL
REMARK 922        TOTAL FREE ENERGY PREDICTED BY IDOCK:   -5.25 KCAL/MOL
REMARK 923 INTER-LIGAND FREE ENERGY PREDICTED BY IDOCK:   -5.06 KCAL/MOL
REMARK 924 INTRA-LIGAND FREE ENERGY PREDICTED BY IDOCK:   -0.19 KCAL/MOL
REMARK 927      BINDING AFFINITY PREDICTED BY RF-SCORE:    0.00 PKD
ROOT
HETATM    1  C   UNL     1     -13.649  14.368  71.482  1.00  0.00    -0.445 C  
HETATM    2  C   UNL     1     -12.909  15.687  71.317  1.00  0.00    -0.487 C  
HETATM    3  N   UNL     1     -12.400  16.175  72.621  1.00  0.00    -0.481 NA 
HETATM    4  H1  UNL     1     -11.903  17.059  72.511  1.00  0.00     0.000 HD 
HETATM    5  H2  UNL     1     -11.823  15.474  73.086  1.00  0.00     0.000 HD 
ENDROOT
BRANCH   2   6
HETATM    6  C   UNL     1     -11.749  15.567  70.302  1.00  0.00    -0.346 C  
HETATM    7  O   UNL     1     -10.584  15.362  70.627  1.00  0.00    -0.290 OA 
HETATM    8  N   UNL     1     -12.216  15.687  69.000  1.00  0.00    -0.594 N  
HETATM    9  H   UNL     1     -13.217  15.787  68.831  1.00  0.00     0.000 HD 
BRANCH   8  10
HETATM   10  C   UNL     1     -11.326  15.671  67.906  1.00  0.00    -0.302 A  
HETATM   11  C   UNL     1     -10.585  16.823  67.575  1.00  0.00    -0.309 A  
HETATM   12  C   UNL     1     -10.754  18.154  68.255  1.00  0.00    -0.171 C  
HETATM   13  C   UNL     1      -9.594  16.723  66.581  1.00  0.00    -0.274 A  
HETATM   14  C   UNL     1      -9.359  15.522  65.921  1.00  0.00    -0.355 A  
HETATM   15  C   UNL     1     -10.130  14.403  66.219  1.00  0.00    -0.308 A  
HETATM   16  C   UNL     1     -11.121  14.462  67.210  1.00  0.00    -0.318 A  
HETATM   17  C   UNL     1     -12.027  13.278  67.414  1.00  0.00    -0.383 C  
ENDBRANCH   8  10
ENDBRANCH   2   6
TORSDOF 2
ENDMDL
MODEL       42
REMARK 921   NORMALIZED FREE ENERGY PREDICTED BY IDOCK:   -4.46 KCAL/MOL
REMARK 922        TOTAL FREE ENERGY PREDICTED BY IDOCK:   -5.24 KCAL/MOL
REMARK 923 INTER-LIGAND FREE ENERGY PREDICTED BY IDOCK:   -5.00 KCAL/MOL
REMARK 924 INTRA-LIGAND FREE ENERGY PREDICTED BY IDOCK:   -0.25 KCAL/MOL
REMARK 927      BINDING AFFINITY PREDICTED BY RF-SCORE:    0.00 PKD
ROOT
HETATM    1  C   UNL     1     -11.098  16.102  68.543  1.00  0.00    -0.357 C  
HETATM    2  C   UNL     1     -11.397  14.722  69.111  1.00  0.00    -0.282 C  
HETATM    3  N   UNL     1     -12.619  14.747  69.950  1.00  0.00    -0.559 NA 
HETATM    4  H1  UNL     1     -12.819  13.822  70.330  1.00  0.00     0.000 HD 
HETATM    5  H2  UNL     1     -13.417  15.127  69.441  1.00  0.00     0.000 HD 
ENDROOT
BRANCH   2   6
HETATM    6  C   UNL     1     -11.539  13.665  67.992  1.00  0.00    -0.333 C  
HETATM    7  O   UNL     1     -12.284  12.693  68.070  1.00  0.00    -0.268 OA 
HETATM    8  N   UNL     1     -10.744  13.988  66.900  1.00  0.00    -0.284 N  
HETATM    9  H   UNL     1     -10.211  14.858  66.907  1.00  0.00     0.000 HD 
BRANCH   8  10
HETATM   10  C   UNL     1     -10.664  13.133  65.782  1.00  0.00    -0.279 A  
HETATM   11  C   UNL     1      -9.830  11.998  65.813  1.00  0.00    -0.263 A  
HETATM   12  C   UNL     1      -8.899  11.671  66.948  1.00  0.00    -0.190 C  
HETATM   13  C   UNL     1      -9.897  11.084  64.744  1.00  0.00    -0.329 A  
HETATM   14  C   UNL     1     -10.750  11.302  63.668  1.00  0.00    -0.438 A  
HETATM   15  C   UNL     1     -11.532  12.451  63.622  1.00  0.00    -0.568 A  
HETATM   16  C   UNL     1     -11.499  13.380  64.673  1.00  0.00    -0.375 A  
HETATM   17  C   UNL     1     -12.251  14.675  64.532  1.00  0.00    -0.473 C  
ENDBRANCH   8  10
ENDBRANCH   2   6
TORSDOF 2
ENDMDL
MODEL       43
REMARK 921   NORMALIZED FREE ENERGY PREDICTED BY IDOCK:   -4.43 KCAL/MOL
REMARK 922        TOTAL FREE ENERGY PREDICTED BY IDOCK:   -5.21 KCAL/MOL
REMARK 923 INTER-LIGAND FREE ENERGY PREDICTED BY IDOCK:   -5.03 KCAL/MOL
REMARK 924 INTRA-LIGAND FREE ENERGY PREDICTED BY IDOCK:   -0.18 KCAL/MOL
REMARK 927      BINDING AFFINITY PREDICTED BY RF-SCORE:    0.00 PKD
ROOT
HETATM    1  C   UNL     1     -10.041  19.701  68.397  1.00  0.00    -0.557 C  
HETATM    2  C   UNL     1     -10.335  19.366  66.941  1.00  0.00    -0.437 C  
HETATM    3  N   UNL     1      -9.718  20.363  66.034  1.00  0.00    -0.666 NA 
HETATM    4  H1  UNL     1      -9.915  20.138  65.059  1.00  0.00     0.000 HD 
HETATM    5  H2  UNL     1      -8.718  20.458  66.204  1.00  0.00     0.000 HD 
ENDROOT
BRANCH   2   6
HETATM    6  C   UNL     1      -9.856  17.942  66.577  1.00  0.00    -0.343 C  
HETATM    7  O   UNL     1      -8.800  17.712  65.995  1.00  0.00    -0.502 OA 
HETATM    8  N   UNL     1     -10.758  16.986  67.024  1.00  0.00    -0.215 N  
HETATM    9  H   UNL     1     -11.576  17.277  67.559  1.00  0.00     0.000 HD 
BRANCH   8  10
HETATM   10  C   UNL     1     -10.560  15.617  66.749  1.00  0.00    -0.307 A  
HETATM   11  C   UNL     1     -10.861  15.096  65.475  1.00  0.00    -0.373 A  
HETATM   12  C   UNL     1     -11.504  15.892  64.373  1.00  0.00    -0.268 C  
HETATM   13  C   UNL     1     -10.502  13.765  65.189  1.00  0.00    -0.399 A  
HETATM   14  C   UNL     1      -9.882  12.970  66.146  1.00  0.00    -0.275 A  
HETATM   15  C   UNL     1      -9.635  13.477  67.418  1.00  0.00    -0.227 A  
HETATM   16  C   UNL     1      -9.970  14.801  67.736  1.00  0.00    -0.223 A  
HETATM   17  C   UNL     1      -9.815  15.276  69.155  1.00  0.00    -0.239 C  
ENDBRANCH   8  10
ENDBRANCH   2   6
TORSDOF 2
ENDMDL
MODEL       44
REMARK 921   NORMALIZED FREE ENERGY PREDICTED BY IDOCK:   -4.42 KCAL/MOL
REMARK 922        TOTAL FREE ENERGY PREDICTED BY IDOCK:   -5.19 KCAL/MOL
REMARK 923 INTER-LIGAND FREE ENERGY PREDICTED BY IDOCK:   -4.92 KCAL/MOL
REMARK 924 INTRA-LIGAND FREE ENERGY PREDICTED BY IDOCK:   -0.27 KCAL/MOL
REMARK 927      BINDING AFFINITY PREDICTED BY RF-SCORE:    0.00 PKD
ROOT
HETATM    1  C   UNL     1     -10.077   6.424  74.253  1.00  0.00    -0.365 C  
HETATM    2  C   UNL     1     -10.724   5.714  73.072  1.00  0.00    -0.255 C  
HETATM    3  N   UNL     1     -11.840   4.848  73.522  1.00  0.00    -0.370 NA 
HETATM    4  H1  UNL     1     -12.274   4.372  72.731  1.00  0.00     0.000 HD 
HETATM    5  H2  UNL     1     -12.524   5.370  74.069  1.00  0.00     0.000 HD 
ENDROOT
BRANCH   2   6
HETATM    6  C   UNL     1     -11.222   6.717  72.007  1.00  0.00    -0.262 C  
HETATM    7  O   UNL     1     -11.694   6.379  70.926  1.00  0.00    -0.349 OA 
HETATM    8  N   UNL     1     -11.090   8.025  72.457  1.00  0.00    -0.348 N  
HETATM    9  H   UNL     1     -10.748   8.199  73.402  1.00  0.00     0.000 HD 
BRANCH   8  10
HETATM   10  C   UNL     1     -11.423   9.115  71.628  1.00  0.00    -0.381 A  
HETATM   11  C   UNL     1     -10.448   9.702  70.798  1.00  0.00    -0.375 A  
HETATM   12  C   UNL     1      -8.995   9.313  70.806  1.00  0.00    -0.292 C  
HETATM   13  C   UNL     1     -10.853  10.680  69.870  1.00  0.00    -0.301 A  
HETATM   14  C   UNL     1     -12.182  11.078  69.784  1.00  0.00    -0.388 A  
HETATM   15  C   UNL     1     -13.129  10.529  70.642  1.00  0.00    -0.278 A  
HETATM   16  C   UNL     1     -12.765   9.546  71.573  1.00  0.00    -0.461 A  
HETATM   17  C   UNL     1     -13.781   9.072  72.576  1.00  0.00    -0.499 C  
ENDBRANCH   8  10
ENDBRANCH   2   6
TORSDOF 2
ENDMDL
MODEL       45
REMARK 921   NORMALIZED FREE ENERGY PREDICTED BY IDOCK:   -4.40 KCAL/MOL
REMARK 922        TOTAL FREE ENERGY PREDICTED BY IDOCK:   -5.18 KCAL/MOL
REMARK 923 INTER-LIGAND FREE ENERGY PREDICTED BY IDOCK:   -4.99 KCAL/MOL
REMARK 924 INTRA-LIGAND FREE ENERGY PREDICTED BY IDOCK:   -0.19 KCAL/MOL
REMARK 927      BINDING AFFINITY PREDICTED BY RF-SCORE:    0.00 PKD
ROOT
HETATM    1  C   UNL     1      -9.865  18.668  68.407  1.00  0.00    -0.424 C  
HETATM    2  C   UNL     1     -10.632  18.022  67.262  1.00  0.00    -0.346 C  
HETATM    3  N   UNL     1     -10.233  18.609  65.960  1.00  0.00    -0.542 NA 
HETATM    4  H1  UNL     1     -10.746  18.175  65.193  1.00  0.00     0.000 HD 
HETATM    5  H2  UNL     1      -9.225  18.556  65.817  1.00  0.00     0.000 HD 
ENDROOT
BRANCH   2   6
HETATM    6  C   UNL     1     -10.436  16.489  67.240  1.00  0.00    -0.304 C  
HETATM    7  O   UNL     1      -9.342  15.948  67.117  1.00  0.00    -0.207 OA 
HETATM    8  N   UNL     1     -11.648  15.831  67.409  1.00  0.00    -0.020 N  
HETATM    9  H   UNL     1     -12.496  16.375  67.572  1.00  0.00     0.000 HD 
BRANCH   8  10
HETATM   10  C   UNL     1     -11.724  14.425  67.361  1.00  0.00    -0.397 A  
HETATM   11  C   UNL     1     -11.812  13.759  66.122  1.00  0.00    -0.424 A  
HETATM   12  C   UNL     1     -11.947  14.462  64.799  1.00  0.00    -0.455 C  
HETATM   13  C   UNL     1     -11.725  12.354  66.104  1.00  0.00    -0.460 A  
HETATM   14  C   UNL     1     -11.576  11.631  67.282  1.00  0.00    -0.316 A  
HETATM   15  C   UNL     1     -11.541  12.294  68.505  1.00  0.00    -0.359 A  
HETATM   16  C   UNL     1     -11.616  13.693  68.561  1.00  0.00    -0.371 A  
HETATM   17  C   UNL     1     -11.711  14.369  69.901  1.00  0.00    -0.363 C  
ENDBRANCH   8  10
ENDBRANCH   2   6
TORSDOF 2
ENDMDL
MODEL       46
REMARK 921   NORMALIZED FREE ENERGY PREDICTED BY IDOCK:   -4.40 KCAL/MOL
REMARK 922        TOTAL FREE ENERGY PREDICTED BY IDOCK:   -5.18 KCAL/MOL
REMARK 923 INTER-LIGAND FREE ENERGY PREDICTED BY IDOCK:   -4.99 KCAL/MOL
REMARK 924 INTRA-LIGAND FREE ENERGY PREDICTED BY IDOCK:   -0.18 KCAL/MOL
REMARK 927      BINDING AFFINITY PREDICTED BY RF-SCORE:    0.00 PKD
ROOT
HETATM    1  C   UNL     1     -10.197  19.859  68.205  1.00  0.00    -0.564 C  
HETATM    2  C   UNL     1     -10.302  19.399  66.758  1.00  0.00    -0.443 C  
HETATM    3  N   UNL     1      -9.664  20.376  65.844  1.00  0.00    -0.635 NA 
HETATM    4  H1  UNL     1      -9.734  20.067  64.874  1.00  0.00     0.000 HD 
HETATM    5  H2  UNL     1      -8.698  20.565  66.110  1.00  0.00     0.000 HD 
ENDROOT
BRANCH   2   6
HETATM    6  C   UNL     1      -9.681  17.997  66.560  1.00  0.00    -0.338 C  
HETATM    7  O   UNL     1      -8.580  17.810  66.052  1.00  0.00    -0.497 OA 
HETATM    8  N   UNL     1     -10.518  17.008  67.061  1.00  0.00    -0.306 N  
HETATM    9  H   UNL     1     -11.386  17.273  67.528  1.00  0.00     0.000 HD 
BRANCH   8  10
HETATM   10  C   UNL     1     -10.187  15.644  66.935  1.00  0.00    -0.281 A  
HETATM   11  C   UNL     1      -9.513  14.976  67.977  1.00  0.00    -0.193 A  
HETATM   12  C   UNL     1      -9.003  15.656  69.218  1.00  0.00    -0.267 C  
HETATM   13  C   UNL     1      -9.341  13.583  67.883  1.00  0.00    -0.215 A  
HETATM   14  C   UNL     1      -9.804  12.877  66.779  1.00  0.00    -0.241 A  
HETATM   15  C   UNL     1     -10.423  13.552  65.731  1.00  0.00    -0.293 A  
HETATM   16  C   UNL     1     -10.620  14.939  65.794  1.00  0.00    -0.342 A  
HETATM   17  C   UNL     1     -11.167  15.657  64.591  1.00  0.00    -0.380 C  
ENDBRANCH   8  10
ENDBRANCH   2   6
TORSDOF 2
ENDMDL
MODEL       47
REMARK 921   NORMALIZED FREE ENERGY PREDICTED BY IDOCK:   -4.40 KCAL/MOL
REMARK 922        TOTAL FREE ENERGY PREDICTED BY IDOCK:   -5.17 KCAL/MOL
REMARK 923 INTER-LIGAND FREE ENERGY PREDICTED BY IDOCK:   -5.00 KCAL/MOL
REMARK 924 INTRA-LIGAND FREE ENERGY PREDICTED BY IDOCK:   -0.17 KCAL/MOL
REMARK 927      BINDING AFFINITY PREDICTED BY RF-SCORE:    0.00 PKD
ROOT
HETATM    1  C   UNL     1     -10.306   8.963  70.238  1.00  0.00    -0.235 C  
HETATM    2  C   UNL     1     -10.354   9.754  68.938  1.00  0.00    -0.210 C  
HETATM    3  N   UNL     1     -10.657   8.868  67.789  1.00  0.00    -0.391 NA 
HETATM    4  H1  UNL     1     -10.689   9.398  66.919  1.00  0.00     0.000 HD 
HETATM    5  H2  UNL     1     -11.515   8.337  67.939  1.00  0.00     0.000 HD 
ENDROOT
BRANCH   2   6
HETATM    6  C   UNL     1     -11.382  10.906  69.011  1.00  0.00    -0.281 C  
HETATM    7  O   UNL     1     -12.365  10.983  68.280  1.00  0.00    -0.479 OA 
HETATM    8  N   UNL     1     -11.056  11.799  70.023  1.00  0.00    -0.443 N  
HETATM    9  H   UNL     1     -10.253  11.609  70.622  1.00  0.00     0.000 HD 
BRANCH   8  10
HETATM   10  C   UNL     1     -11.819  12.965  70.235  1.00  0.00    -0.213 A  
HETATM   11  C   UNL     1     -12.832  12.984  71.214  1.00  0.00    -0.370 A  
HETATM   12  C   UNL     1     -13.255  11.779  72.008  1.00  0.00    -0.460 C  
HETATM   13  C   UNL     1     -13.463  14.208  71.507  1.00  0.00    -0.419 A  
HETATM   14  C   UNL     1     -13.113  15.373  70.834  1.00  0.00    -0.528 A  
HETATM   15  C   UNL     1     -12.147  15.335  69.834  1.00  0.00    -0.375 A  
HETATM   16  C   UNL     1     -11.491  14.136  69.521  1.00  0.00    -0.334 A  
HETATM   17  C   UNL     1     -10.552  14.098  68.346  1.00  0.00    -0.263 C  
ENDBRANCH   8  10
ENDBRANCH   2   6
TORSDOF 2
ENDMDL
MODEL       48
REMARK 921   NORMALIZED FREE ENERGY PREDICTED BY IDOCK:   -4.38 KCAL/MOL
REMARK 922        TOTAL FREE ENERGY PREDICTED BY IDOCK:   -5.15 KCAL/MOL
REMARK 923 INTER-LIGAND FREE ENERGY PREDICTED BY IDOCK:   -4.95 KCAL/MOL
REMARK 924 INTRA-LIGAND FREE ENERGY PREDICTED BY IDOCK:   -0.20 KCAL/MOL
REMARK 927      BINDING AFFINITY PREDICTED BY RF-SCORE:    0.00 PKD
ROOT
HETATM    1  C   UNL     1      -9.325  11.661  67.027  1.00  0.00    -0.186 C  
HETATM    2  C   UNL     1      -9.701  11.852  68.489  1.00  0.00    -0.169 C  
HETATM    3  N   UNL     1     -10.131  13.247  68.748  1.00  0.00    -0.415 NA 
HETATM    4  H1  UNL     1     -10.384  13.375  69.727  1.00  0.00     0.000 HD 
HETATM    5  H2  UNL     1     -10.887  13.529  68.124  1.00  0.00     0.000 HD 
ENDROOT
BRANCH   2   6
HETATM    6  C   UNL     1     -10.805  10.862  68.927  1.00  0.00    -0.219 C  
HETATM    7  O   UNL     1     -11.704  10.480  68.185  1.00  0.00    -0.431 OA 
HETATM    8  N   UNL     1     -10.613  10.454  70.241  1.00  0.00    -0.447 N  
HETATM    9  H   UNL     1      -9.793  10.778  70.753  1.00  0.00     0.000 HD 
BRANCH   8  10
HETATM   10  C   UNL     1     -11.535   9.597  70.876  1.00  0.00    -0.353 A  
HETATM   11  C   UNL     1     -12.672  10.126  71.519  1.00  0.00    -0.541 A  
HETATM   12  C   UNL     1     -12.936  11.598  71.681  1.00  0.00    -0.483 C  
HETATM   13  C   UNL     1     -13.648   9.234  72.002  1.00  0.00    -0.519 A  
HETATM   14  C   UNL     1     -13.490   7.860  71.870  1.00  0.00    -0.331 A  
HETATM   15  C   UNL     1     -12.340   7.345  71.280  1.00  0.00    -0.380 A  
HETATM   16  C   UNL     1     -11.350   8.202  70.779  1.00  0.00    -0.283 A  
HETATM   17  C   UNL     1     -10.061   7.617  70.270  1.00  0.00    -0.198 C  
ENDBRANCH   8  10
ENDBRANCH   2   6
TORSDOF 2
ENDMDL
MODEL       49
REMARK 921   NORMALIZED FREE ENERGY PREDICTED BY IDOCK:   -4.37 KCAL/MOL
REMARK 922        TOTAL FREE ENERGY PREDICTED BY IDOCK:   -5.15 KCAL/MOL
REMARK 923 INTER-LIGAND FREE ENERGY PREDICTED BY IDOCK:   -4.91 KCAL/MOL
REMARK 924 INTRA-LIGAND FREE ENERGY PREDICTED BY IDOCK:   -0.23 KCAL/MOL
REMARK 927      BINDING AFFINITY PREDICTED BY RF-SCORE:    0.00 PKD
ROOT
HETATM    1  C   UNL     1     -10.053   6.519  74.262  1.00  0.00    -0.379 C  
HETATM    2  C   UNL     1     -10.586   5.743  73.066  1.00  0.00    -0.242 C  
HETATM    3  N   UNL     1     -11.610   4.758  73.488  1.00  0.00    -0.392 NA 
HETATM    4  H1  UNL     1     -11.968   4.238  72.687  1.00  0.00     0.000 HD 
HETATM    5  H2  UNL     1     -12.362   5.200  74.017  1.00  0.00     0.000 HD 
ENDROOT
BRANCH   2   6
HETATM    6  C   UNL     1     -11.164   6.686  71.987  1.00  0.00    -0.266 C  
HETATM    7  O   UNL     1     -11.705   6.288  70.960  1.00  0.00    -0.319 OA 
HETATM    8  N   UNL     1     -11.016   8.016  72.359  1.00  0.00    -0.310 N  
HETATM    9  H   UNL     1     -10.612   8.241  73.268  1.00  0.00     0.000 HD 
BRANCH   8  10
HETATM   10  C   UNL     1     -11.415   9.059  71.499  1.00  0.00    -0.337 A  
HETATM   11  C   UNL     1     -12.710   9.605  71.596  1.00  0.00    -0.499 A  
HETATM   12  C   UNL     1     -13.780   9.071  72.508  1.00  0.00    -0.499 C  
HETATM   13  C   UNL     1     -13.019  10.747  70.833  1.00  0.00    -0.385 A  
HETATM   14  C   UNL     1     -12.077  11.316  69.983  1.00  0.00    -0.425 A  
HETATM   15  C   UNL     1     -10.817  10.740  69.855  1.00  0.00    -0.264 A  
HETATM   16  C   UNL     1     -10.471   9.607  70.606  1.00  0.00    -0.379 A  
HETATM   17  C   UNL     1      -9.154   8.929  70.346  1.00  0.00    -0.217 C  
ENDBRANCH   8  10
ENDBRANCH   2   6
TORSDOF 2
ENDMDL
MODEL       50
REMARK 921   NORMALIZED FREE ENERGY PREDICTED BY IDOCK:   -4.36 KCAL/MOL
REMARK 922        TOTAL FREE ENERGY PREDICTED BY IDOCK:   -5.13 KCAL/MOL
REMARK 923 INTER-LIGAND FREE ENERGY PREDICTED BY IDOCK:   -4.91 KCAL/MOL
REMARK 924 INTRA-LIGAND FREE ENERGY PREDICTED BY IDOCK:   -0.22 KCAL/MOL
REMARK 927      BINDING AFFINITY PREDICTED BY RF-SCORE:    0.00 PKD
ROOT
HETATM    1  C   UNL     1      -8.773   7.340  67.806  1.00  0.00    -0.126 C  
HETATM    2  C   UNL     1      -9.964   8.124  67.272  1.00  0.00    -0.218 C  
HETATM    3  N   UNL     1     -11.223   7.364  67.456  1.00  0.00    -0.509 NA 
HETATM    4  H1  UNL     1     -12.021   7.890  67.099  1.00  0.00     0.000 HD 
HETATM    5  H2  UNL     1     -11.358   7.088  68.428  1.00  0.00     0.000 HD 
ENDROOT
BRANCH   2   6
HETATM    6  C   UNL     1     -10.075   9.514  67.940  1.00  0.00    -0.191 C  
HETATM    7  O   UNL     1      -9.108  10.151  68.344  1.00  0.00    -0.128 OA 
HETATM    8  N   UNL     1     -11.397   9.938  67.983  1.00  0.00    -0.518 N  
HETATM    9  H   UNL     1     -12.124   9.363  67.558  1.00  0.00     0.000 HD 
BRANCH   8  10
HETATM   10  C   UNL     1     -11.749  11.153  68.606  1.00  0.00    -0.320 A  
HETATM   11  C   UNL     1     -12.022  11.192  69.988  1.00  0.00    -0.447 A  
HETATM   12  C   UNL     1     -12.076   9.972  70.867  1.00  0.00    -0.448 C  
HETATM   13  C   UNL     1     -12.213  12.444  70.602  1.00  0.00    -0.368 A  
HETATM   14  C   UNL     1     -12.155  13.620  69.863  1.00  0.00    -0.406 A  
HETATM   15  C   UNL     1     -11.936  13.569  68.490  1.00  0.00    -0.379 A  
HETATM   16  C   UNL     1     -11.732  12.340  67.845  1.00  0.00    -0.410 A  
HETATM   17  C   UNL     1     -11.633  12.307  66.345  1.00  0.00    -0.445 C  
ENDBRANCH   8  10
ENDBRANCH   2   6
TORSDOF 2
ENDMDL
MODEL       51
REMARK 921   NORMALIZED FREE ENERGY PREDICTED BY IDOCK:   -4.33 KCAL/MOL
REMARK 922        TOTAL FREE ENERGY PREDICTED BY IDOCK:   -5.10 KCAL/MOL
REMARK 923 INTER-LIGAND FREE ENERGY PREDICTED BY IDOCK:   -4.84 KCAL/MOL
REMARK 924 INTRA-LIGAND FREE ENERGY PREDICTED BY IDOCK:   -0.25 KCAL/MOL
REMARK 927      BINDING AFFINITY PREDICTED BY RF-SCORE:    0.00 PKD
ROOT
HETATM    1  C   UNL     1     -14.393   7.174  71.508  1.00  0.00    -0.503 C  
HETATM    2  C   UNL     1     -13.723   8.512  71.791  1.00  0.00    -0.407 C  
HETATM    3  N   UNL     1     -14.040   8.983  73.160  1.00  0.00    -1.223 NA 
HETATM    4  H1  UNL     1     -13.591   9.879  73.350  1.00  0.00     0.000 HD 
HETATM    5  H2  UNL     1     -13.800   8.285  73.864  1.00  0.00     0.000 HD 
ENDROOT
BRANCH   2   6
HETATM    6  C   UNL     1     -12.192   8.435  71.593  1.00  0.00    -0.315 C  
HETATM    7  O   UNL     1     -11.386   8.519  72.514  1.00  0.00    -0.368 OA 
HETATM    8  N   UNL     1     -11.874   8.227  70.257  1.00  0.00    -0.456 N  
HETATM    9  H   UNL     1     -12.623   8.103  69.576  1.00  0.00     0.000 HD 
BRANCH   8  10
HETATM   10  C   UNL     1     -10.532   8.186  69.828  1.00  0.00    -0.227 A  
HETATM   11  C   UNL     1      -9.854   9.376  69.496  1.00  0.00    -0.192 A  
HETATM   12  C   UNL     1     -10.506  10.731  69.457  1.00  0.00    -0.205 C  
HETATM   13  C   UNL     1      -8.474   9.312  69.227  1.00  0.00    -0.137 A  
HETATM   14  C   UNL     1      -7.792   8.101  69.266  1.00  0.00    -0.110 A  
HETATM   15  C   UNL     1      -8.480   6.924  69.545  1.00  0.00    -0.133 A  
HETATM   16  C   UNL     1      -9.853   6.950  69.827  1.00  0.00    -0.177 A  
HETATM   17  C   UNL     1     -10.593   5.651  69.990  1.00  0.00    -0.388 C  
ENDBRANCH   8  10
ENDBRANCH   2   6
TORSDOF 2
ENDMDL
MODEL       52
REMARK 921   NORMALIZED FREE ENERGY PREDICTED BY IDOCK:   -4.32 KCAL/MOL
REMARK 922        TOTAL FREE ENERGY PREDICTED BY IDOCK:   -5.09 KCAL/MOL
REMARK 923 INTER-LIGAND FREE ENERGY PREDICTED BY IDOCK:   -4.91 KCAL/MOL
REMARK 924 INTRA-LIGAND FREE ENERGY PREDICTED BY IDOCK:   -0.18 KCAL/MOL
REMARK 927      BINDING AFFINITY PREDICTED BY RF-SCORE:    0.00 PKD
ROOT
HETATM    1  C   UNL     1     -12.296  12.417  70.548  1.00  0.00    -0.346 C  
HETATM    2  C   UNL     1     -11.450  11.758  69.466  1.00  0.00    -0.295 C  
HETATM    3  N   UNL     1     -12.285  10.902  68.590  1.00  0.00    -0.810 NA 
HETATM    4  H1  UNL     1     -11.719  10.461  67.865  1.00  0.00     0.000 HD 
HETATM    5  H2  UNL     1     -13.069  11.421  68.193  1.00  0.00     0.000 HD 
ENDROOT
BRANCH   2   6
HETATM    6  C   UNL     1     -10.689  12.805  68.622  1.00  0.00    -0.246 C  
HETATM    7  O   UNL     1      -9.508  12.694  68.310  1.00  0.00    -0.213 OA 
HETATM    8  N   UNL     1     -11.528  13.848  68.250  1.00  0.00    -0.291 N  
HETATM    9  H   UNL     1     -12.515  13.813  68.503  1.00  0.00     0.000 HD 
BRANCH   8  10
HETATM   10  C   UNL     1     -11.035  14.952  67.526  1.00  0.00    -0.302 A  
HETATM   11  C   UNL     1     -10.878  14.874  66.128  1.00  0.00    -0.327 A  
HETATM   12  C   UNL     1     -11.100  13.620  65.327  1.00  0.00    -0.307 C  
HETATM   13  C   UNL     1     -10.536  16.043  65.422  1.00  0.00    -0.428 A  
HETATM   14  C   UNL     1     -10.337  17.248  66.086  1.00  0.00    -0.320 A  
HETATM   15  C   UNL     1     -10.445  17.304  67.472  1.00  0.00    -0.356 A  
HETATM   16  C   UNL     1     -10.792  16.162  68.208  1.00  0.00    -0.326 A  
HETATM   17  C   UNL     1     -10.768  16.222  69.711  1.00  0.00    -0.345 C  
ENDBRANCH   8  10
ENDBRANCH   2   6
TORSDOF 2
ENDMDL
MODEL       53
REMARK 921   NORMALIZED FREE ENERGY PREDICTED BY IDOCK:   -4.32 KCAL/MOL
REMARK 922        TOTAL FREE ENERGY PREDICTED BY IDOCK:   -5.09 KCAL/MOL
REMARK 923 INTER-LIGAND FREE ENERGY PREDICTED BY IDOCK:   -4.86 KCAL/MOL
REMARK 924 INTRA-LIGAND FREE ENERGY PREDICTED BY IDOCK:   -0.23 KCAL/MOL
REMARK 927      BINDING AFFINITY PREDICTED BY RF-SCORE:    0.00 PKD
ROOT
HETATM    1  C   UNL     1     -10.186  20.012  68.154  1.00  0.00    -0.535 C  
HETATM    2  C   UNL     1     -10.579  19.548  66.759  1.00  0.00    -0.488 C  
HETATM    3  N   UNL     1      -9.851  20.316  65.721  1.00  0.00    -0.589 NA 
HETATM    4  H1  UNL     1     -10.113  20.005  64.786  1.00  0.00     0.000 HD 
HETATM    5  H2  UNL     1      -8.842  20.276  65.862  1.00  0.00     0.000 HD 
ENDROOT
BRANCH   2   6
HETATM    6  C   UNL     1     -10.334  18.033  66.572  1.00  0.00    -0.373 C  
HETATM    7  O   UNL     1     -10.531  17.441  65.516  1.00  0.00    -0.624 OA 
HETATM    8  N   UNL     1      -9.838  17.464  67.738  1.00  0.00    -0.274 N  
HETATM    9  H   UNL     1      -9.644  18.057  68.544  1.00  0.00     0.000 HD 
BRANCH   8  10
HETATM   10  C   UNL     1      -9.598  16.077  67.823  1.00  0.00    -0.219 A  
HETATM   11  C   UNL     1     -10.579  15.216  68.354  1.00  0.00    -0.238 A  
HETATM   12  C   UNL     1     -11.871  15.689  68.961  1.00  0.00    -0.379 C  
HETATM   13  C   UNL     1     -10.368  13.826  68.276  1.00  0.00    -0.247 A  
HETATM   14  C   UNL     1      -9.211  13.308  67.707  1.00  0.00    -0.209 A  
HETATM   15  C   UNL     1      -8.225  14.167  67.232  1.00  0.00    -0.200 A  
HETATM   16  C   UNL     1      -8.403  15.557  67.284  1.00  0.00    -0.218 A  
HETATM   17  C   UNL     1      -7.265  16.458  66.889  1.00  0.00    -0.266 C  
ENDBRANCH   8  10
ENDBRANCH   2   6
TORSDOF 2
ENDMDL
MODEL       54
REMARK 921   NORMALIZED FREE ENERGY PREDICTED BY IDOCK:   -4.29 KCAL/MOL
REMARK 922        TOTAL FREE ENERGY PREDICTED BY IDOCK:   -5.06 KCAL/MOL
REMARK 923 INTER-LIGAND FREE ENERGY PREDICTED BY IDOCK:   -4.85 KCAL/MOL
REMARK 924 INTRA-LIGAND FREE ENERGY PREDICTED BY IDOCK:   -0.21 KCAL/MOL
REMARK 927      BINDING AFFINITY PREDICTED BY RF-SCORE:    0.00 PKD
ROOT
HETATM    1  C   UNL     1     -13.237   9.961  70.971  1.00  0.00    -0.375 C  
HETATM    2  C   UNL     1     -12.710   9.327  72.251  1.00  0.00    -0.363 C  
HETATM    3  N   UNL     1     -13.787   8.597  72.962  1.00  0.00    -0.959 NA 
HETATM    4  H1  UNL     1     -13.434   8.171  73.819  1.00  0.00     0.000 HD 
HETATM    5  H2  UNL     1     -14.239   7.911  72.359  1.00  0.00     0.000 HD 
ENDROOT
BRANCH   2   6
HETATM    6  C   UNL     1     -11.520   8.381  71.969  1.00  0.00    -0.349 C  
HETATM    7  O   UNL     1     -10.351   8.678  72.196  1.00  0.00    -0.316 OA 
HETATM    8  N   UNL     1     -11.962   7.164  71.466  1.00  0.00    -0.306 N  
HETATM    9  H   UNL     1     -12.963   6.990  71.378  1.00  0.00     0.000 HD 
BRANCH   8  10
HETATM   10  C   UNL     1     -11.047   6.165  71.076  1.00  0.00    -0.297 A  
HETATM   11  C   UNL     1     -10.531   5.263  72.027  1.00  0.00    -0.283 A  
HETATM   12  C   UNL     1     -10.805   5.350  73.503  1.00  0.00    -0.342 C  
HETATM   13  C   UNL     1      -9.747   4.184  71.576  1.00  0.00    -0.243 A  
HETATM   14  C   UNL     1      -9.466   4.019  70.224  1.00  0.00    -0.255 A  
HETATM   15  C   UNL     1      -9.938   4.944  69.298  1.00  0.00    -0.270 A  
HETATM   16  C   UNL     1     -10.729   6.026  69.709  1.00  0.00    -0.399 A  
HETATM   17  C   UNL     1     -11.109   7.080  68.706  1.00  0.00    -0.092 C  
ENDBRANCH   8  10
ENDBRANCH   2   6
TORSDOF 2
ENDMDL
MODEL       55
REMARK 921   NORMALIZED FREE ENERGY PREDICTED BY IDOCK:   -4.27 KCAL/MOL
REMARK 922        TOTAL FREE ENERGY PREDICTED BY IDOCK:   -5.04 KCAL/MOL
REMARK 923 INTER-LIGAND FREE ENERGY PREDICTED BY IDOCK:   -4.82 KCAL/MOL
REMARK 924 INTRA-LIGAND FREE ENERGY PREDICTED BY IDOCK:   -0.21 KCAL/MOL
REMARK 927      BINDING AFFINITY PREDICTED BY RF-SCORE:    0.00 PKD
ROOT
HETATM    1  C   UNL     1     -12.333  12.925  64.032  1.00  0.00    -0.457 C  
HETATM    2  C   UNL     1     -10.963  13.450  64.439  1.00  0.00    -0.395 C  
HETATM    3  N   UNL     1     -10.946  14.932  64.447  1.00  0.00    -0.629 NA 
HETATM    4  H1  UNL     1     -10.029  15.284  64.720  1.00  0.00     0.000 HD 
HETATM    5  H2  UNL     1     -11.686  15.314  65.036  1.00  0.00     0.000 HD 
ENDROOT
BRANCH   2   6
HETATM    6  C   UNL     1     -10.530  12.902  65.818  1.00  0.00    -0.278 C  
HETATM    7  O   UNL     1      -9.501  13.246  66.390  1.00  0.00    -0.258 OA 
HETATM    8  N   UNL     1     -11.473  12.012  66.316  1.00  0.00    -0.360 N  
HETATM    9  H   UNL     1     -12.332  11.844  65.793  1.00  0.00     0.000 HD 
BRANCH   8  10
HETATM   10  C   UNL     1     -11.260  11.338  67.536  1.00  0.00    -0.291 A  
HETATM   11  C   UNL     1     -11.603  11.950  68.757  1.00  0.00    -0.366 A  
HETATM   12  C   UNL     1     -12.098  13.365  68.877  1.00  0.00    -0.289 C  
HETATM   13  C   UNL     1     -11.525  11.188  69.938  1.00  0.00    -0.386 A  
HETATM   14  C   UNL     1     -11.099   9.865  69.910  1.00  0.00    -0.318 A  
HETATM   15  C   UNL     1     -10.714   9.284  68.706  1.00  0.00    -0.184 A  
HETATM   16  C   UNL     1     -10.786  10.010  67.508  1.00  0.00    -0.326 A  
HETATM   17  C   UNL     1     -10.236   9.401  66.247  1.00  0.00    -0.284 C  
ENDBRANCH   8  10
ENDBRANCH   2   6
TORSDOF 2
ENDMDL
MODEL       56
REMARK 921   NORMALIZED FREE ENERGY PREDICTED BY IDOCK:   -4.27 KCAL/MOL
REMARK 922        TOTAL FREE ENERGY PREDICTED BY IDOCK:   -5.03 KCAL/MOL
REMARK 923 INTER-LIGAND FREE ENERGY PREDICTED BY IDOCK:   -4.80 KCAL/MOL
REMARK 924 INTRA-LIGAND FREE ENERGY PREDICTED BY IDOCK:   -0.23 KCAL/MOL
REMARK 927      BINDING AFFINITY PREDICTED BY RF-SCORE:    0.00 PKD
ROOT
HETATM    1  C   UNL     1      -9.008   9.890  62.385  1.00  0.00    -0.289 C  
HETATM    2  C   UNL     1      -8.474   9.815  63.808  1.00  0.00    -0.184 C  
HETATM    3  N   UNL     1      -7.178  10.524  63.925  1.00  0.00    -0.340 NA 
HETATM    4  H1  UNL     1      -6.820  10.475  64.879  1.00  0.00     0.000 HD 
HETATM    5  H2  UNL     1      -7.245  11.488  63.598  1.00  0.00     0.000 HD 
ENDROOT
BRANCH   2   6
HETATM    6  C   UNL     1      -9.488  10.382  64.827  1.00  0.00    -0.273 C  
HETATM    7  O   UNL     1     -10.133   9.682  65.601  1.00  0.00    -0.296 OA 
HETATM    8  N   UNL     1      -9.533  11.769  64.763  1.00  0.00    -0.428 N  
HETATM    9  H   UNL     1      -8.905  12.263  64.130  1.00  0.00     0.000 HD 
BRANCH   8  10
HETATM   10  C   UNL     1     -10.435  12.503  65.559  1.00  0.00    -0.279 A  
HETATM   11  C   UNL     1     -10.071  12.906  66.859  1.00  0.00    -0.241 A  
HETATM   12  C   UNL     1      -8.787  12.508  67.533  1.00  0.00    -0.184 C  
HETATM   13  C   UNL     1     -10.932  13.770  67.562  1.00  0.00    -0.285 A  
HETATM   14  C   UNL     1     -12.127  14.204  67.000  1.00  0.00    -0.449 A  
HETATM   15  C   UNL     1     -12.502  13.760  65.736  1.00  0.00    -0.527 A  
HETATM   16  C   UNL     1     -11.667  12.906  65.002  1.00  0.00    -0.381 A  
HETATM   17  C   UNL     1     -12.160  12.337  63.700  1.00  0.00    -0.648 C  
ENDBRANCH   8  10
ENDBRANCH   2   6
TORSDOF 2
ENDMDL
MODEL       57
REMARK 921   NORMALIZED FREE ENERGY PREDICTED BY IDOCK:   -4.27 KCAL/MOL
REMARK 922        TOTAL FREE ENERGY PREDICTED BY IDOCK:   -5.03 KCAL/MOL
REMARK 923 INTER-LIGAND FREE ENERGY PREDICTED BY IDOCK:   -4.88 KCAL/MOL
REMARK 924 INTRA-LIGAND FREE ENERGY PREDICTED BY IDOCK:   -0.16 KCAL/MOL
REMARK 927      BINDING AFFINITY PREDICTED BY RF-SCORE:    0.00 PKD
ROOT
HETATM    1  C   UNL     1     -12.582  12.637  64.656  1.00  0.00    -0.517 C  
HETATM    2  C   UNL     1     -11.728  13.883  64.466  1.00  0.00    -0.410 C  
HETATM    3  N   UNL     1     -12.492  14.947  63.772  1.00  0.00    -1.062 NA 
HETATM    4  H1  UNL     1     -11.920  15.782  63.644  1.00  0.00     0.000 HD 
HETATM    5  H2  UNL     1     -13.366  15.159  64.253  1.00  0.00     0.000 HD 
ENDROOT
BRANCH   2   6
HETATM    6  C   UNL     1     -11.181  14.410  65.812  1.00  0.00    -0.326 C  
HETATM    7  O   UNL     1     -11.816  14.372  66.862  1.00  0.00    -0.392 OA 
HETATM    8  N   UNL     1      -9.885  14.888  65.668  1.00  0.00    -0.366 N  
HETATM    9  H   UNL     1      -9.419  14.812  64.764  1.00  0.00     0.000 HD 
BRANCH   8  10
HETATM   10  C   UNL     1      -9.204  15.477  66.753  1.00  0.00    -0.248 A  
HETATM   11  C   UNL     1      -8.397  14.690  67.598  1.00  0.00    -0.186 A  
HETATM   12  C   UNL     1      -8.283  13.193  67.495  1.00  0.00    -0.183 C  
HETATM   13  C   UNL     1      -7.609  15.335  68.570  1.00  0.00    -0.119 A  
HETATM   14  C   UNL     1      -7.639  16.717  68.713  1.00  0.00    -0.240 A  
HETATM   15  C   UNL     1      -8.478  17.482  67.909  1.00  0.00    -0.230 A  
HETATM   16  C   UNL     1      -9.270  16.875  66.924  1.00  0.00    -0.253 A  
HETATM   17  C   UNL     1     -10.265  17.710  66.165  1.00  0.00    -0.345 C  
ENDBRANCH   8  10
ENDBRANCH   2   6
TORSDOF 2
ENDMDL
MODEL       58
REMARK 921   NORMALIZED FREE ENERGY PREDICTED BY IDOCK:   -4.26 KCAL/MOL
REMARK 922        TOTAL FREE ENERGY PREDICTED BY IDOCK:   -5.02 KCAL/MOL
REMARK 923 INTER-LIGAND FREE ENERGY PREDICTED BY IDOCK:   -4.80 KCAL/MOL
REMARK 924 INTRA-LIGAND FREE ENERGY PREDICTED BY IDOCK:   -0.23 KCAL/MOL
REMARK 927      BINDING AFFINITY PREDICTED BY RF-SCORE:    0.00 PKD
ROOT
HETATM    1  C   UNL     1     -10.866   6.827  69.319  1.00  0.00    -0.303 C  
HETATM    2  C   UNL     1     -10.250   7.364  68.035  1.00  0.00    -0.191 C  
HETATM    3  N   UNL     1     -11.081   7.009  66.860  1.00  0.00    -0.627 NA 
HETATM    4  H1  UNL     1     -10.669   7.369  66.000  1.00  0.00     0.000 HD 
HETATM    5  H2  UNL     1     -12.046   7.320  66.974  1.00  0.00     0.000 HD 
ENDROOT
BRANCH   2   6
HETATM    6  C   UNL     1     -10.041   8.894  68.100  1.00  0.00    -0.189 C  
HETATM    7  O   UNL     1      -8.960   9.420  68.341  1.00  0.00    -0.128 OA 
HETATM    8  N   UNL     1     -11.223   9.568  67.817  1.00  0.00    -0.454 N  
HETATM    9  H   UNL     1     -12.055   9.038  67.561  1.00  0.00     0.000 HD 
BRANCH   8  10
HETATM   10  C   UNL     1     -11.288  10.975  67.879  1.00  0.00    -0.311 A  
HETATM   11  C   UNL     1     -11.069  11.749  66.722  1.00  0.00    -0.360 A  
HETATM   12  C   UNL     1     -10.648  11.177  65.397  1.00  0.00    -0.291 C  
HETATM   13  C   UNL     1     -11.298  13.136  66.787  1.00  0.00    -0.353 A  
HETATM   14  C   UNL     1     -11.711  13.740  67.969  1.00  0.00    -0.390 A  
HETATM   15  C   UNL     1     -11.876  12.975  69.119  1.00  0.00    -0.360 A  
HETATM   16  C   UNL     1     -11.665  11.589  69.091  1.00  0.00    -0.395 A  
HETATM   17  C   UNL     1     -11.718  10.812  70.378  1.00  0.00    -0.445 C  
ENDBRANCH   8  10
ENDBRANCH   2   6
TORSDOF 2
ENDMDL
MODEL       59
REMARK 921   NORMALIZED FREE ENERGY PREDICTED BY IDOCK:   -4.24 KCAL/MOL
REMARK 922        TOTAL FREE ENERGY PREDICTED BY IDOCK:   -5.00 KCAL/MOL
REMARK 923 INTER-LIGAND FREE ENERGY PREDICTED BY IDOCK:   -4.83 KCAL/MOL
REMARK 924 INTRA-LIGAND FREE ENERGY PREDICTED BY IDOCK:   -0.17 KCAL/MOL
REMARK 927      BINDING AFFINITY PREDICTED BY RF-SCORE:    0.00 PKD
ROOT
HETATM    1  C   UNL     1      -9.121   9.922  67.534  1.00  0.00    -0.145 C  
HETATM    2  C   UNL     1     -10.635  10.027  67.415  1.00  0.00    -0.271 C  
HETATM    3  N   UNL     1     -11.297   9.568  68.659  1.00  0.00    -0.464 NA 
HETATM    4  H1  UNL     1     -12.312   9.639  68.580  1.00  0.00     0.000 HD 
HETATM    5  H2  UNL     1     -10.948  10.066  69.477  1.00  0.00     0.000 HD 
ENDROOT
BRANCH   2   6
HETATM    6  C   UNL     1     -11.081  11.467  67.072  1.00  0.00    -0.303 C  
HETATM    7  O   UNL     1     -12.056  12.012  67.579  1.00  0.00    -0.555 OA 
HETATM    8  N   UNL     1     -10.216  12.049  66.154  1.00  0.00    -0.220 N  
HETATM    9  H   UNL     1      -9.392  11.534  65.844  1.00  0.00     0.000 HD 
BRANCH   8  10
HETATM   10  C   UNL     1     -10.459  13.341  65.646  1.00  0.00    -0.281 A  
HETATM   11  C   UNL     1     -11.459  13.547  64.675  1.00  0.00    -0.381 A  
HETATM   12  C   UNL     1     -12.246  12.438  64.032  1.00  0.00    -0.579 C  
HETATM   13  C   UNL     1     -11.781  14.868  64.310  1.00  0.00    -0.261 A  
HETATM   14  C   UNL     1     -11.116  15.949  64.875  1.00  0.00    -0.400 A  
HETATM   15  C   UNL     1     -10.095  15.734  65.796  1.00  0.00    -0.399 A  
HETATM   16  C   UNL     1      -9.753  14.433  66.191  1.00  0.00    -0.335 A  
HETATM   17  C   UNL     1      -8.558  14.227  67.081  1.00  0.00    -0.234 C  
ENDBRANCH   8  10
ENDBRANCH   2   6
TORSDOF 2
ENDMDL
MODEL       60
REMARK 921   NORMALIZED FREE ENERGY PREDICTED BY IDOCK:   -4.22 KCAL/MOL
REMARK 922        TOTAL FREE ENERGY PREDICTED BY IDOCK:   -4.98 KCAL/MOL
REMARK 923 INTER-LIGAND FREE ENERGY PREDICTED BY IDOCK:   -4.88 KCAL/MOL
REMARK 924 INTRA-LIGAND FREE ENERGY PREDICTED BY IDOCK:   -0.10 KCAL/MOL
REMARK 927      BINDING AFFINITY PREDICTED BY RF-SCORE:    0.00 PKD
ROOT
HETATM    1  C   UNL     1     -12.215  13.645  66.196  1.00  0.00    -0.490 C  
HETATM    2  C   UNL     1     -11.751  12.623  67.225  1.00  0.00    -0.370 C  
HETATM    3  N   UNL     1     -10.632  11.809  66.695  1.00  0.00    -0.231 NA 
HETATM    4  H1  UNL     1     -10.321  11.125  67.385  1.00  0.00     0.000 HD 
HETATM    5  H2  UNL     1      -9.862  12.393  66.370  1.00  0.00     0.000 HD 
ENDROOT
BRANCH   2   6
HETATM    6  C   UNL     1     -11.339  13.300  68.552  1.00  0.00    -0.284 C  
HETATM    7  O   UNL     1     -10.194  13.284  68.993  1.00  0.00    -0.079 OA 
HETATM    8  N   UNL     1     -12.422  13.941  69.139  1.00  0.00    -0.388 N  
HETATM    9  H   UNL     1     -13.320  13.954  68.657  1.00  0.00     0.000 HD 
BRANCH   8  10
HETATM   10  C   UNL     1     -12.297  14.576  70.392  1.00  0.00    -0.338 A  
HETATM   11  C   UNL     1     -11.728  15.861  70.485  1.00  0.00    -0.394 A  
HETATM   12  C   UNL     1     -11.120  16.596  69.322  1.00  0.00    -0.199 C  
HETATM   13  C   UNL     1     -11.765  16.527  71.725  1.00  0.00    -0.242 A  
HETATM   14  C   UNL     1     -12.331  15.925  72.843  1.00  0.00    -0.593 A  
HETATM   15  C   UNL     1     -12.845  14.635  72.754  1.00  0.00    -0.530 A  
HETATM   16  C   UNL     1     -12.833  13.945  71.534  1.00  0.00    -0.441 A  
HETATM   17  C   UNL     1     -13.270  12.506  71.500  1.00  0.00    -0.298 C  
ENDBRANCH   8  10
ENDBRANCH   2   6
TORSDOF 2
ENDMDL
MODEL       61
REMARK 921   NORMALIZED FREE ENERGY PREDICTED BY IDOCK:   -4.22 KCAL/MOL
REMARK 922        TOTAL FREE ENERGY PREDICTED BY IDOCK:   -4.97 KCAL/MOL
REMARK 923 INTER-LIGAND FREE ENERGY PREDICTED BY IDOCK:   -4.74 KCAL/MOL
REMARK 924 INTRA-LIGAND FREE ENERGY PREDICTED BY IDOCK:   -0.24 KCAL/MOL
REMARK 927      BINDING AFFINITY PREDICTED BY RF-SCORE:    0.00 PKD
ROOT
HETATM    1  C   UNL     1      -9.243  10.277  63.251  1.00  0.00    -0.321 C  
HETATM    2  C   UNL     1      -9.991  11.576  63.514  1.00  0.00    -0.399 C  
HETATM    3  N   UNL     1     -11.387  11.491  63.022  1.00  0.00    -0.834 NA 
HETATM    4  H1  UNL     1     -11.889  12.361  63.199  1.00  0.00     0.000 HD 
HETATM    5  H2  UNL     1     -11.877  10.687  63.415  1.00  0.00     0.000 HD 
ENDROOT
BRANCH   2   6
HETATM    6  C   UNL     1      -9.975  11.949  65.014  1.00  0.00    -0.248 C  
HETATM    7  O   UNL     1      -8.961  12.286  65.617  1.00  0.00     0.087 OA 
HETATM    8  N   UNL     1     -11.252  11.880  65.557  1.00  0.00    -0.317 N  
HETATM    9  H   UNL     1     -12.043  11.655  64.953  1.00  0.00     0.000 HD 
BRANCH   8  10
HETATM   10  C   UNL     1     -11.471  12.119  66.929  1.00  0.00    -0.351 A  
HETATM   11  C   UNL     1     -11.303  11.081  67.867  1.00  0.00    -0.381 A  
HETATM   12  C   UNL     1     -11.001   9.655  67.496  1.00  0.00    -0.166 C  
HETATM   13  C   UNL     1     -11.374  11.394  69.237  1.00  0.00    -0.355 A  
HETATM   14  C   UNL     1     -11.626  12.693  69.663  1.00  0.00    -0.321 A  
HETATM   15  C   UNL     1     -11.842  13.702  68.729  1.00  0.00    -0.395 A  
HETATM   16  C   UNL     1     -11.769  13.429  67.355  1.00  0.00    -0.415 A  
HETATM   17  C   UNL     1     -12.140  14.506  66.373  1.00  0.00    -0.320 C  
ENDBRANCH   8  10
ENDBRANCH   2   6
TORSDOF 2
ENDMDL
MODEL       62
REMARK 921   NORMALIZED FREE ENERGY PREDICTED BY IDOCK:   -4.20 KCAL/MOL
REMARK 922        TOTAL FREE ENERGY PREDICTED BY IDOCK:   -4.95 KCAL/MOL
REMARK 923 INTER-LIGAND FREE ENERGY PREDICTED BY IDOCK:   -4.76 KCAL/MOL
REMARK 924 INTRA-LIGAND FREE ENERGY PREDICTED BY IDOCK:   -0.19 KCAL/MOL
REMARK 927      BINDING AFFINITY PREDICTED BY RF-SCORE:    0.00 PKD
ROOT
HETATM    1  C   UNL     1     -11.756  10.949  69.754  1.00  0.00    -0.413 C  
HETATM    2  C   UNL     1     -11.992   9.952  70.880  1.00  0.00    -0.345 C  
HETATM    3  N   UNL     1     -13.406   9.510  70.909  1.00  0.00    -0.589 NA 
HETATM    4  H1  UNL     1     -13.564   8.842  71.663  1.00  0.00     0.000 HD 
HETATM    5  H2  UNL     1     -13.703   9.137  70.008  1.00  0.00     0.000 HD 
ENDROOT
BRANCH   2   6
HETATM    6  C   UNL     1     -11.052   8.730  70.765  1.00  0.00    -0.260 C  
HETATM    7  O   UNL     1      -9.849   8.777  70.998  1.00  0.00    -0.192 OA 
HETATM    8  N   UNL     1     -11.761   7.592  70.402  1.00  0.00    -0.478 N  
HETATM    9  H   UNL     1     -12.774   7.643  70.298  1.00  0.00     0.000 HD 
BRANCH   8  10
HETATM   10  C   UNL     1     -11.101   6.367  70.176  1.00  0.00    -0.365 A  
HETATM   11  C   UNL     1     -10.702   6.003  68.874  1.00  0.00    -0.384 A  
HETATM   12  C   UNL     1     -11.034   6.799  67.642  1.00  0.00    -0.346 C  
HETATM   13  C   UNL     1      -9.908   4.853  68.710  1.00  0.00    -0.231 A  
HETATM   14  C   UNL     1      -9.538   4.077  69.801  1.00  0.00    -0.280 A  
HETATM   15  C   UNL     1      -9.978   4.415  71.077  1.00  0.00    -0.242 A  
HETATM   16  C   UNL     1     -10.764   5.559  71.281  1.00  0.00    -0.288 A  
HETATM   17  C   UNL     1     -11.336   5.823  72.647  1.00  0.00    -0.349 C  
ENDBRANCH   8  10
ENDBRANCH   2   6
TORSDOF 2
ENDMDL
MODEL       63
REMARK 921   NORMALIZED FREE ENERGY PREDICTED BY IDOCK:   -4.20 KCAL/MOL
REMARK 922        TOTAL FREE ENERGY PREDICTED BY IDOCK:   -4.95 KCAL/MOL
REMARK 923 INTER-LIGAND FREE ENERGY PREDICTED BY IDOCK:   -4.67 KCAL/MOL
REMARK 924 INTRA-LIGAND FREE ENERGY PREDICTED BY IDOCK:   -0.28 KCAL/MOL
REMARK 927      BINDING AFFINITY PREDICTED BY RF-SCORE:    0.00 PKD
ROOT
HETATM    1  C   UNL     1     -12.221  12.652  65.451  1.00  0.00    -0.517 C  
HETATM    2  C   UNL     1     -11.445  13.432  66.502  1.00  0.00    -0.341 C  
HETATM    3  N   UNL     1     -12.334  14.370  67.229  1.00  0.00    -0.594 NA 
HETATM    4  H1  UNL     1     -11.814  14.893  67.934  1.00  0.00     0.000 HD 
HETATM    5  H2  UNL     1     -13.138  13.890  67.632  1.00  0.00     0.000 HD 
ENDROOT
BRANCH   2   6
HETATM    6  C   UNL     1     -10.733  12.490  67.500  1.00  0.00    -0.225 C  
HETATM    7  O   UNL     1      -9.597  12.685  67.922  1.00  0.00    -0.197 OA 
HETATM    8  N   UNL     1     -11.561  11.436  67.865  1.00  0.00    -0.285 N  
HETATM    9  H   UNL     1     -12.516  11.402  67.509  1.00  0.00     0.000 HD 
BRANCH   8  10
HETATM   10  C   UNL     1     -11.101  10.415  68.720  1.00  0.00    -0.250 A  
HETATM   11  C   UNL     1     -10.375   9.325  68.200  1.00  0.00    -0.261 A  
HETATM   12  C   UNL     1     -10.135   9.099  66.732  1.00  0.00    -0.341 C  
HETATM   13  C   UNL     1      -9.797   8.410  69.100  1.00  0.00    -0.183 A  
HETATM   14  C   UNL     1      -9.952   8.560  70.473  1.00  0.00    -0.214 A  
HETATM   15  C   UNL     1     -10.713   9.611  70.975  1.00  0.00    -0.393 A  
HETATM   16  C   UNL     1     -11.297  10.547  70.110  1.00  0.00    -0.400 A  
HETATM   17  C   UNL     1     -12.223  11.590  70.673  1.00  0.00    -0.473 C  
ENDBRANCH   8  10
ENDBRANCH   2   6
TORSDOF 2
ENDMDL
MODEL       64
REMARK 921   NORMALIZED FREE ENERGY PREDICTED BY IDOCK:   -4.18 KCAL/MOL
REMARK 922        TOTAL FREE ENERGY PREDICTED BY IDOCK:   -4.94 KCAL/MOL
REMARK 923 INTER-LIGAND FREE ENERGY PREDICTED BY IDOCK:   -4.74 KCAL/MOL
REMARK 924 INTRA-LIGAND FREE ENERGY PREDICTED BY IDOCK:   -0.20 KCAL/MOL
REMARK 927      BINDING AFFINITY PREDICTED BY RF-SCORE:    0.00 PKD
ROOT
HETATM    1  C   UNL     1     -10.145  13.992  67.399  1.00  0.00    -0.244 C  
HETATM    2  C   UNL     1     -11.150  15.119  67.592  1.00  0.00    -0.318 C  
HETATM    3  N   UNL     1     -12.258  14.693  68.480  1.00  0.00    -0.602 NA 
HETATM    4  H1  UNL     1     -12.932  15.448  68.610  1.00  0.00     0.000 HD 
HETATM    5  H2  UNL     1     -11.911  14.340  69.372  1.00  0.00     0.000 HD 
ENDROOT
BRANCH   2   6
HETATM    6  C   UNL     1     -10.477  16.393  68.150  1.00  0.00    -0.302 C  
HETATM    7  O   UNL     1     -10.773  16.898  69.229  1.00  0.00    -0.335 OA 
HETATM    8  N   UNL     1      -9.489  16.850  67.288  1.00  0.00    -0.239 N  
HETATM    9  H   UNL     1      -9.272  16.319  66.445  1.00  0.00     0.000 HD 
BRANCH   8  10
HETATM   10  C   UNL     1      -8.781  18.038  67.561  1.00  0.00    -0.248 A  
HETATM   11  C   UNL     1      -7.617  18.007  68.355  1.00  0.00    -0.288 A  
HETATM   12  C   UNL     1      -7.110  16.775  69.053  1.00  0.00    -0.221 C  
HETATM   13  C   UNL     1      -6.851  19.182  68.474  1.00  0.00    -0.310 A  
HETATM   14  C   UNL     1      -7.239  20.357  67.841  1.00  0.00    -0.311 A  
HETATM   15  C   UNL     1      -8.416  20.392  67.100  1.00  0.00    -0.393 A  
HETATM   16  C   UNL     1      -9.201  19.239  66.952  1.00  0.00    -0.359 A  
HETATM   17  C   UNL     1     -10.533  19.342  66.261  1.00  0.00    -0.567 C  
ENDBRANCH   8  10
ENDBRANCH   2   6
TORSDOF 2
ENDMDL
MODEL       65
REMARK 921   NORMALIZED FREE ENERGY PREDICTED BY IDOCK:   -4.14 KCAL/MOL
REMARK 922        TOTAL FREE ENERGY PREDICTED BY IDOCK:   -4.89 KCAL/MOL
REMARK 923 INTER-LIGAND FREE ENERGY PREDICTED BY IDOCK:   -4.71 KCAL/MOL
REMARK 924 INTRA-LIGAND FREE ENERGY PREDICTED BY IDOCK:   -0.17 KCAL/MOL
REMARK 927      BINDING AFFINITY PREDICTED BY RF-SCORE:    0.00 PKD
ROOT
HETATM    1  C   UNL     1      -9.816  18.184  68.126  1.00  0.00    -0.350 C  
HETATM    2  C   UNL     1     -10.601  17.788  66.883  1.00  0.00    -0.244 C  
HETATM    3  N   UNL     1     -10.462  18.813  65.821  1.00  0.00    -0.601 NA 
HETATM    4  H1  UNL     1     -10.988  18.548  64.988  1.00  0.00     0.000 HD 
HETATM    5  H2  UNL     1      -9.483  19.001  65.605  1.00  0.00     0.000 HD 
ENDROOT
BRANCH   2   6
HETATM    6  C   UNL     1     -10.165  16.404  66.351  1.00  0.00    -0.316 C  
HETATM    7  O   UNL     1      -9.174  16.231  65.649  1.00  0.00    -0.444 OA 
HETATM    8  N   UNL     1     -11.021  15.407  66.802  1.00  0.00    -0.308 N  
HETATM    9  H   UNL     1     -11.779  15.647  67.440  1.00  0.00     0.000 HD 
BRANCH   8  10
HETATM   10  C   UNL     1     -10.855  14.069  66.391  1.00  0.00    -0.299 A  
HETATM   11  C   UNL     1     -10.064  13.184  67.151  1.00  0.00    -0.242 A  
HETATM   12  C   UNL     1      -9.263  13.598  68.355  1.00  0.00    -0.169 C  
HETATM   13  C   UNL     1     -10.051  11.821  66.800  1.00  0.00    -0.235 A  
HETATM   14  C   UNL     1     -10.784  11.355  65.714  1.00  0.00    -0.309 A  
HETATM   15  C   UNL     1     -11.521  12.244  64.939  1.00  0.00    -0.382 A  
HETATM   16  C   UNL     1     -11.565  13.608  65.264  1.00  0.00    -0.334 A  
HETATM   17  C   UNL     1     -12.258  14.562  64.331  1.00  0.00    -0.480 C  
ENDBRANCH   8  10
ENDBRANCH   2   6
TORSDOF 2
ENDMDL
MODEL       66
REMARK 921   NORMALIZED FREE ENERGY PREDICTED BY IDOCK:   -4.10 KCAL/MOL
REMARK 922        TOTAL FREE ENERGY PREDICTED BY IDOCK:   -4.84 KCAL/MOL
REMARK 923 INTER-LIGAND FREE ENERGY PREDICTED BY IDOCK:   -4.56 KCAL/MOL
REMARK 924 INTRA-LIGAND FREE ENERGY PREDICTED BY IDOCK:   -0.27 KCAL/MOL
REMARK 927      BINDING AFFINITY PREDICTED BY RF-SCORE:    0.00 PKD
ROOT
HETATM    1  C   UNL     1      -9.283  10.191  62.347  1.00  0.00    -0.320 C  
HETATM    2  C   UNL     1      -8.736  10.024  63.758  1.00  0.00    -0.217 C  
HETATM    3  N   UNL     1      -7.343  10.521  63.849  1.00  0.00    -0.343 NA 
HETATM    4  H1  UNL     1      -6.977  10.409  64.794  1.00  0.00     0.000 HD 
HETATM    5  H2  UNL     1      -7.266  11.486  63.527  1.00  0.00     0.000 HD 
ENDROOT
BRANCH   2   6
HETATM    6  C   UNL     1      -9.627  10.735  64.802  1.00  0.00    -0.262 C  
HETATM    7  O   UNL     1     -10.248  10.142  65.678  1.00  0.00    -0.275 OA 
HETATM    8  N   UNL     1      -9.593  12.112  64.627  1.00  0.00    -0.461 N  
HETATM    9  H   UNL     1      -8.989  12.513  63.909  1.00  0.00     0.000 HD 
BRANCH   8  10
HETATM   10  C   UNL     1     -10.380  12.965  65.427  1.00  0.00    -0.296 A  
HETATM   11  C   UNL     1     -11.729  13.205  65.098  1.00  0.00    -0.367 A  
HETATM   12  C   UNL     1     -12.393  12.689  63.851  1.00  0.00    -0.546 C  
HETATM   13  C   UNL     1     -12.524  13.931  66.004  1.00  0.00    -0.501 A  
HETATM   14  C   UNL     1     -11.992  14.422  67.191  1.00  0.00    -0.419 A  
HETATM   15  C   UNL     1     -10.646  14.224  67.483  1.00  0.00    -0.261 A  
HETATM   16  C   UNL     1      -9.825  13.498  66.609  1.00  0.00    -0.279 A  
HETATM   17  C   UNL     1      -8.348  13.417  66.885  1.00  0.00    -0.013 C  
ENDBRANCH   8  10
ENDBRANCH   2   6
TORSDOF 2
ENDMDL
MODEL       67
REMARK 921   NORMALIZED FREE ENERGY PREDICTED BY IDOCK:   -4.09 KCAL/MOL
REMARK 922        TOTAL FREE ENERGY PREDICTED BY IDOCK:   -4.83 KCAL/MOL
REMARK 923 INTER-LIGAND FREE ENERGY PREDICTED BY IDOCK:   -4.61 KCAL/MOL
REMARK 924 INTRA-LIGAND FREE ENERGY PREDICTED BY IDOCK:   -0.23 KCAL/MOL
REMARK 927      BINDING AFFINITY PREDICTED BY RF-SCORE:    0.00 PKD
ROOT
HETATM    1  C   UNL     1      -8.769  17.988  66.493  1.00  0.00    -0.279 C  
HETATM    2  C   UNL     1     -10.265  17.709  66.531  1.00  0.00    -0.355 C  
HETATM    3  N   UNL     1     -10.872  17.891  65.191  1.00  0.00    -0.638 NA 
HETATM    4  H1  UNL     1     -11.874  17.703  65.217  1.00  0.00     0.000 HD 
HETATM    5  H2  UNL     1     -10.401  17.326  64.485  1.00  0.00     0.000 HD 
ENDROOT
BRANCH   2   6
HETATM    6  C   UNL     1     -10.566  16.291  67.067  1.00  0.00    -0.284 C  
HETATM    7  O   UNL     1     -11.131  16.076  68.134  1.00  0.00    -0.332 OA 
HETATM    8  N   UNL     1     -10.143  15.321  66.167  1.00  0.00    -0.277 N  
HETATM    9  H   UNL     1      -9.744  15.605  65.272  1.00  0.00     0.000 HD 
BRANCH   8  10
HETATM   10  C   UNL     1     -10.258  13.949  66.471  1.00  0.00    -0.280 A  
HETATM   11  C   UNL     1     -11.449  13.254  66.185  1.00  0.00    -0.359 A  
HETATM   12  C   UNL     1     -12.697  13.908  65.659  1.00  0.00    -0.534 C  
HETATM   13  C   UNL     1     -11.471  11.857  66.355  1.00  0.00    -0.371 A  
HETATM   14  C   UNL     1     -10.351  11.174  66.815  1.00  0.00    -0.284 A  
HETATM   15  C   UNL     1      -9.195  11.875  67.143  1.00  0.00    -0.183 A  
HETATM   16  C   UNL     1      -9.133  13.266  66.979  1.00  0.00    -0.232 A  
HETATM   17  C   UNL     1      -7.921  14.010  67.468  1.00  0.00    -0.199 C  
ENDBRANCH   8  10
ENDBRANCH   2   6
TORSDOF 2
ENDMDL
MODEL       68
REMARK 921   NORMALIZED FREE ENERGY PREDICTED BY IDOCK:   -4.08 KCAL/MOL
REMARK 922        TOTAL FREE ENERGY PREDICTED BY IDOCK:   -4.82 KCAL/MOL
REMARK 923 INTER-LIGAND FREE ENERGY PREDICTED BY IDOCK:   -4.60 KCAL/MOL
REMARK 924 INTRA-LIGAND FREE ENERGY PREDICTED BY IDOCK:   -0.23 KCAL/MOL
REMARK 927      BINDING AFFINITY PREDICTED BY RF-SCORE:    0.00 PKD
ROOT
HETATM    1  C   UNL     1     -12.705  12.992  71.322  1.00  0.00    -0.385 C  
HETATM    2  C   UNL     1     -12.200  12.673  69.922  1.00  0.00    -0.168 C  
HETATM    3  N   UNL     1     -10.947  13.410  69.631  1.00  0.00    -0.460 NA 
HETATM    4  H1  UNL     1     -10.608  13.196  68.693  1.00  0.00     0.000 HD 
HETATM    5  H2  UNL     1     -10.234  13.234  70.338  1.00  0.00     0.000 HD 
ENDROOT
BRANCH   2   6
HETATM    6  C   UNL     1     -11.985  11.155  69.727  1.00  0.00    -0.357 C  
HETATM    7  O   UNL     1     -12.078  10.593  68.640  1.00  0.00    -0.410 OA 
HETATM    8  N   UNL     1     -11.647  10.543  70.927  1.00  0.00    -0.332 N  
HETATM    9  H   UNL     1     -11.528  11.112  71.765  1.00  0.00     0.000 HD 
BRANCH   8  10
HETATM   10  C   UNL     1     -11.464   9.148  71.003  1.00  0.00    -0.306 A  
HETATM   11  C   UNL     1     -10.213   8.576  70.698  1.00  0.00    -0.230 A  
HETATM   12  C   UNL     1      -9.039   9.356  70.172  1.00  0.00    -0.262 C  
HETATM   13  C   UNL     1     -10.023   7.202  70.938  1.00  0.00    -0.193 A  
HETATM   14  C   UNL     1     -11.051   6.416  71.446  1.00  0.00    -0.328 A  
HETATM   15  C   UNL     1     -12.298   6.978  71.696  1.00  0.00    -0.407 A  
HETATM   16  C   UNL     1     -12.522   8.345  71.478  1.00  0.00    -0.342 A  
HETATM   17  C   UNL     1     -13.914   8.894  71.628  1.00  0.00    -0.417 C  
ENDBRANCH   8  10
ENDBRANCH   2   6
TORSDOF 2
ENDMDL
MODEL       69
REMARK 921   NORMALIZED FREE ENERGY PREDICTED BY IDOCK:   -4.08 KCAL/MOL
REMARK 922        TOTAL FREE ENERGY PREDICTED BY IDOCK:   -4.82 KCAL/MOL
REMARK 923 INTER-LIGAND FREE ENERGY PREDICTED BY IDOCK:   -4.55 KCAL/MOL
REMARK 924 INTRA-LIGAND FREE ENERGY PREDICTED BY IDOCK:   -0.26 KCAL/MOL
REMARK 927      BINDING AFFINITY PREDICTED BY RF-SCORE:    0.00 PKD
ROOT
HETATM    1  C   UNL     1     -10.497  14.096  67.592  1.00  0.00    -0.245 C  
HETATM    2  C   UNL     1     -11.401  15.266  67.954  1.00  0.00    -0.334 C  
HETATM    3  N   UNL     1     -12.305  14.909  69.074  1.00  0.00    -0.589 NA 
HETATM    4  H1  UNL     1     -12.910  15.693  69.317  1.00  0.00     0.000 HD 
HETATM    5  H2  UNL     1     -11.786  14.569  69.883  1.00  0.00     0.000 HD 
ENDROOT
BRANCH   2   6
HETATM    6  C   UNL     1     -10.584  16.529  68.308  1.00  0.00    -0.326 C  
HETATM    7  O   UNL     1     -10.736  17.165  69.346  1.00  0.00    -0.288 OA 
HETATM    8  N   UNL     1      -9.650  16.809  67.318  1.00  0.00    -0.231 N  
HETATM    9  H   UNL     1      -9.556  16.177  66.523  1.00  0.00     0.000 HD 
BRANCH   8  10
HETATM   10  C   UNL     1      -8.832  17.954  67.396  1.00  0.00    -0.245 A  
HETATM   11  C   UNL     1      -9.300  19.197  66.926  1.00  0.00    -0.363 A  
HETATM   12  C   UNL     1     -10.614  19.386  66.220  1.00  0.00    -0.569 C  
HETATM   13  C   UNL     1      -8.520  20.344  67.165  1.00  0.00    -0.393 A  
HETATM   14  C   UNL     1      -7.304  20.258  67.832  1.00  0.00    -0.311 A  
HETATM   15  C   UNL     1      -6.826  19.019  68.248  1.00  0.00    -0.272 A  
HETATM   16  C   UNL     1      -7.579  17.855  68.035  1.00  0.00    -0.238 A  
HETATM   17  C   UNL     1      -6.976  16.519  68.374  1.00  0.00    -0.150 C  
ENDBRANCH   8  10
ENDBRANCH   2   6
TORSDOF 2
ENDMDL
MODEL       70
REMARK 921   NORMALIZED FREE ENERGY PREDICTED BY IDOCK:   -4.07 KCAL/MOL
REMARK 922        TOTAL FREE ENERGY PREDICTED BY IDOCK:   -4.81 KCAL/MOL
REMARK 923 INTER-LIGAND FREE ENERGY PREDICTED BY IDOCK:   -4.55 KCAL/MOL
REMARK 924 INTRA-LIGAND FREE ENERGY PREDICTED BY IDOCK:   -0.27 KCAL/MOL
REMARK 927      BINDING AFFINITY PREDICTED BY RF-SCORE:    0.00 PKD
ROOT
HETATM    1  C   UNL     1     -10.290  10.042  69.751  1.00  0.00    -0.290 C  
HETATM    2  C   UNL     1     -11.602  10.362  69.048  1.00  0.00    -0.150 C  
HETATM    3  N   UNL     1     -12.742  10.282  69.992  1.00  0.00    -0.549 NA 
HETATM    4  H1  UNL     1     -13.621  10.496  69.522  1.00  0.00     0.000 HD 
HETATM    5  H2  UNL     1     -12.597  10.875  70.809  1.00  0.00     0.000 HD 
ENDROOT
BRANCH   2   6
HETATM    6  C   UNL     1     -11.563  11.753  68.375  1.00  0.00    -0.318 C  
HETATM    7  O   UNL     1     -12.130  12.009  67.317  1.00  0.00    -0.572 OA 
HETATM    8  N   UNL     1     -10.837  12.655  69.142  1.00  0.00    -0.426 N  
HETATM    9  H   UNL     1     -10.461  12.360  70.043  1.00  0.00     0.000 HD 
BRANCH   8  10
HETATM   10  C   UNL     1     -10.614  13.973  68.694  1.00  0.00    -0.257 A  
HETATM   11  C   UNL     1      -9.576  14.249  67.782  1.00  0.00    -0.221 A  
HETATM   12  C   UNL     1      -8.579  13.226  67.312  1.00  0.00    -0.211 C  
HETATM   13  C   UNL     1      -9.485  15.543  67.237  1.00  0.00    -0.218 A  
HETATM   14  C   UNL     1     -10.383  16.539  67.602  1.00  0.00    -0.291 A  
HETATM   15  C   UNL     1     -11.374  16.272  68.542  1.00  0.00    -0.330 A  
HETATM   16  C   UNL     1     -11.501  14.992  69.100  1.00  0.00    -0.320 A  
HETATM   17  C   UNL     1     -12.492  14.770  70.210  1.00  0.00    -0.393 C  
ENDBRANCH   8  10
ENDBRANCH   2   6
TORSDOF 2
ENDMDL
MODEL       71
REMARK 921   NORMALIZED FREE ENERGY PREDICTED BY IDOCK:   -4.06 KCAL/MOL
REMARK 922        TOTAL FREE ENERGY PREDICTED BY IDOCK:   -4.80 KCAL/MOL
REMARK 923 INTER-LIGAND FREE ENERGY PREDICTED BY IDOCK:   -4.64 KCAL/MOL
REMARK 924 INTRA-LIGAND FREE ENERGY PREDICTED BY IDOCK:   -0.16 KCAL/MOL
REMARK 927      BINDING AFFINITY PREDICTED BY RF-SCORE:    0.00 PKD
ROOT
HETATM    1  C   UNL     1      -9.683   8.648  66.283  1.00  0.00    -0.322 C  
HETATM    2  C   UNL     1     -10.726   8.080  67.235  1.00  0.00    -0.210 C  
HETATM    3  N   UNL     1     -11.208   6.759  66.766  1.00  0.00    -0.723 NA 
HETATM    4  H1  UNL     1     -11.906   6.378  67.404  1.00  0.00     0.000 HD 
HETATM    5  H2  UNL     1     -10.437   6.108  66.618  1.00  0.00     0.000 HD 
ENDROOT
BRANCH   2   6
HETATM    6  C   UNL     1     -10.179   7.968  68.677  1.00  0.00    -0.206 C  
HETATM    7  O   UNL     1      -9.083   8.398  69.020  1.00  0.00    -0.146 OA 
HETATM    8  N   UNL     1     -11.104   7.354  69.512  1.00  0.00    -0.435 N  
HETATM    9  H   UNL     1     -12.018   7.093  69.143  1.00  0.00     0.000 HD 
BRANCH   8  10
HETATM   10  C   UNL     1     -10.798   7.087  70.862  1.00  0.00    -0.241 A  
HETATM   11  C   UNL     1     -11.011   8.071  71.847  1.00  0.00    -0.321 A  
HETATM   12  C   UNL     1     -11.456   9.476  71.549  1.00  0.00    -0.466 C  
HETATM   13  C   UNL     1     -10.845   7.717  73.200  1.00  0.00    -0.440 A  
HETATM   14  C   UNL     1     -10.458   6.431  73.561  1.00  0.00    -0.300 A  
HETATM   15  C   UNL     1     -10.200   5.481  72.578  1.00  0.00    -0.229 A  
HETATM   16  C   UNL     1     -10.364   5.795  71.221  1.00  0.00    -0.281 A  
HETATM   17  C   UNL     1      -9.948   4.791  70.180  1.00  0.00    -0.321 C  
ENDBRANCH   8  10
ENDBRANCH   2   6
TORSDOF 2
ENDMDL
MODEL       72
REMARK 921   NORMALIZED FREE ENERGY PREDICTED BY IDOCK:   -4.05 KCAL/MOL
REMARK 922        TOTAL FREE ENERGY PREDICTED BY IDOCK:   -4.79 KCAL/MOL
REMARK 923 INTER-LIGAND FREE ENERGY PREDICTED BY IDOCK:   -4.54 KCAL/MOL
REMARK 924 INTRA-LIGAND FREE ENERGY PREDICTED BY IDOCK:   -0.24 KCAL/MOL
REMARK 927      BINDING AFFINITY PREDICTED BY RF-SCORE:    0.00 PKD
ROOT
HETATM    1  C   UNL     1     -12.618  13.439  65.341  1.00  0.00    -0.528 C  
HETATM    2  C   UNL     1     -11.616  13.945  66.368  1.00  0.00    -0.367 C  
HETATM    3  N   UNL     1     -12.308  14.588  67.511  1.00  0.00    -0.582 NA 
HETATM    4  H1  UNL     1     -11.637  14.927  68.200  1.00  0.00     0.000 HD 
HETATM    5  H2  UNL     1     -12.998  13.965  67.932  1.00  0.00     0.000 HD 
ENDROOT
BRANCH   2   6
HETATM    6  C   UNL     1     -10.694  12.811  66.871  1.00  0.00    -0.253 C  
HETATM    7  O   UNL     1      -9.554  12.999  67.285  1.00  0.00    -0.213 OA 
HETATM    8  N   UNL     1     -11.343  11.584  66.818  1.00  0.00    -0.294 N  
HETATM    9  H   UNL     1     -12.317  11.543  66.521  1.00  0.00     0.000 HD 
BRANCH   8  10
HETATM   10  C   UNL     1     -10.673  10.394  67.170  1.00  0.00    -0.256 A  
HETATM   11  C   UNL     1     -10.730   9.910  68.492  1.00  0.00    -0.260 A  
HETATM   12  C   UNL     1     -11.382  10.648  69.629  1.00  0.00    -0.360 C  
HETATM   13  C   UNL     1     -10.185   8.642  68.768  1.00  0.00    -0.224 A  
HETATM   14  C   UNL     1      -9.585   7.886  67.768  1.00  0.00    -0.174 A  
HETATM   15  C   UNL     1      -9.489   8.394  66.476  1.00  0.00    -0.284 A  
HETATM   16  C   UNL     1     -10.028   9.650  66.161  1.00  0.00    -0.346 A  
HETATM   17  C   UNL     1      -9.789  10.229  64.793  1.00  0.00    -0.403 C  
ENDBRANCH   8  10
ENDBRANCH   2   6
TORSDOF 2
ENDMDL
MODEL       73
REMARK 921   NORMALIZED FREE ENERGY PREDICTED BY IDOCK:   -4.04 KCAL/MOL
REMARK 922        TOTAL FREE ENERGY PREDICTED BY IDOCK:   -4.78 KCAL/MOL
REMARK 923 INTER-LIGAND FREE ENERGY PREDICTED BY IDOCK:   -4.55 KCAL/MOL
REMARK 924 INTRA-LIGAND FREE ENERGY PREDICTED BY IDOCK:   -0.23 KCAL/MOL
REMARK 927      BINDING AFFINITY PREDICTED BY RF-SCORE:    0.00 PKD
ROOT
HETATM    1  C   UNL     1      -7.094  13.243  67.598  1.00  0.00    -0.163 C  
HETATM    2  C   UNL     1      -8.304  13.301  68.519  1.00  0.00    -0.075 C  
HETATM    3  N   UNL     1      -8.235  14.484  69.410  1.00  0.00    -0.376 NA 
HETATM    4  H1  UNL     1      -9.047  14.524  70.027  1.00  0.00     0.000 HD 
HETATM    5  H2  UNL     1      -8.123  15.348  68.880  1.00  0.00     0.000 HD 
ENDROOT
BRANCH   2   6
HETATM    6  C   UNL     1      -9.628  13.310  67.721  1.00  0.00    -0.214 C  
HETATM    7  O   UNL     1     -10.736  13.335  68.247  1.00  0.00    -0.237 OA 
HETATM    8  N   UNL     1      -9.382  13.320  66.354  1.00  0.00    -0.408 N  
HETATM    9  H   UNL     1      -8.420  13.368  66.016  1.00  0.00     0.000 HD 
BRANCH   8  10
HETATM   10  C   UNL     1     -10.442  13.267  65.426  1.00  0.00    -0.297 A  
HETATM   11  C   UNL     1     -11.077  14.451  65.002  1.00  0.00    -0.385 A  
HETATM   12  C   UNL     1     -10.775  15.813  65.564  1.00  0.00    -0.397 C  
HETATM   13  C   UNL     1     -12.020  14.373  63.959  1.00  0.00    -0.288 A  
HETATM   14  C   UNL     1     -12.337  13.155  63.370  1.00  0.00    -0.443 A  
HETATM   15  C   UNL     1     -11.742  11.984  63.830  1.00  0.00    -0.575 A  
HETATM   16  C   UNL     1     -10.792  12.023  64.860  1.00  0.00    -0.349 A  
HETATM   17  C   UNL     1     -10.269  10.731  65.426  1.00  0.00    -0.341 C  
ENDBRANCH   8  10
ENDBRANCH   2   6
TORSDOF 2
ENDMDL
MODEL       74
REMARK 921   NORMALIZED FREE ENERGY PREDICTED BY IDOCK:   -4.03 KCAL/MOL
REMARK 922        TOTAL FREE ENERGY PREDICTED BY IDOCK:   -4.77 KCAL/MOL
REMARK 923 INTER-LIGAND FREE ENERGY PREDICTED BY IDOCK:   -4.53 KCAL/MOL
REMARK 924 INTRA-LIGAND FREE ENERGY PREDICTED BY IDOCK:   -0.24 KCAL/MOL
REMARK 927      BINDING AFFINITY PREDICTED BY RF-SCORE:    0.00 PKD
ROOT
HETATM    1  C   UNL     1     -11.007  10.642  67.405  1.00  0.00    -0.361 C  
HETATM    2  C   UNL     1     -10.757  11.529  68.617  1.00  0.00    -0.207 C  
HETATM    3  N   UNL     1      -9.816  10.881  69.562  1.00  0.00    -0.437 NA 
HETATM    4  H1  UNL     1      -9.648  11.475  70.374  1.00  0.00     0.000 HD 
HETATM    5  H2  UNL     1      -8.945  10.616  69.103  1.00  0.00     0.000 HD 
ENDROOT
BRANCH   2   6
HETATM    6  C   UNL     1     -10.227  12.921  68.205  1.00  0.00    -0.245 C  
HETATM    7  O   UNL     1      -9.037  13.221  68.210  1.00  0.00    -0.196 OA 
HETATM    8  N   UNL     1     -11.268  13.750  67.805  1.00  0.00    -0.278 N  
HETATM    9  H   UNL     1     -12.218  13.382  67.772  1.00  0.00     0.000 HD 
BRANCH   8  10
HETATM   10  C   UNL     1     -11.029  15.091  67.443  1.00  0.00    -0.315 A  
HETATM   11  C   UNL     1     -11.023  16.102  68.424  1.00  0.00    -0.341 A  
HETATM   12  C   UNL     1     -11.372  15.872  69.869  1.00  0.00    -0.348 C  
HETATM   13  C   UNL     1     -10.625  17.400  68.052  1.00  0.00    -0.389 A  
HETATM   14  C   UNL     1     -10.264  17.690  66.741  1.00  0.00    -0.335 A  
HETATM   15  C   UNL     1     -10.322  16.697  65.768  1.00  0.00    -0.338 A  
HETATM   16  C   UNL     1     -10.705  15.390  66.104  1.00  0.00    -0.316 A  
HETATM   17  C   UNL     1     -10.888  14.375  65.009  1.00  0.00    -0.420 C  
ENDBRANCH   8  10
ENDBRANCH   2   6
TORSDOF 2
ENDMDL
MODEL       75
REMARK 921   NORMALIZED FREE ENERGY PREDICTED BY IDOCK:   -4.02 KCAL/MOL
REMARK 922        TOTAL FREE ENERGY PREDICTED BY IDOCK:   -4.75 KCAL/MOL
REMARK 923 INTER-LIGAND FREE ENERGY PREDICTED BY IDOCK:   -4.60 KCAL/MOL
REMARK 924 INTRA-LIGAND FREE ENERGY PREDICTED BY IDOCK:   -0.15 KCAL/MOL
REMARK 927      BINDING AFFINITY PREDICTED BY RF-SCORE:    0.00 PKD
ROOT
HETATM    1  C   UNL     1      -9.922   9.861  70.048  1.00  0.00    -0.302 C  
HETATM    2  C   UNL     1     -10.136   9.640  68.557  1.00  0.00    -0.175 C  
HETATM    3  N   UNL     1     -10.850   8.365  68.308  1.00  0.00    -0.447 NA 
HETATM    4  H1  UNL     1     -10.994   8.218  67.309  1.00  0.00     0.000 HD 
HETATM    5  H2  UNL     1     -11.727   8.317  68.826  1.00  0.00     0.000 HD 
ENDROOT
BRANCH   2   6
HETATM    6  C   UNL     1     -10.903  10.817  67.912  1.00  0.00    -0.264 C  
HETATM    7  O   UNL     1     -12.113  10.982  68.030  1.00  0.00    -0.615 OA 
HETATM    8  N   UNL     1     -10.036  11.657  67.225  1.00  0.00    -0.190 N  
HETATM    9  H   UNL     1      -9.034  11.469  67.244  1.00  0.00     0.000 HD 
BRANCH   8  10
HETATM   10  C   UNL     1     -10.520  12.767  66.503  1.00  0.00    -0.263 A  
HETATM   11  C   UNL     1     -10.756  13.993  67.156  1.00  0.00    -0.283 A  
HETATM   12  C   UNL     1     -10.629  14.191  68.642  1.00  0.00    -0.253 C  
HETATM   13  C   UNL     1     -11.086  15.118  66.377  1.00  0.00    -0.312 A  
HETATM   14  C   UNL     1     -11.199  15.024  64.995  1.00  0.00    -0.413 A  
HETATM   15  C   UNL     1     -11.015  13.798  64.364  1.00  0.00    -0.356 A  
HETATM   16  C   UNL     1     -10.677  12.657  65.106  1.00  0.00    -0.321 A  
HETATM   17  C   UNL     1     -10.618  11.323  64.415  1.00  0.00    -0.410 C  
ENDBRANCH   8  10
ENDBRANCH   2   6
TORSDOF 2
ENDMDL
MODEL       76
REMARK 921   NORMALIZED FREE ENERGY PREDICTED BY IDOCK:   -4.00 KCAL/MOL
REMARK 922        TOTAL FREE ENERGY PREDICTED BY IDOCK:   -4.73 KCAL/MOL
REMARK 923 INTER-LIGAND FREE ENERGY PREDICTED BY IDOCK:   -4.45 KCAL/MOL
REMARK 924 INTRA-LIGAND FREE ENERGY PREDICTED BY IDOCK:   -0.29 KCAL/MOL
REMARK 927      BINDING AFFINITY PREDICTED BY RF-SCORE:    0.00 PKD
ROOT
HETATM    1  C   UNL     1     -10.482  14.640  68.433  1.00  0.00    -0.243 C  
HETATM    2  C   UNL     1     -10.225  14.858  66.949  1.00  0.00    -0.254 C  
HETATM    3  N   UNL     1     -11.497  14.886  66.189  1.00  0.00    -0.316 NA 
HETATM    4  H1  UNL     1     -11.325  15.032  65.194  1.00  0.00     0.000 HD 
HETATM    5  H2  UNL     1     -12.145  15.578  66.565  1.00  0.00     0.000 HD 
ENDROOT
BRANCH   2   6
HETATM    6  C   UNL     1      -9.422  16.154  66.694  1.00  0.00    -0.247 C  
HETATM    7  O   UNL     1      -8.819  16.383  65.651  1.00  0.00    -0.406 OA 
HETATM    8  N   UNL     1      -9.511  17.014  67.781  1.00  0.00    -0.242 N  
HETATM    9  H   UNL     1     -10.096  16.760  68.577  1.00  0.00     0.000 HD 
BRANCH   8  10
HETATM   10  C   UNL     1      -8.806  18.235  67.800  1.00  0.00    -0.263 A  
HETATM   11  C   UNL     1      -7.473  18.279  68.253  1.00  0.00    -0.288 A  
HETATM   12  C   UNL     1      -6.747  17.101  68.842  1.00  0.00    -0.209 C  
HETATM   13  C   UNL     1      -6.752  19.480  68.109  1.00  0.00    -0.301 A  
HETATM   14  C   UNL     1      -7.343  20.607  67.551  1.00  0.00    -0.364 A  
HETATM   15  C   UNL     1      -8.676  20.569  67.154  1.00  0.00    -0.375 A  
HETATM   16  C   UNL     1      -9.423  19.388  67.274  1.00  0.00    -0.398 A  
HETATM   17  C   UNL     1     -10.895  19.416  66.963  1.00  0.00    -0.540 C  
ENDBRANCH   8  10
ENDBRANCH   2   6
TORSDOF 2
ENDMDL
MODEL       77
REMARK 921   NORMALIZED FREE ENERGY PREDICTED BY IDOCK:   -3.99 KCAL/MOL
REMARK 922        TOTAL FREE ENERGY PREDICTED BY IDOCK:   -4.72 KCAL/MOL
REMARK 923 INTER-LIGAND FREE ENERGY PREDICTED BY IDOCK:   -4.51 KCAL/MOL
REMARK 924 INTRA-LIGAND FREE ENERGY PREDICTED BY IDOCK:   -0.21 KCAL/MOL
REMARK 927      BINDING AFFINITY PREDICTED BY RF-SCORE:    0.00 PKD
ROOT
HETATM    1  C   UNL     1      -9.042  10.077  69.556  1.00  0.00    -0.236 C  
HETATM    2  C   UNL     1      -8.836   9.279  68.275  1.00  0.00    -0.129 C  
HETATM    3  N   UNL     1      -8.873   7.822  68.547  1.00  0.00    -0.131 NA 
HETATM    4  H1  UNL     1      -8.735   7.288  67.690  1.00  0.00     0.000 HD 
HETATM    5  H2  UNL     1      -9.731   7.551  69.027  1.00  0.00     0.000 HD 
ENDROOT
BRANCH   2   6
HETATM    6  C   UNL     1      -9.883   9.649  67.200  1.00  0.00    -0.186 C  
HETATM    7  O   UNL     1     -10.784   8.895  66.845  1.00  0.00    -0.230 OA 
HETATM    8  N   UNL     1      -9.677  10.940  66.731  1.00  0.00    -0.186 N  
HETATM    9  H   UNL     1      -8.939  11.512  67.141  1.00  0.00     0.000 HD 
BRANCH   8  10
HETATM   10  C   UNL     1     -10.475  11.472  65.698  1.00  0.00    -0.266 A  
HETATM   11  C   UNL     1     -10.218  11.134  64.354  1.00  0.00    -0.390 A  
HETATM   12  C   UNL     1      -9.047  10.303  63.907  1.00  0.00    -0.284 C  
HETATM   13  C   UNL     1     -11.130  11.555  63.368  1.00  0.00    -0.370 A  
HETATM   14  C   UNL     1     -12.250  12.306  63.702  1.00  0.00    -0.665 A  
HETATM   15  C   UNL     1     -12.469  12.679  65.024  1.00  0.00    -0.556 A  
HETATM   16  C   UNL     1     -11.587  12.270  66.036  1.00  0.00    -0.451 A  
HETATM   17  C   UNL     1     -11.775  12.800  67.431  1.00  0.00    -0.425 C  
ENDBRANCH   8  10
ENDBRANCH   2   6
TORSDOF 2
ENDMDL
MODEL       78
REMARK 921   NORMALIZED FREE ENERGY PREDICTED BY IDOCK:   -3.98 KCAL/MOL
REMARK 922        TOTAL FREE ENERGY PREDICTED BY IDOCK:   -4.71 KCAL/MOL
REMARK 923 INTER-LIGAND FREE ENERGY PREDICTED BY IDOCK:   -4.44 KCAL/MOL
REMARK 924 INTRA-LIGAND FREE ENERGY PREDICTED BY IDOCK:   -0.27 KCAL/MOL
REMARK 927      BINDING AFFINITY PREDICTED BY RF-SCORE:    0.00 PKD
ROOT
HETATM    1  C   UNL     1      -5.693  16.134  70.034  1.00  0.00    -0.179 C  
HETATM    2  C   UNL     1      -6.502  15.357  69.005  1.00  0.00    -0.113 C  
HETATM    3  N   UNL     1      -7.427  14.406  69.666  1.00  0.00    -0.371 NA 
HETATM    4  H1  UNL     1      -7.970  13.886  68.977  1.00  0.00     0.000 HD 
HETATM    5  H2  UNL     1      -8.029  14.875  70.343  1.00  0.00     0.000 HD 
ENDROOT
BRANCH   2   6
HETATM    6  C   UNL     1      -7.288  16.303  68.068  1.00  0.00    -0.132 C  
HETATM    7  O   UNL     1      -7.260  16.219  66.844  1.00  0.00    -0.208 OA 
HETATM    8  N   UNL     1      -8.038  17.215  68.798  1.00  0.00    -0.267 N  
HETATM    9  H   UNL     1      -8.046  17.158  69.816  1.00  0.00     0.000 HD 
BRANCH   8  10
HETATM   10  C   UNL     1      -8.788  18.219  68.153  1.00  0.00    -0.295 A  
HETATM   11  C   UNL     1      -8.213  19.477  67.885  1.00  0.00    -0.345 A  
HETATM   12  C   UNL     1      -6.842  19.888  68.346  1.00  0.00    -0.335 C  
HETATM   13  C   UNL     1      -8.936  20.395  67.101  1.00  0.00    -0.453 A  
HETATM   14  C   UNL     1     -10.200  20.082  66.616  1.00  0.00    -0.597 A  
HETATM   15  C   UNL     1     -10.782  18.858  66.928  1.00  0.00    -0.447 A  
HETATM   16  C   UNL     1     -10.088  17.914  67.699  1.00  0.00    -0.350 A  
HETATM   17  C   UNL     1     -10.794  16.659  68.133  1.00  0.00    -0.348 C  
ENDBRANCH   8  10
ENDBRANCH   2   6
TORSDOF 2
ENDMDL
MODEL       79
REMARK 921   NORMALIZED FREE ENERGY PREDICTED BY IDOCK:   -3.98 KCAL/MOL
REMARK 922        TOTAL FREE ENERGY PREDICTED BY IDOCK:   -4.70 KCAL/MOL
REMARK 923 INTER-LIGAND FREE ENERGY PREDICTED BY IDOCK:   -4.52 KCAL/MOL
REMARK 924 INTRA-LIGAND FREE ENERGY PREDICTED BY IDOCK:   -0.19 KCAL/MOL
REMARK 927      BINDING AFFINITY PREDICTED BY RF-SCORE:    0.00 PKD
ROOT
HETATM    1  C   UNL     1      -7.463   9.474  67.451  1.00  0.00    -0.091 C  
HETATM    2  C   UNL     1      -8.613   9.875  68.364  1.00  0.00    -0.116 C  
HETATM    3  N   UNL     1      -8.221  11.000  69.246  1.00  0.00    -0.370 NA 
HETATM    4  H1  UNL     1      -8.992  11.269  69.857  1.00  0.00     0.000 HD 
HETATM    5  H2  UNL     1      -7.871  11.794  68.710  1.00  0.00     0.000 HD 
ENDROOT
BRANCH   2   6
HETATM    6  C   UNL     1      -9.878  10.243  67.557  1.00  0.00    -0.173 C  
HETATM    7  O   UNL     1     -10.897   9.559  67.545  1.00  0.00    -0.280 OA 
HETATM    8  N   UNL     1      -9.708  11.450  66.891  1.00  0.00    -0.190 N  
HETATM    9  H   UNL     1      -8.846  11.978  67.021  1.00  0.00     0.000 HD 
BRANCH   8  10
HETATM   10  C   UNL     1     -10.711  11.957  66.040  1.00  0.00    -0.285 A  
HETATM   11  C   UNL     1     -11.615  12.932  66.507  1.00  0.00    -0.425 A  
HETATM   12  C   UNL     1     -11.666  13.416  67.930  1.00  0.00    -0.396 C  
HETATM   13  C   UNL     1     -12.498  13.528  65.587  1.00  0.00    -0.528 A  
HETATM   14  C   UNL     1     -12.497  13.153  64.248  1.00  0.00    -0.358 A  
HETATM   15  C   UNL     1     -11.636  12.153  63.806  1.00  0.00    -0.557 A  
HETATM   16  C   UNL     1     -10.737  11.543  64.693  1.00  0.00    -0.379 A  
HETATM   17  C   UNL     1      -9.917  10.375  64.217  1.00  0.00    -0.368 C  
ENDBRANCH   8  10
ENDBRANCH   2   6
TORSDOF 2
ENDMDL
MODEL       80
REMARK 921   NORMALIZED FREE ENERGY PREDICTED BY IDOCK:   -3.97 KCAL/MOL
REMARK 922        TOTAL FREE ENERGY PREDICTED BY IDOCK:   -4.70 KCAL/MOL
REMARK 923 INTER-LIGAND FREE ENERGY PREDICTED BY IDOCK:   -4.41 KCAL/MOL
REMARK 924 INTRA-LIGAND FREE ENERGY PREDICTED BY IDOCK:   -0.28 KCAL/MOL
REMARK 927      BINDING AFFINITY PREDICTED BY RF-SCORE:    0.00 PKD
ROOT
HETATM    1  C   UNL     1     -10.345  10.756  65.509  1.00  0.00    -0.308 C  
HETATM    2  C   UNL     1      -9.164  10.994  66.440  1.00  0.00    -0.175 C  
HETATM    3  N   UNL     1      -7.954  11.374  65.672  1.00  0.00    -0.348 NA 
HETATM    4  H1  UNL     1      -7.162  11.534  66.295  1.00  0.00     0.000 HD 
HETATM    5  H2  UNL     1      -8.127  12.178  65.069  1.00  0.00     0.000 HD 
ENDROOT
BRANCH   2   6
HETATM    6  C   UNL     1      -9.483  12.071  67.501  1.00  0.00    -0.178 C  
HETATM    7  O   UNL     1      -8.637  12.565  68.240  1.00  0.00    -0.180 OA 
HETATM    8  N   UNL     1     -10.829  12.414  67.471  1.00  0.00    -0.230 N  
HETATM    9  H   UNL     1     -11.439  11.994  66.770  1.00  0.00     0.000 HD 
BRANCH   8  10
HETATM   10  C   UNL     1     -11.364  13.334  68.395  1.00  0.00    -0.291 A  
HETATM   11  C   UNL     1     -11.815  12.896  69.656  1.00  0.00    -0.387 A  
HETATM   12  C   UNL     1     -11.874  11.452  70.071  1.00  0.00    -0.440 C  
HETATM   13  C   UNL     1     -12.193  13.861  70.608  1.00  0.00    -0.443 A  
HETATM   14  C   UNL     1     -12.145  15.218  70.311  1.00  0.00    -0.388 A  
HETATM   15  C   UNL     1     -11.747  15.639  69.046  1.00  0.00    -0.408 A  
HETATM   16  C   UNL     1     -11.354  14.707  68.074  1.00  0.00    -0.329 A  
HETATM   17  C   UNL     1     -11.060  15.183  66.678  1.00  0.00    -0.308 C  
ENDBRANCH   8  10
ENDBRANCH   2   6
TORSDOF 2
ENDMDL
MODEL       81
REMARK 921   NORMALIZED FREE ENERGY PREDICTED BY IDOCK:   -3.96 KCAL/MOL
REMARK 922        TOTAL FREE ENERGY PREDICTED BY IDOCK:   -4.68 KCAL/MOL
REMARK 923 INTER-LIGAND FREE ENERGY PREDICTED BY IDOCK:   -4.53 KCAL/MOL
REMARK 924 INTRA-LIGAND FREE ENERGY PREDICTED BY IDOCK:   -0.15 KCAL/MOL
REMARK 927      BINDING AFFINITY PREDICTED BY RF-SCORE:    0.00 PKD
ROOT
HETATM    1  C   UNL     1      -9.378  10.257  63.518  1.00  0.00    -0.341 C  
HETATM    2  C   UNL     1     -10.260  11.492  63.638  1.00  0.00    -0.405 C  
HETATM    3  N   UNL     1     -11.584  11.259  63.014  1.00  0.00    -0.808 NA 
HETATM    4  H1  UNL     1     -12.175  12.086  63.095  1.00  0.00     0.000 HD 
HETATM    5  H2  UNL     1     -12.041  10.432  63.398  1.00  0.00     0.000 HD 
ENDROOT
BRANCH   2   6
HETATM    6  C   UNL     1     -10.431  11.929  65.110  1.00  0.00    -0.287 C  
HETATM    7  O   UNL     1     -10.803  11.172  66.002  1.00  0.00    -0.243 OA 
HETATM    8  N   UNL     1     -10.078  13.262  65.277  1.00  0.00    -0.448 N  
HETATM    9  H   UNL     1      -9.715  13.788  64.482  1.00  0.00     0.000 HD 
BRANCH   8  10
HETATM   10  C   UNL     1     -10.214  13.898  66.528  1.00  0.00    -0.280 A  
HETATM   11  C   UNL     1      -9.135  13.924  67.433  1.00  0.00    -0.217 A  
HETATM   12  C   UNL     1      -7.832  13.207  67.208  1.00  0.00    -0.125 C  
HETATM   13  C   UNL     1      -9.254  14.702  68.600  1.00  0.00    -0.194 A  
HETATM   14  C   UNL     1     -10.417  15.414  68.871  1.00  0.00    -0.238 A  
HETATM   15  C   UNL     1     -11.496  15.341  67.996  1.00  0.00    -0.351 A  
HETATM   16  C   UNL     1     -11.411  14.584  66.819  1.00  0.00    -0.358 A  
HETATM   17  C   UNL     1     -12.637  14.415  65.964  1.00  0.00    -0.235 C  
ENDBRANCH   8  10
ENDBRANCH   2   6
TORSDOF 2
ENDMDL
MODEL       82
REMARK 921   NORMALIZED FREE ENERGY PREDICTED BY IDOCK:   -3.96 KCAL/MOL
REMARK 922        TOTAL FREE ENERGY PREDICTED BY IDOCK:   -4.68 KCAL/MOL
REMARK 923 INTER-LIGAND FREE ENERGY PREDICTED BY IDOCK:   -4.40 KCAL/MOL
REMARK 924 INTRA-LIGAND FREE ENERGY PREDICTED BY IDOCK:   -0.28 KCAL/MOL
REMARK 927      BINDING AFFINITY PREDICTED BY RF-SCORE:    0.00 PKD
ROOT
HETATM    1  C   UNL     1     -13.662   8.596  72.031  1.00  0.00    -0.470 C  
HETATM    2  C   UNL     1     -12.181   8.249  72.102  1.00  0.00    -0.364 C  
HETATM    3  N   UNL     1     -11.944   6.853  71.663  1.00  0.00    -0.320 NA 
HETATM    4  H1  UNL     1     -10.952   6.621  71.710  1.00  0.00     0.000 HD 
HETATM    5  H2  UNL     1     -12.328   6.680  70.735  1.00  0.00     0.000 HD 
ENDROOT
BRANCH   2   6
HETATM    6  C   UNL     1     -11.327   9.226  71.263  1.00  0.00    -0.353 C  
HETATM    7  O   UNL     1     -10.174   9.535  71.549  1.00  0.00    -0.247 OA 
HETATM    8  N   UNL     1     -12.027   9.665  70.147  1.00  0.00    -0.464 N  
HETATM    9  H   UNL     1     -12.959   9.295  69.961  1.00  0.00     0.000 HD 
BRANCH   8  10
HETATM   10  C   UNL     1     -11.468  10.614  69.266  1.00  0.00    -0.281 A  
HETATM   11  C   UNL     1     -11.597  11.992  69.530  1.00  0.00    -0.389 A  
HETATM   12  C   UNL     1     -12.407  12.557  70.664  1.00  0.00    -0.369 C  
HETATM   13  C   UNL     1     -10.893  12.901  68.719  1.00  0.00    -0.277 A  
HETATM   14  C   UNL     1     -10.103  12.458  67.665  1.00  0.00    -0.199 A  
HETATM   15  C   UNL     1     -10.022  11.098  67.380  1.00  0.00    -0.204 A  
HETATM   16  C   UNL     1     -10.703  10.162  68.172  1.00  0.00    -0.285 A  
HETATM   17  C   UNL     1     -10.706   8.716  67.758  1.00  0.00    -0.178 C  
ENDBRANCH   8  10
ENDBRANCH   2   6
TORSDOF 2
ENDMDL
MODEL       83
REMARK 921   NORMALIZED FREE ENERGY PREDICTED BY IDOCK:   -3.95 KCAL/MOL
REMARK 922        TOTAL FREE ENERGY PREDICTED BY IDOCK:   -4.68 KCAL/MOL
REMARK 923 INTER-LIGAND FREE ENERGY PREDICTED BY IDOCK:   -4.45 KCAL/MOL
REMARK 924 INTRA-LIGAND FREE ENERGY PREDICTED BY IDOCK:   -0.23 KCAL/MOL
REMARK 927      BINDING AFFINITY PREDICTED BY RF-SCORE:    0.00 PKD
ROOT
HETATM    1  C   UNL     1      -5.777  15.909  70.062  1.00  0.00    -0.160 C  
HETATM    2  C   UNL     1      -6.602  15.306  68.933  1.00  0.00    -0.108 C  
HETATM    3  N   UNL     1      -7.763  14.556  69.469  1.00  0.00    -0.370 NA 
HETATM    4  H1  UNL     1      -8.316  14.152  68.713  1.00  0.00     0.000 HD 
HETATM    5  H2  UNL     1      -8.333  15.135  70.085  1.00  0.00     0.000 HD 
ENDROOT
BRANCH   2   6
HETATM    6  C   UNL     1      -7.077  16.386  67.935  1.00  0.00    -0.135 C  
HETATM    7  O   UNL     1      -6.459  16.687  66.919  1.00  0.00    -0.179 OA 
HETATM    8  N   UNL     1      -8.294  16.926  68.331  1.00  0.00    -0.228 N  
HETATM    9  H   UNL     1      -8.762  16.558  69.159  1.00  0.00     0.000 HD 
BRANCH   8  10
HETATM   10  C   UNL     1      -8.892  17.976  67.605  1.00  0.00    -0.254 A  
HETATM   11  C   UNL     1      -9.811  17.696  66.575  1.00  0.00    -0.323 A  
HETATM   12  C   UNL     1     -10.138  16.308  66.097  1.00  0.00    -0.362 C  
HETATM   13  C   UNL     1     -10.506  18.767  65.982  1.00  0.00    -0.483 A  
HETATM   14  C   UNL     1     -10.279  20.078  66.384  1.00  0.00    -0.598 A  
HETATM   15  C   UNL     1      -9.332  20.350  67.367  1.00  0.00    -0.536 A  
HETATM   16  C   UNL     1      -8.627  19.308  67.987  1.00  0.00    -0.357 A  
HETATM   17  C   UNL     1      -7.517  19.641  68.945  1.00  0.00    -0.358 C  
ENDBRANCH   8  10
ENDBRANCH   2   6
TORSDOF 2
ENDMDL
MODEL       84
REMARK 921   NORMALIZED FREE ENERGY PREDICTED BY IDOCK:   -3.95 KCAL/MOL
REMARK 922        TOTAL FREE ENERGY PREDICTED BY IDOCK:   -4.67 KCAL/MOL
REMARK 923 INTER-LIGAND FREE ENERGY PREDICTED BY IDOCK:   -4.46 KCAL/MOL
REMARK 924 INTRA-LIGAND FREE ENERGY PREDICTED BY IDOCK:   -0.21 KCAL/MOL
REMARK 927      BINDING AFFINITY PREDICTED BY RF-SCORE:    0.00 PKD
ROOT
HETATM    1  C   UNL     1     -11.552  13.845  69.037  1.00  0.00    -0.351 C  
HETATM    2  C   UNL     1     -10.614  12.948  68.242  1.00  0.00    -0.246 C  
HETATM    3  N   UNL     1      -9.227  13.045  68.756  1.00  0.00    -0.395 NA 
HETATM    4  H1  UNL     1      -8.598  12.444  68.224  1.00  0.00     0.000 HD 
HETATM    5  H2  UNL     1      -9.182  12.847  69.756  1.00  0.00     0.000 HD 
ENDROOT
BRANCH   2   6
HETATM    6  C   UNL     1     -11.087  11.477  68.253  1.00  0.00    -0.239 C  
HETATM    7  O   UNL     1     -12.260  11.142  68.125  1.00  0.00    -0.612 OA 
HETATM    8  N   UNL     1     -10.010  10.611  68.392  1.00  0.00    -0.158 N  
HETATM    9  H   UNL     1      -9.063  10.987  68.422  1.00  0.00     0.000 HD 
BRANCH   8  10
HETATM   10  C   UNL     1     -10.207   9.218  68.490  1.00  0.00    -0.201 A  
HETATM   11  C   UNL     1     -10.410   8.615  69.747  1.00  0.00    -0.212 A  
HETATM   12  C   UNL     1     -10.322   9.352  71.056  1.00  0.00    -0.382 C  
HETATM   13  C   UNL     1     -10.760   7.253  69.792  1.00  0.00    -0.253 A  
HETATM   14  C   UNL     1     -10.885   6.507  68.626  1.00  0.00    -0.357 A  
HETATM   15  C   UNL     1     -10.633   7.098  67.392  1.00  0.00    -0.372 A  
HETATM   16  C   UNL     1     -10.291   8.455  67.307  1.00  0.00    -0.369 A  
HETATM   17  C   UNL     1      -9.893   9.030  65.975  1.00  0.00    -0.312 C  
ENDBRANCH   8  10
ENDBRANCH   2   6
TORSDOF 2
ENDMDL
MODEL       85
REMARK 921   NORMALIZED FREE ENERGY PREDICTED BY IDOCK:   -3.92 KCAL/MOL
REMARK 922        TOTAL FREE ENERGY PREDICTED BY IDOCK:   -4.64 KCAL/MOL
REMARK 923 INTER-LIGAND FREE ENERGY PREDICTED BY IDOCK:   -4.44 KCAL/MOL
REMARK 924 INTRA-LIGAND FREE ENERGY PREDICTED BY IDOCK:   -0.20 KCAL/MOL
REMARK 927      BINDING AFFINITY PREDICTED BY RF-SCORE:    0.00 PKD
ROOT
HETATM    1  C   UNL     1      -9.847   8.748  66.288  1.00  0.00    -0.342 C  
HETATM    2  C   UNL     1     -10.642   7.736  67.100  1.00  0.00    -0.331 C  
HETATM    3  N   UNL     1     -10.545   6.383  66.501  1.00  0.00    -0.493 NA 
HETATM    4  H1  UNL     1     -11.077   5.704  67.045  1.00  0.00     0.000 HD 
HETATM    5  H2  UNL     1      -9.575   6.093  66.382  1.00  0.00     0.000 HD 
ENDROOT
BRANCH   2   6
HETATM    6  C   UNL     1     -10.181   7.701  68.575  1.00  0.00    -0.199 C  
HETATM    7  O   UNL     1      -9.095   8.128  68.955  1.00  0.00    -0.147 OA 
HETATM    8  N   UNL     1     -11.168   7.161  69.390  1.00  0.00    -0.469 N  
HETATM    9  H   UNL     1     -12.066   6.898  68.985  1.00  0.00     0.000 HD 
BRANCH   8  10
HETATM   10  C   UNL     1     -10.946   6.973  70.770  1.00  0.00    -0.255 A  
HETATM   11  C   UNL     1     -10.299   5.810  71.234  1.00  0.00    -0.281 A  
HETATM   12  C   UNL     1      -9.907   4.658  70.350  1.00  0.00    -0.306 C  
HETATM   13  C   UNL     1      -9.954   5.730  72.596  1.00  0.00    -0.198 A  
HETATM   14  C   UNL     1     -10.259   6.763  73.474  1.00  0.00    -0.320 A  
HETATM   15  C   UNL     1     -10.944   7.885  73.017  1.00  0.00    -0.398 A  
HETATM   16  C   UNL     1     -11.297   8.004  71.665  1.00  0.00    -0.306 A  
HETATM   17  C   UNL     1     -12.152   9.162  71.229  1.00  0.00    -0.392 C  
ENDBRANCH   8  10
ENDBRANCH   2   6
TORSDOF 2
ENDMDL
MODEL       86
REMARK 921   NORMALIZED FREE ENERGY PREDICTED BY IDOCK:   -3.91 KCAL/MOL
REMARK 922        TOTAL FREE ENERGY PREDICTED BY IDOCK:   -4.63 KCAL/MOL
REMARK 923 INTER-LIGAND FREE ENERGY PREDICTED BY IDOCK:   -4.41 KCAL/MOL
REMARK 924 INTRA-LIGAND FREE ENERGY PREDICTED BY IDOCK:   -0.22 KCAL/MOL
REMARK 927      BINDING AFFINITY PREDICTED BY RF-SCORE:    0.00 PKD
ROOT
HETATM    1  C   UNL     1     -12.177  12.728  63.389  1.00  0.00    -0.594 C  
HETATM    2  C   UNL     1     -11.891  13.473  64.685  1.00  0.00    -0.394 C  
HETATM    3  N   UNL     1     -13.129  14.078  65.232  1.00  0.00    -0.765 NA 
HETATM    4  H1  UNL     1     -12.938  14.577  66.101  1.00  0.00     0.000 HD 
HETATM    5  H2  UNL     1     -13.867  13.383  65.351  1.00  0.00     0.000 HD 
ENDROOT
BRANCH   2   6
HETATM    6  C   UNL     1     -11.236  12.551  65.739  1.00  0.00    -0.320 C  
HETATM    7  O   UNL     1     -11.867  11.968  66.614  1.00  0.00    -0.583 OA 
HETATM    8  N   UNL     1      -9.865  12.458  65.532  1.00  0.00    -0.355 N  
HETATM    9  H   UNL     1      -9.445  12.929  64.731  1.00  0.00     0.000 HD 
BRANCH   8  10
HETATM   10  C   UNL     1      -9.048  11.719  66.411  1.00  0.00    -0.213 A  
HETATM   11  C   UNL     1      -8.439  12.348  67.515  1.00  0.00    -0.175 A  
HETATM   12  C   UNL     1      -8.507  13.827  67.780  1.00  0.00    -0.181 C  
HETATM   13  C   UNL     1      -7.763  11.551  68.457  1.00  0.00    -0.134 A  
HETATM   14  C   UNL     1      -7.675  10.173  68.297  1.00  0.00    -0.088 A  
HETATM   15  C   UNL     1      -8.235   9.566  67.177  1.00  0.00    -0.113 A  
HETATM   16  C   UNL     1      -8.924  10.327  66.222  1.00  0.00    -0.172 A  
HETATM   17  C   UNL     1      -9.400   9.664  64.958  1.00  0.00    -0.319 C  
ENDBRANCH   8  10
ENDBRANCH   2   6
TORSDOF 2
ENDMDL
MODEL       87
REMARK 921   NORMALIZED FREE ENERGY PREDICTED BY IDOCK:   -3.90 KCAL/MOL
REMARK 922        TOTAL FREE ENERGY PREDICTED BY IDOCK:   -4.61 KCAL/MOL
REMARK 923 INTER-LIGAND FREE ENERGY PREDICTED BY IDOCK:   -4.37 KCAL/MOL
REMARK 924 INTRA-LIGAND FREE ENERGY PREDICTED BY IDOCK:   -0.24 KCAL/MOL
REMARK 927      BINDING AFFINITY PREDICTED BY RF-SCORE:    0.00 PKD
ROOT
HETATM    1  C   UNL     1      -7.979   8.189  68.787  1.00  0.00    -0.115 C  
HETATM    2  C   UNL     1      -8.013   9.269  69.859  1.00  0.00    -0.113 C  
HETATM    3  N   UNL     1      -8.045  10.620  69.250  1.00  0.00    -0.254 NA 
HETATM    4  H1  UNL     1      -8.069  11.343  69.969  1.00  0.00     0.000 HD 
HETATM    5  H2  UNL     1      -8.818  10.718  68.592  1.00  0.00     0.000 HD 
ENDROOT
BRANCH   2   6
HETATM    6  C   UNL     1      -9.214   9.084  70.814  1.00  0.00    -0.245 C  
HETATM    7  O   UNL     1      -9.125   9.160  72.036  1.00  0.00    -0.337 OA 
HETATM    8  N   UNL     1     -10.385   8.861  70.101  1.00  0.00    -0.199 N  
HETATM    9  H   UNL     1     -10.365   8.886  69.082  1.00  0.00     0.000 HD 
BRANCH   8  10
HETATM   10  C   UNL     1     -11.601   8.603  70.766  1.00  0.00    -0.242 A  
HETATM   11  C   UNL     1     -12.454   9.665  71.129  1.00  0.00    -0.421 A  
HETATM   12  C   UNL     1     -12.106  11.117  70.953  1.00  0.00    -0.427 C  
HETATM   13  C   UNL     1     -13.727   9.359  71.646  1.00  0.00    -0.393 A  
HETATM   14  C   UNL     1     -14.133   8.041  71.817  1.00  0.00    -0.517 A  
HETATM   15  C   UNL     1     -13.265   7.000  71.504  1.00  0.00    -0.382 A  
HETATM   16  C   UNL     1     -11.993   7.265  70.978  1.00  0.00    -0.362 A  
HETATM   17  C   UNL     1     -11.030   6.127  70.778  1.00  0.00    -0.365 C  
ENDBRANCH   8  10
ENDBRANCH   2   6
TORSDOF 2
ENDMDL
MODEL       88
REMARK 921   NORMALIZED FREE ENERGY PREDICTED BY IDOCK:   -3.89 KCAL/MOL
REMARK 922        TOTAL FREE ENERGY PREDICTED BY IDOCK:   -4.60 KCAL/MOL
REMARK 923 INTER-LIGAND FREE ENERGY PREDICTED BY IDOCK:   -4.40 KCAL/MOL
REMARK 924 INTRA-LIGAND FREE ENERGY PREDICTED BY IDOCK:   -0.20 KCAL/MOL
REMARK 927      BINDING AFFINITY PREDICTED BY RF-SCORE:    0.00 PKD
ROOT
HETATM    1  C   UNL     1     -10.106   4.263  71.835  1.00  0.00    -0.237 C  
HETATM    2  C   UNL     1      -9.744   5.009  70.558  1.00  0.00    -0.204 C  
HETATM    3  N   UNL     1      -9.674   4.081  69.404  1.00  0.00    -0.183 NA 
HETATM    4  H1  UNL     1      -9.433   4.581  68.549  1.00  0.00     0.000 HD 
HETATM    5  H2  UNL     1     -10.537   3.547  69.298  1.00  0.00     0.000 HD 
ENDROOT
BRANCH   2   6
HETATM    6  C   UNL     1     -10.742   6.152  70.265  1.00  0.00    -0.291 C  
HETATM    7  O   UNL     1     -11.370   6.250  69.216  1.00  0.00    -0.410 OA 
HETATM    8  N   UNL     1     -10.844   7.012  71.351  1.00  0.00    -0.227 N  
HETATM    9  H   UNL     1     -10.328   6.805  72.206  1.00  0.00     0.000 HD 
BRANCH   8  10
HETATM   10  C   UNL     1     -11.651   8.167  71.289  1.00  0.00    -0.273 A  
HETATM   11  C   UNL     1     -13.017   8.098  71.624  1.00  0.00    -0.352 A  
HETATM   12  C   UNL     1     -13.739   6.820  71.951  1.00  0.00    -0.119 C  
HETATM   13  C   UNL     1     -13.752   9.296  71.704  1.00  0.00    -0.421 A  
HETATM   14  C   UNL     1     -13.153  10.523  71.440  1.00  0.00    -0.509 A  
HETATM   15  C   UNL     1     -11.815  10.576  71.060  1.00  0.00    -0.438 A  
HETATM   16  C   UNL     1     -11.049   9.404  70.979  1.00  0.00    -0.414 A  
HETATM   17  C   UNL     1      -9.648   9.479  70.436  1.00  0.00    -0.326 C  
ENDBRANCH   8  10
ENDBRANCH   2   6
TORSDOF 2
ENDMDL
MODEL       89
REMARK 921   NORMALIZED FREE ENERGY PREDICTED BY IDOCK:   -3.88 KCAL/MOL
REMARK 922        TOTAL FREE ENERGY PREDICTED BY IDOCK:   -4.60 KCAL/MOL
REMARK 923 INTER-LIGAND FREE ENERGY PREDICTED BY IDOCK:   -4.49 KCAL/MOL
REMARK 924 INTRA-LIGAND FREE ENERGY PREDICTED BY IDOCK:   -0.11 KCAL/MOL
REMARK 927      BINDING AFFINITY PREDICTED BY RF-SCORE:    0.00 PKD
ROOT
HETATM    1  C   UNL     1      -9.198  10.114  64.088  1.00  0.00    -0.314 C  
HETATM    2  C   UNL     1      -9.878  11.475  64.030  1.00  0.00    -0.274 C  
HETATM    3  N   UNL     1     -11.077  11.430  63.161  1.00  0.00    -0.843 NA 
HETATM    4  H1  UNL     1     -11.534  12.342  63.122  1.00  0.00     0.000 HD 
HETATM    5  H2  UNL     1     -11.725  10.697  63.449  1.00  0.00     0.000 HD 
ENDROOT
BRANCH   2   6
HETATM    6  C   UNL     1     -10.258  11.982  65.440  1.00  0.00    -0.263 C  
HETATM    7  O   UNL     1     -10.778  11.274  66.296  1.00  0.00    -0.262 OA 
HETATM    8  N   UNL     1      -9.901  13.315  65.601  1.00  0.00    -0.446 N  
HETATM    9  H   UNL     1      -9.410  13.798  64.849  1.00  0.00     0.000 HD 
BRANCH   8  10
HETATM   10  C   UNL     1     -10.208  14.009  66.789  1.00  0.00    -0.264 A  
HETATM   11  C   UNL     1     -11.522  14.455  67.034  1.00  0.00    -0.376 A  
HETATM   12  C   UNL     1     -12.646  14.338  66.042  1.00  0.00    -0.335 C  
HETATM   13  C   UNL     1     -11.823  15.002  68.295  1.00  0.00    -0.295 A  
HETATM   14  C   UNL     1     -10.846  15.122  69.276  1.00  0.00    -0.255 A  
HETATM   15  C   UNL     1      -9.539  14.727  69.007  1.00  0.00    -0.178 A  
HETATM   16  C   UNL     1      -9.203  14.169  67.765  1.00  0.00    -0.193 A  
HETATM   17  C   UNL     1      -7.759  13.878  67.457  1.00  0.00    -0.192 C  
ENDBRANCH   8  10
ENDBRANCH   2   6
TORSDOF 2
ENDMDL
MODEL       90
REMARK 921   NORMALIZED FREE ENERGY PREDICTED BY IDOCK:   -3.88 KCAL/MOL
REMARK 922        TOTAL FREE ENERGY PREDICTED BY IDOCK:   -4.60 KCAL/MOL
REMARK 923 INTER-LIGAND FREE ENERGY PREDICTED BY IDOCK:   -4.43 KCAL/MOL
REMARK 924 INTRA-LIGAND FREE ENERGY PREDICTED BY IDOCK:   -0.17 KCAL/MOL
REMARK 927      BINDING AFFINITY PREDICTED BY RF-SCORE:    0.00 PKD
ROOT
HETATM    1  C   UNL     1     -12.504  11.772  63.341  1.00  0.00    -0.490 C  
HETATM    2  C   UNL     1     -11.756  12.974  63.901  1.00  0.00    -0.468 C  
HETATM    3  N   UNL     1     -12.612  14.184  63.884  1.00  0.00    -0.840 NA 
HETATM    4  H1  UNL     1     -12.111  14.989  64.260  1.00  0.00     0.000 HD 
HETATM    5  H2  UNL     1     -13.494  14.028  64.370  1.00  0.00     0.000 HD 
ENDROOT
BRANCH   2   6
HETATM    6  C   UNL     1     -11.239  12.705  65.333  1.00  0.00    -0.299 C  
HETATM    7  O   UNL     1     -11.964  12.692  66.323  1.00  0.00    -0.448 OA 
HETATM    8  N   UNL     1      -9.873  12.453  65.328  1.00  0.00    -0.414 N  
HETATM    9  H   UNL     1      -9.372  12.419  64.440  1.00  0.00     0.000 HD 
BRANCH   8  10
HETATM   10  C   UNL     1      -9.170  12.242  66.531  1.00  0.00    -0.219 A  
HETATM   11  C   UNL     1      -9.011  10.939  67.044  1.00  0.00    -0.148 A  
HETATM   12  C   UNL     1      -9.650   9.717  66.443  1.00  0.00    -0.256 C  
HETATM   13  C   UNL     1      -8.171  10.751  68.157  1.00  0.00    -0.119 A  
HETATM   14  C   UNL     1      -7.525  11.826  68.756  1.00  0.00    -0.109 A  
HETATM   15  C   UNL     1      -7.728  13.116  68.275  1.00  0.00    -0.141 A  
HETATM   16  C   UNL     1      -8.551  13.341  67.162  1.00  0.00    -0.197 A  
HETATM   17  C   UNL     1      -8.857  14.754  66.750  1.00  0.00    -0.281 C  
ENDBRANCH   8  10
ENDBRANCH   2   6
TORSDOF 2
ENDMDL
MODEL       91
REMARK 921   NORMALIZED FREE ENERGY PREDICTED BY IDOCK:   -3.88 KCAL/MOL
REMARK 922        TOTAL FREE ENERGY PREDICTED BY IDOCK:   -4.59 KCAL/MOL
REMARK 923 INTER-LIGAND FREE ENERGY PREDICTED BY IDOCK:   -4.41 KCAL/MOL
REMARK 924 INTRA-LIGAND FREE ENERGY PREDICTED BY IDOCK:   -0.18 KCAL/MOL
REMARK 927      BINDING AFFINITY PREDICTED BY RF-SCORE:    0.00 PKD
ROOT
HETATM    1  C   UNL     1      -9.713   9.303  70.861  1.00  0.00    -0.346 C  
HETATM    2  C   UNL     1      -9.947   9.047  69.379  1.00  0.00    -0.191 C  
HETATM    3  N   UNL     1     -11.257   8.390  69.155  1.00  0.00    -0.359 NA 
HETATM    4  H1  UNL     1     -11.414   8.220  68.162  1.00  0.00     0.000 HD 
HETATM    5  H2  UNL     1     -12.021   8.923  69.571  1.00  0.00     0.000 HD 
ENDROOT
BRANCH   2   6
HETATM    6  C   UNL     1      -9.856  10.352  68.555  1.00  0.00    -0.167 C  
HETATM    7  O   UNL     1      -8.871  11.084  68.553  1.00  0.00    -0.147 OA 
HETATM    8  N   UNL     1     -11.011  10.550  67.810  1.00  0.00    -0.294 N  
HETATM    9  H   UNL     1     -11.748   9.845  67.828  1.00  0.00     0.000 HD 
BRANCH   8  10
HETATM   10  C   UNL     1     -11.179  11.711  67.027  1.00  0.00    -0.314 A  
HETATM   11  C   UNL     1     -10.841  11.703  65.660  1.00  0.00    -0.330 A  
HETATM   12  C   UNL     1     -10.186  10.541  64.964  1.00  0.00    -0.365 C  
HETATM   13  C   UNL     1     -11.170  12.825  64.877  1.00  0.00    -0.331 A  
HETATM   14  C   UNL     1     -11.798  13.931  65.440  1.00  0.00    -0.363 A  
HETATM   15  C   UNL     1     -12.082  13.951  66.802  1.00  0.00    -0.476 A  
HETATM   16  C   UNL     1     -11.777  12.847  67.611  1.00  0.00    -0.422 A  
HETATM   17  C   UNL     1     -11.972  12.951  69.099  1.00  0.00    -0.308 C  
ENDBRANCH   8  10
ENDBRANCH   2   6
TORSDOF 2
ENDMDL
MODEL       92
REMARK 921   NORMALIZED FREE ENERGY PREDICTED BY IDOCK:   -3.86 KCAL/MOL
REMARK 922        TOTAL FREE ENERGY PREDICTED BY IDOCK:   -4.57 KCAL/MOL
REMARK 923 INTER-LIGAND FREE ENERGY PREDICTED BY IDOCK:   -4.35 KCAL/MOL
REMARK 924 INTRA-LIGAND FREE ENERGY PREDICTED BY IDOCK:   -0.22 KCAL/MOL
REMARK 927      BINDING AFFINITY PREDICTED BY RF-SCORE:    0.00 PKD
ROOT
HETATM    1  C   UNL     1      -9.785   7.958  66.451  1.00  0.00    -0.235 C  
HETATM    2  C   UNL     1     -10.866   7.179  67.188  1.00  0.00    -0.333 C  
HETATM    3  N   UNL     1     -11.147   5.892  66.508  1.00  0.00    -0.760 NA 
HETATM    4  H1  UNL     1     -11.870   5.369  67.002  1.00  0.00     0.000 HD 
HETATM    5  H2  UNL     1     -10.299   5.338  66.386  1.00  0.00     0.000 HD 
ENDROOT
BRANCH   2   6
HETATM    6  C   UNL     1     -10.483   6.932  68.665  1.00  0.00    -0.195 C  
HETATM    7  O   UNL     1     -10.008   5.876  69.073  1.00  0.00    -0.146 OA 
HETATM    8  N   UNL     1     -10.716   8.064  69.434  1.00  0.00    -0.349 N  
HETATM    9  H   UNL     1     -11.049   8.917  68.985  1.00  0.00     0.000 HD 
BRANCH   8  10
HETATM   10  C   UNL     1     -10.498   8.052  70.827  1.00  0.00    -0.206 A  
HETATM   11  C   UNL     1     -11.472   7.518  71.695  1.00  0.00    -0.292 A  
HETATM   12  C   UNL     1     -12.825   7.039  71.246  1.00  0.00    -0.376 C  
HETATM   13  C   UNL     1     -11.153   7.378  73.059  1.00  0.00    -0.390 A  
HETATM   14  C   UNL     1      -9.915   7.775  73.550  1.00  0.00    -0.286 A  
HETATM   15  C   UNL     1      -8.979   8.349  72.695  1.00  0.00    -0.304 A  
HETATM   16  C   UNL     1      -9.257   8.496  71.328  1.00  0.00    -0.256 A  
HETATM   17  C   UNL     1      -8.283   9.241  70.457  1.00  0.00    -0.219 C  
ENDBRANCH   8  10
ENDBRANCH   2   6
TORSDOF 2
ENDMDL
MODEL       93
REMARK 921   NORMALIZED FREE ENERGY PREDICTED BY IDOCK:   -3.85 KCAL/MOL
REMARK 922        TOTAL FREE ENERGY PREDICTED BY IDOCK:   -4.56 KCAL/MOL
REMARK 923 INTER-LIGAND FREE ENERGY PREDICTED BY IDOCK:   -4.33 KCAL/MOL
REMARK 924 INTRA-LIGAND FREE ENERGY PREDICTED BY IDOCK:   -0.23 KCAL/MOL
REMARK 927      BINDING AFFINITY PREDICTED BY RF-SCORE:    0.00 PKD
ROOT
HETATM    1  C   UNL     1      -7.195  16.374  68.041  1.00  0.00    -0.145 C  
HETATM    2  C   UNL     1      -7.385  14.868  68.157  1.00  0.00    -0.117 C  
HETATM    3  N   UNL     1      -7.170  14.413  69.551  1.00  0.00    -0.310 NA 
HETATM    4  H1  UNL     1      -7.298  13.404  69.629  1.00  0.00     0.000 HD 
HETATM    5  H2  UNL     1      -7.763  14.919  70.208  1.00  0.00     0.000 HD 
ENDROOT
BRANCH   2   6
HETATM    6  C   UNL     1      -8.783  14.431  67.661  1.00  0.00    -0.189 C  
HETATM    7  O   UNL     1      -9.752  14.297  68.402  1.00  0.00    -0.215 OA 
HETATM    8  N   UNL     1      -8.787  14.251  66.284  1.00  0.00    -0.460 N  
HETATM    9  H   UNL     1      -7.944  14.455  65.748  1.00  0.00     0.000 HD 
BRANCH   8  10
HETATM   10  C   UNL     1      -9.940  13.791  65.616  1.00  0.00    -0.255 A  
HETATM   11  C   UNL     1     -10.166  12.410  65.456  1.00  0.00    -0.297 A  
HETATM   12  C   UNL     1      -9.184  11.346  65.862  1.00  0.00    -0.231 C  
HETATM   13  C   UNL     1     -11.400  11.987  64.928  1.00  0.00    -0.366 A  
HETATM   14  C   UNL     1     -12.371  12.907  64.550  1.00  0.00    -0.483 A  
HETATM   15  C   UNL     1     -12.119  14.270  64.664  1.00  0.00    -0.478 A  
HETATM   16  C   UNL     1     -10.904  14.729  65.194  1.00  0.00    -0.417 A  
HETATM   17  C   UNL     1     -10.608  16.204  65.179  1.00  0.00    -0.366 C  
ENDBRANCH   8  10
ENDBRANCH   2   6
TORSDOF 2
ENDMDL
MODEL       94
REMARK 921   NORMALIZED FREE ENERGY PREDICTED BY IDOCK:   -3.85 KCAL/MOL
REMARK 922        TOTAL FREE ENERGY PREDICTED BY IDOCK:   -4.56 KCAL/MOL
REMARK 923 INTER-LIGAND FREE ENERGY PREDICTED BY IDOCK:   -4.37 KCAL/MOL
REMARK 924 INTRA-LIGAND FREE ENERGY PREDICTED BY IDOCK:   -0.19 KCAL/MOL
REMARK 927      BINDING AFFINITY PREDICTED BY RF-SCORE:    0.00 PKD
ROOT
HETATM    1  C   UNL     1     -10.574  10.291  69.529  1.00  0.00    -0.270 C  
HETATM    2  C   UNL     1     -11.856  11.109  69.461  1.00  0.00    -0.353 C  
HETATM    3  N   UNL     1     -12.413  11.335  70.816  1.00  0.00    -0.373 NA 
HETATM    4  H1  UNL     1     -13.271  11.884  70.771  1.00  0.00     0.000 HD 
HETATM    5  H2  UNL     1     -11.726  11.761  71.438  1.00  0.00     0.000 HD 
ENDROOT
BRANCH   2   6
HETATM    6  C   UNL     1     -11.633  12.459  68.742  1.00  0.00    -0.326 C  
HETATM    7  O   UNL     1     -12.210  13.495  69.054  1.00  0.00    -0.320 OA 
HETATM    8  N   UNL     1     -10.680  12.335  67.739  1.00  0.00    -0.211 N  
HETATM    9  H   UNL     1     -10.206  11.442  67.603  1.00  0.00     0.000 HD 
BRANCH   8  10
HETATM   10  C   UNL     1     -10.357  13.425  66.906  1.00  0.00    -0.257 A  
HETATM   11  C   UNL     1     -11.231  13.813  65.871  1.00  0.00    -0.305 A  
HETATM   12  C   UNL     1     -12.478  13.060  65.499  1.00  0.00    -0.496 C  
HETATM   13  C   UNL     1     -10.954  14.999  65.165  1.00  0.00    -0.417 A  
HETATM   14  C   UNL     1      -9.833  15.765  65.464  1.00  0.00    -0.300 A  
HETATM   15  C   UNL     1      -8.949  15.348  66.454  1.00  0.00    -0.351 A  
HETATM   16  C   UNL     1      -9.196  14.176  67.184  1.00  0.00    -0.237 A  
HETATM   17  C   UNL     1      -8.156  13.680  68.150  1.00  0.00    -0.156 C  
ENDBRANCH   8  10
ENDBRANCH   2   6
TORSDOF 2
ENDMDL
MODEL       95
REMARK 921   NORMALIZED FREE ENERGY PREDICTED BY IDOCK:   -3.84 KCAL/MOL
REMARK 922        TOTAL FREE ENERGY PREDICTED BY IDOCK:   -4.55 KCAL/MOL
REMARK 923 INTER-LIGAND FREE ENERGY PREDICTED BY IDOCK:   -4.42 KCAL/MOL
REMARK 924 INTRA-LIGAND FREE ENERGY PREDICTED BY IDOCK:   -0.14 KCAL/MOL
REMARK 927      BINDING AFFINITY PREDICTED BY RF-SCORE:    0.00 PKD
ROOT
HETATM    1  C   UNL     1      -9.481   9.755  70.307  1.00  0.00    -0.250 C  
HETATM    2  C   UNL     1     -10.761   9.601  69.496  1.00  0.00    -0.232 C  
HETATM    3  N   UNL     1     -11.858   9.064  70.336  1.00  0.00    -0.468 NA 
HETATM    4  H1  UNL     1     -12.715   8.961  69.793  1.00  0.00     0.000 HD 
HETATM    5  H2  UNL     1     -12.006   9.632  71.170  1.00  0.00     0.000 HD 
ENDROOT
BRANCH   2   6
HETATM    6  C   UNL     1     -11.188  10.937  68.848  1.00  0.00    -0.267 C  
HETATM    7  O   UNL     1     -12.196  11.064  68.161  1.00  0.00    -0.578 OA 
HETATM    8  N   UNL     1     -10.303  11.955  69.180  1.00  0.00    -0.420 N  
HETATM    9  H   UNL     1      -9.530  11.761  69.816  1.00  0.00     0.000 HD 
BRANCH   8  10
HETATM   10  C   UNL     1     -10.458  13.252  68.650  1.00  0.00    -0.228 A  
HETATM   11  C   UNL     1     -11.394  14.143  69.212  1.00  0.00    -0.324 A  
HETATM   12  C   UNL     1     -12.356  13.770  70.306  1.00  0.00    -0.407 C  
HETATM   13  C   UNL     1     -11.408  15.477  68.762  1.00  0.00    -0.339 A  
HETATM   14  C   UNL     1     -10.535  15.908  67.770  1.00  0.00    -0.287 A  
HETATM   15  C   UNL     1      -9.649  15.008  67.185  1.00  0.00    -0.222 A  
HETATM   16  C   UNL     1      -9.599  13.674  67.614  1.00  0.00    -0.221 A  
HETATM   17  C   UNL     1      -8.730  12.696  66.872  1.00  0.00    -0.175 C  
ENDBRANCH   8  10
ENDBRANCH   2   6
TORSDOF 2
ENDMDL
MODEL       96
REMARK 921   NORMALIZED FREE ENERGY PREDICTED BY IDOCK:   -3.83 KCAL/MOL
REMARK 922        TOTAL FREE ENERGY PREDICTED BY IDOCK:   -4.54 KCAL/MOL
REMARK 923 INTER-LIGAND FREE ENERGY PREDICTED BY IDOCK:   -4.44 KCAL/MOL
REMARK 924 INTRA-LIGAND FREE ENERGY PREDICTED BY IDOCK:   -0.10 KCAL/MOL
REMARK 927      BINDING AFFINITY PREDICTED BY RF-SCORE:    0.00 PKD
ROOT
HETATM    1  C   UNL     1     -12.547  14.092  70.766  1.00  0.00    -0.432 C  
HETATM    2  C   UNL     1     -12.449  15.585  70.481  1.00  0.00    -0.427 C  
HETATM    3  N   UNL     1     -11.903  16.312  71.652  1.00  0.00    -0.646 NA 
HETATM    4  H1  UNL     1     -11.837  17.312  71.461  1.00  0.00     0.000 HD 
HETATM    5  H2  UNL     1     -11.008  15.926  71.951  1.00  0.00     0.000 HD 
ENDROOT
BRANCH   2   6
HETATM    6  C   UNL     1     -11.592  15.870  69.227  1.00  0.00    -0.369 C  
HETATM    7  O   UNL     1     -11.984  15.675  68.081  1.00  0.00    -0.207 OA 
HETATM    8  N   UNL     1     -10.357  16.399  69.580  1.00  0.00    -0.288 N  
HETATM    9  H   UNL     1     -10.153  16.587  70.561  1.00  0.00     0.000 HD 
BRANCH   8  10
HETATM   10  C   UNL     1      -9.382  16.680  68.601  1.00  0.00    -0.247 A  
HETATM   11  C   UNL     1      -9.179  18.002  68.159  1.00  0.00    -0.283 A  
HETATM   12  C   UNL     1     -10.026  19.170  68.585  1.00  0.00    -0.486 C  
HETATM   13  C   UNL     1      -8.093  18.266  67.302  1.00  0.00    -0.233 A  
HETATM   14  C   UNL     1      -7.249  17.245  66.881  1.00  0.00    -0.235 A  
HETATM   15  C   UNL     1      -7.488  15.935  67.283  1.00  0.00    -0.244 A  
HETATM   16  C   UNL     1      -8.554  15.635  68.143  1.00  0.00    -0.159 A  
HETATM   17  C   UNL     1      -8.867  14.196  68.449  1.00  0.00    -0.187 C  
ENDBRANCH   8  10
ENDBRANCH   2   6
TORSDOF 2
ENDMDL
MODEL       97
REMARK 921   NORMALIZED FREE ENERGY PREDICTED BY IDOCK:   -3.83 KCAL/MOL
REMARK 922        TOTAL FREE ENERGY PREDICTED BY IDOCK:   -4.54 KCAL/MOL
REMARK 923 INTER-LIGAND FREE ENERGY PREDICTED BY IDOCK:   -4.38 KCAL/MOL
REMARK 924 INTRA-LIGAND FREE ENERGY PREDICTED BY IDOCK:   -0.15 KCAL/MOL
REMARK 927      BINDING AFFINITY PREDICTED BY RF-SCORE:    0.00 PKD
ROOT
HETATM    1  C   UNL     1     -10.982  15.943  64.927  1.00  0.00    -0.427 C  
HETATM    2  C   UNL     1     -10.125  15.495  66.103  1.00  0.00    -0.309 C  
HETATM    3  N   UNL     1      -9.494  14.182  65.828  1.00  0.00    -0.526 NA 
HETATM    4  H1  UNL     1      -8.919  13.882  66.616  1.00  0.00     0.000 HD 
HETATM    5  H2  UNL     1      -8.962  14.195  64.958  1.00  0.00     0.000 HD 
ENDROOT
BRANCH   2   6
HETATM    6  C   UNL     1      -9.046  16.545  66.453  1.00  0.00    -0.297 C  
HETATM    7  O   UNL     1      -8.415  17.174  65.610  1.00  0.00    -0.460 OA 
HETATM    8  N   UNL     1      -8.924  16.691  67.829  1.00  0.00    -0.209 N  
HETATM    9  H   UNL     1      -9.546  16.169  68.447  1.00  0.00     0.000 HD 
BRANCH   8  10
HETATM   10  C   UNL     1      -7.955  17.551  68.384  1.00  0.00    -0.261 A  
HETATM   11  C   UNL     1      -8.276  18.892  68.674  1.00  0.00    -0.380 A  
HETATM   12  C   UNL     1      -9.590  19.535  68.324  1.00  0.00    -0.464 C  
HETATM   13  C   UNL     1      -7.337  19.674  69.371  1.00  0.00    -0.229 A  
HETATM   14  C   UNL     1      -6.108  19.147  69.752  1.00  0.00    -0.285 A  
HETATM   15  C   UNL     1      -5.779  17.837  69.417  1.00  0.00    -0.221 A  
HETATM   16  C   UNL     1      -6.694  17.025  68.730  1.00  0.00    -0.193 A  
HETATM   17  C   UNL     1      -6.259  15.663  68.265  1.00  0.00    -0.120 C  
ENDBRANCH   8  10
ENDBRANCH   2   6
TORSDOF 2
ENDMDL
MODEL       98
REMARK 921   NORMALIZED FREE ENERGY PREDICTED BY IDOCK:   -3.82 KCAL/MOL
REMARK 922        TOTAL FREE ENERGY PREDICTED BY IDOCK:   -4.52 KCAL/MOL
REMARK 923 INTER-LIGAND FREE ENERGY PREDICTED BY IDOCK:   -4.24 KCAL/MOL
REMARK 924 INTRA-LIGAND FREE ENERGY PREDICTED BY IDOCK:   -0.28 KCAL/MOL
REMARK 927      BINDING AFFINITY PREDICTED BY RF-SCORE:    0.00 PKD
ROOT
HETATM    1  C   UNL     1     -10.123   8.096  66.856  1.00  0.00    -0.367 C  
HETATM    2  C   UNL     1      -8.875   8.968  66.864  1.00  0.00    -0.116 C  
HETATM    3  N   UNL     1      -7.875   8.469  65.890  1.00  0.00    -0.096 NA 
HETATM    4  H1  UNL     1      -7.039   9.054  65.895  1.00  0.00     0.000 HD 
HETATM    5  H2  UNL     1      -8.270   8.385  64.954  1.00  0.00     0.000 HD 
ENDROOT
BRANCH   2   6
HETATM    6  C   UNL     1      -9.213  10.448  66.573  1.00  0.00    -0.160 C  
HETATM    7  O   UNL     1      -8.401  11.361  66.682  1.00  0.00    -0.164 OA 
HETATM    8  N   UNL     1     -10.528  10.582  66.147  1.00  0.00    -0.205 N  
HETATM    9  H   UNL     1     -11.104   9.749  66.024  1.00  0.00     0.000 HD 
BRANCH   8  10
HETATM   10  C   UNL     1     -11.079  11.852  65.883  1.00  0.00    -0.316 A  
HETATM   11  C   UNL     1     -11.676  12.598  66.918  1.00  0.00    -0.453 A  
HETATM   12  C   UNL     1     -11.878  12.082  68.316  1.00  0.00    -0.351 C  
HETATM   13  C   UNL     1     -12.071  13.923  66.652  1.00  0.00    -0.485 A  
HETATM   14  C   UNL     1     -11.898  14.483  65.392  1.00  0.00    -0.344 A  
HETATM   15  C   UNL     1     -11.354  13.721  64.362  1.00  0.00    -0.375 A  
HETATM   16  C   UNL     1     -10.941  12.401  64.592  1.00  0.00    -0.344 A  
HETATM   17  C   UNL     1     -10.484  11.563  63.429  1.00  0.00    -0.466 C  
ENDBRANCH   8  10
ENDBRANCH   2   6
TORSDOF 2
ENDMDL
MODEL       99
REMARK 921   NORMALIZED FREE ENERGY PREDICTED BY IDOCK:   -3.81 KCAL/MOL
REMARK 922        TOTAL FREE ENERGY PREDICTED BY IDOCK:   -4.52 KCAL/MOL
REMARK 923 INTER-LIGAND FREE ENERGY PREDICTED BY IDOCK:   -4.28 KCAL/MOL
REMARK 924 INTRA-LIGAND FREE ENERGY PREDICTED BY IDOCK:   -0.24 KCAL/MOL
REMARK 927      BINDING AFFINITY PREDICTED BY RF-SCORE:    0.00 PKD
ROOT
HETATM    1  C   UNL     1     -10.256   4.973  71.140  1.00  0.00    -0.281 C  
HETATM    2  C   UNL     1     -10.035   6.087  70.126  1.00  0.00    -0.178 C  
HETATM    3  N   UNL     1     -10.823   5.846  68.894  1.00  0.00    -0.311 NA 
HETATM    4  H1  UNL     1     -10.675   6.592  68.215  1.00  0.00     0.000 HD 
HETATM    5  H2  UNL     1     -11.813   5.714  69.100  1.00  0.00     0.000 HD 
ENDROOT
BRANCH   2   6
HETATM    6  C   UNL     1     -10.380   7.472  70.719  1.00  0.00    -0.203 C  
HETATM    7  O   UNL     1      -9.740   8.000  71.623  1.00  0.00    -0.157 OA 
HETATM    8  N   UNL     1     -11.472   8.032  70.068  1.00  0.00    -0.469 N  
HETATM    9  H   UNL     1     -11.893   7.541  69.280  1.00  0.00     0.000 HD 
BRANCH   8  10
HETATM   10  C   UNL     1     -12.006   9.269  70.482  1.00  0.00    -0.066 A  
HETATM   11  C   UNL     1     -12.960   9.322  71.517  1.00  0.00    -0.429 A  
HETATM   12  C   UNL     1     -13.559   8.106  72.170  1.00  0.00    -0.270 C  
HETATM   13  C   UNL     1     -13.351  10.581  72.009  1.00  0.00    -0.420 A  
HETATM   14  C   UNL     1     -12.827  11.753  71.475  1.00  0.00    -0.450 A  
HETATM   15  C   UNL     1     -11.924  11.692  70.419  1.00  0.00    -0.448 A  
HETATM   16  C   UNL     1     -11.504  10.455  69.908  1.00  0.00    -0.368 A  
HETATM   17  C   UNL     1     -10.635  10.425  68.681  1.00  0.00    -0.234 C  
ENDBRANCH   8  10
ENDBRANCH   2   6
TORSDOF 2
ENDMDL
MODEL      100
REMARK 921   NORMALIZED FREE ENERGY PREDICTED BY IDOCK:   -3.81 KCAL/MOL
REMARK 922        TOTAL FREE ENERGY PREDICTED BY IDOCK:   -4.52 KCAL/MOL
REMARK 923 INTER-LIGAND FREE ENERGY PREDICTED BY IDOCK:   -4.33 KCAL/MOL
REMARK 924 INTRA-LIGAND FREE ENERGY PREDICTED BY IDOCK:   -0.19 KCAL/MOL
REMARK 927      BINDING AFFINITY PREDICTED BY RF-SCORE:    0.00 PKD
ROOT
HETATM    1  C   UNL     1      -7.015  10.163  70.300  1.00  0.00    -0.150 C  
HETATM    2  C   UNL     1      -8.185   9.469  69.617  1.00  0.00    -0.141 C  
HETATM    3  N   UNL     1      -7.760   8.183  69.016  1.00  0.00    -0.098 NA 
HETATM    4  H1  UNL     1      -8.545   7.717  68.559  1.00  0.00     0.000 HD 
HETATM    5  H2  UNL     1      -7.311   7.577  69.702  1.00  0.00     0.000 HD 
ENDROOT
BRANCH   2   6
HETATM    6  C   UNL     1      -9.360   9.240  70.595  1.00  0.00    -0.270 C  
HETATM    7  O   UNL     1      -9.217   9.102  71.805  1.00  0.00    -0.338 OA 
HETATM    8  N   UNL     1     -10.575   9.249  69.921  1.00  0.00    -0.217 N  
HETATM    9  H   UNL     1     -10.593   9.441  68.919  1.00  0.00     0.000 HD 
BRANCH   8  10
HETATM   10  C   UNL     1     -11.784   8.997  70.601  1.00  0.00    -0.198 A  
HETATM   11  C   UNL     1     -12.208   7.674  70.833  1.00  0.00    -0.194 A  
HETATM   12  C   UNL     1     -11.500   6.460  70.296  1.00  0.00    -0.468 C  
HETATM   13  C   UNL     1     -13.333   7.460  71.651  1.00  0.00    -0.426 A  
HETATM   14  C   UNL     1     -14.029   8.529  72.205  1.00  0.00    -0.464 A  
HETATM   15  C   UNL     1     -13.633   9.834  71.929  1.00  0.00    -0.421 A  
HETATM   16  C   UNL     1     -12.512  10.085  71.126  1.00  0.00    -0.480 A  
HETATM   17  C   UNL     1     -12.191  11.502  70.736  1.00  0.00    -0.463 C  
ENDBRANCH   8  10
ENDBRANCH   2   6
TORSDOF 2
ENDMDL
MODEL      101
REMARK 921   NORMALIZED FREE ENERGY PREDICTED BY IDOCK:   -3.81 KCAL/MOL
REMARK 922        TOTAL FREE ENERGY PREDICTED BY IDOCK:   -4.52 KCAL/MOL
REMARK 923 INTER-LIGAND FREE ENERGY PREDICTED BY IDOCK:   -4.33 KCAL/MOL
REMARK 924 INTRA-LIGAND FREE ENERGY PREDICTED BY IDOCK:   -0.19 KCAL/MOL
REMARK 927      BINDING AFFINITY PREDICTED BY RF-SCORE:    0.00 PKD
ROOT
HETATM    1  C   UNL     1     -11.390  13.930  68.334  1.00  0.00    -0.316 C  
HETATM    2  C   UNL     1     -11.465  15.439  68.526  1.00  0.00    -0.350 C  
HETATM    3  N   UNL     1     -10.930  15.830  69.852  1.00  0.00    -0.301 NA 
HETATM    4  H1  UNL     1     -10.979  16.841  69.981  1.00  0.00     0.000 HD 
HETATM    5  H2  UNL     1      -9.984  15.478  69.995  1.00  0.00     0.000 HD 
ENDROOT
BRANCH   2   6
HETATM    6  C   UNL     1     -10.717  16.193  67.403  1.00  0.00    -0.291 C  
HETATM    7  O   UNL     1     -10.976  16.064  66.211  1.00  0.00    -0.218 OA 
HETATM    8  N   UNL     1      -9.755  17.044  67.933  1.00  0.00    -0.257 N  
HETATM    9  H   UNL     1      -9.663  17.130  68.945  1.00  0.00     0.000 HD 
BRANCH   8  10
HETATM   10  C   UNL     1      -8.904  17.790  67.093  1.00  0.00    -0.246 A  
HETATM   11  C   UNL     1      -9.271  19.085  66.678  1.00  0.00    -0.351 A  
HETATM   12  C   UNL     1     -10.600  19.720  66.983  1.00  0.00    -0.586 C  
HETATM   13  C   UNL     1      -8.330  19.859  65.973  1.00  0.00    -0.298 A  
HETATM   14  C   UNL     1      -7.070  19.354  65.671  1.00  0.00    -0.292 A  
HETATM   15  C   UNL     1      -6.735  18.055  66.040  1.00  0.00    -0.323 A  
HETATM   16  C   UNL     1      -7.643  17.258  66.751  1.00  0.00    -0.270 A  
HETATM   17  C   UNL     1      -7.304  15.817  67.017  1.00  0.00    -0.226 C  
ENDBRANCH   8  10
ENDBRANCH   2   6
TORSDOF 2
ENDMDL
MODEL      102
REMARK 921   NORMALIZED FREE ENERGY PREDICTED BY IDOCK:   -3.81 KCAL/MOL
REMARK 922        TOTAL FREE ENERGY PREDICTED BY IDOCK:   -4.52 KCAL/MOL
REMARK 923 INTER-LIGAND FREE ENERGY PREDICTED BY IDOCK:   -4.29 KCAL/MOL
REMARK 924 INTRA-LIGAND FREE ENERGY PREDICTED BY IDOCK:   -0.22 KCAL/MOL
REMARK 927      BINDING AFFINITY PREDICTED BY RF-SCORE:    0.00 PKD
ROOT
HETATM    1  C   UNL     1     -11.797  12.914  67.304  1.00  0.00    -0.416 C  
HETATM    2  C   UNL     1     -11.301  11.631  66.653  1.00  0.00    -0.270 C  
HETATM    3  N   UNL     1     -10.092  11.886  65.834  1.00  0.00    -0.227 NA 
HETATM    4  H1  UNL     1      -9.759  11.026  65.398  1.00  0.00     0.000 HD 
HETATM    5  H2  UNL     1      -9.359  12.342  66.377  1.00  0.00     0.000 HD 
ENDROOT
BRANCH   2   6
HETATM    6  C   UNL     1     -11.013  10.534  67.703  1.00  0.00    -0.314 C  
HETATM    7  O   UNL     1     -11.021   9.334  67.449  1.00  0.00    -0.188 OA 
HETATM    8  N   UNL     1     -10.717  11.096  68.939  1.00  0.00    -0.197 N  
HETATM    9  H   UNL     1     -10.668  12.110  69.031  1.00  0.00     0.000 HD 
BRANCH   8  10
HETATM   10  C   UNL     1     -10.481  10.284  70.067  1.00  0.00    -0.241 A  
HETATM   11  C   UNL     1     -11.525   9.996  70.967  1.00  0.00    -0.463 A  
HETATM   12  C   UNL     1     -12.901  10.597  70.877  1.00  0.00    -0.473 C  
HETATM   13  C   UNL     1     -11.293   9.057  71.990  1.00  0.00    -0.395 A  
HETATM   14  C   UNL     1     -10.056   8.438  72.127  1.00  0.00    -0.376 A  
HETATM   15  C   UNL     1      -9.015   8.767  71.265  1.00  0.00    -0.295 A  
HETATM   16  C   UNL     1      -9.211   9.691  70.229  1.00  0.00    -0.285 A  
HETATM   17  C   UNL     1      -8.034  10.126  69.400  1.00  0.00    -0.155 C  
ENDBRANCH   8  10
ENDBRANCH   2   6
TORSDOF 2
ENDMDL
MODEL      103
REMARK 921   NORMALIZED FREE ENERGY PREDICTED BY IDOCK:   -3.79 KCAL/MOL
REMARK 922        TOTAL FREE ENERGY PREDICTED BY IDOCK:   -4.49 KCAL/MOL
REMARK 923 INTER-LIGAND FREE ENERGY PREDICTED BY IDOCK:   -4.25 KCAL/MOL
REMARK 924 INTRA-LIGAND FREE ENERGY PREDICTED BY IDOCK:   -0.24 KCAL/MOL
REMARK 927      BINDING AFFINITY PREDICTED BY RF-SCORE:    0.00 PKD
ROOT
HETATM    1  C   UNL     1     -10.354   5.675  69.569  1.00  0.00    -0.345 C  
HETATM    2  C   UNL     1      -9.183   6.646  69.508  1.00  0.00    -0.143 C  
HETATM    3  N   UNL     1      -8.681   6.782  68.119  1.00  0.00    -0.122 NA 
HETATM    4  H1  UNL     1      -7.897   7.433  68.078  1.00  0.00     0.000 HD 
HETATM    5  H2  UNL     1      -9.425   7.047  67.474  1.00  0.00     0.000 HD 
ENDROOT
BRANCH   2   6
HETATM    6  C   UNL     1      -9.562   8.032  70.078  1.00  0.00    -0.171 C  
HETATM    7  O   UNL     1      -8.764   8.772  70.643  1.00  0.00    -0.147 OA 
HETATM    8  N   UNL     1     -10.898   8.321  69.831  1.00  0.00    -0.312 N  
HETATM    9  H   UNL     1     -11.463   7.666  69.291  1.00  0.00     0.000 HD 
BRANCH   8  10
HETATM   10  C   UNL     1     -11.484   9.508  70.316  1.00  0.00    -0.206 A  
HETATM   11  C   UNL     1     -11.428  10.692  69.554  1.00  0.00    -0.360 A  
HETATM   12  C   UNL     1     -10.669  10.824  68.262  1.00  0.00    -0.253 C  
HETATM   13  C   UNL     1     -12.159  11.812  69.994  1.00  0.00    -0.387 A  
HETATM   14  C   UNL     1     -12.905  11.764  71.166  1.00  0.00    -0.365 A  
HETATM   15  C   UNL     1     -12.914  10.607  71.938  1.00  0.00    -0.542 A  
HETATM   16  C   UNL     1     -12.205   9.469  71.527  1.00  0.00    -0.468 A  
HETATM   17  C   UNL     1     -12.123   8.282  72.448  1.00  0.00    -0.430 C  
ENDBRANCH   8  10
ENDBRANCH   2   6
TORSDOF 2
ENDMDL
MODEL      104
REMARK 921   NORMALIZED FREE ENERGY PREDICTED BY IDOCK:   -3.78 KCAL/MOL
REMARK 922        TOTAL FREE ENERGY PREDICTED BY IDOCK:   -4.49 KCAL/MOL
REMARK 923 INTER-LIGAND FREE ENERGY PREDICTED BY IDOCK:   -4.36 KCAL/MOL
REMARK 924 INTRA-LIGAND FREE ENERGY PREDICTED BY IDOCK:   -0.13 KCAL/MOL
REMARK 927      BINDING AFFINITY PREDICTED BY RF-SCORE:    0.00 PKD
ROOT
HETATM    1  C   UNL     1     -11.554  11.916  66.955  1.00  0.00    -0.365 C  
HETATM    2  C   UNL     1     -11.180  12.580  68.273  1.00  0.00    -0.266 C  
HETATM    3  N   UNL     1     -10.383  11.661  69.121  1.00  0.00    -0.412 NA 
HETATM    4  H1  UNL     1     -10.132  12.106  70.004  1.00  0.00     0.000 HD 
HETATM    5  H2  UNL     1      -9.562  11.311  68.629  1.00  0.00     0.000 HD 
ENDROOT
BRANCH   2   6
HETATM    6  C   UNL     1     -10.410  13.901  68.047  1.00  0.00    -0.245 C  
HETATM    7  O   UNL     1      -9.188  13.990  68.103  1.00  0.00    -0.184 OA 
HETATM    8  N   UNL     1     -11.283  14.938  67.743  1.00  0.00    -0.309 N  
HETATM    9  H   UNL     1     -12.280  14.745  67.652  1.00  0.00     0.000 HD 
BRANCH   8  10
HETATM   10  C   UNL     1     -10.811  16.253  67.557  1.00  0.00    -0.268 A  
HETATM   11  C   UNL     1     -10.593  16.754  66.258  1.00  0.00    -0.190 A  
HETATM   12  C   UNL     1     -10.726  15.929  65.007  1.00  0.00    -0.426 C  
HETATM   13  C   UNL     1     -10.275  18.116  66.106  1.00  0.00    -0.372 A  
HETATM   14  C   UNL     1     -10.156  18.951  67.211  1.00  0.00    -0.414 A  
HETATM   15  C   UNL     1     -10.323  18.437  68.493  1.00  0.00    -0.326 A  
HETATM   16  C   UNL     1     -10.649  17.086  68.683  1.00  0.00    -0.362 A  
HETATM   17  C   UNL     1     -10.690  16.530  70.080  1.00  0.00    -0.222 C  
ENDBRANCH   8  10
ENDBRANCH   2   6
TORSDOF 2
ENDMDL
MODEL      105
REMARK 921   NORMALIZED FREE ENERGY PREDICTED BY IDOCK:   -3.78 KCAL/MOL
REMARK 922        TOTAL FREE ENERGY PREDICTED BY IDOCK:   -4.48 KCAL/MOL
REMARK 923 INTER-LIGAND FREE ENERGY PREDICTED BY IDOCK:   -4.26 KCAL/MOL
REMARK 924 INTRA-LIGAND FREE ENERGY PREDICTED BY IDOCK:   -0.22 KCAL/MOL
REMARK 927      BINDING AFFINITY PREDICTED BY RF-SCORE:    0.00 PKD
ROOT
HETATM    1  C   UNL     1     -10.906  19.560  67.479  1.00  0.00    -0.494 C  
HETATM    2  C   UNL     1     -10.066  19.160  66.275  1.00  0.00    -0.431 C  
HETATM    3  N   UNL     1      -9.678  20.350  65.481  1.00  0.00    -0.456 NA 
HETATM    4  H1  UNL     1      -9.114  20.082  64.674  1.00  0.00     0.000 HD 
HETATM    5  H2  UNL     1      -9.205  21.048  66.055  1.00  0.00     0.000 HD 
ENDROOT
BRANCH   2   6
HETATM    6  C   UNL     1      -8.809  18.365  66.696  1.00  0.00    -0.289 C  
HETATM    7  O   UNL     1      -7.956  17.978  65.904  1.00  0.00    -0.521 OA 
HETATM    8  N   UNL     1      -8.772  18.189  68.073  1.00  0.00    -0.263 N  
HETATM    9  H   UNL     1      -9.497  18.611  68.653  1.00  0.00     0.000 HD 
BRANCH   8  10
HETATM   10  C   UNL     1      -7.746  17.438  68.681  1.00  0.00    -0.273 A  
HETATM   11  C   UNL     1      -6.602  18.080  69.195  1.00  0.00    -0.253 A  
HETATM   12  C   UNL     1      -6.327  19.551  69.046  1.00  0.00    -0.321 C  
HETATM   13  C   UNL     1      -5.677  17.319  69.934  1.00  0.00    -0.236 A  
HETATM   14  C   UNL     1      -5.870  15.958  70.138  1.00  0.00    -0.157 A  
HETATM   15  C   UNL     1      -6.976  15.322  69.583  1.00  0.00    -0.188 A  
HETATM   16  C   UNL     1      -7.924  16.049  68.849  1.00  0.00    -0.212 A  
HETATM   17  C   UNL     1      -9.033  15.312  68.149  1.00  0.00    -0.173 C  
ENDBRANCH   8  10
ENDBRANCH   2   6
TORSDOF 2
ENDMDL
MODEL      106
REMARK 921   NORMALIZED FREE ENERGY PREDICTED BY IDOCK:   -3.77 KCAL/MOL
REMARK 922        TOTAL FREE ENERGY PREDICTED BY IDOCK:   -4.48 KCAL/MOL
REMARK 923 INTER-LIGAND FREE ENERGY PREDICTED BY IDOCK:   -4.25 KCAL/MOL
REMARK 924 INTRA-LIGAND FREE ENERGY PREDICTED BY IDOCK:   -0.23 KCAL/MOL
REMARK 927      BINDING AFFINITY PREDICTED BY RF-SCORE:    0.00 PKD
ROOT
HETATM    1  C   UNL     1      -9.076   8.790  68.276  1.00  0.00    -0.141 C  
HETATM    2  C   UNL     1      -8.192   9.191  67.103  1.00  0.00    -0.113 C  
HETATM    3  N   UNL     1      -8.116   8.100  66.101  1.00  0.00    -0.104 NA 
HETATM    4  H1  UNL     1      -7.524   8.369  65.315  1.00  0.00     0.000 HD 
HETATM    5  H2  UNL     1      -9.043   7.808  65.792  1.00  0.00     0.000 HD 
ENDROOT
BRANCH   2   6
HETATM    6  C   UNL     1      -8.686  10.495  66.437  1.00  0.00    -0.145 C  
HETATM    7  O   UNL     1      -7.978  11.485  66.282  1.00  0.00    -0.103 OA 
HETATM    8  N   UNL     1     -10.005  10.371  66.020  1.00  0.00    -0.229 N  
HETATM    9  H   UNL     1     -10.486   9.479  66.135  1.00  0.00     0.000 HD 
BRANCH   8  10
HETATM   10  C   UNL     1     -10.688  11.459  65.441  1.00  0.00    -0.253 A  
HETATM   11  C   UNL     1     -10.586  11.708  64.057  1.00  0.00    -0.426 A  
HETATM   12  C   UNL     1      -9.685  10.939  63.130  1.00  0.00    -0.396 C  
HETATM   13  C   UNL     1     -11.405  12.702  63.490  1.00  0.00    -0.527 A  
HETATM   14  C   UNL     1     -12.282  13.442  64.275  1.00  0.00    -0.450 A  
HETATM   15  C   UNL     1     -12.339  13.224  65.648  1.00  0.00    -0.521 A  
HETATM   16  C   UNL     1     -11.545  12.236  66.247  1.00  0.00    -0.446 A  
HETATM   17  C   UNL     1     -11.528  12.117  67.747  1.00  0.00    -0.398 C  
ENDBRANCH   8  10
ENDBRANCH   2   6
TORSDOF 2
ENDMDL
MODEL      107
REMARK 921   NORMALIZED FREE ENERGY PREDICTED BY IDOCK:   -3.76 KCAL/MOL
REMARK 922        TOTAL FREE ENERGY PREDICTED BY IDOCK:   -4.46 KCAL/MOL
REMARK 923 INTER-LIGAND FREE ENERGY PREDICTED BY IDOCK:   -4.23 KCAL/MOL
REMARK 924 INTRA-LIGAND FREE ENERGY PREDICTED BY IDOCK:   -0.23 KCAL/MOL
REMARK 927      BINDING AFFINITY PREDICTED BY RF-SCORE:    0.00 PKD
ROOT
HETATM    1  C   UNL     1      -9.247   5.750  72.771  1.00  0.00    -0.136 C  
HETATM    2  C   UNL     1      -9.830   7.048  73.313  1.00  0.00    -0.214 C  
HETATM    3  N   UNL     1      -9.091   7.498  74.517  1.00  0.00    -0.427 NA 
HETATM    4  H1  UNL     1      -9.481   8.368  74.880  1.00  0.00     0.000 HD 
HETATM    5  H2  UNL     1      -8.091   7.580  74.336  1.00  0.00     0.000 HD 
ENDROOT
BRANCH   2   6
HETATM    6  C   UNL     1      -9.833   8.162  72.241  1.00  0.00    -0.260 C  
HETATM    7  O   UNL     1      -8.960   9.019  72.153  1.00  0.00    -0.378 OA 
HETATM    8  N   UNL     1     -10.925   8.030  71.393  1.00  0.00    -0.230 N  
HETATM    9  H   UNL     1     -11.559   7.240  71.509  1.00  0.00     0.000 HD 
BRANCH   8  10
HETATM   10  C   UNL     1     -11.170   8.973  70.373  1.00  0.00    -0.241 A  
HETATM   11  C   UNL     1     -11.972  10.103  70.627  1.00  0.00    -0.423 A  
HETATM   12  C   UNL     1     -12.707  10.338  71.918  1.00  0.00    -0.478 C  
HETATM   13  C   UNL     1     -12.063  11.100  69.637  1.00  0.00    -0.406 A  
HETATM   14  C   UNL     1     -11.395  10.969  68.425  1.00  0.00    -0.363 A  
HETATM   15  C   UNL     1     -10.646   9.826  68.164  1.00  0.00    -0.276 A  
HETATM   16  C   UNL     1     -10.525   8.816  69.129  1.00  0.00    -0.230 A  
HETATM   17  C   UNL     1      -9.823   7.536  68.768  1.00  0.00    -0.166 C  
ENDBRANCH   8  10
ENDBRANCH   2   6
TORSDOF 2
ENDMDL
MODEL      108
REMARK 921   NORMALIZED FREE ENERGY PREDICTED BY IDOCK:   -3.76 KCAL/MOL
REMARK 922        TOTAL FREE ENERGY PREDICTED BY IDOCK:   -4.46 KCAL/MOL
REMARK 923 INTER-LIGAND FREE ENERGY PREDICTED BY IDOCK:   -4.18 KCAL/MOL
REMARK 924 INTRA-LIGAND FREE ENERGY PREDICTED BY IDOCK:   -0.28 KCAL/MOL
REMARK 927      BINDING AFFINITY PREDICTED BY RF-SCORE:    0.00 PKD
ROOT
HETATM    1  C   UNL     1     -10.863  14.576  68.971  1.00  0.00    -0.265 C  
HETATM    2  C   UNL     1     -11.966  13.789  68.276  1.00  0.00    -0.357 C  
HETATM    3  N   UNL     1     -12.188  14.293  66.900  1.00  0.00    -0.559 NA 
HETATM    4  H1  UNL     1     -12.927  13.766  66.434  1.00  0.00     0.000 HD 
HETATM    5  H2  UNL     1     -11.326  14.295  66.355  1.00  0.00     0.000 HD 
ENDROOT
BRANCH   2   6
HETATM    6  C   UNL     1     -11.654  12.276  68.247  1.00  0.00    -0.331 C  
HETATM    7  O   UNL     1     -12.220  11.482  67.502  1.00  0.00    -0.463 OA 
HETATM    8  N   UNL     1     -10.641  11.961  69.144  1.00  0.00    -0.406 N  
HETATM    9  H   UNL     1     -10.186  12.707  69.671  1.00  0.00     0.000 HD 
BRANCH   8  10
HETATM   10  C   UNL     1     -10.231  10.626  69.335  1.00  0.00    -0.192 A  
HETATM   11  C   UNL     1     -10.876   9.813  70.288  1.00  0.00    -0.356 A  
HETATM   12  C   UNL     1     -11.938  10.307  71.231  1.00  0.00    -0.457 C  
HETATM   13  C   UNL     1     -10.547   8.445  70.340  1.00  0.00    -0.236 A  
HETATM   14  C   UNL     1      -9.593   7.906  69.486  1.00  0.00    -0.160 A  
HETATM   15  C   UNL     1      -8.924   8.726  68.583  1.00  0.00    -0.138 A  
HETATM   16  C   UNL     1      -9.231  10.092  68.497  1.00  0.00    -0.141 A  
HETATM   17  C   UNL     1      -8.399  10.976  67.609  1.00  0.00    -0.117 C  
ENDBRANCH   8  10
ENDBRANCH   2   6
TORSDOF 2
ENDMDL
MODEL      109
REMARK 921   NORMALIZED FREE ENERGY PREDICTED BY IDOCK:   -3.75 KCAL/MOL
REMARK 922        TOTAL FREE ENERGY PREDICTED BY IDOCK:   -4.45 KCAL/MOL
REMARK 923 INTER-LIGAND FREE ENERGY PREDICTED BY IDOCK:   -4.46 KCAL/MOL
REMARK 924 INTRA-LIGAND FREE ENERGY PREDICTED BY IDOCK:    0.01 KCAL/MOL
REMARK 927      BINDING AFFINITY PREDICTED BY RF-SCORE:    0.00 PKD
ROOT
HETATM    1  C   UNL     1     -14.364  15.211  71.100  1.00  0.00    -0.406 C  
HETATM    2  C   UNL     1     -13.299  14.425  71.852  1.00  0.00    -0.374 C  
HETATM    3  N   UNL     1     -13.902  13.287  72.586  1.00  0.00    -0.726 NA 
HETATM    4  H1  UNL     1     -13.189  12.759  73.090  1.00  0.00     0.000 HD 
HETATM    5  H2  UNL     1     -14.448  12.687  71.969  1.00  0.00     0.000 HD 
ENDROOT
BRANCH   2   6
HETATM    6  C   UNL     1     -12.189  13.920  70.903  1.00  0.00    -0.361 C  
HETATM    7  O   UNL     1     -11.050  14.378  70.889  1.00  0.00     0.050 OA 
HETATM    8  N   UNL     1     -12.649  12.875  70.112  1.00  0.00    -0.032 N  
HETATM    9  H   UNL     1     -13.595  12.521  70.248  1.00  0.00     0.000 HD 
BRANCH   8  10
HETATM   10  C   UNL     1     -11.826  12.296  69.125  1.00  0.00    -0.301 A  
HETATM   11  C   UNL     1     -11.250  11.027  69.333  1.00  0.00    -0.332 A  
HETATM   12  C   UNL     1     -11.359  10.257  70.620  1.00  0.00    -0.431 C  
HETATM   13  C   UNL     1     -10.567  10.414  68.265  1.00  0.00    -0.245 A  
HETATM   14  C   UNL     1     -10.443  11.050  67.036  1.00  0.00    -0.284 A  
HETATM   15  C   UNL     1     -10.970  12.324  66.855  1.00  0.00    -0.312 A  
HETATM   16  C   UNL     1     -11.665  12.963  67.893  1.00  0.00    -0.405 A  
HETATM   17  C   UNL     1     -12.104  14.390  67.712  1.00  0.00    -0.304 C  
ENDBRANCH   8  10
ENDBRANCH   2   6
TORSDOF 2
ENDMDL
MODEL      110
REMARK 921   NORMALIZED FREE ENERGY PREDICTED BY IDOCK:   -3.73 KCAL/MOL
REMARK 922        TOTAL FREE ENERGY PREDICTED BY IDOCK:   -4.43 KCAL/MOL
REMARK 923 INTER-LIGAND FREE ENERGY PREDICTED BY IDOCK:   -4.22 KCAL/MOL
REMARK 924 INTRA-LIGAND FREE ENERGY PREDICTED BY IDOCK:   -0.21 KCAL/MOL
REMARK 927      BINDING AFFINITY PREDICTED BY RF-SCORE:    0.00 PKD
ROOT
HETATM    1  C   UNL     1      -8.969   8.395  66.571  1.00  0.00    -0.190 C  
HETATM    2  C   UNL     1     -10.294   9.145  66.543  1.00  0.00    -0.199 C  
HETATM    3  N   UNL     1     -10.859   9.271  67.908  1.00  0.00    -0.473 NA 
HETATM    4  H1  UNL     1     -11.746   9.774  67.890  1.00  0.00     0.000 HD 
HETATM    5  H2  UNL     1     -10.195   9.701  68.552  1.00  0.00     0.000 HD 
ENDROOT
BRANCH   2   6
HETATM    6  C   UNL     1     -10.145  10.540  65.895  1.00  0.00    -0.260 C  
HETATM    7  O   UNL     1      -9.237  10.835  65.125  1.00  0.00    -0.194 OA 
HETATM    8  N   UNL     1     -11.185  11.378  66.278  1.00  0.00    -0.229 N  
HETATM    9  H   UNL     1     -11.931  11.015  66.870  1.00  0.00     0.000 HD 
BRANCH   8  10
HETATM   10  C   UNL     1     -11.224  12.723  65.858  1.00  0.00    -0.300 A  
HETATM   11  C   UNL     1     -10.504  13.709  66.561  1.00  0.00    -0.281 A  
HETATM   12  C   UNL     1      -9.752  13.450  67.837  1.00  0.00    -0.226 C  
HETATM   13  C   UNL     1     -10.439  15.008  66.022  1.00  0.00    -0.326 A  
HETATM   14  C   UNL     1     -11.086  15.323  64.833  1.00  0.00    -0.435 A  
HETATM   15  C   UNL     1     -11.837  14.356  64.172  1.00  0.00    -0.316 A  
HETATM   16  C   UNL     1     -11.918  13.049  64.674  1.00  0.00    -0.445 A  
HETATM   17  C   UNL     1     -12.845  12.065  64.014  1.00  0.00    -0.349 C  
ENDBRANCH   8  10
ENDBRANCH   2   6
TORSDOF 2
ENDMDL
MODEL      111
REMARK 921   NORMALIZED FREE ENERGY PREDICTED BY IDOCK:   -3.72 KCAL/MOL
REMARK 922        TOTAL FREE ENERGY PREDICTED BY IDOCK:   -4.42 KCAL/MOL
REMARK 923 INTER-LIGAND FREE ENERGY PREDICTED BY IDOCK:   -4.21 KCAL/MOL
REMARK 924 INTRA-LIGAND FREE ENERGY PREDICTED BY IDOCK:   -0.21 KCAL/MOL
REMARK 927      BINDING AFFINITY PREDICTED BY RF-SCORE:    0.00 PKD
ROOT
HETATM    1  C   UNL     1      -9.542   4.161  69.569  1.00  0.00    -0.274 C  
HETATM    2  C   UNL     1     -10.254   4.710  70.798  1.00  0.00    -0.144 C  
HETATM    3  N   UNL     1      -9.303   4.903  71.918  1.00  0.00    -0.140 NA 
HETATM    4  H1  UNL     1      -9.780   5.271  72.741  1.00  0.00     0.000 HD 
HETATM    5  H2  UNL     1      -8.514   5.489  71.646  1.00  0.00     0.000 HD 
ENDROOT
BRANCH   2   6
HETATM    6  C   UNL     1     -10.988   6.034  70.486  1.00  0.00    -0.319 C  
HETATM    7  O   UNL     1     -11.296   6.387  69.352  1.00  0.00    -0.394 OA 
HETATM    8  N   UNL     1     -11.271   6.731  71.653  1.00  0.00    -0.245 N  
HETATM    9  H   UNL     1     -11.033   6.319  72.555  1.00  0.00     0.000 HD 
BRANCH   8  10
HETATM   10  C   UNL     1     -11.884   8.000  71.610  1.00  0.00    -0.289 A  
HETATM   11  C   UNL     1     -11.101   9.164  71.476  1.00  0.00    -0.436 A  
HETATM   12  C   UNL     1      -9.597   9.169  71.483  1.00  0.00    -0.278 C  
HETATM   13  C   UNL     1     -11.753  10.395  71.277  1.00  0.00    -0.320 A  
HETATM   14  C   UNL     1     -13.140  10.472  71.234  1.00  0.00    -0.478 A  
HETATM   15  C   UNL     1     -13.906   9.326  71.419  1.00  0.00    -0.270 A  
HETATM   16  C   UNL     1     -13.291   8.080  71.610  1.00  0.00    -0.364 A  
HETATM   17  C   UNL     1     -14.143   6.885  71.942  1.00  0.00    -0.258 C  
ENDBRANCH   8  10
ENDBRANCH   2   6
TORSDOF 2
ENDMDL
MODEL      112
REMARK 921   NORMALIZED FREE ENERGY PREDICTED BY IDOCK:   -3.66 KCAL/MOL
REMARK 922        TOTAL FREE ENERGY PREDICTED BY IDOCK:   -4.35 KCAL/MOL
REMARK 923 INTER-LIGAND FREE ENERGY PREDICTED BY IDOCK:   -4.07 KCAL/MOL
REMARK 924 INTRA-LIGAND FREE ENERGY PREDICTED BY IDOCK:   -0.28 KCAL/MOL
REMARK 927      BINDING AFFINITY PREDICTED BY RF-SCORE:    0.00 PKD
ROOT
HETATM    1  C   UNL     1     -13.107  12.017  63.381  1.00  0.00    -0.101 C  
HETATM    2  C   UNL     1     -11.991  13.049  63.472  1.00  0.00    -0.545 C  
HETATM    3  N   UNL     1     -12.518  14.359  63.924  1.00  0.00    -1.005 NA 
HETATM    4  H1  UNL     1     -11.771  15.050  63.986  1.00  0.00     0.000 HD 
HETATM    5  H2  UNL     1     -13.028  14.276  64.803  1.00  0.00     0.000 HD 
ENDROOT
BRANCH   2   6
HETATM    6  C   UNL     1     -10.855  12.578  64.408  1.00  0.00    -0.342 C  
HETATM    7  O   UNL     1      -9.891  13.275  64.706  1.00  0.00    -0.160 OA 
HETATM    8  N   UNL     1     -11.100  11.293  64.877  1.00  0.00    -0.177 N  
HETATM    9  H   UNL     1     -11.968  10.822  64.624  1.00  0.00     0.000 HD 
BRANCH   8  10
HETATM   10  C   UNL     1     -10.165  10.632  65.700  1.00  0.00    -0.253 A  
HETATM   11  C   UNL     1      -9.080   9.937  65.129  1.00  0.00    -0.257 A  
HETATM   12  C   UNL     1      -8.891   9.747  63.649  1.00  0.00    -0.258 C  
HETATM   13  C   UNL     1      -8.084   9.426  65.981  1.00  0.00    -0.111 A  
HETATM   14  C   UNL     1      -8.173   9.580  67.360  1.00  0.00    -0.114 A  
HETATM   15  C   UNL     1      -9.274  10.222  67.918  1.00  0.00    -0.143 A  
HETATM   16  C   UNL     1     -10.281  10.753  67.100  1.00  0.00    -0.255 A  
HETATM   17  C   UNL     1     -11.521  11.320  67.736  1.00  0.00    -0.350 C  
ENDBRANCH   8  10
ENDBRANCH   2   6
TORSDOF 2
ENDMDL
MODEL      113
REMARK 921   NORMALIZED FREE ENERGY PREDICTED BY IDOCK:   -3.64 KCAL/MOL
REMARK 922        TOTAL FREE ENERGY PREDICTED BY IDOCK:   -4.33 KCAL/MOL
REMARK 923 INTER-LIGAND FREE ENERGY PREDICTED BY IDOCK:   -4.05 KCAL/MOL
REMARK 924 INTRA-LIGAND FREE ENERGY PREDICTED BY IDOCK:   -0.28 KCAL/MOL
REMARK 927      BINDING AFFINITY PREDICTED BY RF-SCORE:    0.00 PKD
ROOT
HETATM    1  C   UNL     1     -11.882  12.287  65.638  1.00  0.00    -0.423 C  
HETATM    2  C   UNL     1     -12.020  12.759  67.078  1.00  0.00    -0.295 C  
HETATM    3  N   UNL     1     -11.823  11.636  68.025  1.00  0.00    -0.573 NA 
HETATM    4  H1  UNL     1     -11.914  11.953  68.990  1.00  0.00     0.000 HD 
HETATM    5  H2  UNL     1     -10.934  11.162  67.867  1.00  0.00     0.000 HD 
ENDROOT
BRANCH   2   6
HETATM    6  C   UNL     1     -11.035  13.907  67.397  1.00  0.00    -0.288 C  
HETATM    7  O   UNL     1     -11.133  14.628  68.385  1.00  0.00    -0.241 OA 
HETATM    8  N   UNL     1     -10.028  13.976  66.443  1.00  0.00    -0.285 N  
HETATM    9  H   UNL     1      -9.996  13.285  65.695  1.00  0.00     0.000 HD 
BRANCH   8  10
HETATM   10  C   UNL     1      -9.048  14.989  66.495  1.00  0.00    -0.286 A  
HETATM   11  C   UNL     1      -9.300  16.252  65.924  1.00  0.00    -0.299 A  
HETATM   12  C   UNL     1     -10.537  16.587  65.138  1.00  0.00    -0.237 C  
HETATM   13  C   UNL     1      -8.365  17.284  66.134  1.00  0.00    -0.238 A  
HETATM   14  C   UNL     1      -7.207  17.062  66.869  1.00  0.00    -0.244 A  
HETATM   15  C   UNL     1      -6.942  15.798  67.386  1.00  0.00    -0.235 A  
HETATM   16  C   UNL     1      -7.854  14.748  67.205  1.00  0.00    -0.223 A  
HETATM   17  C   UNL     1      -7.478  13.363  67.657  1.00  0.00    -0.182 C  
ENDBRANCH   8  10
ENDBRANCH   2   6
TORSDOF 2
ENDMDL
MODEL      114
REMARK 921   NORMALIZED FREE ENERGY PREDICTED BY IDOCK:   -3.62 KCAL/MOL
REMARK 922        TOTAL FREE ENERGY PREDICTED BY IDOCK:   -4.31 KCAL/MOL
REMARK 923 INTER-LIGAND FREE ENERGY PREDICTED BY IDOCK:   -4.10 KCAL/MOL
REMARK 924 INTRA-LIGAND FREE ENERGY PREDICTED BY IDOCK:   -0.21 KCAL/MOL
REMARK 927      BINDING AFFINITY PREDICTED BY RF-SCORE:    0.00 PKD
ROOT
HETATM    1  C   UNL     1     -12.072  14.079  70.431  1.00  0.00    -0.426 C  
HETATM    2  C   UNL     1     -11.350  13.961  69.096  1.00  0.00    -0.286 C  
HETATM    3  N   UNL     1      -9.949  14.433  69.208  1.00  0.00    -0.417 NA 
HETATM    4  H1  UNL     1      -9.465  14.353  68.314  1.00  0.00     0.000 HD 
HETATM    5  H2  UNL     1      -9.448  13.948  69.952  1.00  0.00     0.000 HD 
ENDROOT
BRANCH   2   6
HETATM    6  C   UNL     1     -11.386  12.514  68.555  1.00  0.00    -0.297 C  
HETATM    7  O   UNL     1     -12.185  12.127  67.709  1.00  0.00    -0.451 OA 
HETATM    8  N   UNL     1     -10.382  11.745  69.130  1.00  0.00    -0.418 N  
HETATM    9  H   UNL     1      -9.723  12.180  69.775  1.00  0.00     0.000 HD 
BRANCH   8  10
HETATM   10  C   UNL     1     -10.260  10.372  68.834  1.00  0.00    -0.205 A  
HETATM   11  C   UNL     1      -9.538   9.950  67.700  1.00  0.00    -0.172 A  
HETATM   12  C   UNL     1      -8.954  10.888  66.680  1.00  0.00    -0.173 C  
HETATM   13  C   UNL     1      -9.303   8.573  67.525  1.00  0.00    -0.169 A  
HETATM   14  C   UNL     1      -9.789   7.643  68.436  1.00  0.00    -0.176 A  
HETATM   15  C   UNL     1     -10.545   8.065  69.525  1.00  0.00    -0.216 A  
HETATM   16  C   UNL     1     -10.791   9.429  69.737  1.00  0.00    -0.250 A  
HETATM   17  C   UNL     1     -11.722   9.843  70.844  1.00  0.00    -0.449 C  
ENDBRANCH   8  10
ENDBRANCH   2   6
TORSDOF 2
ENDMDL
MODEL      115
REMARK 921   NORMALIZED FREE ENERGY PREDICTED BY IDOCK:   -3.62 KCAL/MOL
REMARK 922        TOTAL FREE ENERGY PREDICTED BY IDOCK:   -4.31 KCAL/MOL
REMARK 923 INTER-LIGAND FREE ENERGY PREDICTED BY IDOCK:   -4.19 KCAL/MOL
REMARK 924 INTRA-LIGAND FREE ENERGY PREDICTED BY IDOCK:   -0.12 KCAL/MOL
REMARK 927      BINDING AFFINITY PREDICTED BY RF-SCORE:    0.00 PKD
ROOT
HETATM    1  C   UNL     1     -10.583  13.263  67.292  1.00  0.00    -0.250 C  
HETATM    2  C   UNL     1      -9.782  12.013  67.629  1.00  0.00    -0.187 C  
HETATM    3  N   UNL     1      -8.789  12.291  68.694  1.00  0.00    -0.373 NA 
HETATM    4  H1  UNL     1      -8.253  11.453  68.920  1.00  0.00     0.000 HD 
HETATM    5  H2  UNL     1      -9.229  12.691  69.523  1.00  0.00     0.000 HD 
ENDROOT
BRANCH   2   6
HETATM    6  C   UNL     1     -10.701  10.843  68.047  1.00  0.00    -0.220 C  
HETATM    7  O   UNL     1     -11.858  10.719  67.658  1.00  0.00    -0.505 OA 
HETATM    8  N   UNL     1     -10.029   9.956  68.878  1.00  0.00    -0.173 N  
HETATM    9  H   UNL     1      -9.043  10.113  69.088  1.00  0.00     0.000 HD 
BRANCH   8  10
HETATM   10  C   UNL     1     -10.689   8.842  69.436  1.00  0.00    -0.181 A  
HETATM   11  C   UNL     1     -10.555   7.568  68.849  1.00  0.00    -0.184 A  
HETATM   12  C   UNL     1      -9.822   7.310  67.561  1.00  0.00    -0.198 C  
HETATM   13  C   UNL     1     -11.096   6.456  69.521  1.00  0.00    -0.460 A  
HETATM   14  C   UNL     1     -11.767   6.607  70.729  1.00  0.00    -0.445 A  
HETATM   15  C   UNL     1     -11.939   7.875  71.275  1.00  0.00    -0.321 A  
HETATM   16  C   UNL     1     -11.406   9.005  70.638  1.00  0.00    -0.311 A  
HETATM   17  C   UNL     1     -11.724  10.372  71.181  1.00  0.00    -0.387 C  
ENDBRANCH   8  10
ENDBRANCH   2   6
TORSDOF 2
ENDMDL
MODEL      116
REMARK 921   NORMALIZED FREE ENERGY PREDICTED BY IDOCK:   -3.62 KCAL/MOL
REMARK 922        TOTAL FREE ENERGY PREDICTED BY IDOCK:   -4.31 KCAL/MOL
REMARK 923 INTER-LIGAND FREE ENERGY PREDICTED BY IDOCK:   -4.05 KCAL/MOL
REMARK 924 INTRA-LIGAND FREE ENERGY PREDICTED BY IDOCK:   -0.25 KCAL/MOL
REMARK 927      BINDING AFFINITY PREDICTED BY RF-SCORE:    0.00 PKD
ROOT
HETATM    1  C   UNL     1      -7.379   8.715  66.654  1.00  0.00    -0.081 C  
HETATM    2  C   UNL     1      -8.740   9.197  66.171  1.00  0.00    -0.148 C  
HETATM    3  N   UNL     1      -9.160   8.463  64.953  1.00  0.00    -0.377 NA 
HETATM    4  H1  UNL     1     -10.071   8.785  64.630  1.00  0.00     0.000 HD 
HETATM    5  H2  UNL     1      -9.147   7.453  65.099  1.00  0.00     0.000 HD 
ENDROOT
BRANCH   2   6
HETATM    6  C   UNL     1      -9.815   9.064  67.273  1.00  0.00    -0.196 C  
HETATM    7  O   UNL     1     -10.763   8.288  67.203  1.00  0.00    -0.302 OA 
HETATM    8  N   UNL     1      -9.537   9.906  68.342  1.00  0.00    -0.146 N  
HETATM    9  H   UNL     1      -8.684  10.464  68.333  1.00  0.00     0.000 HD 
BRANCH   8  10
HETATM   10  C   UNL     1     -10.417  10.000  69.439  1.00  0.00    -0.232 A  
HETATM   11  C   UNL     1     -11.483  10.922  69.419  1.00  0.00    -0.373 A  
HETATM   12  C   UNL     1     -11.702  11.929  68.323  1.00  0.00    -0.385 C  
HETATM   13  C   UNL     1     -12.431  10.877  70.458  1.00  0.00    -0.438 A  
HETATM   14  C   UNL     1     -12.314   9.960  71.496  1.00  0.00    -0.504 A  
HETATM   15  C   UNL     1     -11.230   9.088  71.534  1.00  0.00    -0.418 A  
HETATM   16  C   UNL     1     -10.270   9.097  70.512  1.00  0.00    -0.288 A  
HETATM   17  C   UNL     1      -9.043   8.239  70.650  1.00  0.00    -0.164 C  
ENDBRANCH   8  10
ENDBRANCH   2   6
TORSDOF 2
ENDMDL
MODEL      117
REMARK 921   NORMALIZED FREE ENERGY PREDICTED BY IDOCK:   -3.61 KCAL/MOL
REMARK 922        TOTAL FREE ENERGY PREDICTED BY IDOCK:   -4.30 KCAL/MOL
REMARK 923 INTER-LIGAND FREE ENERGY PREDICTED BY IDOCK:   -4.09 KCAL/MOL
REMARK 924 INTRA-LIGAND FREE ENERGY PREDICTED BY IDOCK:   -0.21 KCAL/MOL
REMARK 927      BINDING AFFINITY PREDICTED BY RF-SCORE:    0.00 PKD
ROOT
HETATM    1  C   UNL     1     -10.390  11.632  67.512  1.00  0.00    -0.220 C  
HETATM    2  C   UNL     1     -10.383  10.126  67.296  1.00  0.00    -0.237 C  
HETATM    3  N   UNL     1      -9.389   9.744  66.265  1.00  0.00    -0.169 NA 
HETATM    4  H1  UNL     1      -9.384   8.734  66.120  1.00  0.00     0.000 HD 
HETATM    5  H2  UNL     1      -8.459  10.097  66.489  1.00  0.00     0.000 HD 
ENDROOT
BRANCH   2   6
HETATM    6  C   UNL     1     -10.107   9.363  68.612  1.00  0.00    -0.190 C  
HETATM    7  O   UNL     1      -8.997   9.282  69.128  1.00  0.00    -0.138 OA 
HETATM    8  N   UNL     1     -11.280   8.826  69.129  1.00  0.00    -0.413 N  
HETATM    9  H   UNL     1     -12.166   9.009  68.659  1.00  0.00     0.000 HD 
BRANCH   8  10
HETATM   10  C   UNL     1     -11.262   8.034  70.295  1.00  0.00    -0.190 A  
HETATM   11  C   UNL     1     -10.960   6.660  70.217  1.00  0.00    -0.355 A  
HETATM   12  C   UNL     1     -10.752   5.918  68.925  1.00  0.00    -0.370 C  
HETATM   13  C   UNL     1     -10.796   5.937  71.414  1.00  0.00    -0.332 A  
HETATM   14  C   UNL     1     -10.948   6.555  72.649  1.00  0.00    -0.287 A  
HETATM   15  C   UNL     1     -11.297   7.900  72.716  1.00  0.00    -0.453 A  
HETATM   16  C   UNL     1     -11.460   8.654  71.545  1.00  0.00    -0.363 A  
HETATM   17  C   UNL     1     -11.968  10.067  71.647  1.00  0.00    -0.369 C  
ENDBRANCH   8  10
ENDBRANCH   2   6
TORSDOF 2
ENDMDL
MODEL      118
REMARK 921   NORMALIZED FREE ENERGY PREDICTED BY IDOCK:   -3.61 KCAL/MOL
REMARK 922        TOTAL FREE ENERGY PREDICTED BY IDOCK:   -4.29 KCAL/MOL
REMARK 923 INTER-LIGAND FREE ENERGY PREDICTED BY IDOCK:   -4.07 KCAL/MOL
REMARK 924 INTRA-LIGAND FREE ENERGY PREDICTED BY IDOCK:   -0.22 KCAL/MOL
REMARK 927      BINDING AFFINITY PREDICTED BY RF-SCORE:    0.00 PKD
ROOT
HETATM    1  C   UNL     1     -12.436  13.593  65.359  1.00  0.00    -0.537 C  
HETATM    2  C   UNL     1     -10.961  13.215  65.382  1.00  0.00    -0.279 C  
HETATM    3  N   UNL     1     -10.307  13.559  64.097  1.00  0.00    -0.708 NA 
HETATM    4  H1  UNL     1      -9.319  13.307  64.112  1.00  0.00     0.000 HD 
HETATM    5  H2  UNL     1     -10.441  14.541  63.857  1.00  0.00     0.000 HD 
ENDROOT
BRANCH   2   6
HETATM    6  C   UNL     1     -10.219  13.891  66.557  1.00  0.00    -0.280 C  
HETATM    7  O   UNL     1     -10.655  13.925  67.704  1.00  0.00    -0.243 OA 
HETATM    8  N   UNL     1      -8.999  14.410  66.141  1.00  0.00    -0.481 N  
HETATM    9  H   UNL     1      -8.696  14.270  65.178  1.00  0.00     0.000 HD 
BRANCH   8  10
HETATM   10  C   UNL     1      -8.175  15.128  67.031  1.00  0.00    -0.228 A  
HETATM   11  C   UNL     1      -8.339  16.519  67.188  1.00  0.00    -0.206 A  
HETATM   12  C   UNL     1      -9.289  17.350  66.370  1.00  0.00    -0.272 C  
HETATM   13  C   UNL     1      -7.609  17.173  68.198  1.00  0.00    -0.208 A  
HETATM   14  C   UNL     1      -6.727  16.473  69.013  1.00  0.00    -0.200 A  
HETATM   15  C   UNL     1      -6.534  15.109  68.817  1.00  0.00    -0.086 A  
HETATM   16  C   UNL     1      -7.250  14.421  67.827  1.00  0.00    -0.188 A  
HETATM   17  C   UNL     1      -6.921  12.980  67.550  1.00  0.00    -0.155 C  
ENDBRANCH   8  10
ENDBRANCH   2   6
TORSDOF 2
ENDMDL
MODEL      119
REMARK 921   NORMALIZED FREE ENERGY PREDICTED BY IDOCK:   -3.61 KCAL/MOL
REMARK 922        TOTAL FREE ENERGY PREDICTED BY IDOCK:   -4.29 KCAL/MOL
REMARK 923 INTER-LIGAND FREE ENERGY PREDICTED BY IDOCK:   -4.09 KCAL/MOL
REMARK 924 INTRA-LIGAND FREE ENERGY PREDICTED BY IDOCK:   -0.20 KCAL/MOL
REMARK 927      BINDING AFFINITY PREDICTED BY RF-SCORE:    0.00 PKD
ROOT
HETATM    1  C   UNL     1      -9.110   9.322  70.260  1.00  0.00    -0.271 C  
HETATM    2  C   UNL     1      -8.702  10.199  69.084  1.00  0.00    -0.170 C  
HETATM    3  N   UNL     1      -7.735   9.494  68.209  1.00  0.00    -0.085 NA 
HETATM    4  H1  UNL     1      -7.462  10.081  67.421  1.00  0.00     0.000 HD 
HETATM    5  H2  UNL     1      -8.094   8.592  67.900  1.00  0.00     0.000 HD 
ENDROOT
BRANCH   2   6
HETATM    6  C   UNL     1      -9.929  10.657  68.264  1.00  0.00    -0.158 C  
HETATM    7  O   UNL     1     -11.045  10.161  68.381  1.00  0.00    -0.250 OA 
HETATM    8  N   UNL     1      -9.597  11.710  67.421  1.00  0.00    -0.166 N  
HETATM    9  H   UNL     1      -8.654  12.097  67.447  1.00  0.00     0.000 HD 
BRANCH   8  10
HETATM   10  C   UNL     1     -10.545  12.252  66.529  1.00  0.00    -0.234 A  
HETATM   11  C   UNL     1     -10.752  11.663  65.266  1.00  0.00    -0.346 A  
HETATM   12  C   UNL     1      -9.934  10.522  64.727  1.00  0.00    -0.412 C  
HETATM   13  C   UNL     1     -11.814  12.133  64.470  1.00  0.00    -0.418 A  
HETATM   14  C   UNL     1     -12.632  13.168  64.905  1.00  0.00    -0.468 A  
HETATM   15  C   UNL     1     -12.389  13.778  66.132  1.00  0.00    -0.496 A  
HETATM   16  C   UNL     1     -11.346  13.331  66.957  1.00  0.00    -0.346 A  
HETATM   17  C   UNL     1     -11.023  14.096  68.211  1.00  0.00    -0.266 C  
ENDBRANCH   8  10
ENDBRANCH   2   6
TORSDOF 2
ENDMDL
MODEL      120
REMARK 921   NORMALIZED FREE ENERGY PREDICTED BY IDOCK:   -3.60 KCAL/MOL
REMARK 922        TOTAL FREE ENERGY PREDICTED BY IDOCK:   -4.28 KCAL/MOL
REMARK 923 INTER-LIGAND FREE ENERGY PREDICTED BY IDOCK:   -4.08 KCAL/MOL
REMARK 924 INTRA-LIGAND FREE ENERGY PREDICTED BY IDOCK:   -0.20 KCAL/MOL
REMARK 927      BINDING AFFINITY PREDICTED BY RF-SCORE:    0.00 PKD
ROOT
HETATM    1  C   UNL     1     -12.574  12.381  64.314  1.00  0.00    -0.494 C  
HETATM    2  C   UNL     1     -11.106  12.073  64.571  1.00  0.00    -0.331 C  
HETATM    3  N   UNL     1     -10.369  11.902  63.296  1.00  0.00    -0.590 NA 
HETATM    4  H1  UNL     1      -9.385  11.696  63.468  1.00  0.00     0.000 HD 
HETATM    5  H2  UNL     1     -10.483  12.710  62.684  1.00  0.00     0.000 HD 
ENDROOT
BRANCH   2   6
HETATM    6  C   UNL     1     -10.436  13.168  65.432  1.00  0.00    -0.296 C  
HETATM    7  O   UNL     1     -10.130  14.275  65.002  1.00  0.00    -0.389 OA 
HETATM    8  N   UNL     1     -10.268  12.735  66.742  1.00  0.00    -0.236 N  
HETATM    9  H   UNL     1     -10.620  11.818  67.017  1.00  0.00     0.000 HD 
BRANCH   8  10
HETATM   10  C   UNL     1      -9.620  13.546  67.696  1.00  0.00    -0.222 A  
HETATM   11  C   UNL     1      -8.231  13.432  67.900  1.00  0.00    -0.162 A  
HETATM   12  C   UNL     1      -7.366  12.398  67.232  1.00  0.00    -0.127 C  
HETATM   13  C   UNL     1      -7.595  14.363  68.742  1.00  0.00    -0.131 A  
HETATM   14  C   UNL     1      -8.320  15.364  69.379  1.00  0.00    -0.250 A  
HETATM   15  C   UNL     1      -9.699  15.438  69.212  1.00  0.00    -0.268 A  
HETATM   16  C   UNL     1     -10.366  14.533  68.373  1.00  0.00    -0.241 A  
HETATM   17  C   UNL     1     -11.869  14.553  68.319  1.00  0.00    -0.347 C  
ENDBRANCH   8  10
ENDBRANCH   2   6
TORSDOF 2
ENDMDL
MODEL      121
REMARK 921   NORMALIZED FREE ENERGY PREDICTED BY IDOCK:   -3.60 KCAL/MOL
REMARK 922        TOTAL FREE ENERGY PREDICTED BY IDOCK:   -4.28 KCAL/MOL
REMARK 923 INTER-LIGAND FREE ENERGY PREDICTED BY IDOCK:   -4.10 KCAL/MOL
REMARK 924 INTRA-LIGAND FREE ENERGY PREDICTED BY IDOCK:   -0.18 KCAL/MOL
REMARK 927      BINDING AFFINITY PREDICTED BY RF-SCORE:    0.00 PKD
ROOT
HETATM    1  C   UNL     1      -9.508   3.256  66.059  1.00  0.00    -0.086 C  
HETATM    2  C   UNL     1      -9.957   4.594  65.489  1.00  0.00    -0.183 C  
HETATM    3  N   UNL     1     -11.420   4.604  65.251  1.00  0.00    -1.096 NA 
HETATM    4  H1  UNL     1     -11.721   5.501  64.870  1.00  0.00     0.000 HD 
HETATM    5  H2  UNL     1     -11.940   4.359  66.094  1.00  0.00     0.000 HD 
ENDROOT
BRANCH   2   6
HETATM    6  C   UNL     1      -9.557   5.768  66.411  1.00  0.00    -0.153 C  
HETATM    7  O   UNL     1      -8.441   5.890  66.906  1.00  0.00    -0.109 OA 
HETATM    8  N   UNL     1     -10.610   6.660  66.563  1.00  0.00    -0.510 N  
HETATM    9  H   UNL     1     -11.479   6.504  66.053  1.00  0.00     0.000 HD 
BRANCH   8  10
HETATM   10  C   UNL     1     -10.496   7.779  67.413  1.00  0.00    -0.292 A  
HETATM   11  C   UNL     1     -10.074   9.022  66.901  1.00  0.00    -0.338 A  
HETATM   12  C   UNL     1      -9.614   9.233  65.485  1.00  0.00    -0.291 C  
HETATM   13  C   UNL     1     -10.125  10.150  67.742  1.00  0.00    -0.216 A  
HETATM   14  C   UNL     1     -10.561  10.043  69.057  1.00  0.00    -0.235 A  
HETATM   15  C   UNL     1     -10.928   8.802  69.570  1.00  0.00    -0.080 A  
HETATM   16  C   UNL     1     -10.899   7.658  68.759  1.00  0.00    -0.025 A  
HETATM   17  C   UNL     1     -11.169   6.314  69.377  1.00  0.00    -0.489 C  
ENDBRANCH   8  10
ENDBRANCH   2   6
TORSDOF 2
ENDMDL
MODEL      122
REMARK 921   NORMALIZED FREE ENERGY PREDICTED BY IDOCK:   -3.58 KCAL/MOL
REMARK 922        TOTAL FREE ENERGY PREDICTED BY IDOCK:   -4.26 KCAL/MOL
REMARK 923 INTER-LIGAND FREE ENERGY PREDICTED BY IDOCK:   -4.09 KCAL/MOL
REMARK 924 INTRA-LIGAND FREE ENERGY PREDICTED BY IDOCK:   -0.17 KCAL/MOL
REMARK 927      BINDING AFFINITY PREDICTED BY RF-SCORE:    0.00 PKD
ROOT
HETATM    1  C   UNL     1     -11.941  11.710  69.742  1.00  0.00    -0.402 C  
HETATM    2  C   UNL     1     -11.428  12.454  68.517  1.00  0.00    -0.306 C  
HETATM    3  N   UNL     1     -10.265  13.306  68.863  1.00  0.00    -0.429 NA 
HETATM    4  H1  UNL     1      -9.921  13.804  68.042  1.00  0.00     0.000 HD 
HETATM    5  H2  UNL     1      -9.526  12.768  69.314  1.00  0.00     0.000 HD 
ENDROOT
BRANCH   2   6
HETATM    6  C   UNL     1     -11.057  11.481  67.374  1.00  0.00    -0.282 C  
HETATM    7  O   UNL     1     -11.510  10.345  67.279  1.00  0.00    -0.315 OA 
HETATM    8  N   UNL     1     -10.184  12.081  66.476  1.00  0.00    -0.203 N  
HETATM    9  H   UNL     1      -9.920  13.057  66.608  1.00  0.00     0.000 HD 
BRANCH   8  10
HETATM   10  C   UNL     1      -9.660  11.361  65.383  1.00  0.00    -0.228 A  
HETATM   11  C   UNL     1     -10.296  11.410  64.127  1.00  0.00    -0.400 A  
HETATM   12  C   UNL     1     -11.602  12.110  63.875  1.00  0.00    -0.532 C  
HETATM   13  C   UNL     1      -9.657  10.810  63.025  1.00  0.00    -0.381 A  
HETATM   14  C   UNL     1      -8.436  10.163  63.170  1.00  0.00    -0.182 A  
HETATM   15  C   UNL     1      -7.840  10.075  64.425  1.00  0.00    -0.144 A  
HETATM   16  C   UNL     1      -8.442  10.669  65.544  1.00  0.00    -0.177 A  
HETATM   17  C   UNL     1      -7.844  10.441  66.905  1.00  0.00    -0.114 C  
ENDBRANCH   8  10
ENDBRANCH   2   6
TORSDOF 2
ENDMDL
MODEL      123
REMARK 921   NORMALIZED FREE ENERGY PREDICTED BY IDOCK:   -3.54 KCAL/MOL
REMARK 922        TOTAL FREE ENERGY PREDICTED BY IDOCK:   -4.21 KCAL/MOL
REMARK 923 INTER-LIGAND FREE ENERGY PREDICTED BY IDOCK:   -3.99 KCAL/MOL
REMARK 924 INTRA-LIGAND FREE ENERGY PREDICTED BY IDOCK:   -0.22 KCAL/MOL
REMARK 927      BINDING AFFINITY PREDICTED BY RF-SCORE:    0.00 PKD
ROOT
HETATM    1  C   UNL     1     -12.901  12.025  63.484  1.00  0.00    -0.472 C  
HETATM    2  C   UNL     1     -11.853  13.064  63.858  1.00  0.00    -0.477 C  
HETATM    3  N   UNL     1     -12.442  14.129  64.703  1.00  0.00    -0.638 NA 
HETATM    4  H1  UNL     1     -11.740  14.825  64.954  1.00  0.00     0.000 HD 
HETATM    5  H2  UNL     1     -12.902  13.744  65.528  1.00  0.00     0.000 HD 
ENDROOT
BRANCH   2   6
HETATM    6  C   UNL     1     -10.643  12.420  64.573  1.00  0.00    -0.322 C  
HETATM    7  O   UNL     1      -9.871  13.046  65.292  1.00  0.00    -0.203 OA 
HETATM    8  N   UNL     1     -10.583  11.057  64.316  1.00  0.00    -0.362 N  
HETATM    9  H   UNL     1     -11.315  10.617  63.758  1.00  0.00     0.000 HD 
BRANCH   8  10
HETATM   10  C   UNL     1      -9.524  10.271  64.815  1.00  0.00    -0.283 A  
HETATM   11  C   UNL     1      -9.602   9.707  66.104  1.00  0.00    -0.295 A  
HETATM   12  C   UNL     1     -10.722   9.976  67.071  1.00  0.00    -0.248 C  
HETATM   13  C   UNL     1      -8.602   8.802  66.505  1.00  0.00    -0.126 A  
HETATM   14  C   UNL     1      -7.545   8.482  65.660  1.00  0.00    -0.090 A  
HETATM   15  C   UNL     1      -7.449   9.082  64.409  1.00  0.00    -0.105 A  
HETATM   16  C   UNL     1      -8.431   9.983  63.972  1.00  0.00    -0.179 A  
HETATM   17  C   UNL     1      -8.229  10.716  62.674  1.00  0.00    -0.192 C  
ENDBRANCH   8  10
ENDBRANCH   2   6
TORSDOF 2
ENDMDL
MODEL      124
REMARK 921   NORMALIZED FREE ENERGY PREDICTED BY IDOCK:   -3.53 KCAL/MOL
REMARK 922        TOTAL FREE ENERGY PREDICTED BY IDOCK:   -4.20 KCAL/MOL
REMARK 923 INTER-LIGAND FREE ENERGY PREDICTED BY IDOCK:   -4.03 KCAL/MOL
REMARK 924 INTRA-LIGAND FREE ENERGY PREDICTED BY IDOCK:   -0.18 KCAL/MOL
REMARK 927      BINDING AFFINITY PREDICTED BY RF-SCORE:    0.00 PKD
ROOT
HETATM    1  C   UNL     1      -9.677   6.509  72.731  1.00  0.00    -0.166 C  
HETATM    2  C   UNL     1     -10.050   6.967  71.328  1.00  0.00    -0.190 C  
HETATM    3  N   UNL     1     -11.413   6.508  70.967  1.00  0.00    -0.319 NA 
HETATM    4  H1  UNL     1     -11.663   6.816  70.027  1.00  0.00     0.000 HD 
HETATM    5  H2  UNL     1     -12.104   6.803  71.656  1.00  0.00     0.000 HD 
ENDROOT
BRANCH   2   6
HETATM    6  C   UNL     1      -9.947   8.502  71.184  1.00  0.00    -0.207 C  
HETATM    7  O   UNL     1      -9.197   9.197  71.863  1.00  0.00    -0.354 OA 
HETATM    8  N   UNL     1     -10.783   8.963  70.175  1.00  0.00    -0.221 N  
HETATM    9  H   UNL     1     -11.318   8.295  69.621  1.00  0.00     0.000 HD 
BRANCH   8  10
HETATM   10  C   UNL     1     -10.902  10.342  69.905  1.00  0.00    -0.302 A  
HETATM   11  C   UNL     1     -10.066  10.955  68.951  1.00  0.00    -0.211 A  
HETATM   12  C   UNL     1      -8.938  10.251  68.248  1.00  0.00    -0.132 C  
HETATM   13  C   UNL     1     -10.319  12.293  68.594  1.00  0.00    -0.204 A  
HETATM   14  C   UNL     1     -11.357  13.006  69.181  1.00  0.00    -0.328 A  
HETATM   15  C   UNL     1     -12.146  12.408  70.159  1.00  0.00    -0.366 A  
HETATM   16  C   UNL     1     -11.929  11.075  70.535  1.00  0.00    -0.474 A  
HETATM   17  C   UNL     1     -12.707  10.501  71.687  1.00  0.00    -0.550 C  
ENDBRANCH   8  10
ENDBRANCH   2   6
TORSDOF 2
ENDMDL
MODEL      125
REMARK 921   NORMALIZED FREE ENERGY PREDICTED BY IDOCK:   -3.51 KCAL/MOL
REMARK 922        TOTAL FREE ENERGY PREDICTED BY IDOCK:   -4.19 KCAL/MOL
REMARK 923 INTER-LIGAND FREE ENERGY PREDICTED BY IDOCK:   -4.14 KCAL/MOL
REMARK 924 INTRA-LIGAND FREE ENERGY PREDICTED BY IDOCK:   -0.04 KCAL/MOL
REMARK 927      BINDING AFFINITY PREDICTED BY RF-SCORE:    0.00 PKD
ROOT
HETATM    1  C   UNL     1      -9.759   4.336  69.675  1.00  0.00    -0.284 C  
HETATM    2  C   UNL     1      -9.912   5.446  70.706  1.00  0.00    -0.204 C  
HETATM    3  N   UNL     1      -8.589   5.970  71.120  1.00  0.00    -0.128 NA 
HETATM    4  H1  UNL     1      -8.691   6.714  71.810  1.00  0.00     0.000 HD 
HETATM    5  H2  UNL     1      -8.036   6.273  70.318  1.00  0.00     0.000 HD 
ENDROOT
BRANCH   2   6
HETATM    6  C   UNL     1     -10.800   6.595  70.177  1.00  0.00    -0.279 C  
HETATM    7  O   UNL     1     -12.023   6.528  70.107  1.00  0.00    -0.383 OA 
HETATM    8  N   UNL     1     -10.031   7.700  69.834  1.00  0.00    -0.188 N  
HETATM    9  H   UNL     1      -9.024   7.680  69.995  1.00  0.00     0.000 HD 
BRANCH   8  10
HETATM   10  C   UNL     1     -10.621   8.848  69.268  1.00  0.00    -0.207 A  
HETATM   11  C   UNL     1     -11.302   9.773  70.084  1.00  0.00    -0.305 A  
HETATM   12  C   UNL     1     -11.554   9.571  71.553  1.00  0.00    -0.465 C  
HETATM   13  C   UNL     1     -11.739  10.982  69.511  1.00  0.00    -0.400 A  
HETATM   14  C   UNL     1     -11.525  11.256  68.165  1.00  0.00    -0.376 A  
HETATM   15  C   UNL     1     -10.896  10.314  67.356  1.00  0.00    -0.336 A  
HETATM   16  C   UNL     1     -10.439   9.102  67.893  1.00  0.00    -0.293 A  
HETATM   17  C   UNL     1      -9.887   8.051  66.970  1.00  0.00    -0.295 C  
ENDBRANCH   8  10
ENDBRANCH   2   6
TORSDOF 2
ENDMDL
MODEL      126
REMARK 921   NORMALIZED FREE ENERGY PREDICTED BY IDOCK:   -3.51 KCAL/MOL
REMARK 922        TOTAL FREE ENERGY PREDICTED BY IDOCK:   -4.19 KCAL/MOL
REMARK 923 INTER-LIGAND FREE ENERGY PREDICTED BY IDOCK:   -4.15 KCAL/MOL
REMARK 924 INTRA-LIGAND FREE ENERGY PREDICTED BY IDOCK:   -0.03 KCAL/MOL
REMARK 927      BINDING AFFINITY PREDICTED BY RF-SCORE:    0.00 PKD
ROOT
HETATM    1  C   UNL     1      -9.587  17.849  66.542  1.00  0.00    -0.318 C  
HETATM    2  C   UNL     1     -10.720  16.967  66.038  1.00  0.00    -0.125 C  
HETATM    3  N   UNL     1     -11.189  17.418  64.706  1.00  0.00    -0.782 NA 
HETATM    4  H1  UNL     1     -11.948  16.826  64.367  1.00  0.00     0.000 HD 
HETATM    5  H2  UNL     1     -10.423  17.469  64.034  1.00  0.00     0.000 HD 
ENDROOT
BRANCH   2   6
HETATM    6  C   UNL     1     -10.302  15.480  65.982  1.00  0.00    -0.326 C  
HETATM    7  O   UNL     1      -9.806  14.953  64.990  1.00  0.00    -0.263 OA 
HETATM    8  N   UNL     1     -10.532  14.853  67.200  1.00  0.00    -0.267 N  
HETATM    9  H   UNL     1     -10.885  15.398  67.986  1.00  0.00     0.000 HD 
BRANCH   8  10
HETATM   10  C   UNL     1     -10.284  13.475  67.365  1.00  0.00    -0.237 A  
HETATM   11  C   UNL     1      -9.123  13.036  68.032  1.00  0.00    -0.210 A  
HETATM   12  C   UNL     1      -8.029  13.954  68.505  1.00  0.00    -0.137 C  
HETATM   13  C   UNL     1      -8.989  11.665  68.317  1.00  0.00    -0.185 A  
HETATM   14  C   UNL     1      -9.967  10.754  67.935  1.00  0.00    -0.196 A  
HETATM   15  C   UNL     1     -11.086  11.190  67.232  1.00  0.00    -0.366 A  
HETATM   16  C   UNL     1     -11.259  12.550  66.937  1.00  0.00    -0.354 A  
HETATM   17  C   UNL     1     -12.407  12.971  66.061  1.00  0.00    -0.387 C  
ENDBRANCH   8  10
ENDBRANCH   2   6
TORSDOF 2
ENDMDL
MODEL      127
REMARK 921   NORMALIZED FREE ENERGY PREDICTED BY IDOCK:   -3.51 KCAL/MOL
REMARK 922        TOTAL FREE ENERGY PREDICTED BY IDOCK:   -4.18 KCAL/MOL
REMARK 923 INTER-LIGAND FREE ENERGY PREDICTED BY IDOCK:   -3.94 KCAL/MOL
REMARK 924 INTRA-LIGAND FREE ENERGY PREDICTED BY IDOCK:   -0.24 KCAL/MOL
REMARK 927      BINDING AFFINITY PREDICTED BY RF-SCORE:    0.00 PKD
ROOT
HETATM    1  C   UNL     1     -12.488  14.092  69.870  1.00  0.00    -0.301 C  
HETATM    2  C   UNL     1     -12.284  12.923  70.824  1.00  0.00    -0.260 C  
HETATM    3  N   UNL     1     -13.401  12.831  71.794  1.00  0.00    -0.406 NA 
HETATM    4  H1  UNL     1     -13.265  12.047  72.433  1.00  0.00     0.000 HD 
HETATM    5  H2  UNL     1     -14.305  12.781  71.325  1.00  0.00     0.000 HD 
ENDROOT
BRANCH   2   6
HETATM    6  C   UNL     1     -12.127  11.587  70.062  1.00  0.00    -0.331 C  
HETATM    7  O   UNL     1     -13.043  10.787  69.902  1.00  0.00    -0.075 OA 
HETATM    8  N   UNL     1     -10.836  11.447  69.568  1.00  0.00    -0.431 N  
HETATM    9  H   UNL     1     -10.164  12.203  69.696  1.00  0.00     0.000 HD 
BRANCH   8  10
HETATM   10  C   UNL     1     -10.442  10.275  68.890  1.00  0.00    -0.211 A  
HETATM   11  C   UNL     1      -9.911   9.184  69.606  1.00  0.00    -0.188 A  
HETATM   12  C   UNL     1      -9.618   9.210  71.081  1.00  0.00    -0.347 C  
HETATM   13  C   UNL     1      -9.678   7.978  68.919  1.00  0.00    -0.159 A  
HETATM   14  C   UNL     1      -9.945   7.864  67.560  1.00  0.00    -0.250 A  
HETATM   15  C   UNL     1     -10.421   8.963  66.851  1.00  0.00    -0.304 A  
HETATM   16  C   UNL     1     -10.674  10.178  67.502  1.00  0.00    -0.347 A  
HETATM   17  C   UNL     1     -11.058  11.382  66.687  1.00  0.00    -0.333 C  
ENDBRANCH   8  10
ENDBRANCH   2   6
TORSDOF 2
ENDMDL
MODEL      128
REMARK 921   NORMALIZED FREE ENERGY PREDICTED BY IDOCK:   -3.49 KCAL/MOL
REMARK 922        TOTAL FREE ENERGY PREDICTED BY IDOCK:   -4.16 KCAL/MOL
REMARK 923 INTER-LIGAND FREE ENERGY PREDICTED BY IDOCK:   -3.94 KCAL/MOL
REMARK 924 INTRA-LIGAND FREE ENERGY PREDICTED BY IDOCK:   -0.22 KCAL/MOL
REMARK 927      BINDING AFFINITY PREDICTED BY RF-SCORE:    0.00 PKD
ROOT
HETATM    1  C   UNL     1     -13.422   9.644  72.031  1.00  0.00    -0.514 C  
HETATM    2  C   UNL     1     -12.736   8.309  72.286  1.00  0.00    -0.298 C  
HETATM    3  N   UNL     1     -13.647   7.179  71.982  1.00  0.00    -0.557 NA 
HETATM    4  H1  UNL     1     -13.187   6.285  72.152  1.00  0.00     0.000 HD 
HETATM    5  H2  UNL     1     -14.015   7.239  71.033  1.00  0.00     0.000 HD 
ENDROOT
BRANCH   2   6
HETATM    6  C   UNL     1     -11.428   8.175  71.473  1.00  0.00    -0.267 C  
HETATM    7  O   UNL     1     -10.311   8.219  71.977  1.00  0.00    -0.232 OA 
HETATM    8  N   UNL     1     -11.700   7.970  70.127  1.00  0.00    -0.464 N  
HETATM    9  H   UNL     1     -12.668   7.881  69.817  1.00  0.00     0.000 HD 
BRANCH   8  10
HETATM   10  C   UNL     1     -10.658   7.881  69.182  1.00  0.00    -0.173 A  
HETATM   11  C   UNL     1     -10.029   6.646  68.929  1.00  0.00    -0.160 A  
HETATM   12  C   UNL     1     -10.318   5.385  69.695  1.00  0.00    -0.361 C  
HETATM   13  C   UNL     1      -9.106   6.565  67.869  1.00  0.00    -0.113 A  
HETATM   14  C   UNL     1      -8.801   7.680  67.098  1.00  0.00    -0.129 A  
HETATM   15  C   UNL     1      -9.389   8.907  67.387  1.00  0.00    -0.165 A  
HETATM   16  C   UNL     1     -10.320   9.025  68.429  1.00  0.00    -0.242 A  
HETATM   17  C   UNL     1     -10.834  10.388  68.803  1.00  0.00    -0.269 C  
ENDBRANCH   8  10
ENDBRANCH   2   6
TORSDOF 2
ENDMDL
MODEL      129
REMARK 921   NORMALIZED FREE ENERGY PREDICTED BY IDOCK:   -3.49 KCAL/MOL
REMARK 922        TOTAL FREE ENERGY PREDICTED BY IDOCK:   -4.16 KCAL/MOL
REMARK 923 INTER-LIGAND FREE ENERGY PREDICTED BY IDOCK:   -3.95 KCAL/MOL
REMARK 924 INTRA-LIGAND FREE ENERGY PREDICTED BY IDOCK:   -0.21 KCAL/MOL
REMARK 927      BINDING AFFINITY PREDICTED BY RF-SCORE:    0.00 PKD
ROOT
HETATM    1  C   UNL     1      -9.990  12.216  65.509  1.00  0.00    -0.269 C  
HETATM    2  C   UNL     1      -9.269  13.022  66.580  1.00  0.00    -0.219 C  
HETATM    3  N   UNL     1      -7.823  12.695  66.604  1.00  0.00    -0.378 NA 
HETATM    4  H1  UNL     1      -7.340  13.236  67.322  1.00  0.00     0.000 HD 
HETATM    5  H2  UNL     1      -7.394  12.818  65.687  1.00  0.00     0.000 HD 
ENDROOT
BRANCH   2   6
HETATM    6  C   UNL     1      -9.471  14.541  66.382  1.00  0.00    -0.291 C  
HETATM    7  O   UNL     1      -9.982  15.031  65.380  1.00  0.00    -0.344 OA 
HETATM    8  N   UNL     1      -9.031  15.249  67.493  1.00  0.00    -0.181 N  
HETATM    9  H   UNL     1      -8.683  14.742  68.306  1.00  0.00     0.000 HD 
BRANCH   8  10
HETATM   10  C   UNL     1      -9.058  16.659  67.513  1.00  0.00    -0.202 A  
HETATM   11  C   UNL     1      -7.973  17.399  67.003  1.00  0.00    -0.241 A  
HETATM   12  C   UNL     1      -6.689  16.782  66.520  1.00  0.00    -0.173 C  
HETATM   13  C   UNL     1      -8.103  18.796  66.894  1.00  0.00    -0.267 A  
HETATM   14  C   UNL     1      -9.267  19.441  67.297  1.00  0.00    -0.378 A  
HETATM   15  C   UNL     1     -10.314  18.707  67.846  1.00  0.00    -0.442 A  
HETATM   16  C   UNL     1     -10.224  17.312  67.963  1.00  0.00    -0.332 A  
HETATM   17  C   UNL     1     -11.312  16.564  68.683  1.00  0.00    -0.237 C  
ENDBRANCH   8  10
ENDBRANCH   2   6
TORSDOF 2
ENDMDL
MODEL      130
REMARK 921   NORMALIZED FREE ENERGY PREDICTED BY IDOCK:   -3.48 KCAL/MOL
REMARK 922        TOTAL FREE ENERGY PREDICTED BY IDOCK:   -4.14 KCAL/MOL
REMARK 923 INTER-LIGAND FREE ENERGY PREDICTED BY IDOCK:   -3.90 KCAL/MOL
REMARK 924 INTRA-LIGAND FREE ENERGY PREDICTED BY IDOCK:   -0.24 KCAL/MOL
REMARK 927      BINDING AFFINITY PREDICTED BY RF-SCORE:    0.00 PKD
ROOT
HETATM    1  C   UNL     1     -10.901   6.774  66.954  1.00  0.00    -0.402 C  
HETATM    2  C   UNL     1     -10.281   7.898  67.771  1.00  0.00    -0.216 C  
HETATM    3  N   UNL     1     -11.094   9.134  67.674  1.00  0.00    -0.441 NA 
HETATM    4  H1  UNL     1     -10.679   9.887  68.222  1.00  0.00     0.000 HD 
HETATM    5  H2  UNL     1     -12.065   8.967  67.938  1.00  0.00     0.000 HD 
ENDROOT
BRANCH   2   6
HETATM    6  C   UNL     1     -10.099   7.493  69.251  1.00  0.00    -0.188 C  
HETATM    7  O   UNL     1      -9.445   8.147  70.057  1.00  0.00    -0.166 OA 
HETATM    8  N   UNL     1     -10.797   6.326  69.535  1.00  0.00    -0.302 N  
HETATM    9  H   UNL     1     -11.368   5.893  68.810  1.00  0.00     0.000 HD 
BRANCH   8  10
HETATM   10  C   UNL     1     -10.727   5.731  70.811  1.00  0.00    -0.271 A  
HETATM   11  C   UNL     1     -11.644   6.095  71.817  1.00  0.00    -0.333 A  
HETATM   12  C   UNL     1     -12.664   7.189  71.667  1.00  0.00    -0.415 C  
HETATM   13  C   UNL     1     -11.644   5.368  73.023  1.00  0.00    -0.268 A  
HETATM   14  C   UNL     1     -10.749   4.326  73.231  1.00  0.00    -0.299 A  
HETATM   15  C   UNL     1      -9.813   4.007  72.252  1.00  0.00    -0.224 A  
HETATM   16  C   UNL     1      -9.788   4.703  71.035  1.00  0.00    -0.268 A  
HETATM   17  C   UNL     1      -8.681   4.426  70.054  1.00  0.00    -0.111 C  
ENDBRANCH   8  10
ENDBRANCH   2   6
TORSDOF 2
ENDMDL
MODEL      131
REMARK 921   NORMALIZED FREE ENERGY PREDICTED BY IDOCK:   -3.46 KCAL/MOL
REMARK 922        TOTAL FREE ENERGY PREDICTED BY IDOCK:   -4.13 KCAL/MOL
REMARK 923 INTER-LIGAND FREE ENERGY PREDICTED BY IDOCK:   -3.97 KCAL/MOL
REMARK 924 INTRA-LIGAND FREE ENERGY PREDICTED BY IDOCK:   -0.16 KCAL/MOL
REMARK 927      BINDING AFFINITY PREDICTED BY RF-SCORE:    0.00 PKD
ROOT
HETATM    1  C   UNL     1      -6.565  16.443  67.092  1.00  0.00    -0.234 C  
HETATM    2  C   UNL     1      -8.050  16.663  67.341  1.00  0.00    -0.167 C  
HETATM    3  N   UNL     1      -8.819  16.564  66.078  1.00  0.00    -0.463 NA 
HETATM    4  H1  UNL     1      -9.815  16.711  66.244  1.00  0.00     0.000 HD 
HETATM    5  H2  UNL     1      -8.644  15.681  65.598  1.00  0.00     0.000 HD 
ENDROOT
BRANCH   2   6
HETATM    6  C   UNL     1      -8.606  15.667  68.385  1.00  0.00    -0.173 C  
HETATM    7  O   UNL     1      -7.966  15.276  69.355  1.00  0.00    -0.205 OA 
HETATM    8  N   UNL     1      -9.917  15.318  68.087  1.00  0.00    -0.219 N  
HETATM    9  H   UNL     1     -10.386  15.752  67.293  1.00  0.00     0.000 HD 
BRANCH   8  10
HETATM   10  C   UNL     1     -10.610  14.371  68.868  1.00  0.00    -0.247 A  
HETATM   11  C   UNL     1     -11.296  14.773  70.031  1.00  0.00    -0.306 A  
HETATM   12  C   UNL     1     -11.258  16.169  70.588  1.00  0.00    -0.371 C  
HETATM   13  C   UNL     1     -12.106  13.832  70.695  1.00  0.00    -0.405 A  
HETATM   14  C   UNL     1     -12.214  12.526  70.231  1.00  0.00    -0.345 A  
HETATM   15  C   UNL     1     -11.492  12.124  69.111  1.00  0.00    -0.352 A  
HETATM   16  C   UNL     1     -10.683  13.036  68.418  1.00  0.00    -0.273 A  
HETATM   17  C   UNL     1      -9.813  12.540  67.296  1.00  0.00    -0.204 C  
ENDBRANCH   8  10
ENDBRANCH   2   6
TORSDOF 2
ENDMDL
MODEL      132
REMARK 921   NORMALIZED FREE ENERGY PREDICTED BY IDOCK:   -3.46 KCAL/MOL
REMARK 922        TOTAL FREE ENERGY PREDICTED BY IDOCK:   -4.12 KCAL/MOL
REMARK 923 INTER-LIGAND FREE ENERGY PREDICTED BY IDOCK:   -3.90 KCAL/MOL
REMARK 924 INTRA-LIGAND FREE ENERGY PREDICTED BY IDOCK:   -0.22 KCAL/MOL
REMARK 927      BINDING AFFINITY PREDICTED BY RF-SCORE:    0.00 PKD
ROOT
HETATM    1  C   UNL     1      -9.504   3.275  66.441  1.00  0.00    -0.101 C  
HETATM    2  C   UNL     1      -9.824   4.639  65.845  1.00  0.00    -0.220 C  
HETATM    3  N   UNL     1     -11.258   4.733  65.481  1.00  0.00    -0.968 NA 
HETATM    4  H1  UNL     1     -11.474   5.647  65.082  1.00  0.00     0.000 HD 
HETATM    5  H2  UNL     1     -11.863   4.516  66.273  1.00  0.00     0.000 HD 
ENDROOT
BRANCH   2   6
HETATM    6  C   UNL     1      -9.441   5.785  66.808  1.00  0.00    -0.143 C  
HETATM    7  O   UNL     1      -8.291   6.003  67.178  1.00  0.00    -0.106 OA 
HETATM    8  N   UNL     1     -10.557   6.536  67.155  1.00  0.00    -0.283 N  
HETATM    9  H   UNL     1     -11.461   6.314  66.738  1.00  0.00     0.000 HD 
BRANCH   8  10
HETATM   10  C   UNL     1     -10.459   7.599  68.076  1.00  0.00    -0.189 A  
HETATM   11  C   UNL     1     -10.640   7.367  69.453  1.00  0.00    -0.231 A  
HETATM   12  C   UNL     1     -11.054   6.043  70.034  1.00  0.00    -0.451 C  
HETATM   13  C   UNL     1     -10.378   8.417  70.353  1.00  0.00    -0.219 A  
HETATM   14  C   UNL     1      -9.969   9.665  69.898  1.00  0.00    -0.273 A  
HETATM   15  C   UNL     1      -9.841   9.900  68.533  1.00  0.00    -0.168 A  
HETATM   16  C   UNL     1     -10.085   8.875  67.607  1.00  0.00    -0.274 A  
HETATM   17  C   UNL     1     -10.071   9.196  66.137  1.00  0.00    -0.278 C  
ENDBRANCH   8  10
ENDBRANCH   2   6
TORSDOF 2
ENDMDL
MODEL      133
REMARK 921   NORMALIZED FREE ENERGY PREDICTED BY IDOCK:   -3.45 KCAL/MOL
REMARK 922        TOTAL FREE ENERGY PREDICTED BY IDOCK:   -4.12 KCAL/MOL
REMARK 923 INTER-LIGAND FREE ENERGY PREDICTED BY IDOCK:   -3.95 KCAL/MOL
REMARK 924 INTRA-LIGAND FREE ENERGY PREDICTED BY IDOCK:   -0.17 KCAL/MOL
REMARK 927      BINDING AFFINITY PREDICTED BY RF-SCORE:    0.00 PKD
ROOT
HETATM    1  C   UNL     1     -10.689  19.556  66.498  1.00  0.00    -0.535 C  
HETATM    2  C   UNL     1      -9.210  19.199  66.477  1.00  0.00    -0.345 C  
HETATM    3  N   UNL     1      -8.382  20.387  66.159  1.00  0.00    -0.550 NA 
HETATM    4  H1  UNL     1      -7.391  20.147  66.145  1.00  0.00     0.000 HD 
HETATM    5  H2  UNL     1      -8.574  21.160  66.795  1.00  0.00     0.000 HD 
ENDROOT
BRANCH   2   6
HETATM    6  C   UNL     1      -8.756  18.574  67.816  1.00  0.00    -0.275 C  
HETATM    7  O   UNL     1      -9.490  18.460  68.792  1.00  0.00    -0.329 OA 
HETATM    8  N   UNL     1      -7.438  18.141  67.740  1.00  0.00    -0.211 N  
HETATM    9  H   UNL     1      -6.933  18.220  66.857  1.00  0.00     0.000 HD 
BRANCH   8  10
HETATM   10  C   UNL     1      -6.789  17.593  68.865  1.00  0.00    -0.243 A  
HETATM   11  C   UNL     1      -6.828  16.205  69.103  1.00  0.00    -0.196 A  
HETATM   12  C   UNL     1      -7.630  15.234  68.280  1.00  0.00    -0.112 C  
HETATM   13  C   UNL     1      -6.039  15.677  70.142  1.00  0.00    -0.114 A  
HETATM   14  C   UNL     1      -5.252  16.504  70.934  1.00  0.00    -0.146 A  
HETATM   15  C   UNL     1      -5.259  17.880  70.725  1.00  0.00    -0.279 A  
HETATM   16  C   UNL     1      -6.025  18.441  69.693  1.00  0.00    -0.261 A  
HETATM   17  C   UNL     1      -6.118  19.938  69.578  1.00  0.00    -0.357 C  
ENDBRANCH   8  10
ENDBRANCH   2   6
TORSDOF 2
ENDMDL
MODEL      134
REMARK 921   NORMALIZED FREE ENERGY PREDICTED BY IDOCK:   -3.43 KCAL/MOL
REMARK 922        TOTAL FREE ENERGY PREDICTED BY IDOCK:   -4.09 KCAL/MOL
REMARK 923 INTER-LIGAND FREE ENERGY PREDICTED BY IDOCK:   -3.85 KCAL/MOL
REMARK 924 INTRA-LIGAND FREE ENERGY PREDICTED BY IDOCK:   -0.24 KCAL/MOL
REMARK 927      BINDING AFFINITY PREDICTED BY RF-SCORE:    0.00 PKD
ROOT
HETATM    1  C   UNL     1      -9.558  10.450  68.861  1.00  0.00    -0.197 C  
HETATM    2  C   UNL     1     -10.915  10.677  69.514  1.00  0.00    -0.272 C  
HETATM    3  N   UNL     1     -12.011  10.503  68.531  1.00  0.00    -0.786 NA 
HETATM    4  H1  UNL     1     -12.920  10.655  68.969  1.00  0.00     0.000 HD 
HETATM    5  H2  UNL     1     -11.962   9.596  68.069  1.00  0.00     0.000 HD 
ENDROOT
BRANCH   2   6
HETATM    6  C   UNL     1     -11.128   9.739  70.724  1.00  0.00    -0.345 C  
HETATM    7  O   UNL     1     -11.922   9.972  71.629  1.00  0.00    -0.376 OA 
HETATM    8  N   UNL     1     -10.333   8.605  70.619  1.00  0.00    -0.196 N  
HETATM    9  H   UNL     1      -9.754   8.472  69.789  1.00  0.00     0.000 HD 
BRANCH   8  10
HETATM   10  C   UNL     1     -10.314   7.634  71.641  1.00  0.00    -0.189 A  
HETATM   11  C   UNL     1      -9.335   7.686  72.653  1.00  0.00    -0.225 A  
HETATM   12  C   UNL     1      -8.196   8.669  72.670  1.00  0.00    -0.037 C  
HETATM   13  C   UNL     1      -9.443   6.799  73.740  1.00  0.00    -0.215 A  
HETATM   14  C   UNL     1     -10.479   5.875  73.811  1.00  0.00    -0.288 A  
HETATM   15  C   UNL     1     -11.413   5.798  72.782  1.00  0.00    -0.304 A  
HETATM   16  C   UNL     1     -11.342   6.671  71.687  1.00  0.00    -0.319 A  
HETATM   17  C   UNL     1     -12.282   6.473  70.529  1.00  0.00    -0.106 C  
ENDBRANCH   8  10
ENDBRANCH   2   6
TORSDOF 2
ENDMDL
MODEL      135
REMARK 921   NORMALIZED FREE ENERGY PREDICTED BY IDOCK:   -3.42 KCAL/MOL
REMARK 922        TOTAL FREE ENERGY PREDICTED BY IDOCK:   -4.09 KCAL/MOL
REMARK 923 INTER-LIGAND FREE ENERGY PREDICTED BY IDOCK:   -3.93 KCAL/MOL
REMARK 924 INTRA-LIGAND FREE ENERGY PREDICTED BY IDOCK:   -0.15 KCAL/MOL
REMARK 927      BINDING AFFINITY PREDICTED BY RF-SCORE:    0.00 PKD
ROOT
HETATM    1  C   UNL     1      -9.898  11.573  67.566  1.00  0.00    -0.203 C  
HETATM    2  C   UNL     1     -10.094  12.571  66.433  1.00  0.00    -0.243 C  
HETATM    3  N   UNL     1     -10.998  12.022  65.395  1.00  0.00    -0.292 NA 
HETATM    4  H1  UNL     1     -11.130  12.691  64.636  1.00  0.00     0.000 HD 
HETATM    5  H2  UNL     1     -11.889  11.723  65.792  1.00  0.00     0.000 HD 
ENDROOT
BRANCH   2   6
HETATM    6  C   UNL     1     -10.633  13.923  66.952  1.00  0.00    -0.280 C  
HETATM    7  O   UNL     1     -11.730  14.054  67.487  1.00  0.00    -0.343 OA 
HETATM    8  N   UNL     1      -9.702  14.935  66.760  1.00  0.00    -0.242 N  
HETATM    9  H   UNL     1      -8.788  14.710  66.367  1.00  0.00     0.000 HD 
BRANCH   8  10
HETATM   10  C   UNL     1     -10.001  16.270  67.101  1.00  0.00    -0.257 A  
HETATM   11  C   UNL     1      -9.776  16.737  68.411  1.00  0.00    -0.247 A  
HETATM   12  C   UNL     1      -9.326  15.862  69.549  1.00  0.00    -0.196 C  
HETATM   13  C   UNL     1      -9.935  18.111  68.673  1.00  0.00    -0.409 A  
HETATM   14  C   UNL     1     -10.326  18.991  67.670  1.00  0.00    -0.504 A  
HETATM   15  C   UNL     1     -10.595  18.512  66.391  1.00  0.00    -0.365 A  
HETATM   16  C   UNL     1     -10.438  17.151  66.091  1.00  0.00    -0.277 A  
HETATM   17  C   UNL     1     -10.866  16.644  64.741  1.00  0.00    -0.076 C  
ENDBRANCH   8  10
ENDBRANCH   2   6
TORSDOF 2
ENDMDL
MODEL      136
REMARK 921   NORMALIZED FREE ENERGY PREDICTED BY IDOCK:   -3.40 KCAL/MOL
REMARK 922        TOTAL FREE ENERGY PREDICTED BY IDOCK:   -4.06 KCAL/MOL
REMARK 923 INTER-LIGAND FREE ENERGY PREDICTED BY IDOCK:   -3.79 KCAL/MOL
REMARK 924 INTRA-LIGAND FREE ENERGY PREDICTED BY IDOCK:   -0.27 KCAL/MOL
REMARK 927      BINDING AFFINITY PREDICTED BY RF-SCORE:    0.00 PKD
ROOT
HETATM    1  C   UNL     1      -9.558   3.742  66.812  1.00  0.00    -0.205 C  
HETATM    2  C   UNL     1     -10.180   4.958  66.140  1.00  0.00    -0.277 C  
HETATM    3  N   UNL     1     -11.397   4.579  65.383  1.00  0.00    -0.995 NA 
HETATM    4  H1  UNL     1     -11.814   5.394  64.933  1.00  0.00     0.000 HD 
HETATM    5  H2  UNL     1     -12.070   4.090  65.973  1.00  0.00     0.000 HD 
ENDROOT
BRANCH   2   6
HETATM    6  C   UNL     1     -10.510   6.068  67.163  1.00  0.00    -0.264 C  
HETATM    7  O   UNL     1     -11.506   6.780  67.091  1.00  0.00    -0.210 OA 
HETATM    8  N   UNL     1      -9.554   6.114  68.170  1.00  0.00    -0.116 N  
HETATM    9  H   UNL     1      -8.798   5.431  68.177  1.00  0.00     0.000 HD 
BRANCH   8  10
HETATM   10  C   UNL     1      -9.615   7.092  69.183  1.00  0.00    -0.154 A  
HETATM   11  C   UNL     1      -9.057   8.369  68.974  1.00  0.00    -0.147 A  
HETATM   12  C   UNL     1      -8.275   8.753  67.748  1.00  0.00    -0.111 C  
HETATM   13  C   UNL     1      -9.276   9.367  69.943  1.00  0.00    -0.226 A  
HETATM   14  C   UNL     1     -10.008   9.099  71.094  1.00  0.00    -0.377 A  
HETATM   15  C   UNL     1     -10.512   7.821  71.316  1.00  0.00    -0.230 A  
HETATM   16  C   UNL     1     -10.322   6.804  70.369  1.00  0.00    -0.223 A  
HETATM   17  C   UNL     1     -10.759   5.404  70.699  1.00  0.00    -0.257 C  
ENDBRANCH   8  10
ENDBRANCH   2   6
TORSDOF 2
ENDMDL
MODEL      137
REMARK 921   NORMALIZED FREE ENERGY PREDICTED BY IDOCK:   -3.37 KCAL/MOL
REMARK 922        TOTAL FREE ENERGY PREDICTED BY IDOCK:   -4.03 KCAL/MOL
REMARK 923 INTER-LIGAND FREE ENERGY PREDICTED BY IDOCK:   -3.80 KCAL/MOL
REMARK 924 INTRA-LIGAND FREE ENERGY PREDICTED BY IDOCK:   -0.23 KCAL/MOL
REMARK 927      BINDING AFFINITY PREDICTED BY RF-SCORE:    0.00 PKD
ROOT
HETATM    1  C   UNL     1      -6.497  16.536  69.449  1.00  0.00    -0.210 C  
HETATM    2  C   UNL     1      -6.667  15.062  69.109  1.00  0.00    -0.126 C  
HETATM    3  N   UNL     1      -6.923  14.263  70.331  1.00  0.00    -0.381 NA 
HETATM    4  H1  UNL     1      -7.037  13.275  70.103  1.00  0.00     0.000 HD 
HETATM    5  H2  UNL     1      -7.719  14.623  70.856  1.00  0.00     0.000 HD 
ENDROOT
BRANCH   2   6
HETATM    6  C   UNL     1      -7.799  14.842  68.079  1.00  0.00    -0.127 C  
HETATM    7  O   UNL     1      -7.840  15.403  66.989  1.00  0.00    -0.207 OA 
HETATM    8  N   UNL     1      -8.720  13.913  68.546  1.00  0.00    -0.261 N  
HETATM    9  H   UNL     1      -8.558  13.451  69.440  1.00  0.00     0.000 HD 
BRANCH   8  10
HETATM   10  C   UNL     1      -9.875  13.599  67.800  1.00  0.00    -0.232 A  
HETATM   11  C   UNL     1     -11.039  14.382  67.929  1.00  0.00    -0.288 A  
HETATM   12  C   UNL     1     -11.190  15.506  68.917  1.00  0.00    -0.306 C  
HETATM   13  C   UNL     1     -12.115  14.137  67.055  1.00  0.00    -0.449 A  
HETATM   14  C   UNL     1     -12.046  13.132  66.098  1.00  0.00    -0.479 A  
HETATM   15  C   UNL     1     -10.911  12.331  66.012  1.00  0.00    -0.327 A  
HETATM   16  C   UNL     1      -9.816  12.551  66.859  1.00  0.00    -0.229 A  
HETATM   17  C   UNL     1      -8.663  11.585  66.834  1.00  0.00    -0.181 C  
ENDBRANCH   8  10
ENDBRANCH   2   6
TORSDOF 2
ENDMDL
MODEL      138
REMARK 921   NORMALIZED FREE ENERGY PREDICTED BY IDOCK:   -3.37 KCAL/MOL
REMARK 922        TOTAL FREE ENERGY PREDICTED BY IDOCK:   -4.03 KCAL/MOL
REMARK 923 INTER-LIGAND FREE ENERGY PREDICTED BY IDOCK:   -3.79 KCAL/MOL
REMARK 924 INTRA-LIGAND FREE ENERGY PREDICTED BY IDOCK:   -0.24 KCAL/MOL
REMARK 927      BINDING AFFINITY PREDICTED BY RF-SCORE:    0.00 PKD
ROOT
HETATM    1  C   UNL     1     -10.237   8.033  72.830  1.00  0.00    -0.384 C  
HETATM    2  C   UNL     1     -11.269   8.322  71.749  1.00  0.00    -0.283 C  
HETATM    3  N   UNL     1     -10.926   9.559  71.007  1.00  0.00    -0.326 NA 
HETATM    4  H1  UNL     1     -11.617   9.753  70.282  1.00  0.00     0.000 HD 
HETATM    5  H2  UNL     1      -9.981   9.519  70.626  1.00  0.00     0.000 HD 
ENDROOT
BRANCH   2   6
HETATM    6  C   UNL     1     -11.416   7.135  70.770  1.00  0.00    -0.305 C  
HETATM    7  O   UNL     1     -12.491   6.607  70.503  1.00  0.00    -0.248 OA 
HETATM    8  N   UNL     1     -10.187   6.786  70.225  1.00  0.00    -0.193 N  
HETATM    9  H   UNL     1      -9.359   7.334  70.461  1.00  0.00     0.000 HD 
BRANCH   8  10
HETATM   10  C   UNL     1     -10.066   5.687  69.351  1.00  0.00    -0.223 A  
HETATM   11  C   UNL     1     -10.196   5.867  67.960  1.00  0.00    -0.224 A  
HETATM   12  C   UNL     1     -10.576   7.172  67.314  1.00  0.00    -0.398 C  
HETATM   13  C   UNL     1      -9.913   4.781  67.110  1.00  0.00    -0.224 A  
HETATM   14  C   UNL     1      -9.533   3.548  67.627  1.00  0.00    -0.233 A  
HETATM   15  C   UNL     1      -9.456   3.365  69.005  1.00  0.00    -0.202 A  
HETATM   16  C   UNL     1      -9.723   4.427  69.881  1.00  0.00    -0.291 A  
HETATM   17  C   UNL     1      -9.764   4.163  71.362  1.00  0.00    -0.251 C  
ENDBRANCH   8  10
ENDBRANCH   2   6
TORSDOF 2
ENDMDL
MODEL      139
REMARK 921   NORMALIZED FREE ENERGY PREDICTED BY IDOCK:   -3.37 KCAL/MOL
REMARK 922        TOTAL FREE ENERGY PREDICTED BY IDOCK:   -4.02 KCAL/MOL
REMARK 923 INTER-LIGAND FREE ENERGY PREDICTED BY IDOCK:   -3.88 KCAL/MOL
REMARK 924 INTRA-LIGAND FREE ENERGY PREDICTED BY IDOCK:   -0.14 KCAL/MOL
REMARK 927      BINDING AFFINITY PREDICTED BY RF-SCORE:    0.00 PKD
ROOT
HETATM    1  C   UNL     1     -11.223  11.470  68.676  1.00  0.00    -0.307 C  
HETATM    2  C   UNL     1     -11.029  10.237  67.805  1.00  0.00    -0.300 C  
HETATM    3  N   UNL     1     -10.334  10.585  66.542  1.00  0.00    -0.240 NA 
HETATM    4  H1  UNL     1     -10.203   9.758  65.959  1.00  0.00     0.000 HD 
HETATM    5  H2  UNL     1      -9.452  11.065  66.719  1.00  0.00     0.000 HD 
ENDROOT
BRANCH   2   6
HETATM    6  C   UNL     1     -10.256   9.127  68.553  1.00  0.00    -0.198 C  
HETATM    7  O   UNL     1      -9.031   9.051  68.573  1.00  0.00    -0.133 OA 
HETATM    8  N   UNL     1     -11.129   8.271  69.211  1.00  0.00    -0.430 N  
HETATM    9  H   UNL     1     -12.131   8.460  69.188  1.00  0.00     0.000 HD 
BRANCH   8  10
HETATM   10  C   UNL     1     -10.651   7.144  69.910  1.00  0.00    -0.230 A  
HETATM   11  C   UNL     1     -10.449   7.204  71.303  1.00  0.00    -0.219 A  
HETATM   12  C   UNL     1     -10.607   8.456  72.121  1.00  0.00    -0.400 C  
HETATM   13  C   UNL     1     -10.125   6.017  71.988  1.00  0.00    -0.215 A  
HETATM   14  C   UNL     1      -9.985   4.813  71.308  1.00  0.00    -0.270 A  
HETATM   15  C   UNL     1     -10.136   4.774  69.925  1.00  0.00    -0.299 A  
HETATM   16  C   UNL     1     -10.468   5.933  69.210  1.00  0.00    -0.342 A  
HETATM   17  C   UNL     1     -10.490   5.887  67.707  1.00  0.00    -0.300 C  
ENDBRANCH   8  10
ENDBRANCH   2   6
TORSDOF 2
ENDMDL
MODEL      140
REMARK 921   NORMALIZED FREE ENERGY PREDICTED BY IDOCK:   -3.35 KCAL/MOL
REMARK 922        TOTAL FREE ENERGY PREDICTED BY IDOCK:   -4.00 KCAL/MOL
REMARK 923 INTER-LIGAND FREE ENERGY PREDICTED BY IDOCK:   -3.84 KCAL/MOL
REMARK 924 INTRA-LIGAND FREE ENERGY PREDICTED BY IDOCK:   -0.17 KCAL/MOL
REMARK 927      BINDING AFFINITY PREDICTED BY RF-SCORE:    0.00 PKD
ROOT
HETATM    1  C   UNL     1     -10.385   9.613  67.878  1.00  0.00    -0.271 C  
HETATM    2  C   UNL     1      -9.749  10.494  66.812  1.00  0.00    -0.179 C  
HETATM    3  N   UNL     1     -10.179  10.078  65.456  1.00  0.00    -0.247 NA 
HETATM    4  H1  UNL     1      -9.754  10.668  64.741  1.00  0.00     0.000 HD 
HETATM    5  H2  UNL     1     -11.195  10.059  65.373  1.00  0.00     0.000 HD 
ENDROOT
BRANCH   2   6
HETATM    6  C   UNL     1     -10.072  11.988  67.040  1.00  0.00    -0.203 C  
HETATM    7  O   UNL     1     -10.841  12.389  67.908  1.00  0.00    -0.209 OA 
HETATM    8  N   UNL     1      -9.355  12.791  66.163  1.00  0.00    -0.428 N  
HETATM    9  H   UNL     1      -8.687  12.363  65.522  1.00  0.00     0.000 HD 
BRANCH   8  10
HETATM   10  C   UNL     1      -9.536  14.189  66.145  1.00  0.00    -0.254 A  
HETATM   11  C   UNL     1      -8.731  15.021  66.947  1.00  0.00    -0.285 A  
HETATM   12  C   UNL     1      -7.725  14.510  67.942  1.00  0.00    -0.147 C  
HETATM   13  C   UNL     1      -8.832  16.416  66.785  1.00  0.00    -0.255 A  
HETATM   14  C   UNL     1      -9.721  16.968  65.870  1.00  0.00    -0.170 A  
HETATM   15  C   UNL     1     -10.549  16.140  65.119  1.00  0.00    -0.366 A  
HETATM   16  C   UNL     1     -10.470  14.745  65.246  1.00  0.00    -0.427 A  
HETATM   17  C   UNL     1     -11.469  13.884  64.523  1.00  0.00    -0.393 C  
ENDBRANCH   8  10
ENDBRANCH   2   6
TORSDOF 2
ENDMDL
MODEL      141
REMARK 921   NORMALIZED FREE ENERGY PREDICTED BY IDOCK:   -3.34 KCAL/MOL
REMARK 922        TOTAL FREE ENERGY PREDICTED BY IDOCK:   -3.99 KCAL/MOL
REMARK 923 INTER-LIGAND FREE ENERGY PREDICTED BY IDOCK:   -3.71 KCAL/MOL
REMARK 924 INTRA-LIGAND FREE ENERGY PREDICTED BY IDOCK:   -0.28 KCAL/MOL
REMARK 927      BINDING AFFINITY PREDICTED BY RF-SCORE:    0.00 PKD
ROOT
HETATM    1  C   UNL     1     -12.581  13.723  66.011  1.00  0.00    -0.458 C  
HETATM    2  C   UNL     1     -11.547  13.029  65.134  1.00  0.00    -0.324 C  
HETATM    3  N   UNL     1     -10.620  14.015  64.529  1.00  0.00    -0.584 NA 
HETATM    4  H1  UNL     1      -9.927  13.550  63.942  1.00  0.00     0.000 HD 
HETATM    5  H2  UNL     1     -10.180  14.602  65.237  1.00  0.00     0.000 HD 
ENDROOT
BRANCH   2   6
HETATM    6  C   UNL     1     -10.754  11.964  65.924  1.00  0.00    -0.284 C  
HETATM    7  O   UNL     1     -10.495  10.848  65.484  1.00  0.00    -0.261 OA 
HETATM    8  N   UNL     1     -10.358  12.456  67.161  1.00  0.00    -0.219 N  
HETATM    9  H   UNL     1     -10.565  13.424  67.407  1.00  0.00     0.000 HD 
BRANCH   8  10
HETATM   10  C   UNL     1      -9.673  11.638  68.082  1.00  0.00    -0.189 A  
HETATM   11  C   UNL     1     -10.390  10.844  68.999  1.00  0.00    -0.230 A  
HETATM   12  C   UNL     1     -11.885  10.883  69.153  1.00  0.00    -0.389 C  
HETATM   13  C   UNL     1      -9.679   9.924  69.793  1.00  0.00    -0.266 A  
HETATM   14  C   UNL     1      -8.298   9.809  69.694  1.00  0.00    -0.180 A  
HETATM   15  C   UNL     1      -7.592  10.633  68.822  1.00  0.00    -0.109 A  
HETATM   16  C   UNL     1      -8.267  11.556  68.009  1.00  0.00    -0.143 A  
HETATM   17  C   UNL     1      -7.469  12.523  67.179  1.00  0.00    -0.077 C  
ENDBRANCH   8  10
ENDBRANCH   2   6
TORSDOF 2
ENDMDL
MODEL      142
REMARK 921   NORMALIZED FREE ENERGY PREDICTED BY IDOCK:   -3.34 KCAL/MOL
REMARK 922        TOTAL FREE ENERGY PREDICTED BY IDOCK:   -3.99 KCAL/MOL
REMARK 923 INTER-LIGAND FREE ENERGY PREDICTED BY IDOCK:   -3.79 KCAL/MOL
REMARK 924 INTRA-LIGAND FREE ENERGY PREDICTED BY IDOCK:   -0.20 KCAL/MOL
REMARK 927      BINDING AFFINITY PREDICTED BY RF-SCORE:    0.00 PKD
ROOT
HETATM    1  C   UNL     1      -7.413   8.801  66.595  1.00  0.00    -0.085 C  
HETATM    2  C   UNL     1      -8.686   9.545  66.214  1.00  0.00    -0.143 C  
HETATM    3  N   UNL     1      -9.105   9.206  64.833  1.00  0.00    -0.402 NA 
HETATM    4  H1  UNL     1      -9.958   9.703  64.579  1.00  0.00     0.000 HD 
HETATM    5  H2  UNL     1      -9.205   8.198  64.707  1.00  0.00     0.000 HD 
ENDROOT
BRANCH   2   6
HETATM    6  C   UNL     1      -9.834   9.255  67.208  1.00  0.00    -0.182 C  
HETATM    7  O   UNL     1     -10.823   8.587  66.923  1.00  0.00    -0.190 OA 
HETATM    8  N   UNL     1      -9.569   9.818  68.450  1.00  0.00    -0.146 N  
HETATM    9  H   UNL     1      -8.683  10.298  68.605  1.00  0.00     0.000 HD 
BRANCH   8  10
HETATM   10  C   UNL     1     -10.507   9.735  69.499  1.00  0.00    -0.232 A  
HETATM   11  C   UNL     1     -10.485   8.643  70.389  1.00  0.00    -0.233 A  
HETATM   12  C   UNL     1      -9.573   7.457  70.239  1.00  0.00    -0.165 C  
HETATM   13  C   UNL     1     -11.330   8.674  71.514  1.00  0.00    -0.358 A  
HETATM   14  C   UNL     1     -12.186   9.746  71.737  1.00  0.00    -0.449 A  
HETATM   15  C   UNL     1     -12.238  10.796  70.826  1.00  0.00    -0.480 A  
HETATM   16  C   UNL     1     -11.405  10.804  69.698  1.00  0.00    -0.362 A  
HETATM   17  C   UNL     1     -11.580  11.882  68.664  1.00  0.00    -0.366 C  
ENDBRANCH   8  10
ENDBRANCH   2   6
TORSDOF 2
ENDMDL
MODEL      143
REMARK 921   NORMALIZED FREE ENERGY PREDICTED BY IDOCK:   -3.31 KCAL/MOL
REMARK 922        TOTAL FREE ENERGY PREDICTED BY IDOCK:   -3.96 KCAL/MOL
REMARK 923 INTER-LIGAND FREE ENERGY PREDICTED BY IDOCK:   -3.75 KCAL/MOL
REMARK 924 INTRA-LIGAND FREE ENERGY PREDICTED BY IDOCK:   -0.20 KCAL/MOL
REMARK 927      BINDING AFFINITY PREDICTED BY RF-SCORE:    0.00 PKD
ROOT
HETATM    1  C   UNL     1     -10.261  15.762  65.847  1.00  0.00    -0.377 C  
HETATM    2  C   UNL     1      -8.957  15.190  66.385  1.00  0.00    -0.279 C  
HETATM    3  N   UNL     1      -7.961  16.265  66.612  1.00  0.00    -0.266 NA 
HETATM    4  H1  UNL     1      -7.088  15.882  66.973  1.00  0.00     0.000 HD 
HETATM    5  H2  UNL     1      -8.330  16.998  67.218  1.00  0.00     0.000 HD 
ENDROOT
BRANCH   2   6
HETATM    6  C   UNL     1      -9.181  14.387  67.686  1.00  0.00    -0.196 C  
HETATM    7  O   UNL     1      -8.669  14.682  68.761  1.00  0.00    -0.174 OA 
HETATM    8  N   UNL     1     -10.055  13.329  67.471  1.00  0.00    -0.221 N  
HETATM    9  H   UNL     1     -10.482  13.208  66.553  1.00  0.00     0.000 HD 
BRANCH   8  10
HETATM   10  C   UNL     1     -10.360  12.418  68.503  1.00  0.00    -0.221 A  
HETATM   11  C   UNL     1     -11.430  12.673  69.384  1.00  0.00    -0.330 A  
HETATM   12  C   UNL     1     -12.238  13.942  69.378  1.00  0.00    -0.338 C  
HETATM   13  C   UNL     1     -11.804  11.670  70.298  1.00  0.00    -0.414 A  
HETATM   14  C   UNL     1     -11.123  10.460  70.351  1.00  0.00    -0.371 A  
HETATM   15  C   UNL     1     -10.035  10.237  69.512  1.00  0.00    -0.252 A  
HETATM   16  C   UNL     1      -9.639  11.209  68.583  1.00  0.00    -0.200 A  
HETATM   17  C   UNL     1      -8.381  10.994  67.788  1.00  0.00    -0.118 C  
ENDBRANCH   8  10
ENDBRANCH   2   6
TORSDOF 2
ENDMDL
MODEL      144
REMARK 921   NORMALIZED FREE ENERGY PREDICTED BY IDOCK:   -3.29 KCAL/MOL
REMARK 922        TOTAL FREE ENERGY PREDICTED BY IDOCK:   -3.94 KCAL/MOL
REMARK 923 INTER-LIGAND FREE ENERGY PREDICTED BY IDOCK:   -3.79 KCAL/MOL
REMARK 924 INTRA-LIGAND FREE ENERGY PREDICTED BY IDOCK:   -0.15 KCAL/MOL
REMARK 927      BINDING AFFINITY PREDICTED BY RF-SCORE:    0.00 PKD
ROOT
HETATM    1  C   UNL     1     -10.246  12.950  67.920  1.00  0.00    -0.233 C  
HETATM    2  C   UNL     1     -10.048  11.482  67.570  1.00  0.00    -0.183 C  
HETATM    3  N   UNL     1      -8.801  11.288  66.792  1.00  0.00    -0.164 NA 
HETATM    4  H1  UNL     1      -8.667  10.304  66.558  1.00  0.00     0.000 HD 
HETATM    5  H2  UNL     1      -7.991  11.672  67.277  1.00  0.00     0.000 HD 
ENDROOT
BRANCH   2   6
HETATM    6  C   UNL     1     -10.035  10.592  68.833  1.00  0.00    -0.204 C  
HETATM    7  O   UNL     1      -9.112  10.578  69.642  1.00  0.00    -0.111 OA 
HETATM    8  N   UNL     1     -11.208   9.856  68.934  1.00  0.00    -0.442 N  
HETATM    9  H   UNL     1     -11.946   9.990  68.243  1.00  0.00     0.000 HD 
BRANCH   8  10
HETATM   10  C   UNL     1     -11.393   8.925  69.976  1.00  0.00    -0.040 A  
HETATM   11  C   UNL     1     -12.061   9.303  71.158  1.00  0.00    -0.389 A  
HETATM   12  C   UNL     1     -12.515  10.707  71.453  1.00  0.00    -0.496 C  
HETATM   13  C   UNL     1     -12.367   8.310  72.106  1.00  0.00    -0.410 A  
HETATM   14  C   UNL     1     -12.002   6.984  71.898  1.00  0.00    -0.355 A  
HETATM   15  C   UNL     1     -11.298   6.629  70.752  1.00  0.00    -0.389 A  
HETATM   16  C   UNL     1     -10.984   7.590  69.780  1.00  0.00    -0.195 A  
HETATM   17  C   UNL     1     -10.107   7.202  68.621  1.00  0.00    -0.177 C  
ENDBRANCH   8  10
ENDBRANCH   2   6
TORSDOF 2
ENDMDL
MODEL      145
REMARK 921   NORMALIZED FREE ENERGY PREDICTED BY IDOCK:   -3.26 KCAL/MOL
REMARK 922        TOTAL FREE ENERGY PREDICTED BY IDOCK:   -3.90 KCAL/MOL
REMARK 923 INTER-LIGAND FREE ENERGY PREDICTED BY IDOCK:   -3.76 KCAL/MOL
REMARK 924 INTRA-LIGAND FREE ENERGY PREDICTED BY IDOCK:   -0.14 KCAL/MOL
REMARK 927      BINDING AFFINITY PREDICTED BY RF-SCORE:    0.00 PKD
ROOT
HETATM    1  C   UNL     1     -10.712  12.993  67.944  1.00  0.00    -0.249 C  
HETATM    2  C   UNL     1      -9.457  13.698  67.448  1.00  0.00    -0.225 C  
HETATM    3  N   UNL     1      -9.530  13.944  65.988  1.00  0.00    -0.498 NA 
HETATM    4  H1  UNL     1      -8.689  14.417  65.656  1.00  0.00     0.000 HD 
HETATM    5  H2  UNL     1     -10.375  14.455  65.735  1.00  0.00     0.000 HD 
ENDROOT
BRANCH   2   6
HETATM    6  C   UNL     1      -9.214  15.024  68.203  1.00  0.00    -0.183 C  
HETATM    7  O   UNL     1      -9.577  15.223  69.358  1.00  0.00    -0.241 OA 
HETATM    8  N   UNL     1      -8.511  15.924  67.411  1.00  0.00    -0.167 N  
HETATM    9  H   UNL     1      -8.194  15.637  66.485  1.00  0.00     0.000 HD 
BRANCH   8  10
HETATM   10  C   UNL     1      -8.228  17.227  67.869  1.00  0.00    -0.219 A  
HETATM   11  C   UNL     1      -9.233  18.214  67.871  1.00  0.00    -0.273 A  
HETATM   12  C   UNL     1     -10.610  18.011  67.300  1.00  0.00    -0.358 C  
HETATM   13  C   UNL     1      -8.960  19.452  68.481  1.00  0.00    -0.418 A  
HETATM   14  C   UNL     1      -7.719  19.711  69.053  1.00  0.00    -0.291 A  
HETATM   15  C   UNL     1      -6.716  18.748  69.001  1.00  0.00    -0.308 A  
HETATM   16  C   UNL     1      -6.955  17.499  68.410  1.00  0.00    -0.211 A  
HETATM   17  C   UNL     1      -5.813  16.533  68.249  1.00  0.00    -0.118 C  
ENDBRANCH   8  10
ENDBRANCH   2   6
TORSDOF 2
ENDMDL
MODEL      146
REMARK 921   NORMALIZED FREE ENERGY PREDICTED BY IDOCK:   -3.24 KCAL/MOL
REMARK 922        TOTAL FREE ENERGY PREDICTED BY IDOCK:   -3.88 KCAL/MOL
REMARK 923 INTER-LIGAND FREE ENERGY PREDICTED BY IDOCK:   -3.67 KCAL/MOL
REMARK 924 INTRA-LIGAND FREE ENERGY PREDICTED BY IDOCK:   -0.21 KCAL/MOL
REMARK 927      BINDING AFFINITY PREDICTED BY RF-SCORE:    0.00 PKD
ROOT
HETATM    1  C   UNL     1     -10.820  16.764  68.440  1.00  0.00    -0.355 C  
HETATM    2  C   UNL     1     -10.108  15.614  69.138  1.00  0.00    -0.237 C  
HETATM    3  N   UNL     1     -10.656  15.402  70.500  1.00  0.00    -0.465 NA 
HETATM    4  H1  UNL     1     -10.179  14.631  70.968  1.00  0.00     0.000 HD 
HETATM    5  H2  UNL     1     -11.666  15.264  70.482  1.00  0.00     0.000 HD 
ENDROOT
BRANCH   2   6
HETATM    6  C   UNL     1     -10.194  14.308  68.317  1.00  0.00    -0.244 C  
HETATM    7  O   UNL     1     -10.713  14.239  67.208  1.00  0.00    -0.273 OA 
HETATM    8  N   UNL     1      -9.582  13.258  68.990  1.00  0.00    -0.363 N  
HETATM    9  H   UNL     1      -9.118  13.434  69.880  1.00  0.00     0.000 HD 
BRANCH   8  10
HETATM   10  C   UNL     1      -9.593  11.952  68.459  1.00  0.00    -0.157 A  
HETATM   11  C   UNL     1     -10.701  11.107  68.669  1.00  0.00    -0.234 A  
HETATM   12  C   UNL     1     -11.874  11.463  69.540  1.00  0.00    -0.426 C  
HETATM   13  C   UNL     1     -10.745   9.873  67.993  1.00  0.00    -0.296 A  
HETATM   14  C   UNL     1      -9.711   9.481  67.151  1.00  0.00    -0.221 A  
HETATM   15  C   UNL     1      -8.597  10.299  66.989  1.00  0.00    -0.129 A  
HETATM   16  C   UNL     1      -8.522  11.540  67.639  1.00  0.00    -0.135 A  
HETATM   17  C   UNL     1      -7.250  12.338  67.552  1.00  0.00    -0.139 C  
ENDBRANCH   8  10
ENDBRANCH   2   6
TORSDOF 2
ENDMDL
MODEL      147
REMARK 921   NORMALIZED FREE ENERGY PREDICTED BY IDOCK:   -3.23 KCAL/MOL
REMARK 922        TOTAL FREE ENERGY PREDICTED BY IDOCK:   -3.87 KCAL/MOL
REMARK 923 INTER-LIGAND FREE ENERGY PREDICTED BY IDOCK:   -3.63 KCAL/MOL
REMARK 924 INTRA-LIGAND FREE ENERGY PREDICTED BY IDOCK:   -0.24 KCAL/MOL
REMARK 927      BINDING AFFINITY PREDICTED BY RF-SCORE:    0.00 PKD
ROOT
HETATM    1  C   UNL     1      -9.784   4.401  73.340  1.00  0.00    -0.150 C  
HETATM    2  C   UNL     1     -10.836   5.471  73.594  1.00  0.00    -0.249 C  
HETATM    3  N   UNL     1     -10.324   6.508  74.522  1.00  0.00    -0.411 NA 
HETATM    4  H1  UNL     1     -11.029   7.225  74.692  1.00  0.00     0.000 HD 
HETATM    5  H2  UNL     1      -9.449   6.912  74.188  1.00  0.00     0.000 HD 
ENDROOT
BRANCH   2   6
HETATM    6  C   UNL     1     -11.316   6.122  72.277  1.00  0.00    -0.300 C  
HETATM    7  O   UNL     1     -12.498   6.221  71.962  1.00  0.00    -0.306 OA 
HETATM    8  N   UNL     1     -10.241   6.598  71.538  1.00  0.00    -0.197 N  
HETATM    9  H   UNL     1      -9.298   6.528  71.920  1.00  0.00     0.000 HD 
BRANCH   8  10
HETATM   10  C   UNL     1     -10.433   7.177  70.267  1.00  0.00    -0.217 A  
HETATM   11  C   UNL     1     -10.701   8.555  70.146  1.00  0.00    -0.240 A  
HETATM   12  C   UNL     1     -10.913   9.475  71.317  1.00  0.00    -0.440 C  
HETATM   13  C   UNL     1     -10.729   9.125  68.860  1.00  0.00    -0.167 A  
HETATM   14  C   UNL     1     -10.519   8.348  67.727  1.00  0.00    -0.284 A  
HETATM   15  C   UNL     1     -10.306   6.978  67.853  1.00  0.00    -0.247 A  
HETATM   16  C   UNL     1     -10.262   6.377  69.119  1.00  0.00    -0.217 A  
HETATM   17  C   UNL     1     -10.166   4.879  69.217  1.00  0.00    -0.205 C  
ENDBRANCH   8  10
ENDBRANCH   2   6
TORSDOF 2
ENDMDL
MODEL      148
REMARK 921   NORMALIZED FREE ENERGY PREDICTED BY IDOCK:   -3.22 KCAL/MOL
REMARK 922        TOTAL FREE ENERGY PREDICTED BY IDOCK:   -3.86 KCAL/MOL
REMARK 923 INTER-LIGAND FREE ENERGY PREDICTED BY IDOCK:   -3.73 KCAL/MOL
REMARK 924 INTRA-LIGAND FREE ENERGY PREDICTED BY IDOCK:   -0.14 KCAL/MOL
REMARK 927      BINDING AFFINITY PREDICTED BY RF-SCORE:    0.00 PKD
ROOT
HETATM    1  C   UNL     1     -10.231  16.876  65.960  1.00  0.00    -0.350 C  
HETATM    2  C   UNL     1     -11.089  15.650  65.682  1.00  0.00    -0.194 C  
HETATM    3  N   UNL     1     -11.514  15.613  64.263  1.00  0.00    -0.753 NA 
HETATM    4  H1  UNL     1     -12.089  14.791  64.076  1.00  0.00     0.000 HD 
HETATM    5  H2  UNL     1     -10.717  15.666  63.629  1.00  0.00     0.000 HD 
ENDROOT
BRANCH   2   6
HETATM    6  C   UNL     1     -10.353  14.343  66.055  1.00  0.00    -0.309 C  
HETATM    7  O   UNL     1     -10.147  13.432  65.259  1.00  0.00    -0.297 OA 
HETATM    8  N   UNL     1      -9.940  14.367  67.381  1.00  0.00    -0.240 N  
HETATM    9  H   UNL     1     -10.101  15.203  67.942  1.00  0.00     0.000 HD 
BRANCH   8  10
HETATM   10  C   UNL     1      -9.301  13.253  67.961  1.00  0.00    -0.218 A  
HETATM   11  C   UNL     1     -10.042  12.105  68.301  1.00  0.00    -0.210 A  
HETATM   12  C   UNL     1     -11.539  12.008  68.190  1.00  0.00    -0.403 C  
HETATM   13  C   UNL     1      -9.348  10.957  68.730  1.00  0.00    -0.190 A  
HETATM   14  C   UNL     1      -7.962  10.957  68.837  1.00  0.00    -0.146 A  
HETATM   15  C   UNL     1      -7.242  12.112  68.548  1.00  0.00    -0.102 A  
HETATM   16  C   UNL     1      -7.898  13.271  68.110  1.00  0.00    -0.145 A  
HETATM   17  C   UNL     1      -7.109  14.540  67.936  1.00  0.00    -0.168 C  
ENDBRANCH   8  10
ENDBRANCH   2   6
TORSDOF 2
ENDMDL
MODEL      149
REMARK 921   NORMALIZED FREE ENERGY PREDICTED BY IDOCK:   -3.22 KCAL/MOL
REMARK 922        TOTAL FREE ENERGY PREDICTED BY IDOCK:   -3.86 KCAL/MOL
REMARK 923 INTER-LIGAND FREE ENERGY PREDICTED BY IDOCK:   -3.59 KCAL/MOL
REMARK 924 INTRA-LIGAND FREE ENERGY PREDICTED BY IDOCK:   -0.27 KCAL/MOL
REMARK 927      BINDING AFFINITY PREDICTED BY RF-SCORE:    0.00 PKD
ROOT
HETATM    1  C   UNL     1     -11.076   5.158  72.964  1.00  0.00    -0.379 C  
HETATM    2  C   UNL     1      -9.861   5.003  72.061  1.00  0.00    -0.174 C  
HETATM    3  N   UNL     1      -9.984   3.794  71.211  1.00  0.00    -0.147 NA 
HETATM    4  H1  UNL     1      -9.170   3.690  70.605  1.00  0.00     0.000 HD 
HETATM    5  H2  UNL     1     -10.853   3.797  70.677  1.00  0.00     0.000 HD 
ENDROOT
BRANCH   2   6
HETATM    6  C   UNL     1      -9.641   6.255  71.181  1.00  0.00    -0.175 C  
HETATM    7  O   UNL     1      -8.560   6.824  71.072  1.00  0.00    -0.134 OA 
HETATM    8  N   UNL     1     -10.812   6.610  70.522  1.00  0.00    -0.245 N  
HETATM    9  H   UNL     1     -11.643   6.029  70.627  1.00  0.00     0.000 HD 
BRANCH   8  10
HETATM   10  C   UNL     1     -10.866   7.761  69.710  1.00  0.00    -0.209 A  
HETATM   11  C   UNL     1     -11.070   9.030  70.287  1.00  0.00    -0.263 A  
HETATM   12  C   UNL     1     -11.353   9.252  71.748  1.00  0.00    -0.437 C  
HETATM   13  C   UNL     1     -10.960  10.168  69.467  1.00  0.00    -0.295 A  
HETATM   14  C   UNL     1     -10.678  10.049  68.111  1.00  0.00    -0.282 A  
HETATM   15  C   UNL     1     -10.528   8.789  67.540  1.00  0.00    -0.340 A  
HETATM   16  C   UNL     1     -10.622   7.633  68.327  1.00  0.00    -0.175 A  
HETATM   17  C   UNL     1     -10.591   6.286  67.659  1.00  0.00    -0.339 C  
ENDBRANCH   8  10
ENDBRANCH   2   6
TORSDOF 2
ENDMDL
MODEL      150
REMARK 921   NORMALIZED FREE ENERGY PREDICTED BY IDOCK:   -3.20 KCAL/MOL
REMARK 922        TOTAL FREE ENERGY PREDICTED BY IDOCK:   -3.84 KCAL/MOL
REMARK 923 INTER-LIGAND FREE ENERGY PREDICTED BY IDOCK:   -3.61 KCAL/MOL
REMARK 924 INTRA-LIGAND FREE ENERGY PREDICTED BY IDOCK:   -0.22 KCAL/MOL
REMARK 927      BINDING AFFINITY PREDICTED BY RF-SCORE:    0.00 PKD
ROOT
HETATM    1  C   UNL     1     -10.733  19.638  67.011  1.00  0.00    -0.575 C  
HETATM    2  C   UNL     1      -9.831  20.043  68.169  1.00  0.00    -0.374 C  
HETATM    3  N   UNL     1     -10.630  20.349  69.379  1.00  0.00    -0.266 NA 
HETATM    4  H1  UNL     1     -10.026  20.620  70.155  1.00  0.00     0.000 HD 
HETATM    5  H2  UNL     1     -11.244  19.575  69.632  1.00  0.00     0.000 HD 
ENDROOT
BRANCH   2   6
HETATM    6  C   UNL     1      -8.783  18.951  68.482  1.00  0.00    -0.347 C  
HETATM    7  O   UNL     1      -7.805  19.138  69.200  1.00  0.00    -0.295 OA 
HETATM    8  N   UNL     1      -9.122  17.749  67.875  1.00  0.00    -0.254 N  
HETATM    9  H   UNL     1      -9.995  17.678  67.353  1.00  0.00     0.000 HD 
BRANCH   8  10
HETATM   10  C   UNL     1      -8.277  16.624  67.971  1.00  0.00    -0.185 A  
HETATM   11  C   UNL     1      -7.121  16.533  67.171  1.00  0.00    -0.228 A  
HETATM   12  C   UNL     1      -6.758  17.528  66.102  1.00  0.00    -0.298 C  
HETATM   13  C   UNL     1      -6.221  15.477  67.406  1.00  0.00    -0.072 A  
HETATM   14  C   UNL     1      -6.471  14.529  68.392  1.00  0.00    -0.102 A  
HETATM   15  C   UNL     1      -7.641  14.598  69.142  1.00  0.00    -0.126 A  
HETATM   16  C   UNL     1      -8.557  15.641  68.942  1.00  0.00    -0.211 A  
HETATM   17  C   UNL     1      -9.871  15.613  69.672  1.00  0.00    -0.280 C  
ENDBRANCH   8  10
ENDBRANCH   2   6
TORSDOF 2
ENDMDL
MODEL      151
REMARK 921   NORMALIZED FREE ENERGY PREDICTED BY IDOCK:   -3.18 KCAL/MOL
REMARK 922        TOTAL FREE ENERGY PREDICTED BY IDOCK:   -3.81 KCAL/MOL
REMARK 923 INTER-LIGAND FREE ENERGY PREDICTED BY IDOCK:   -3.81 KCAL/MOL
REMARK 924 INTRA-LIGAND FREE ENERGY PREDICTED BY IDOCK:   -0.00 KCAL/MOL
REMARK 927      BINDING AFFINITY PREDICTED BY RF-SCORE:    0.00 PKD
ROOT
HETATM    1  C   UNL     1     -12.065  12.466  64.174  1.00  0.00    -0.539 C  
HETATM    2  C   UNL     1     -12.311  12.787  65.641  1.00  0.00    -0.382 C  
HETATM    3  N   UNL     1     -11.687  11.768  66.518  1.00  0.00    -0.528 NA 
HETATM    4  H1  UNL     1     -11.851  11.983  67.501  1.00  0.00     0.000 HD 
HETATM    5  H2  UNL     1     -10.693  11.657  66.318  1.00  0.00     0.000 HD 
ENDROOT
BRANCH   2   6
HETATM    6  C   UNL     1     -11.797  14.197  66.010  1.00  0.00    -0.398 C  
HETATM    7  O   UNL     1     -11.962  15.185  65.301  1.00  0.00    -0.159 OA 
HETATM    8  N   UNL     1     -11.166  14.187  67.247  1.00  0.00    -0.305 N  
HETATM    9  H   UNL     1     -11.141  13.325  67.792  1.00  0.00     0.000 HD 
BRANCH   8  10
HETATM   10  C   UNL     1     -10.561  15.352  67.763  1.00  0.00    -0.274 A  
HETATM   11  C   UNL     1      -9.380  15.856  67.184  1.00  0.00    -0.223 A  
HETATM   12  C   UNL     1      -8.622  15.163  66.084  1.00  0.00     0.155 C  
HETATM   13  C   UNL     1      -8.895  17.103  67.620  1.00  0.00    -0.218 A  
HETATM   14  C   UNL     1      -9.550  17.818  68.616  1.00  0.00    -0.322 A  
HETATM   15  C   UNL     1     -10.688  17.288  69.218  1.00  0.00    -0.051 A  
HETATM   16  C   UNL     1     -11.206  16.053  68.803  1.00  0.00    -0.360 A  
HETATM   17  C   UNL     1     -12.353  15.446  69.562  1.00  0.00    -0.207 C  
ENDBRANCH   8  10
ENDBRANCH   2   6
TORSDOF 2
ENDMDL
MODEL      152
REMARK 921   NORMALIZED FREE ENERGY PREDICTED BY IDOCK:   -3.17 KCAL/MOL
REMARK 922        TOTAL FREE ENERGY PREDICTED BY IDOCK:   -3.81 KCAL/MOL
REMARK 923 INTER-LIGAND FREE ENERGY PREDICTED BY IDOCK:   -3.57 KCAL/MOL
REMARK 924 INTRA-LIGAND FREE ENERGY PREDICTED BY IDOCK:   -0.23 KCAL/MOL
REMARK 927      BINDING AFFINITY PREDICTED BY RF-SCORE:    0.00 PKD
ROOT
HETATM    1  C   UNL     1     -10.031  10.325  69.198  1.00  0.00    -0.235 C  
HETATM    2  C   UNL     1      -8.833   9.557  69.737  1.00  0.00    -0.199 C  
HETATM    3  N   UNL     1      -7.757  10.484  70.163  1.00  0.00    -0.421 NA 
HETATM    4  H1  UNL     1      -6.954   9.970  70.525  1.00  0.00     0.000 HD 
HETATM    5  H2  UNL     1      -8.098  11.172  70.835  1.00  0.00     0.000 HD 
ENDROOT
BRANCH   2   6
HETATM    6  C   UNL     1      -9.231   8.627  70.906  1.00  0.00    -0.190 C  
HETATM    7  O   UNL     1      -9.051   8.909  72.086  1.00  0.00    -0.375 OA 
HETATM    8  N   UNL     1      -9.839   7.471  70.435  1.00  0.00    -0.183 N  
HETATM    9  H   UNL     1     -10.005   7.362  69.435  1.00  0.00     0.000 HD 
BRANCH   8  10
HETATM   10  C   UNL     1     -10.232   6.446  71.320  1.00  0.00    -0.200 A  
HETATM   11  C   UNL     1      -9.298   5.486  71.756  1.00  0.00    -0.162 A  
HETATM   12  C   UNL     1      -7.884   5.399  71.250  1.00  0.00    -0.109 C  
HETATM   13  C   UNL     1      -9.684   4.577  72.759  1.00  0.00    -0.180 A  
HETATM   14  C   UNL     1     -10.966   4.606  73.296  1.00  0.00    -0.381 A  
HETATM   15  C   UNL     1     -11.898   5.524  72.823  1.00  0.00    -0.169 A  
HETATM   16  C   UNL     1     -11.546   6.451  71.831  1.00  0.00    -0.367 A  
HETATM   17  C   UNL     1     -12.610   7.339  71.245  1.00  0.00    -0.402 C  
ENDBRANCH   8  10
ENDBRANCH   2   6
TORSDOF 2
ENDMDL
MODEL      153
REMARK 921   NORMALIZED FREE ENERGY PREDICTED BY IDOCK:   -3.17 KCAL/MOL
REMARK 922        TOTAL FREE ENERGY PREDICTED BY IDOCK:   -3.80 KCAL/MOL
REMARK 923 INTER-LIGAND FREE ENERGY PREDICTED BY IDOCK:   -3.59 KCAL/MOL
REMARK 924 INTRA-LIGAND FREE ENERGY PREDICTED BY IDOCK:   -0.21 KCAL/MOL
REMARK 927      BINDING AFFINITY PREDICTED BY RF-SCORE:    0.00 PKD
ROOT
HETATM    1  C   UNL     1      -9.240   4.126  67.211  1.00  0.00    -0.178 C  
HETATM    2  C   UNL     1      -9.210   5.372  66.337  1.00  0.00    -0.147 C  
HETATM    3  N   UNL     1      -9.588   5.048  64.941  1.00  0.00    -0.362 NA 
HETATM    4  H1  UNL     1      -9.569   5.883  64.356  1.00  0.00     0.000 HD 
HETATM    5  H2  UNL     1     -10.492   4.577  64.896  1.00  0.00     0.000 HD 
ENDROOT
BRANCH   2   6
HETATM    6  C   UNL     1     -10.128   6.482  66.897  1.00  0.00    -0.192 C  
HETATM    7  O   UNL     1     -11.354   6.429  66.859  1.00  0.00    -0.304 OA 
HETATM    8  N   UNL     1      -9.380   7.505  67.465  1.00  0.00    -0.137 N  
HETATM    9  H   UNL     1      -8.365   7.422  67.506  1.00  0.00     0.000 HD 
BRANCH   8  10
HETATM   10  C   UNL     1     -10.005   8.657  67.984  1.00  0.00    -0.182 A  
HETATM   11  C   UNL     1     -10.324   9.737  67.138  1.00  0.00    -0.311 A  
HETATM   12  C   UNL     1      -9.941   9.807  65.685  1.00  0.00    -0.352 C  
HETATM   13  C   UNL     1     -11.087  10.799  67.659  1.00  0.00    -0.384 A  
HETATM   14  C   UNL     1     -11.502  10.799  68.986  1.00  0.00    -0.368 A  
HETATM   15  C   UNL     1     -11.138   9.753  69.828  1.00  0.00    -0.272 A  
HETATM   16  C   UNL     1     -10.386   8.674  69.342  1.00  0.00    -0.221 A  
HETATM   17  C   UNL     1      -9.895   7.629  70.306  1.00  0.00    -0.180 C  
ENDBRANCH   8  10
ENDBRANCH   2   6
TORSDOF 2
ENDMDL
MODEL      154
REMARK 921   NORMALIZED FREE ENERGY PREDICTED BY IDOCK:   -3.17 KCAL/MOL
REMARK 922        TOTAL FREE ENERGY PREDICTED BY IDOCK:   -3.80 KCAL/MOL
REMARK 923 INTER-LIGAND FREE ENERGY PREDICTED BY IDOCK:   -3.60 KCAL/MOL
REMARK 924 INTRA-LIGAND FREE ENERGY PREDICTED BY IDOCK:   -0.20 KCAL/MOL
REMARK 927      BINDING AFFINITY PREDICTED BY RF-SCORE:    0.00 PKD
ROOT
HETATM    1  C   UNL     1     -11.445   4.742  73.159  1.00  0.00    -0.348 C  
HETATM    2  C   UNL     1     -10.382   5.012  72.104  1.00  0.00    -0.215 C  
HETATM    3  N   UNL     1     -10.032   3.770  71.375  1.00  0.00    -0.151 NA 
HETATM    4  H1  UNL     1      -9.320   3.951  70.667  1.00  0.00     0.000 HD 
HETATM    5  H2  UNL     1     -10.856   3.324  70.973  1.00  0.00     0.000 HD 
ENDROOT
BRANCH   2   6
HETATM    6  C   UNL     1     -10.831   6.107  71.109  1.00  0.00    -0.270 C  
HETATM    7  O   UNL     1     -11.977   6.544  71.056  1.00  0.00    -0.361 OA 
HETATM    8  N   UNL     1      -9.766   6.536  70.329  1.00  0.00    -0.168 N  
HETATM    9  H   UNL     1      -8.834   6.157  70.498  1.00  0.00     0.000 HD 
BRANCH   8  10
HETATM   10  C   UNL     1      -9.952   7.488  69.306  1.00  0.00    -0.179 A  
HETATM   11  C   UNL     1     -10.293   7.076  68.003  1.00  0.00    -0.234 A  
HETATM   12  C   UNL     1     -10.372   5.637  67.572  1.00  0.00    -0.277 C  
HETATM   13  C   UNL     1     -10.627   8.058  67.051  1.00  0.00    -0.364 A  
HETATM   14  C   UNL     1     -10.602   9.409  67.378  1.00  0.00    -0.326 A  
HETATM   15  C   UNL     1     -10.215   9.809  68.653  1.00  0.00    -0.210 A  
HETATM   16  C   UNL     1      -9.884   8.859  69.630  1.00  0.00    -0.182 A  
HETATM   17  C   UNL     1      -9.340   9.325  70.952  1.00  0.00    -0.313 C  
ENDBRANCH   8  10
ENDBRANCH   2   6
TORSDOF 2
ENDMDL
MODEL      155
REMARK 921   NORMALIZED FREE ENERGY PREDICTED BY IDOCK:   -3.13 KCAL/MOL
REMARK 922        TOTAL FREE ENERGY PREDICTED BY IDOCK:   -3.76 KCAL/MOL
REMARK 923 INTER-LIGAND FREE ENERGY PREDICTED BY IDOCK:   -3.53 KCAL/MOL
REMARK 924 INTRA-LIGAND FREE ENERGY PREDICTED BY IDOCK:   -0.23 KCAL/MOL
REMARK 927      BINDING AFFINITY PREDICTED BY RF-SCORE:    0.00 PKD
ROOT
HETATM    1  C   UNL     1      -9.591  11.084  63.114  1.00  0.00    -0.384 C  
HETATM    2  C   UNL     1     -10.489  11.986  63.950  1.00  0.00    -0.402 C  
HETATM    3  N   UNL     1     -11.888  11.941  63.461  1.00  0.00    -0.619 NA 
HETATM    4  H1  UNL     1     -12.489  12.544  64.021  1.00  0.00     0.000 HD 
HETATM    5  H2  UNL     1     -12.243  10.986  63.422  1.00  0.00     0.000 HD 
ENDROOT
BRANCH   2   6
HETATM    6  C   UNL     1     -10.435  11.611  65.449  1.00  0.00    -0.275 C  
HETATM    7  O   UNL     1     -11.290  11.947  66.262  1.00  0.00    -0.334 OA 
HETATM    8  N   UNL     1      -9.322  10.827  65.724  1.00  0.00    -0.194 N  
HETATM    9  H   UNL     1      -8.706  10.544  64.962  1.00  0.00     0.000 HD 
BRANCH   8  10
HETATM   10  C   UNL     1      -9.031  10.416  67.041  1.00  0.00    -0.139 A  
HETATM   11  C   UNL     1      -9.549   9.204  67.539  1.00  0.00    -0.186 A  
HETATM   12  C   UNL     1     -10.514   8.331  66.785  1.00  0.00    -0.313 C  
HETATM   13  C   UNL     1      -9.110   8.751  68.797  1.00  0.00    -0.138 A  
HETATM   14  C   UNL     1      -8.201   9.488  69.547  1.00  0.00    -0.134 A  
HETATM   15  C   UNL     1      -7.734  10.709  69.070  1.00  0.00    -0.130 A  
HETATM   16  C   UNL     1      -8.142  11.189  67.817  1.00  0.00    -0.117 A  
HETATM   17  C   UNL     1      -7.728  12.570  67.389  1.00  0.00    -0.167 C  
ENDBRANCH   8  10
ENDBRANCH   2   6
TORSDOF 2
ENDMDL
MODEL      156
REMARK 921   NORMALIZED FREE ENERGY PREDICTED BY IDOCK:   -3.10 KCAL/MOL
REMARK 922        TOTAL FREE ENERGY PREDICTED BY IDOCK:   -3.72 KCAL/MOL
REMARK 923 INTER-LIGAND FREE ENERGY PREDICTED BY IDOCK:   -3.54 KCAL/MOL
REMARK 924 INTRA-LIGAND FREE ENERGY PREDICTED BY IDOCK:   -0.19 KCAL/MOL
REMARK 927      BINDING AFFINITY PREDICTED BY RF-SCORE:    0.00 PKD
ROOT
HETATM    1  C   UNL     1      -9.313  11.128  68.474  1.00  0.00    -0.190 C  
HETATM    2  C   UNL     1      -8.121  10.457  69.142  1.00  0.00    -0.151 C  
HETATM    3  N   UNL     1      -7.168  11.466  69.662  1.00  0.00    -0.354 NA 
HETATM    4  H1  UNL     1      -6.370  11.017  70.110  1.00  0.00     0.000 HD 
HETATM    5  H2  UNL     1      -7.626  12.130  70.287  1.00  0.00     0.000 HD 
ENDROOT
BRANCH   2   6
HETATM    6  C   UNL     1      -8.565   9.506  70.277  1.00  0.00    -0.226 C  
HETATM    7  O   UNL     1      -8.003   9.442  71.365  1.00  0.00    -0.318 OA 
HETATM    8  N   UNL     1      -9.687   8.778  69.903  1.00  0.00    -0.174 N  
HETATM    9  H   UNL     1     -10.122   8.955  68.998  1.00  0.00     0.000 HD 
BRANCH   8  10
HETATM   10  C   UNL     1     -10.235   7.800  70.758  1.00  0.00    -0.197 A  
HETATM   11  C   UNL     1     -11.320   8.116  71.598  1.00  0.00    -0.315 A  
HETATM   12  C   UNL     1     -11.896   9.498  71.743  1.00  0.00    -0.430 C  
HETATM   13  C   UNL     1     -11.940   7.076  72.317  1.00  0.00    -0.250 A  
HETATM   14  C   UNL     1     -11.483   5.767  72.221  1.00  0.00    -0.320 A  
HETATM   15  C   UNL     1     -10.379   5.473  71.427  1.00  0.00    -0.291 A  
HETATM   16  C   UNL     1      -9.741   6.480  70.690  1.00  0.00    -0.194 A  
HETATM   17  C   UNL     1      -8.472   6.157  69.951  1.00  0.00    -0.129 C  
ENDBRANCH   8  10
ENDBRANCH   2   6
TORSDOF 2
ENDMDL
MODEL      157
REMARK 921   NORMALIZED FREE ENERGY PREDICTED BY IDOCK:   -3.09 KCAL/MOL
REMARK 922        TOTAL FREE ENERGY PREDICTED BY IDOCK:   -3.72 KCAL/MOL
REMARK 923 INTER-LIGAND FREE ENERGY PREDICTED BY IDOCK:   -3.46 KCAL/MOL
REMARK 924 INTRA-LIGAND FREE ENERGY PREDICTED BY IDOCK:   -0.26 KCAL/MOL
REMARK 927      BINDING AFFINITY PREDICTED BY RF-SCORE:    0.00 PKD
ROOT
HETATM    1  C   UNL     1     -10.196   7.966  70.197  1.00  0.00    -0.202 C  
HETATM    2  C   UNL     1      -9.951   7.097  68.971  1.00  0.00    -0.174 C  
HETATM    3  N   UNL     1     -10.715   5.830  69.059  1.00  0.00    -0.288 NA 
HETATM    4  H1  UNL     1     -10.552   5.249  68.237  1.00  0.00     0.000 HD 
HETATM    5  H2  UNL     1     -11.710   6.001  69.207  1.00  0.00     0.000 HD 
ENDROOT
BRANCH   2   6
HETATM    6  C   UNL     1     -10.301   7.845  67.665  1.00  0.00    -0.241 C  
HETATM    7  O   UNL     1     -11.137   7.445  66.860  1.00  0.00    -0.236 OA 
HETATM    8  N   UNL     1      -9.573   9.023  67.557  1.00  0.00    -0.140 N  
HETATM    9  H   UNL     1      -8.951   9.301  68.315  1.00  0.00     0.000 HD 
BRANCH   8  10
HETATM   10  C   UNL     1      -9.682   9.840  66.413  1.00  0.00    -0.216 A  
HETATM   11  C   UNL     1      -8.906   9.570  65.269  1.00  0.00    -0.220 A  
HETATM   12  C   UNL     1      -7.850   8.502  65.204  1.00  0.00    -0.116 C  
HETATM   13  C   UNL     1      -9.157  10.308  64.096  1.00  0.00    -0.284 A  
HETATM   14  C   UNL     1     -10.133  11.297  64.067  1.00  0.00    -0.382 A  
HETATM   15  C   UNL     1     -10.859  11.591  65.216  1.00  0.00    -0.319 A  
HETATM   16  C   UNL     1     -10.643  10.872  66.401  1.00  0.00    -0.289 A  
HETATM   17  C   UNL     1     -11.345  11.303  67.659  1.00  0.00    -0.352 C  
ENDBRANCH   8  10
ENDBRANCH   2   6
TORSDOF 2
ENDMDL
MODEL      158
REMARK 921   NORMALIZED FREE ENERGY PREDICTED BY IDOCK:   -3.09 KCAL/MOL
REMARK 922        TOTAL FREE ENERGY PREDICTED BY IDOCK:   -3.71 KCAL/MOL
REMARK 923 INTER-LIGAND FREE ENERGY PREDICTED BY IDOCK:   -3.43 KCAL/MOL
REMARK 924 INTRA-LIGAND FREE ENERGY PREDICTED BY IDOCK:   -0.28 KCAL/MOL
REMARK 927      BINDING AFFINITY PREDICTED BY RF-SCORE:    0.00 PKD
ROOT
HETATM    1  C   UNL     1     -11.125  10.420  69.562  1.00  0.00    -0.314 C  
HETATM    2  C   UNL     1      -9.777   9.743  69.353  1.00  0.00    -0.202 C  
HETATM    3  N   UNL     1      -8.667  10.636  69.765  1.00  0.00    -0.346 NA 
HETATM    4  H1  UNL     1      -7.764  10.183  69.625  1.00  0.00     0.000 HD 
HETATM    5  H2  UNL     1      -8.782  10.960  70.725  1.00  0.00     0.000 HD 
ENDROOT
BRANCH   2   6
HETATM    6  C   UNL     1      -9.691   8.399  70.110  1.00  0.00    -0.173 C  
HETATM    7  O   UNL     1      -9.221   7.376  69.622  1.00  0.00    -0.147 OA 
HETATM    8  N   UNL     1     -10.180   8.526  71.404  1.00  0.00    -0.215 N  
HETATM    9  H   UNL     1     -10.485   9.440  71.738  1.00  0.00     0.000 HD 
BRANCH   8  10
HETATM   10  C   UNL     1     -10.258   7.411  72.263  1.00  0.00    -0.200 A  
HETATM   11  C   UNL     1     -11.395   6.579  72.247  1.00  0.00    -0.318 A  
HETATM   12  C   UNL     1     -12.628   6.858  71.432  1.00  0.00    -0.400 C  
HETATM   13  C   UNL     1     -11.370   5.390  73.000  1.00  0.00    -0.355 A  
HETATM   14  C   UNL     1     -10.259   5.048  73.762  1.00  0.00    -0.245 A  
HETATM   15  C   UNL     1      -9.161   5.900  73.812  1.00  0.00    -0.127 A  
HETATM   16  C   UNL     1      -9.146   7.089  73.068  1.00  0.00    -0.156 A  
HETATM   17  C   UNL     1      -8.005   8.053  73.248  1.00  0.00    -0.230 C  
ENDBRANCH   8  10
ENDBRANCH   2   6
TORSDOF 2
ENDMDL
MODEL      159
REMARK 921   NORMALIZED FREE ENERGY PREDICTED BY IDOCK:   -3.09 KCAL/MOL
REMARK 922        TOTAL FREE ENERGY PREDICTED BY IDOCK:   -3.71 KCAL/MOL
REMARK 923 INTER-LIGAND FREE ENERGY PREDICTED BY IDOCK:   -3.51 KCAL/MOL
REMARK 924 INTRA-LIGAND FREE ENERGY PREDICTED BY IDOCK:   -0.20 KCAL/MOL
REMARK 927      BINDING AFFINITY PREDICTED BY RF-SCORE:    0.00 PKD
ROOT
HETATM    1  C   UNL     1     -10.120   8.942  68.733  1.00  0.00    -0.215 C  
HETATM    2  C   UNL     1     -10.890   9.032  70.044  1.00  0.00    -0.231 C  
HETATM    3  N   UNL     1     -12.151   9.792  69.866  1.00  0.00    -0.451 NA 
HETATM    4  H1  UNL     1     -12.667   9.851  70.744  1.00  0.00     0.000 HD 
HETATM    5  H2  UNL     1     -12.723   9.401  69.118  1.00  0.00     0.000 HD 
ENDROOT
BRANCH   2   6
HETATM    6  C   UNL     1     -11.188   7.631  70.626  1.00  0.00    -0.266 C  
HETATM    7  O   UNL     1     -12.317   7.158  70.707  1.00  0.00    -0.314 OA 
HETATM    8  N   UNL     1     -10.014   6.990  71.001  1.00  0.00    -0.189 N  
HETATM    9  H   UNL     1      -9.117   7.443  70.828  1.00  0.00     0.000 HD 
BRANCH   8  10
HETATM   10  C   UNL     1     -10.044   5.723  71.617  1.00  0.00    -0.194 A  
HETATM   11  C   UNL     1      -9.972   4.551  70.837  1.00  0.00    -0.263 A  
HETATM   12  C   UNL     1      -9.974   4.542  69.333  1.00  0.00    -0.212 C  
HETATM   13  C   UNL     1      -9.845   3.312  71.493  1.00  0.00    -0.206 A  
HETATM   14  C   UNL     1      -9.812   3.237  72.881  1.00  0.00    -0.195 A  
HETATM   15  C   UNL     1      -9.935   4.394  73.643  1.00  0.00    -0.173 A  
HETATM   16  C   UNL     1     -10.055   5.647  73.025  1.00  0.00    -0.202 A  
HETATM   17  C   UNL     1     -10.322   6.861  73.871  1.00  0.00    -0.398 C  
ENDBRANCH   8  10
ENDBRANCH   2   6
TORSDOF 2
ENDMDL
MODEL      160
REMARK 921   NORMALIZED FREE ENERGY PREDICTED BY IDOCK:   -3.07 KCAL/MOL
REMARK 922        TOTAL FREE ENERGY PREDICTED BY IDOCK:   -3.69 KCAL/MOL
REMARK 923 INTER-LIGAND FREE ENERGY PREDICTED BY IDOCK:   -3.48 KCAL/MOL
REMARK 924 INTRA-LIGAND FREE ENERGY PREDICTED BY IDOCK:   -0.21 KCAL/MOL
REMARK 927      BINDING AFFINITY PREDICTED BY RF-SCORE:    0.00 PKD
ROOT
HETATM    1  C   UNL     1     -10.752  19.603  65.494  1.00  0.00    -0.323 C  
HETATM    2  C   UNL     1     -10.018  19.519  66.825  1.00  0.00    -0.395 C  
HETATM    3  N   UNL     1     -10.972  19.325  67.944  1.00  0.00    -0.334 NA 
HETATM    4  H1  UNL     1     -10.480  19.269  68.836  1.00  0.00     0.000 HD 
HETATM    5  H2  UNL     1     -11.570  18.514  67.792  1.00  0.00     0.000 HD 
ENDROOT
BRANCH   2   6
HETATM    6  C   UNL     1      -8.961  18.392  66.823  1.00  0.00    -0.288 C  
HETATM    7  O   UNL     1      -8.264  18.120  65.850  1.00  0.00    -0.513 OA 
HETATM    8  N   UNL     1      -8.894  17.772  68.064  1.00  0.00    -0.253 N  
HETATM    9  H   UNL     1      -9.470  18.119  68.831  1.00  0.00     0.000 HD 
BRANCH   8  10
HETATM   10  C   UNL     1      -8.041  16.671  68.280  1.00  0.00    -0.198 A  
HETATM   11  C   UNL     1      -8.455  15.370  67.930  1.00  0.00    -0.150 A  
HETATM   12  C   UNL     1      -9.832  15.035  67.425  1.00  0.00    -0.224 C  
HETATM   13  C   UNL     1      -7.521  14.321  68.011  1.00  0.00    -0.144 A  
HETATM   14  C   UNL     1      -6.221  14.551  68.446  1.00  0.00    -0.103 A  
HETATM   15  C   UNL     1      -5.835  15.829  68.838  1.00  0.00    -0.104 A  
HETATM   16  C   UNL     1      -6.736  16.901  68.762  1.00  0.00    -0.190 A  
HETATM   17  C   UNL     1      -6.332  18.239  69.318  1.00  0.00    -0.259 C  
ENDBRANCH   8  10
ENDBRANCH   2   6
TORSDOF 2
ENDMDL
MODEL      161
REMARK 921   NORMALIZED FREE ENERGY PREDICTED BY IDOCK:   -3.07 KCAL/MOL
REMARK 922        TOTAL FREE ENERGY PREDICTED BY IDOCK:   -3.69 KCAL/MOL
REMARK 923 INTER-LIGAND FREE ENERGY PREDICTED BY IDOCK:   -3.49 KCAL/MOL
REMARK 924 INTRA-LIGAND FREE ENERGY PREDICTED BY IDOCK:   -0.20 KCAL/MOL
REMARK 927      BINDING AFFINITY PREDICTED BY RF-SCORE:    0.00 PKD
ROOT
HETATM    1  C   UNL     1      -7.912   9.171  67.340  1.00  0.00    -0.103 C  
HETATM    2  C   UNL     1      -8.871   8.141  66.760  1.00  0.00    -0.138 C  
HETATM    3  N   UNL     1      -8.196   6.834  66.575  1.00  0.00    -0.114 NA 
HETATM    4  H1  UNL     1      -8.839   6.144  66.187  1.00  0.00     0.000 HD 
HETATM    5  H2  UNL     1      -7.768   6.506  67.441  1.00  0.00     0.000 HD 
ENDROOT
BRANCH   2   6
HETATM    6  C   UNL     1     -10.128   7.973  67.643  1.00  0.00    -0.209 C  
HETATM    7  O   UNL     1     -11.222   7.631  67.205  1.00  0.00    -0.017 OA 
HETATM    8  N   UNL     1      -9.836   8.227  68.977  1.00  0.00    -0.172 N  
HETATM    9  H   UNL     1      -8.876   8.439  69.249  1.00  0.00     0.000 HD 
BRANCH   8  10
HETATM   10  C   UNL     1     -10.845   8.196  69.960  1.00  0.00    -0.233 A  
HETATM   11  C   UNL     1     -11.467   9.388  70.380  1.00  0.00    -0.272 A  
HETATM   12  C   UNL     1     -11.048  10.759  69.924  1.00  0.00    -0.339 C  
HETATM   13  C   UNL     1     -12.575   9.302  71.243  1.00  0.00    -0.377 A  
HETATM   14  C   UNL     1     -13.040   8.071  71.691  1.00  0.00    -0.354 A  
HETATM   15  C   UNL     1     -12.389   6.902  71.312  1.00  0.00    -0.422 A  
HETATM   16  C   UNL     1     -11.286   6.948  70.446  1.00  0.00    -0.376 A  
HETATM   17  C   UNL     1     -10.522   5.683  70.164  1.00  0.00    -0.366 C  
ENDBRANCH   8  10
ENDBRANCH   2   6
TORSDOF 2
ENDMDL
MODEL      162
REMARK 921   NORMALIZED FREE ENERGY PREDICTED BY IDOCK:   -3.06 KCAL/MOL
REMARK 922        TOTAL FREE ENERGY PREDICTED BY IDOCK:   -3.68 KCAL/MOL
REMARK 923 INTER-LIGAND FREE ENERGY PREDICTED BY IDOCK:   -3.52 KCAL/MOL
REMARK 924 INTRA-LIGAND FREE ENERGY PREDICTED BY IDOCK:   -0.16 KCAL/MOL
REMARK 927      BINDING AFFINITY PREDICTED BY RF-SCORE:    0.00 PKD
ROOT
HETATM    1  C   UNL     1      -6.717  12.406  67.506  1.00  0.00    -0.146 C  
HETATM    2  C   UNL     1      -6.681  13.797  68.125  1.00  0.00    -0.124 C  
HETATM    3  N   UNL     1      -5.352  14.426  67.936  1.00  0.00    -0.250 NA 
HETATM    4  H1  UNL     1      -5.328  15.358  68.350  1.00  0.00     0.000 HD 
HETATM    5  H2  UNL     1      -5.080  14.444  66.953  1.00  0.00     0.000 HD 
ENDROOT
BRANCH   2   6
HETATM    6  C   UNL     1      -7.790  14.705  67.547  1.00  0.00    -0.193 C  
HETATM    7  O   UNL     1      -8.605  14.331  66.710  1.00  0.00    -0.188 OA 
HETATM    8  N   UNL     1      -7.750  15.967  68.128  1.00  0.00    -0.130 N  
HETATM    9  H   UNL     1      -7.075  16.158  68.868  1.00  0.00     0.000 HD 
BRANCH   8  10
HETATM   10  C   UNL     1      -8.631  16.985  67.711  1.00  0.00    -0.213 A  
HETATM   11  C   UNL     1      -9.905  17.110  68.299  1.00  0.00    -0.288 A  
HETATM   12  C   UNL     1     -10.466  16.138  69.300  1.00  0.00    -0.267 C  
HETATM   13  C   UNL     1     -10.692  18.230  67.972  1.00  0.00    -0.290 A  
HETATM   14  C   UNL     1     -10.236  19.187  67.073  1.00  0.00    -0.479 A  
HETATM   15  C   UNL     1      -8.997  19.030  66.458  1.00  0.00    -0.340 A  
HETATM   16  C   UNL     1      -8.182  17.931  66.766  1.00  0.00    -0.273 A  
HETATM   17  C   UNL     1      -6.913  17.718  65.987  1.00  0.00    -0.335 C  
ENDBRANCH   8  10
ENDBRANCH   2   6
TORSDOF 2
ENDMDL
MODEL      163
REMARK 921   NORMALIZED FREE ENERGY PREDICTED BY IDOCK:   -3.05 KCAL/MOL
REMARK 922        TOTAL FREE ENERGY PREDICTED BY IDOCK:   -3.67 KCAL/MOL
REMARK 923 INTER-LIGAND FREE ENERGY PREDICTED BY IDOCK:   -3.46 KCAL/MOL
REMARK 924 INTRA-LIGAND FREE ENERGY PREDICTED BY IDOCK:   -0.21 KCAL/MOL
REMARK 927      BINDING AFFINITY PREDICTED BY RF-SCORE:    0.00 PKD
ROOT
HETATM    1  C   UNL     1      -8.230  14.244  68.387  1.00  0.00    -0.144 C  
HETATM    2  C   UNL     1      -9.422  13.797  67.552  1.00  0.00    -0.220 C  
HETATM    3  N   UNL     1      -9.251  14.188  66.132  1.00  0.00    -0.506 NA 
HETATM    4  H1  UNL     1     -10.049  13.888  65.573  1.00  0.00     0.000 HD 
HETATM    5  H2  UNL     1      -8.371  13.841  65.750  1.00  0.00     0.000 HD 
ENDROOT
BRANCH   2   6
HETATM    6  C   UNL     1      -9.655  12.273  67.663  1.00  0.00    -0.191 C  
HETATM    7  O   UNL     1      -9.947  11.562  66.706  1.00  0.00    -0.202 OA 
HETATM    8  N   UNL     1      -9.456  11.834  68.965  1.00  0.00    -0.405 N  
HETATM    9  H   UNL     1      -9.147  12.496  69.677  1.00  0.00     0.000 HD 
BRANCH   8  10
HETATM   10  C   UNL     1      -9.674  10.487  69.318  1.00  0.00    -0.196 A  
HETATM   11  C   UNL     1      -8.635   9.543  69.197  1.00  0.00    -0.140 A  
HETATM   12  C   UNL     1      -7.291   9.846  68.596  1.00  0.00    -0.074 C  
HETATM   13  C   UNL     1      -8.841   8.247  69.706  1.00  0.00    -0.142 A  
HETATM   14  C   UNL     1     -10.047   7.893  70.299  1.00  0.00    -0.196 A  
HETATM   15  C   UNL     1     -11.085   8.817  70.368  1.00  0.00    -0.261 A  
HETATM   16  C   UNL     1     -10.914  10.120  69.879  1.00  0.00    -0.344 A  
HETATM   17  C   UNL     1     -12.095  11.052  69.845  1.00  0.00    -0.435 C  
ENDBRANCH   8  10
ENDBRANCH   2   6
TORSDOF 2
ENDMDL
MODEL      164
REMARK 921   NORMALIZED FREE ENERGY PREDICTED BY IDOCK:   -3.03 KCAL/MOL
REMARK 922        TOTAL FREE ENERGY PREDICTED BY IDOCK:   -3.65 KCAL/MOL
REMARK 923 INTER-LIGAND FREE ENERGY PREDICTED BY IDOCK:   -3.43 KCAL/MOL
REMARK 924 INTRA-LIGAND FREE ENERGY PREDICTED BY IDOCK:   -0.22 KCAL/MOL
REMARK 927      BINDING AFFINITY PREDICTED BY RF-SCORE:    0.00 PKD
ROOT
HETATM    1  C   UNL     1     -12.603  10.006  71.447  1.00  0.00    -0.518 C  
HETATM    2  C   UNL     1     -12.596   8.577  71.972  1.00  0.00    -0.364 C  
HETATM    3  N   UNL     1     -13.452   7.702  71.137  1.00  0.00    -0.588 NA 
HETATM    4  H1  UNL     1     -13.447   6.745  71.488  1.00  0.00     0.000 HD 
HETATM    5  H2  UNL     1     -13.187   7.744  70.153  1.00  0.00     0.000 HD 
ENDROOT
BRANCH   2   6
HETATM    6  C   UNL     1     -11.161   8.006  72.048  1.00  0.00    -0.298 C  
HETATM    7  O   UNL     1     -10.309   8.419  72.828  1.00  0.00    -0.297 OA 
HETATM    8  N   UNL     1     -10.996   6.959  71.150  1.00  0.00    -0.244 N  
HETATM    9  H   UNL     1     -11.790   6.646  70.592  1.00  0.00     0.000 HD 
BRANCH   8  10
HETATM   10  C   UNL     1      -9.747   6.324  71.000  1.00  0.00    -0.176 A  
HETATM   11  C   UNL     1      -8.749   6.898  70.187  1.00  0.00    -0.141 A  
HETATM   12  C   UNL     1      -8.956   8.129  69.348  1.00  0.00    -0.147 C  
HETATM   13  C   UNL     1      -7.465   6.321  70.187  1.00  0.00    -0.094 A  
HETATM   14  C   UNL     1      -7.186   5.196  70.954  1.00  0.00    -0.064 A  
HETATM   15  C   UNL     1      -8.191   4.605  71.714  1.00  0.00    -0.105 A  
HETATM   16  C   UNL     1      -9.479   5.157  71.746  1.00  0.00    -0.188 A  
HETATM   17  C   UNL     1     -10.575   4.421  72.466  1.00  0.00    -0.203 C  
ENDBRANCH   8  10
ENDBRANCH   2   6
TORSDOF 2
ENDMDL
MODEL      165
REMARK 921   NORMALIZED FREE ENERGY PREDICTED BY IDOCK:   -3.03 KCAL/MOL
REMARK 922        TOTAL FREE ENERGY PREDICTED BY IDOCK:   -3.65 KCAL/MOL
REMARK 923 INTER-LIGAND FREE ENERGY PREDICTED BY IDOCK:   -3.41 KCAL/MOL
REMARK 924 INTRA-LIGAND FREE ENERGY PREDICTED BY IDOCK:   -0.23 KCAL/MOL
REMARK 927      BINDING AFFINITY PREDICTED BY RF-SCORE:    0.00 PKD
ROOT
HETATM    1  C   UNL     1      -7.263  10.333  70.145  1.00  0.00    -0.138 C  
HETATM    2  C   UNL     1      -8.591   9.963  69.499  1.00  0.00    -0.185 C  
HETATM    3  N   UNL     1      -8.381   9.090  68.319  1.00  0.00    -0.120 NA 
HETATM    4  H1  UNL     1      -9.270   8.841  67.886  1.00  0.00     0.000 HD 
HETATM    5  H2  UNL     1      -7.833   8.263  68.556  1.00  0.00     0.000 HD 
ENDROOT
BRANCH   2   6
HETATM    6  C   UNL     1      -9.544   9.280  70.506  1.00  0.00    -0.262 C  
HETATM    7  O   UNL     1     -10.547   9.820  70.961  1.00  0.00    -0.314 OA 
HETATM    8  N   UNL     1      -9.126   7.985  70.785  1.00  0.00    -0.143 N  
HETATM    9  H   UNL     1      -8.313   7.604  70.301  1.00  0.00     0.000 HD 
BRANCH   8  10
HETATM   10  C   UNL     1      -9.808   7.190  71.728  1.00  0.00    -0.161 A  
HETATM   11  C   UNL     1     -10.887   6.378  71.327  1.00  0.00    -0.306 A  
HETATM   12  C   UNL     1     -11.462   6.373  69.937  1.00  0.00    -0.483 C  
HETATM   13  C   UNL     1     -11.439   5.481  72.261  1.00  0.00    -0.221 A  
HETATM   14  C   UNL     1     -10.949   5.408  73.559  1.00  0.00    -0.323 A  
HETATM   15  C   UNL     1      -9.917   6.250  73.962  1.00  0.00    -0.274 A  
HETATM   16  C   UNL     1      -9.336   7.150  73.057  1.00  0.00    -0.187 A  
HETATM   17  C   UNL     1      -8.318   8.138  73.556  1.00  0.00    -0.299 C  
ENDBRANCH   8  10
ENDBRANCH   2   6
TORSDOF 2
ENDMDL
MODEL      166
REMARK 921   NORMALIZED FREE ENERGY PREDICTED BY IDOCK:   -3.02 KCAL/MOL
REMARK 922        TOTAL FREE ENERGY PREDICTED BY IDOCK:   -3.63 KCAL/MOL
REMARK 923 INTER-LIGAND FREE ENERGY PREDICTED BY IDOCK:   -3.43 KCAL/MOL
REMARK 924 INTRA-LIGAND FREE ENERGY PREDICTED BY IDOCK:   -0.20 KCAL/MOL
REMARK 927      BINDING AFFINITY PREDICTED BY RF-SCORE:    0.00 PKD
ROOT
HETATM    1  C   UNL     1      -5.300  15.937  70.174  1.00  0.00    -0.149 C  
HETATM    2  C   UNL     1      -5.723  14.558  69.689  1.00  0.00    -0.099 C  
HETATM    3  N   UNL     1      -6.596  13.891  70.684  1.00  0.00    -0.398 NA 
HETATM    4  H1  UNL     1      -6.880  12.967  70.359  1.00  0.00     0.000 HD 
HETATM    5  H2  UNL     1      -7.401  14.469  70.925  1.00  0.00     0.000 HD 
ENDROOT
BRANCH   2   6
HETATM    6  C   UNL     1      -6.432  14.629  68.317  1.00  0.00    -0.121 C  
HETATM    7  O   UNL     1      -5.856  14.457  67.248  1.00  0.00    -0.293 OA 
HETATM    8  N   UNL     1      -7.790  14.874  68.473  1.00  0.00    -0.120 N  
HETATM    9  H   UNL     1      -8.186  14.933  69.412  1.00  0.00     0.000 HD 
BRANCH   8  10
HETATM   10  C   UNL     1      -8.630  15.042  67.354  1.00  0.00    -0.192 A  
HETATM   11  C   UNL     1      -9.200  13.922  66.718  1.00  0.00    -0.267 A  
HETATM   12  C   UNL     1      -8.886  12.498  67.085  1.00  0.00    -0.202 C  
HETATM   13  C   UNL     1     -10.156  14.136  65.707  1.00  0.00    -0.352 A  
HETATM   14  C   UNL     1     -10.520  15.422  65.325  1.00  0.00    -0.440 A  
HETATM   15  C   UNL     1      -9.914  16.522  65.924  1.00  0.00    -0.342 A  
HETATM   16  C   UNL     1      -8.964  16.348  66.940  1.00  0.00    -0.240 A  
HETATM   17  C   UNL     1      -8.230  17.549  67.472  1.00  0.00    -0.213 C  
ENDBRANCH   8  10
ENDBRANCH   2   6
TORSDOF 2
ENDMDL
MODEL      167
REMARK 921   NORMALIZED FREE ENERGY PREDICTED BY IDOCK:   -3.01 KCAL/MOL
REMARK 922        TOTAL FREE ENERGY PREDICTED BY IDOCK:   -3.62 KCAL/MOL
REMARK 923 INTER-LIGAND FREE ENERGY PREDICTED BY IDOCK:   -3.40 KCAL/MOL
REMARK 924 INTRA-LIGAND FREE ENERGY PREDICTED BY IDOCK:   -0.22 KCAL/MOL
REMARK 927      BINDING AFFINITY PREDICTED BY RF-SCORE:    0.00 PKD
ROOT
HETATM    1  C   UNL     1     -10.128   8.896  68.711  1.00  0.00    -0.215 C  
HETATM    2  C   UNL     1     -10.865   9.000  70.039  1.00  0.00    -0.231 C  
HETATM    3  N   UNL     1     -12.154   9.713  69.875  1.00  0.00    -0.413 NA 
HETATM    4  H1  UNL     1     -12.649   9.782  70.764  1.00  0.00     0.000 HD 
HETATM    5  H2  UNL     1     -12.734   9.282  69.154  1.00  0.00     0.000 HD 
ENDROOT
BRANCH   2   6
HETATM    6  C   UNL     1     -11.101   7.609  70.670  1.00  0.00    -0.257 C  
HETATM    7  O   UNL     1     -12.215   7.148  70.897  1.00  0.00    -0.344 OA 
HETATM    8  N   UNL     1      -9.895   6.959  70.904  1.00  0.00    -0.185 N  
HETATM    9  H   UNL     1      -9.023   7.401  70.616  1.00  0.00     0.000 HD 
BRANCH   8  10
HETATM   10  C   UNL     1      -9.861   5.699  71.533  1.00  0.00    -0.168 A  
HETATM   11  C   UNL     1      -9.980   5.599  72.934  1.00  0.00    -0.196 A  
HETATM   12  C   UNL     1     -10.035   6.784  73.858  1.00  0.00    -0.340 C  
HETATM   13  C   UNL     1     -10.101   4.320  73.510  1.00  0.00    -0.194 A  
HETATM   14  C   UNL     1     -10.083   3.175  72.722  1.00  0.00    -0.225 A  
HETATM   15  C   UNL     1      -9.914   3.281  71.345  1.00  0.00    -0.120 A  
HETATM   16  C   UNL     1      -9.799   4.538  70.735  1.00  0.00    -0.280 A  
HETATM   17  C   UNL     1      -9.482   4.615  69.266  1.00  0.00    -0.231 C  
ENDBRANCH   8  10
ENDBRANCH   2   6
TORSDOF 2
ENDMDL
MODEL      168
REMARK 921   NORMALIZED FREE ENERGY PREDICTED BY IDOCK:   -2.99 KCAL/MOL
REMARK 922        TOTAL FREE ENERGY PREDICTED BY IDOCK:   -3.61 KCAL/MOL
REMARK 923 INTER-LIGAND FREE ENERGY PREDICTED BY IDOCK:   -3.41 KCAL/MOL
REMARK 924 INTRA-LIGAND FREE ENERGY PREDICTED BY IDOCK:   -0.20 KCAL/MOL
REMARK 927      BINDING AFFINITY PREDICTED BY RF-SCORE:    0.00 PKD
ROOT
HETATM    1  C   UNL     1      -7.541   3.646  68.939  1.00  0.00    -0.053 C  
HETATM    2  C   UNL     1      -8.991   3.926  69.309  1.00  0.00    -0.116 C  
HETATM    3  N   UNL     1      -9.525   2.865  70.196  1.00  0.00    -0.154 NA 
HETATM    4  H1  UNL     1     -10.496   3.053  70.445  1.00  0.00     0.000 HD 
HETATM    5  H2  UNL     1      -8.942   2.738  71.023  1.00  0.00     0.000 HD 
ENDROOT
BRANCH   2   6
HETATM    6  C   UNL     1      -9.151   5.311  69.976  1.00  0.00    -0.128 C  
HETATM    7  O   UNL     1      -8.223   5.923  70.496  1.00  0.00    -0.114 OA 
HETATM    8  N   UNL     1     -10.460   5.764  69.872  1.00  0.00    -0.262 N  
HETATM    9  H   UNL     1     -11.144   5.209  69.358  1.00  0.00     0.000 HD 
BRANCH   8  10
HETATM   10  C   UNL     1     -10.856   6.981  70.464  1.00  0.00    -0.251 A  
HETATM   11  C   UNL     1     -11.309   7.008  71.798  1.00  0.00    -0.291 A  
HETATM   12  C   UNL     1     -11.515   5.779  72.640  1.00  0.00    -0.337 C  
HETATM   13  C   UNL     1     -11.544   8.257  72.404  1.00  0.00    -0.464 A  
HETATM   14  C   UNL     1     -11.354   9.441  71.701  1.00  0.00    -0.452 A  
HETATM   15  C   UNL     1     -10.955   9.402  70.368  1.00  0.00    -0.317 A  
HETATM   16  C   UNL     1     -10.703   8.177  69.734  1.00  0.00    -0.229 A  
HETATM   17  C   UNL     1     -10.406   8.162  68.260  1.00  0.00    -0.241 C  
ENDBRANCH   8  10
ENDBRANCH   2   6
TORSDOF 2
ENDMDL
MODEL      169
REMARK 921   NORMALIZED FREE ENERGY PREDICTED BY IDOCK:   -2.97 KCAL/MOL
REMARK 922        TOTAL FREE ENERGY PREDICTED BY IDOCK:   -3.58 KCAL/MOL
REMARK 923 INTER-LIGAND FREE ENERGY PREDICTED BY IDOCK:   -3.38 KCAL/MOL
REMARK 924 INTRA-LIGAND FREE ENERGY PREDICTED BY IDOCK:   -0.20 KCAL/MOL
REMARK 927      BINDING AFFINITY PREDICTED BY RF-SCORE:    0.00 PKD
ROOT
HETATM    1  C   UNL     1     -10.867  10.281  67.476  1.00  0.00    -0.355 C  
HETATM    2  C   UNL     1     -11.213  11.505  68.311  1.00  0.00    -0.261 C  
HETATM    3  N   UNL     1     -10.792  11.321  69.721  1.00  0.00    -0.465 NA 
HETATM    4  H1  UNL     1     -11.023  12.142  70.280  1.00  0.00     0.000 HD 
HETATM    5  H2  UNL     1      -9.803  11.085  69.790  1.00  0.00     0.000 HD 
ENDROOT
BRANCH   2   6
HETATM    6  C   UNL     1     -10.581  12.789  67.728  1.00  0.00    -0.221 C  
HETATM    7  O   UNL     1     -10.892  13.263  66.640  1.00  0.00    -0.278 OA 
HETATM    8  N   UNL     1      -9.657  13.333  68.611  1.00  0.00    -0.404 N  
HETATM    9  H   UNL     1      -9.520  12.900  69.524  1.00  0.00     0.000 HD 
BRANCH   8  10
HETATM   10  C   UNL     1      -8.908  14.476  68.265  1.00  0.00    -0.179 A  
HETATM   11  C   UNL     1      -9.375  15.762  68.599  1.00  0.00    -0.206 A  
HETATM   12  C   UNL     1     -10.716  16.031  69.225  1.00  0.00    -0.275 C  
HETATM   13  C   UNL     1      -8.528  16.865  68.380  1.00  0.00    -0.239 A  
HETATM   14  C   UNL     1      -7.264  16.698  67.827  1.00  0.00    -0.154 A  
HETATM   15  C   UNL     1      -6.831  15.429  67.453  1.00  0.00    -0.204 A  
HETATM   16  C   UNL     1      -7.643  14.306  67.664  1.00  0.00    -0.191 A  
HETATM   17  C   UNL     1      -7.205  12.972  67.127  1.00  0.00     0.047 C  
ENDBRANCH   8  10
ENDBRANCH   2   6
TORSDOF 2
ENDMDL
MODEL      170
REMARK 921   NORMALIZED FREE ENERGY PREDICTED BY IDOCK:   -2.97 KCAL/MOL
REMARK 922        TOTAL FREE ENERGY PREDICTED BY IDOCK:   -3.58 KCAL/MOL
REMARK 923 INTER-LIGAND FREE ENERGY PREDICTED BY IDOCK:   -3.29 KCAL/MOL
REMARK 924 INTRA-LIGAND FREE ENERGY PREDICTED BY IDOCK:   -0.28 KCAL/MOL
REMARK 927      BINDING AFFINITY PREDICTED BY RF-SCORE:    0.00 PKD
ROOT
HETATM    1  C   UNL     1      -9.798   8.696  72.354  1.00  0.00    -0.315 C  
HETATM    2  C   UNL     1     -11.195   8.390  71.832  1.00  0.00    -0.311 C  
HETATM    3  N   UNL     1     -11.725   9.527  71.043  1.00  0.00    -0.318 NA 
HETATM    4  H1  UNL     1     -12.661   9.323  70.692  1.00  0.00     0.000 HD 
HETATM    5  H2  UNL     1     -11.091   9.791  70.290  1.00  0.00     0.000 HD 
ENDROOT
BRANCH   2   6
HETATM    6  C   UNL     1     -11.216   7.097  70.987  1.00  0.00    -0.269 C  
HETATM    7  O   UNL     1     -12.245   6.495  70.696  1.00  0.00    -0.331 OA 
HETATM    8  N   UNL     1      -9.934   6.744  70.586  1.00  0.00    -0.187 N  
HETATM    9  H   UNL     1      -9.149   7.350  70.824  1.00  0.00     0.000 HD 
BRANCH   8  10
HETATM   10  C   UNL     1      -9.701   5.561  69.856  1.00  0.00    -0.174 A  
HETATM   11  C   UNL     1      -9.457   4.347  70.527  1.00  0.00    -0.241 A  
HETATM   12  C   UNL     1      -9.311   4.227  72.019  1.00  0.00    -0.180 C  
HETATM   13  C   UNL     1      -9.387   3.161  69.771  1.00  0.00    -0.223 A  
HETATM   14  C   UNL     1      -9.535   3.184  68.389  1.00  0.00    -0.211 A  
HETATM   15  C   UNL     1      -9.725   4.394  67.730  1.00  0.00    -0.191 A  
HETATM   16  C   UNL     1      -9.809   5.594  68.450  1.00  0.00    -0.178 A  
HETATM   17  C   UNL     1      -9.878   6.897  67.701  1.00  0.00    -0.164 C  
ENDBRANCH   8  10
ENDBRANCH   2   6
TORSDOF 2
ENDMDL
MODEL      171
REMARK 921   NORMALIZED FREE ENERGY PREDICTED BY IDOCK:   -2.96 KCAL/MOL
REMARK 922        TOTAL FREE ENERGY PREDICTED BY IDOCK:   -3.56 KCAL/MOL
REMARK 923 INTER-LIGAND FREE ENERGY PREDICTED BY IDOCK:   -3.37 KCAL/MOL
REMARK 924 INTRA-LIGAND FREE ENERGY PREDICTED BY IDOCK:   -0.19 KCAL/MOL
REMARK 927      BINDING AFFINITY PREDICTED BY RF-SCORE:    0.00 PKD
ROOT
HETATM    1  C   UNL     1     -12.595  13.683  65.717  1.00  0.00    -0.511 C  
HETATM    2  C   UNL     1     -11.710  14.144  66.867  1.00  0.00    -0.414 C  
HETATM    3  N   UNL     1     -12.529  14.654  67.993  1.00  0.00    -0.472 NA 
HETATM    4  H1  UNL     1     -11.937  14.963  68.764  1.00  0.00     0.000 HD 
HETATM    5  H2  UNL     1     -13.218  13.968  68.299  1.00  0.00     0.000 HD 
ENDROOT
BRANCH   2   6
HETATM    6  C   UNL     1     -10.776  13.014  67.356  1.00  0.00    -0.245 C  
HETATM    7  O   UNL     1     -10.992  12.344  68.361  1.00  0.00    -0.217 OA 
HETATM    8  N   UNL     1      -9.701  12.851  66.491  1.00  0.00    -0.253 N  
HETATM    9  H   UNL     1      -9.648  13.415  65.643  1.00  0.00     0.000 HD 
BRANCH   8  10
HETATM   10  C   UNL     1      -8.682  11.917  66.768  1.00  0.00    -0.193 A  
HETATM   11  C   UNL     1      -8.800  10.584  66.328  1.00  0.00    -0.172 A  
HETATM   12  C   UNL     1     -10.023  10.028  65.651  1.00  0.00    -0.355 C  
HETATM   13  C   UNL     1      -7.696   9.723  66.483  1.00  0.00    -0.105 A  
HETATM   14  C   UNL     1      -6.521  10.167  67.077  1.00  0.00    -0.069 A  
HETATM   15  C   UNL     1      -6.432  11.470  67.555  1.00  0.00    -0.079 A  
HETATM   16  C   UNL     1      -7.507  12.359  67.410  1.00  0.00    -0.157 A  
HETATM   17  C   UNL     1      -7.431  13.715  68.056  1.00  0.00    -0.133 C  
ENDBRANCH   8  10
ENDBRANCH   2   6
TORSDOF 2
ENDMDL
MODEL      172
REMARK 921   NORMALIZED FREE ENERGY PREDICTED BY IDOCK:   -2.95 KCAL/MOL
REMARK 922        TOTAL FREE ENERGY PREDICTED BY IDOCK:   -3.56 KCAL/MOL
REMARK 923 INTER-LIGAND FREE ENERGY PREDICTED BY IDOCK:   -3.42 KCAL/MOL
REMARK 924 INTRA-LIGAND FREE ENERGY PREDICTED BY IDOCK:   -0.14 KCAL/MOL
REMARK 927      BINDING AFFINITY PREDICTED BY RF-SCORE:    0.00 PKD
ROOT
HETATM    1  C   UNL     1     -12.734  10.692  70.877  1.00  0.00    -0.498 C  
HETATM    2  C   UNL     1     -12.017  11.487  69.795  1.00  0.00    -0.346 C  
HETATM    3  N   UNL     1     -11.662  12.842  70.281  1.00  0.00    -0.548 NA 
HETATM    4  H1  UNL     1     -11.181  13.375  69.557  1.00  0.00     0.000 HD 
HETATM    5  H2  UNL     1     -11.119  12.802  71.143  1.00  0.00     0.000 HD 
ENDROOT
BRANCH   2   6
HETATM    6  C   UNL     1     -10.753  10.752  69.292  1.00  0.00    -0.229 C  
HETATM    7  O   UNL     1      -9.971  10.166  70.033  1.00  0.00    -0.240 OA 
HETATM    8  N   UNL     1     -10.656  10.823  67.908  1.00  0.00    -0.204 N  
HETATM    9  H   UNL     1     -11.397  11.278  67.375  1.00  0.00     0.000 HD 
BRANCH   8  10
HETATM   10  C   UNL     1      -9.549  10.275  67.230  1.00  0.00    -0.159 A  
HETATM   11  C   UNL     1      -9.612   8.971  66.701  1.00  0.00    -0.274 A  
HETATM   12  C   UNL     1     -10.774   8.038  66.903  1.00  0.00    -0.201 C  
HETATM   13  C   UNL     1      -8.550   8.519  65.895  1.00  0.00    -0.183 A  
HETATM   14  C   UNL     1      -7.449   9.328  65.640  1.00  0.00    -0.094 A  
HETATM   15  C   UNL     1      -7.372  10.596  66.208  1.00  0.00    -0.137 A  
HETATM   16  C   UNL     1      -8.415  11.084  67.009  1.00  0.00    -0.141 A  
HETATM   17  C   UNL     1      -8.242  12.400  67.717  1.00  0.00    -0.163 C  
ENDBRANCH   8  10
ENDBRANCH   2   6
TORSDOF 2
ENDMDL
MODEL      173
REMARK 921   NORMALIZED FREE ENERGY PREDICTED BY IDOCK:   -2.95 KCAL/MOL
REMARK 922        TOTAL FREE ENERGY PREDICTED BY IDOCK:   -3.56 KCAL/MOL
REMARK 923 INTER-LIGAND FREE ENERGY PREDICTED BY IDOCK:   -3.39 KCAL/MOL
REMARK 924 INTRA-LIGAND FREE ENERGY PREDICTED BY IDOCK:   -0.17 KCAL/MOL
REMARK 927      BINDING AFFINITY PREDICTED BY RF-SCORE:    0.00 PKD
ROOT
HETATM    1  C   UNL     1     -12.979  11.365  71.215  1.00  0.00    -0.415 C  
HETATM    2  C   UNL     1     -12.217  11.415  69.898  1.00  0.00    -0.277 C  
HETATM    3  N   UNL     1     -11.400  12.649  69.806  1.00  0.00    -0.496 NA 
HETATM    4  H1  UNL     1     -10.889  12.682  68.924  1.00  0.00     0.000 HD 
HETATM    5  H2  UNL     1     -10.776  12.748  70.607  1.00  0.00     0.000 HD 
ENDROOT
BRANCH   2   6
HETATM    6  C   UNL     1     -11.324  10.167  69.710  1.00  0.00    -0.256 C  
HETATM    7  O   UNL     1     -11.152   9.616  68.627  1.00  0.00    -0.153 OA 
HETATM    8  N   UNL     1     -10.733   9.794  70.910  1.00  0.00    -0.321 N  
HETATM    9  H   UNL     1     -10.886  10.362  71.743  1.00  0.00     0.000 HD 
BRANCH   8  10
HETATM   10  C   UNL     1      -9.923   8.643  70.993  1.00  0.00    -0.215 A  
HETATM   11  C   UNL     1     -10.455   7.433  71.480  1.00  0.00    -0.219 A  
HETATM   12  C   UNL     1     -11.843   7.292  72.043  1.00  0.00    -0.332 C  
HETATM   13  C   UNL     1      -9.666   6.270  71.399  1.00  0.00    -0.191 A  
HETATM   14  C   UNL     1      -8.382   6.311  70.870  1.00  0.00    -0.127 A  
HETATM   15  C   UNL     1      -7.846   7.520  70.439  1.00  0.00    -0.097 A  
HETATM   16  C   UNL     1      -8.605   8.698  70.495  1.00  0.00    -0.170 A  
HETATM   17  C   UNL     1      -7.953  10.009  70.149  1.00  0.00    -0.123 C  
ENDBRANCH   8  10
ENDBRANCH   2   6
TORSDOF 2
ENDMDL
MODEL      174
REMARK 921   NORMALIZED FREE ENERGY PREDICTED BY IDOCK:   -2.88 KCAL/MOL
REMARK 922        TOTAL FREE ENERGY PREDICTED BY IDOCK:   -3.47 KCAL/MOL
REMARK 923 INTER-LIGAND FREE ENERGY PREDICTED BY IDOCK:   -3.28 KCAL/MOL
REMARK 924 INTRA-LIGAND FREE ENERGY PREDICTED BY IDOCK:   -0.20 KCAL/MOL
REMARK 927      BINDING AFFINITY PREDICTED BY RF-SCORE:    0.00 PKD
ROOT
HETATM    1  C   UNL     1     -12.899  10.564  70.888  1.00  0.00    -0.485 C  
HETATM    2  C   UNL     1     -11.726  10.529  69.919  1.00  0.00    -0.294 C  
HETATM    3  N   UNL     1     -11.096  11.866  69.802  1.00  0.00    -0.475 NA 
HETATM    4  H1  UNL     1     -10.309  11.843  69.154  1.00  0.00     0.000 HD 
HETATM    5  H2  UNL     1     -10.822  12.234  70.713  1.00  0.00     0.000 HD 
ENDROOT
BRANCH   2   6
HETATM    6  C   UNL     1     -10.673   9.477  70.337  1.00  0.00    -0.284 C  
HETATM    7  O   UNL     1     -10.326   9.292  71.499  1.00  0.00    -0.336 OA 
HETATM    8  N   UNL     1     -10.217   8.766  69.234  1.00  0.00    -0.206 N  
HETATM    9  H   UNL     1     -10.621   8.950  68.316  1.00  0.00     0.000 HD 
BRANCH   8  10
HETATM   10  C   UNL     1      -9.205   7.794  69.366  1.00  0.00    -0.149 A  
HETATM   11  C   UNL     1      -7.848   8.170  69.326  1.00  0.00    -0.110 A  
HETATM   12  C   UNL     1      -7.372   9.566  69.036  1.00  0.00    -0.072 C  
HETATM   13  C   UNL     1      -6.871   7.199  69.619  1.00  0.00    -0.050 A  
HETATM   14  C   UNL     1      -7.230   5.891  69.921  1.00  0.00    -0.073 A  
HETATM   15  C   UNL     1      -8.570   5.516  69.908  1.00  0.00    -0.120 A  
HETATM   16  C   UNL     1      -9.572   6.458  69.629  1.00  0.00    -0.157 A  
HETATM   17  C   UNL     1     -10.996   5.995  69.489  1.00  0.00    -0.467 C  
ENDBRANCH   8  10
ENDBRANCH   2   6
TORSDOF 2
ENDMDL
MODEL      175
REMARK 921   NORMALIZED FREE ENERGY PREDICTED BY IDOCK:   -2.86 KCAL/MOL
REMARK 922        TOTAL FREE ENERGY PREDICTED BY IDOCK:   -3.46 KCAL/MOL
REMARK 923 INTER-LIGAND FREE ENERGY PREDICTED BY IDOCK:   -3.30 KCAL/MOL
REMARK 924 INTRA-LIGAND FREE ENERGY PREDICTED BY IDOCK:   -0.16 KCAL/MOL
REMARK 927      BINDING AFFINITY PREDICTED BY RF-SCORE:    0.00 PKD
ROOT
HETATM    1  C   UNL     1      -9.561   4.148  66.903  1.00  0.00    -0.232 C  
HETATM    2  C   UNL     1      -9.917   5.486  67.536  1.00  0.00    -0.160 C  
HETATM    3  N   UNL     1     -11.230   5.969  67.048  1.00  0.00    -0.553 NA 
HETATM    4  H1  UNL     1     -11.469   6.866  67.473  1.00  0.00     0.000 HD 
HETATM    5  H2  UNL     1     -11.964   5.277  67.194  1.00  0.00     0.000 HD 
ENDROOT
BRANCH   2   6
HETATM    6  C   UNL     1      -9.916   5.403  69.079  1.00  0.00    -0.190 C  
HETATM    7  O   UNL     1     -10.086   4.359  69.701  1.00  0.00    -0.202 OA 
HETATM    8  N   UNL     1      -9.668   6.648  69.643  1.00  0.00    -0.154 N  
HETATM    9  H   UNL     1      -9.471   7.444  69.036  1.00  0.00     0.000 HD 
BRANCH   8  10
HETATM   10  C   UNL     1      -9.682   6.828  71.041  1.00  0.00    -0.174 A  
HETATM   11  C   UNL     1      -8.502   6.661  71.792  1.00  0.00    -0.119 A  
HETATM   12  C   UNL     1      -7.199   6.182  71.213  1.00  0.00    -0.079 C  
HETATM   13  C   UNL     1      -8.519   7.002  73.157  1.00  0.00    -0.136 A  
HETATM   14  C   UNL     1      -9.677   7.475  73.763  1.00  0.00    -0.303 A  
HETATM   15  C   UNL     1     -10.851   7.588  73.025  1.00  0.00    -0.445 A  
HETATM   16  C   UNL     1     -10.871   7.266  71.661  1.00  0.00    -0.246 A  
HETATM   17  C   UNL     1     -12.182   7.268  70.925  1.00  0.00    -0.308 C  
ENDBRANCH   8  10
ENDBRANCH   2   6
TORSDOF 2
ENDMDL
MODEL      176
REMARK 921   NORMALIZED FREE ENERGY PREDICTED BY IDOCK:   -2.86 KCAL/MOL
REMARK 922        TOTAL FREE ENERGY PREDICTED BY IDOCK:   -3.45 KCAL/MOL
REMARK 923 INTER-LIGAND FREE ENERGY PREDICTED BY IDOCK:   -3.18 KCAL/MOL
REMARK 924 INTRA-LIGAND FREE ENERGY PREDICTED BY IDOCK:   -0.27 KCAL/MOL
REMARK 927      BINDING AFFINITY PREDICTED BY RF-SCORE:    0.00 PKD
ROOT
HETATM    1  C   UNL     1      -9.331  10.568  62.542  1.00  0.00    -0.319 C  
HETATM    2  C   UNL     1     -10.023  11.582  63.442  1.00  0.00    -0.417 C  
HETATM    3  N   UNL     1     -11.497  11.449  63.355  1.00  0.00    -0.797 NA 
HETATM    4  H1  UNL     1     -11.961  12.127  63.959  1.00  0.00     0.000 HD 
HETATM    5  H2  UNL     1     -11.801  10.496  63.555  1.00  0.00     0.000 HD 
ENDROOT
BRANCH   2   6
HETATM    6  C   UNL     1      -9.560  11.448  64.911  1.00  0.00    -0.215 C  
HETATM    7  O   UNL     1      -9.741  12.315  65.760  1.00  0.00    -0.247 OA 
HETATM    8  N   UNL     1      -8.956  10.216  65.130  1.00  0.00    -0.177 N  
HETATM    9  H   UNL     1      -8.916   9.535  64.373  1.00  0.00     0.000 HD 
BRANCH   8  10
HETATM   10  C   UNL     1      -8.399   9.895  66.385  1.00  0.00    -0.125 A  
HETATM   11  C   UNL     1      -7.047  10.181  66.657  1.00  0.00    -0.101 A  
HETATM   12  C   UNL     1      -6.082  10.726  65.639  1.00  0.00    -0.097 C  
HETATM   13  C   UNL     1      -6.569   9.993  67.968  1.00  0.00    -0.063 A  
HETATM   14  C   UNL     1      -7.403   9.516  68.972  1.00  0.00    -0.072 A  
HETATM   15  C   UNL     1      -8.723   9.187  68.682  1.00  0.00    -0.129 A  
HETATM   16  C   UNL     1      -9.237   9.370  67.390  1.00  0.00    -0.145 A  
HETATM   17  C   UNL     1     -10.624   8.880  67.076  1.00  0.00    -0.279 C  
ENDBRANCH   8  10
ENDBRANCH   2   6
TORSDOF 2
ENDMDL
MODEL      177
REMARK 921   NORMALIZED FREE ENERGY PREDICTED BY IDOCK:   -2.83 KCAL/MOL
REMARK 922        TOTAL FREE ENERGY PREDICTED BY IDOCK:   -3.42 KCAL/MOL
REMARK 923 INTER-LIGAND FREE ENERGY PREDICTED BY IDOCK:   -3.18 KCAL/MOL
REMARK 924 INTRA-LIGAND FREE ENERGY PREDICTED BY IDOCK:   -0.24 KCAL/MOL
REMARK 927      BINDING AFFINITY PREDICTED BY RF-SCORE:    0.00 PKD
ROOT
HETATM    1  C   UNL     1      -6.554  11.460  68.376  1.00  0.00    -0.063 C  
HETATM    2  C   UNL     1      -7.605  11.014  67.369  1.00  0.00    -0.110 C  
HETATM    3  N   UNL     1      -8.266   9.763  67.813  1.00  0.00    -0.113 NA 
HETATM    4  H1  UNL     1      -8.971   9.464  67.139  1.00  0.00     0.000 HD 
HETATM    5  H2  UNL     1      -8.657   9.856  68.750  1.00  0.00     0.000 HD 
ENDROOT
BRANCH   2   6
HETATM    6  C   UNL     1      -8.659  12.116  67.120  1.00  0.00    -0.185 C  
HETATM    7  O   UNL     1      -9.303  12.214  66.080  1.00  0.00    -0.231 OA 
HETATM    8  N   UNL     1      -8.791  12.937  68.232  1.00  0.00    -0.233 N  
HETATM    9  H   UNL     1      -8.257  12.729  69.076  1.00  0.00     0.000 HD 
BRANCH   8  10
HETATM   10  C   UNL     1      -9.652  14.053  68.213  1.00  0.00    -0.224 A  
HETATM   11  C   UNL     1     -10.990  13.926  68.634  1.00  0.00    -0.281 A  
HETATM   12  C   UNL     1     -11.630  12.619  69.017  1.00  0.00    -0.367 C  
HETATM   13  C   UNL     1     -11.773  15.090  68.752  1.00  0.00    -0.360 A  
HETATM   14  C   UNL     1     -11.249  16.339  68.440  1.00  0.00    -0.349 A  
HETATM   15  C   UNL     1      -9.942  16.449  67.976  1.00  0.00    -0.242 A  
HETATM   16  C   UNL     1      -9.130  15.313  67.855  1.00  0.00    -0.175 A  
HETATM   17  C   UNL     1      -7.771  15.446  67.224  1.00  0.00    -0.245 C  
ENDBRANCH   8  10
ENDBRANCH   2   6
TORSDOF 2
ENDMDL
MODEL      178
REMARK 921   NORMALIZED FREE ENERGY PREDICTED BY IDOCK:   -2.81 KCAL/MOL
REMARK 922        TOTAL FREE ENERGY PREDICTED BY IDOCK:   -3.40 KCAL/MOL
REMARK 923 INTER-LIGAND FREE ENERGY PREDICTED BY IDOCK:   -3.27 KCAL/MOL
REMARK 924 INTRA-LIGAND FREE ENERGY PREDICTED BY IDOCK:   -0.13 KCAL/MOL
REMARK 927      BINDING AFFINITY PREDICTED BY RF-SCORE:    0.00 PKD
ROOT
HETATM    1  C   UNL     1     -12.188  10.690  70.669  1.00  0.00    -0.459 C  
HETATM    2  C   UNL     1     -12.499   9.462  71.514  1.00  0.00    -0.366 C  
HETATM    3  N   UNL     1     -13.793   8.859  71.114  1.00  0.00    -0.588 NA 
HETATM    4  H1  UNL     1     -14.002   8.036  71.679  1.00  0.00     0.000 HD 
HETATM    5  H2  UNL     1     -13.817   8.647  70.117  1.00  0.00     0.000 HD 
ENDROOT
BRANCH   2   6
HETATM    6  C   UNL     1     -11.370   8.410  71.427  1.00  0.00    -0.264 C  
HETATM    7  O   UNL     1     -10.815   8.097  70.379  1.00  0.00    -0.231 OA 
HETATM    8  N   UNL     1     -11.060   7.911  72.686  1.00  0.00    -0.359 N  
HETATM    9  H   UNL     1     -11.534   8.288  73.507  1.00  0.00     0.000 HD 
BRANCH   8  10
HETATM   10  C   UNL     1     -10.100   6.891  72.845  1.00  0.00    -0.189 A  
HETATM   11  C   UNL     1      -8.730   7.210  72.930  1.00  0.00    -0.144 A  
HETATM   12  C   UNL     1      -8.179   8.598  72.749  1.00  0.00    -0.016 C  
HETATM   13  C   UNL     1      -7.818   6.186  73.248  1.00  0.00    -0.100 A  
HETATM   14  C   UNL     1      -8.250   4.881  73.454  1.00  0.00    -0.107 A  
HETATM   15  C   UNL     1      -9.599   4.565  73.318  1.00  0.00    -0.144 A  
HETATM   16  C   UNL     1     -10.538   5.561  73.011  1.00  0.00    -0.274 A  
HETATM   17  C   UNL     1     -11.963   5.166  72.738  1.00  0.00    -0.033 C  
ENDBRANCH   8  10
ENDBRANCH   2   6
TORSDOF 2
ENDMDL
MODEL      179
REMARK 921   NORMALIZED FREE ENERGY PREDICTED BY IDOCK:   -2.81 KCAL/MOL
REMARK 922        TOTAL FREE ENERGY PREDICTED BY IDOCK:   -3.40 KCAL/MOL
REMARK 923 INTER-LIGAND FREE ENERGY PREDICTED BY IDOCK:   -3.38 KCAL/MOL
REMARK 924 INTRA-LIGAND FREE ENERGY PREDICTED BY IDOCK:   -0.01 KCAL/MOL
REMARK 927      BINDING AFFINITY PREDICTED BY RF-SCORE:    0.00 PKD
ROOT
HETATM    1  C   UNL     1      -5.144  14.806  69.610  1.00  0.00    -0.088 C  
HETATM    2  C   UNL     1      -6.526  15.445  69.630  1.00  0.00    -0.171 C  
HETATM    3  N   UNL     1      -6.430  16.917  69.486  1.00  0.00    -0.233 NA 
HETATM    4  H1  UNL     1      -7.356  17.345  69.499  1.00  0.00     0.000 HD 
HETATM    5  H2  UNL     1      -5.905  17.181  68.653  1.00  0.00     0.000 HD 
ENDROOT
BRANCH   2   6
HETATM    6  C   UNL     1      -7.440  14.859  68.529  1.00  0.00    -0.118 C  
HETATM    7  O   UNL     1      -7.032  14.510  67.426  1.00  0.00    -0.186 OA 
HETATM    8  N   UNL     1      -8.751  14.756  68.976  1.00  0.00    -0.297 N  
HETATM    9  H   UNL     1      -8.975  15.011  69.938  1.00  0.00     0.000 HD 
BRANCH   8  10
HETATM   10  C   UNL     1      -9.776  14.305  68.120  1.00  0.00    -0.226 A  
HETATM   11  C   UNL     1      -9.928  12.930  67.855  1.00  0.00    -0.233 A  
HETATM   12  C   UNL     1      -8.979  11.870  68.346  1.00  0.00    -0.163 C  
HETATM   13  C   UNL     1     -11.054  12.504  67.127  1.00  0.00    -0.321 A  
HETATM   14  C   UNL     1     -11.991  13.418  66.658  1.00  0.00    -0.452 A  
HETATM   15  C   UNL     1     -11.806  14.779  66.881  1.00  0.00    -0.279 A  
HETATM   16  C   UNL     1     -10.700  15.240  67.610  1.00  0.00    -0.282 A  
HETATM   17  C   UNL     1     -10.457  16.720  67.717  1.00  0.00    -0.335 C  
ENDBRANCH   8  10
ENDBRANCH   2   6
TORSDOF 2
ENDMDL
MODEL      180
REMARK 921   NORMALIZED FREE ENERGY PREDICTED BY IDOCK:   -2.80 KCAL/MOL
REMARK 922        TOTAL FREE ENERGY PREDICTED BY IDOCK:   -3.39 KCAL/MOL
REMARK 923 INTER-LIGAND FREE ENERGY PREDICTED BY IDOCK:   -3.24 KCAL/MOL
REMARK 924 INTRA-LIGAND FREE ENERGY PREDICTED BY IDOCK:   -0.15 KCAL/MOL
REMARK 927      BINDING AFFINITY PREDICTED BY RF-SCORE:    0.00 PKD
ROOT
HETATM    1  C   UNL     1      -9.678  10.953  68.837  1.00  0.00    -0.198 C  
HETATM    2  C   UNL     1     -11.142  10.891  69.246  1.00  0.00    -0.248 C  
HETATM    3  N   UNL     1     -11.991  10.456  68.112  1.00  0.00    -0.661 NA 
HETATM    4  H1  UNL     1     -12.973  10.414  68.386  1.00  0.00     0.000 HD 
HETATM    5  H2  UNL     1     -11.672   9.571  67.720  1.00  0.00     0.000 HD 
ENDROOT
BRANCH   2   6
HETATM    6  C   UNL     1     -11.355   9.959  70.461  1.00  0.00    -0.327 C  
HETATM    7  O   UNL     1     -11.384  10.356  71.621  1.00  0.00     0.132 OA 
HETATM    8  N   UNL     1     -11.538   8.645  70.051  1.00  0.00    -0.452 N  
HETATM    9  H   UNL     1     -11.564   8.428  69.055  1.00  0.00     0.000 HD 
BRANCH   8  10
HETATM   10  C   UNL     1     -11.688   7.606  70.992  1.00  0.00    -0.286 A  
HETATM   11  C   UNL     1     -12.941   7.361  71.588  1.00  0.00    -0.409 A  
HETATM   12  C   UNL     1     -14.156   8.222  71.373  1.00  0.00    -0.382 C  
HETATM   13  C   UNL     1     -13.090   6.220  72.399  1.00  0.00     0.356 A  
HETATM   14  C   UNL     1     -12.023   5.361  72.629  1.00  0.00    -0.070 A  
HETATM   15  C   UNL     1     -10.775   5.638  72.078  1.00  0.00    -0.291 A  
HETATM   16  C   UNL     1     -10.591   6.760  71.257  1.00  0.00    -0.246 A  
HETATM   17  C   UNL     1      -9.205   7.107  70.789  1.00  0.00    -0.157 C  
ENDBRANCH   8  10
ENDBRANCH   2   6
TORSDOF 2
ENDMDL
MODEL      181
REMARK 921   NORMALIZED FREE ENERGY PREDICTED BY IDOCK:   -2.80 KCAL/MOL
REMARK 922        TOTAL FREE ENERGY PREDICTED BY IDOCK:   -3.39 KCAL/MOL
REMARK 923 INTER-LIGAND FREE ENERGY PREDICTED BY IDOCK:   -3.13 KCAL/MOL
REMARK 924 INTRA-LIGAND FREE ENERGY PREDICTED BY IDOCK:   -0.26 KCAL/MOL
REMARK 927      BINDING AFFINITY PREDICTED BY RF-SCORE:    0.00 PKD
ROOT
HETATM    1  C   UNL     1      -6.445  10.117  69.158  1.00  0.00    -0.049 C  
HETATM    2  C   UNL     1      -7.558   9.483  68.336  1.00  0.00    -0.081 C  
HETATM    3  N   UNL     1      -7.107   8.211  67.725  1.00  0.00    -0.085 NA 
HETATM    4  H1  UNL     1      -7.853   7.786  67.174  1.00  0.00     0.000 HD 
HETATM    5  H2  UNL     1      -6.742   7.565  68.425  1.00  0.00     0.000 HD 
ENDROOT
BRANCH   2   6
HETATM    6  C   UNL     1      -8.829   9.248  69.184  1.00  0.00    -0.141 C  
HETATM    7  O   UNL     1      -9.710  10.090  69.331  1.00  0.00    -0.200 OA 
HETATM    8  N   UNL     1      -8.842   7.964  69.712  1.00  0.00    -0.141 N  
HETATM    9  H   UNL     1      -8.093   7.315  69.474  1.00  0.00     0.000 HD 
BRANCH   8  10
HETATM   10  C   UNL     1      -9.877   7.544  70.573  1.00  0.00    -0.183 A  
HETATM   11  C   UNL     1      -9.812   7.823  71.953  1.00  0.00    -0.217 A  
HETATM   12  C   UNL     1      -8.629   8.463  72.625  1.00  0.00    -0.241 C  
HETATM   13  C   UNL     1     -10.933   7.530  72.752  1.00  0.00    -0.410 A  
HETATM   14  C   UNL     1     -12.075   6.959  72.203  1.00  0.00    -0.278 A  
HETATM   15  C   UNL     1     -12.111   6.640  70.849  1.00  0.00    -0.379 A  
HETATM   16  C   UNL     1     -11.017   6.925  70.020  1.00  0.00    -0.320 A  
HETATM   17  C   UNL     1     -11.033   6.447  68.594  1.00  0.00    -0.404 C  
ENDBRANCH   8  10
ENDBRANCH   2   6
TORSDOF 2
ENDMDL
MODEL      182
REMARK 921   NORMALIZED FREE ENERGY PREDICTED BY IDOCK:   -2.78 KCAL/MOL
REMARK 922        TOTAL FREE ENERGY PREDICTED BY IDOCK:   -3.37 KCAL/MOL
REMARK 923 INTER-LIGAND FREE ENERGY PREDICTED BY IDOCK:   -3.14 KCAL/MOL
REMARK 924 INTRA-LIGAND FREE ENERGY PREDICTED BY IDOCK:   -0.22 KCAL/MOL
REMARK 927      BINDING AFFINITY PREDICTED BY RF-SCORE:    0.00 PKD
ROOT
HETATM    1  C   UNL     1     -12.185  10.702  70.663  1.00  0.00    -0.459 C  
HETATM    2  C   UNL     1     -12.395   9.460  71.518  1.00  0.00    -0.370 C  
HETATM    3  N   UNL     1     -13.638   8.752  71.127  1.00  0.00    -0.553 NA 
HETATM    4  H1  UNL     1     -13.778   7.920  71.700  1.00  0.00     0.000 HD 
HETATM    5  H2  UNL     1     -13.648   8.531  70.132  1.00  0.00     0.000 HD 
ENDROOT
BRANCH   2   6
HETATM    6  C   UNL     1     -11.185   8.501  71.436  1.00  0.00    -0.266 C  
HETATM    7  O   UNL     1     -10.845   7.761  72.353  1.00  0.00    -0.253 OA 
HETATM    8  N   UNL     1     -10.577   8.575  70.189  1.00  0.00    -0.228 N  
HETATM    9  H   UNL     1     -10.980   9.175  69.469  1.00  0.00     0.000 HD 
BRANCH   8  10
HETATM   10  C   UNL     1      -9.413   7.834  69.905  1.00  0.00    -0.160 A  
HETATM   11  C   UNL     1      -9.509   6.498  69.467  1.00  0.00    -0.150 A  
HETATM   12  C   UNL     1     -10.802   5.735  69.378  1.00  0.00    -0.393 C  
HETATM   13  C   UNL     1      -8.338   5.843  69.042  1.00  0.00    -0.106 A  
HETATM   14  C   UNL     1      -7.106   6.487  69.070  1.00  0.00    -0.085 A  
HETATM   15  C   UNL     1      -7.013   7.789  69.552  1.00  0.00    -0.058 A  
HETATM   16  C   UNL     1      -8.160   8.476  69.976  1.00  0.00    -0.111 A  
HETATM   17  C   UNL     1      -8.009   9.829  70.616  1.00  0.00     0.049 C  
ENDBRANCH   8  10
ENDBRANCH   2   6
TORSDOF 2
ENDMDL
MODEL      183
REMARK 921   NORMALIZED FREE ENERGY PREDICTED BY IDOCK:   -2.77 KCAL/MOL
REMARK 922        TOTAL FREE ENERGY PREDICTED BY IDOCK:   -3.36 KCAL/MOL
REMARK 923 INTER-LIGAND FREE ENERGY PREDICTED BY IDOCK:   -3.23 KCAL/MOL
REMARK 924 INTRA-LIGAND FREE ENERGY PREDICTED BY IDOCK:   -0.13 KCAL/MOL
REMARK 927      BINDING AFFINITY PREDICTED BY RF-SCORE:    0.00 PKD
ROOT
HETATM    1  C   UNL     1      -8.573   2.265  65.390  1.00  0.00    -0.113 C  
HETATM    2  C   UNL     1      -9.033   3.677  65.053  1.00  0.00    -0.131 C  
HETATM    3  N   UNL     1     -10.420   3.671  64.530  1.00  0.00    -0.428 NA 
HETATM    4  H1  UNL     1     -10.729   4.616  64.305  1.00  0.00     0.000 HD 
HETATM    5  H2  UNL     1     -11.062   3.208  65.173  1.00  0.00     0.000 HD 
ENDROOT
BRANCH   2   6
HETATM    6  C   UNL     1      -8.926   4.617  66.276  1.00  0.00    -0.118 C  
HETATM    7  O   UNL     1      -7.998   5.401  66.448  1.00  0.00    -0.103 OA 
HETATM    8  N   UNL     1     -10.026   4.471  67.111  1.00  0.00    -0.187 N  
HETATM    9  H   UNL     1     -10.781   3.839  66.843  1.00  0.00     0.000 HD 
BRANCH   8  10
HETATM   10  C   UNL     1     -10.116   5.184  68.323  1.00  0.00    -0.134 A  
HETATM   11  C   UNL     1     -10.541   6.528  68.329  1.00  0.00    -0.302 A  
HETATM   12  C   UNL     1     -10.813   7.327  67.084  1.00  0.00    -0.378 C  
HETATM   13  C   UNL     1     -10.770   7.157  69.567  1.00  0.00    -0.255 A  
HETATM   14  C   UNL     1     -10.564   6.479  70.763  1.00  0.00    -0.278 A  
HETATM   15  C   UNL     1     -10.096   5.169  70.749  1.00  0.00    -0.303 A  
HETATM   16  C   UNL     1      -9.865   4.507  69.534  1.00  0.00    -0.277 A  
HETATM   17  C   UNL     1      -9.232   3.142  69.551  1.00  0.00    -0.222 C  
ENDBRANCH   8  10
ENDBRANCH   2   6
TORSDOF 2
ENDMDL
MODEL      184
REMARK 921   NORMALIZED FREE ENERGY PREDICTED BY IDOCK:   -2.76 KCAL/MOL
REMARK 922        TOTAL FREE ENERGY PREDICTED BY IDOCK:   -3.35 KCAL/MOL
REMARK 923 INTER-LIGAND FREE ENERGY PREDICTED BY IDOCK:   -3.07 KCAL/MOL
REMARK 924 INTRA-LIGAND FREE ENERGY PREDICTED BY IDOCK:   -0.28 KCAL/MOL
REMARK 927      BINDING AFFINITY PREDICTED BY RF-SCORE:    0.00 PKD
ROOT
HETATM    1  C   UNL     1      -8.320   2.558  67.225  1.00  0.00    -0.094 C  
HETATM    2  C   UNL     1      -7.318   3.583  67.736  1.00  0.00    -0.058 C  
HETATM    3  N   UNL     1      -6.707   4.332  66.612  1.00  0.00    -0.049 NA 
HETATM    4  H1  UNL     1      -6.036   5.020  66.955  1.00  0.00     0.000 HD 
HETATM    5  H2  UNL     1      -7.415   4.762  66.017  1.00  0.00     0.000 HD 
ENDROOT
BRANCH   2   6
HETATM    6  C   UNL     1      -7.967   4.562  68.741  1.00  0.00    -0.078 C  
HETATM    7  O   UNL     1      -7.387   5.538  69.206  1.00  0.00    -0.067 OA 
HETATM    8  N   UNL     1      -9.282   4.201  69.006  1.00  0.00    -0.137 N  
HETATM    9  H   UNL     1      -9.695   3.409  68.514  1.00  0.00     0.000 HD 
BRANCH   8  10
HETATM   10  C   UNL     1     -10.055   4.915  69.944  1.00  0.00    -0.262 A  
HETATM   11  C   UNL     1     -10.021   4.565  71.308  1.00  0.00    -0.258 A  
HETATM   12  C   UNL     1      -9.279   3.374  71.850  1.00  0.00    -0.179 C  
HETATM   13  C   UNL     1     -10.679   5.396  72.234  1.00  0.00    -0.287 A  
HETATM   14  C   UNL     1     -11.368   6.529  71.815  1.00  0.00    -0.325 A  
HETATM   15  C   UNL     1     -11.439   6.839  70.461  1.00  0.00    -0.413 A  
HETATM   16  C   UNL     1     -10.789   6.039  69.510  1.00  0.00    -0.439 A  
HETATM   17  C   UNL     1     -10.997   6.321  68.048  1.00  0.00    -0.418 C  
ENDBRANCH   8  10
ENDBRANCH   2   6
TORSDOF 2
ENDMDL
MODEL      185
REMARK 921   NORMALIZED FREE ENERGY PREDICTED BY IDOCK:   -2.76 KCAL/MOL
REMARK 922        TOTAL FREE ENERGY PREDICTED BY IDOCK:   -3.34 KCAL/MOL
REMARK 923 INTER-LIGAND FREE ENERGY PREDICTED BY IDOCK:   -3.08 KCAL/MOL
REMARK 924 INTRA-LIGAND FREE ENERGY PREDICTED BY IDOCK:   -0.26 KCAL/MOL
REMARK 927      BINDING AFFINITY PREDICTED BY RF-SCORE:    0.00 PKD
ROOT
HETATM    1  C   UNL     1      -7.738   3.605  70.469  1.00  0.00    -0.047 C  
HETATM    2  C   UNL     1      -9.056   3.871  71.183  1.00  0.00    -0.120 C  
HETATM    3  N   UNL     1      -8.865   3.906  72.652  1.00  0.00    -0.101 NA 
HETATM    4  H1  UNL     1      -9.748   4.085  73.131  1.00  0.00     0.000 HD 
HETATM    5  H2  UNL     1      -8.148   4.579  72.923  1.00  0.00     0.000 HD 
ENDROOT
BRANCH   2   6
HETATM    6  C   UNL     1      -9.712   5.183  70.697  1.00  0.00    -0.192 C  
HETATM    7  O   UNL     1     -10.629   5.221  69.883  1.00  0.00    -0.306 OA 
HETATM    8  N   UNL     1      -9.146   6.284  71.329  1.00  0.00    -0.146 N  
HETATM    9  H   UNL     1      -8.433   6.141  72.044  1.00  0.00     0.000 HD 
BRANCH   8  10
HETATM   10  C   UNL     1      -9.544   7.595  70.997  1.00  0.00    -0.163 A  
HETATM   11  C   UNL     1      -8.992   8.243  69.875  1.00  0.00    -0.139 A  
HETATM   12  C   UNL     1      -7.889   7.666  69.030  1.00  0.00    -0.119 C  
HETATM   13  C   UNL     1      -9.528   9.484  69.483  1.00  0.00    -0.195 A  
HETATM   14  C   UNL     1     -10.565  10.074  70.196  1.00  0.00    -0.350 A  
HETATM   15  C   UNL     1     -11.069   9.451  71.334  1.00  0.00    -0.450 A  
HETATM   16  C   UNL     1     -10.567   8.209  71.749  1.00  0.00    -0.313 A  
HETATM   17  C   UNL     1     -11.036   7.627  73.054  1.00  0.00    -0.437 C  
ENDBRANCH   8  10
ENDBRANCH   2   6
TORSDOF 2
ENDMDL
MODEL      186
REMARK 921   NORMALIZED FREE ENERGY PREDICTED BY IDOCK:   -2.75 KCAL/MOL
REMARK 922        TOTAL FREE ENERGY PREDICTED BY IDOCK:   -3.33 KCAL/MOL
REMARK 923 INTER-LIGAND FREE ENERGY PREDICTED BY IDOCK:   -3.05 KCAL/MOL
REMARK 924 INTRA-LIGAND FREE ENERGY PREDICTED BY IDOCK:   -0.28 KCAL/MOL
REMARK 927      BINDING AFFINITY PREDICTED BY RF-SCORE:    0.00 PKD
ROOT
HETATM    1  C   UNL     1      -9.445  10.052  65.439  1.00  0.00    -0.310 C  
HETATM    2  C   UNL     1      -8.266  10.044  66.403  1.00  0.00    -0.119 C  
HETATM    3  N   UNL     1      -8.179  11.325  67.143  1.00  0.00    -0.143 NA 
HETATM    4  H1  UNL     1      -7.389  11.319  67.789  1.00  0.00     0.000 HD 
HETATM    5  H2  UNL     1      -9.053  11.545  67.620  1.00  0.00     0.000 HD 
ENDROOT
BRANCH   2   6
HETATM    6  C   UNL     1      -8.348   8.859  67.392  1.00  0.00    -0.108 C  
HETATM    7  O   UNL     1      -7.456   8.028  67.527  1.00  0.00    -0.093 OA 
HETATM    8  N   UNL     1      -9.536   8.894  68.111  1.00  0.00    -0.142 N  
HETATM    9  H   UNL     1     -10.185   9.668  67.972  1.00  0.00     0.000 HD 
BRANCH   8  10
HETATM   10  C   UNL     1      -9.857   7.874  69.030  1.00  0.00    -0.171 A  
HETATM   11  C   UNL     1     -10.515   6.706  68.596  1.00  0.00    -0.241 A  
HETATM   12  C   UNL     1     -11.018   6.498  67.194  1.00  0.00    -0.480 C  
HETATM   13  C   UNL     1     -10.677   5.646  69.508  1.00  0.00    -0.380 A  
HETATM   14  C   UNL     1     -10.219   5.750  70.816  1.00  0.00    -0.279 A  
HETATM   15  C   UNL     1      -9.616   6.927  71.250  1.00  0.00    -0.165 A  
HETATM   16  C   UNL     1      -9.429   8.001  70.367  1.00  0.00    -0.166 A  
HETATM   17  C   UNL     1      -8.900   9.304  70.899  1.00  0.00    -0.252 C  
ENDBRANCH   8  10
ENDBRANCH   2   6
TORSDOF 2
ENDMDL
MODEL      187
REMARK 921   NORMALIZED FREE ENERGY PREDICTED BY IDOCK:   -2.75 KCAL/MOL
REMARK 922        TOTAL FREE ENERGY PREDICTED BY IDOCK:   -3.33 KCAL/MOL
REMARK 923 INTER-LIGAND FREE ENERGY PREDICTED BY IDOCK:   -3.09 KCAL/MOL
REMARK 924 INTRA-LIGAND FREE ENERGY PREDICTED BY IDOCK:   -0.24 KCAL/MOL
REMARK 927      BINDING AFFINITY PREDICTED BY RF-SCORE:    0.00 PKD
ROOT
HETATM    1  C   UNL     1     -11.279   4.966  73.179  1.00  0.00    -0.403 C  
HETATM    2  C   UNL     1     -10.025   4.314  72.614  1.00  0.00    -0.155 C  
HETATM    3  N   UNL     1     -10.284   2.902  72.244  1.00  0.00    -0.147 NA 
HETATM    4  H1  UNL     1      -9.444   2.465  71.866  1.00  0.00     0.000 HD 
HETATM    5  H2  UNL     1     -11.073   2.819  71.604  1.00  0.00     0.000 HD 
ENDROOT
BRANCH   2   6
HETATM    6  C   UNL     1      -9.476   5.093  71.397  1.00  0.00    -0.152 C  
HETATM    7  O   UNL     1      -8.307   5.450  71.293  1.00  0.00    -0.120 OA 
HETATM    8  N   UNL     1     -10.470   5.294  70.448  1.00  0.00    -0.272 N  
HETATM    9  H   UNL     1     -11.397   4.897  70.599  1.00  0.00     0.000 HD 
BRANCH   8  10
HETATM   10  C   UNL     1     -10.216   6.038  69.278  1.00  0.00    -0.207 A  
HETATM   11  C   UNL     1      -9.756   5.395  68.111  1.00  0.00    -0.174 A  
HETATM   12  C   UNL     1      -9.397   3.936  68.043  1.00  0.00    -0.226 C  
HETATM   13  C   UNL     1      -9.666   6.142  66.922  1.00  0.00    -0.178 A  
HETATM   14  C   UNL     1     -10.002   7.490  66.895  1.00  0.00    -0.318 A  
HETATM   15  C   UNL     1     -10.407   8.129  68.063  1.00  0.00    -0.267 A  
HETATM   16  C   UNL     1     -10.517   7.416  69.265  1.00  0.00    -0.222 A  
HETATM   17  C   UNL     1     -10.825   8.161  70.535  1.00  0.00    -0.247 C  
ENDBRANCH   8  10
ENDBRANCH   2   6
TORSDOF 2
ENDMDL
MODEL      188
REMARK 921   NORMALIZED FREE ENERGY PREDICTED BY IDOCK:   -2.73 KCAL/MOL
REMARK 922        TOTAL FREE ENERGY PREDICTED BY IDOCK:   -3.31 KCAL/MOL
REMARK 923 INTER-LIGAND FREE ENERGY PREDICTED BY IDOCK:   -3.04 KCAL/MOL
REMARK 924 INTRA-LIGAND FREE ENERGY PREDICTED BY IDOCK:   -0.28 KCAL/MOL
REMARK 927      BINDING AFFINITY PREDICTED BY RF-SCORE:    0.00 PKD
ROOT
HETATM    1  C   UNL     1      -9.797   8.032  66.479  1.00  0.00    -0.289 C  
HETATM    2  C   UNL     1      -8.614   8.598  65.705  1.00  0.00    -0.163 C  
HETATM    3  N   UNL     1      -8.512   7.975  64.364  1.00  0.00    -0.382 NA 
HETATM    4  H1  UNL     1      -7.720   8.355  63.845  1.00  0.00     0.000 HD 
HETATM    5  H2  UNL     1      -9.383   8.064  63.841  1.00  0.00     0.000 HD 
ENDROOT
BRANCH   2   6
HETATM    6  C   UNL     1      -8.702  10.136  65.576  1.00  0.00    -0.158 C  
HETATM    7  O   UNL     1      -8.149  10.772  64.685  1.00  0.00    -0.044 OA 
HETATM    8  N   UNL     1      -9.508  10.672  66.572  1.00  0.00    -0.166 N  
HETATM    9  H   UNL     1      -9.979  10.049  67.227  1.00  0.00     0.000 HD 
BRANCH   8  10
HETATM   10  C   UNL     1      -9.684  12.066  66.690  1.00  0.00    -0.208 A  
HETATM   11  C   UNL     1      -8.797  12.832  67.472  1.00  0.00    -0.187 A  
HETATM   12  C   UNL     1      -7.696  12.244  68.311  1.00  0.00    -0.143 C  
HETATM   13  C   UNL     1      -8.908  14.234  67.438  1.00  0.00    -0.211 A  
HETATM   14  C   UNL     1      -9.884  14.857  66.668  1.00  0.00    -0.272 A  
HETATM   15  C   UNL     1     -10.788  14.091  65.939  1.00  0.00    -0.288 A  
HETATM   16  C   UNL     1     -10.702  12.691  65.941  1.00  0.00    -0.293 A  
HETATM   17  C   UNL     1     -11.774  11.890  65.255  1.00  0.00    -0.232 C  
ENDBRANCH   8  10
ENDBRANCH   2   6
TORSDOF 2
ENDMDL
MODEL      189
REMARK 921   NORMALIZED FREE ENERGY PREDICTED BY IDOCK:   -2.73 KCAL/MOL
REMARK 922        TOTAL FREE ENERGY PREDICTED BY IDOCK:   -3.31 KCAL/MOL
REMARK 923 INTER-LIGAND FREE ENERGY PREDICTED BY IDOCK:   -3.07 KCAL/MOL
REMARK 924 INTRA-LIGAND FREE ENERGY PREDICTED BY IDOCK:   -0.24 KCAL/MOL
REMARK 927      BINDING AFFINITY PREDICTED BY RF-SCORE:    0.00 PKD
ROOT
HETATM    1  C   UNL     1      -9.239   3.208  65.607  1.00  0.00    -0.141 C  
HETATM    2  C   UNL     1      -9.841   4.577  65.321  1.00  0.00    -0.169 C  
HETATM    3  N   UNL     1     -11.316   4.491  65.197  1.00  0.00    -1.113 NA 
HETATM    4  H1  UNL     1     -11.720   5.408  65.006  1.00  0.00     0.000 HD 
HETATM    5  H2  UNL     1     -11.738   4.058  66.018  1.00  0.00     0.000 HD 
ENDROOT
BRANCH   2   6
HETATM    6  C   UNL     1      -9.455   5.607  66.406  1.00  0.00    -0.155 C  
HETATM    7  O   UNL     1      -9.279   6.799  66.175  1.00  0.00    -0.154 OA 
HETATM    8  N   UNL     1      -9.372   5.005  67.655  1.00  0.00    -0.121 N  
HETATM    9  H   UNL     1      -9.604   4.016  67.752  1.00  0.00     0.000 HD 
BRANCH   8  10
HETATM   10  C   UNL     1      -8.972   5.739  68.789  1.00  0.00    -0.116 A  
HETATM   11  C   UNL     1      -9.934   6.345  69.620  1.00  0.00    -0.193 A  
HETATM   12  C   UNL     1     -11.409   6.363  69.323  1.00  0.00    -0.405 C  
HETATM   13  C   UNL     1      -9.509   6.933  70.827  1.00  0.00    -0.165 A  
HETATM   14  C   UNL     1      -8.166   6.938  71.186  1.00  0.00    -0.118 A  
HETATM   15  C   UNL     1      -7.216   6.382  70.335  1.00  0.00    -0.083 A  
HETATM   16  C   UNL     1      -7.604   5.779  69.130  1.00  0.00    -0.089 A  
HETATM   17  C   UNL     1      -6.545   5.310  68.170  1.00  0.00    -0.049 C  
ENDBRANCH   8  10
ENDBRANCH   2   6
TORSDOF 2
ENDMDL
MODEL      190
REMARK 921   NORMALIZED FREE ENERGY PREDICTED BY IDOCK:   -2.72 KCAL/MOL
REMARK 922        TOTAL FREE ENERGY PREDICTED BY IDOCK:   -3.30 KCAL/MOL
REMARK 923 INTER-LIGAND FREE ENERGY PREDICTED BY IDOCK:   -3.14 KCAL/MOL
REMARK 924 INTRA-LIGAND FREE ENERGY PREDICTED BY IDOCK:   -0.16 KCAL/MOL
REMARK 927      BINDING AFFINITY PREDICTED BY RF-SCORE:    0.00 PKD
ROOT
HETATM    1  C   UNL     1     -10.746   7.658  69.817  1.00  0.00    -0.243 C  
HETATM    2  C   UNL     1     -10.054   8.362  68.657  1.00  0.00    -0.193 C  
HETATM    3  N   UNL     1     -10.876   8.285  67.426  1.00  0.00    -0.497 NA 
HETATM    4  H1  UNL     1     -10.413   8.757  66.649  1.00  0.00     0.000 HD 
HETATM    5  H2  UNL     1     -11.817   8.646  67.578  1.00  0.00     0.000 HD 
ENDROOT
BRANCH   2   6
HETATM    6  C   UNL     1      -9.734   9.835  68.995  1.00  0.00    -0.177 C  
HETATM    7  O   UNL     1      -9.272  10.198  70.073  1.00  0.00    -0.166 OA 
HETATM    8  N   UNL     1     -10.006  10.663  67.914  1.00  0.00    -0.163 N  
HETATM    9  H   UNL     1     -10.324  10.254  67.035  1.00  0.00     0.000 HD 
BRANCH   8  10
HETATM   10  C   UNL     1      -9.849  12.060  68.012  1.00  0.00    -0.199 A  
HETATM   11  C   UNL     1      -8.655  12.674  67.584  1.00  0.00    -0.180 A  
HETATM   12  C   UNL     1      -7.444  11.916  67.112  1.00  0.00    -0.146 C  
HETATM   13  C   UNL     1      -8.595  14.080  67.549  1.00  0.00    -0.196 A  
HETATM   14  C   UNL     1      -9.680  14.853  67.946  1.00  0.00    -0.206 A  
HETATM   15  C   UNL     1     -10.837  14.239  68.416  1.00  0.00    -0.263 A  
HETATM   16  C   UNL     1     -10.936  12.840  68.456  1.00  0.00    -0.288 A  
HETATM   17  C   UNL     1     -12.143  12.209  69.094  1.00  0.00    -0.224 C  
ENDBRANCH   8  10
ENDBRANCH   2   6
TORSDOF 2
ENDMDL
MODEL      191
REMARK 921   NORMALIZED FREE ENERGY PREDICTED BY IDOCK:   -2.70 KCAL/MOL
REMARK 922        TOTAL FREE ENERGY PREDICTED BY IDOCK:   -3.28 KCAL/MOL
REMARK 923 INTER-LIGAND FREE ENERGY PREDICTED BY IDOCK:   -3.17 KCAL/MOL
REMARK 924 INTRA-LIGAND FREE ENERGY PREDICTED BY IDOCK:   -0.10 KCAL/MOL
REMARK 927      BINDING AFFINITY PREDICTED BY RF-SCORE:    0.00 PKD
ROOT
HETATM    1  C   UNL     1      -9.985   7.936  69.984  1.00  0.00    -0.191 C  
HETATM    2  C   UNL     1     -10.350   9.211  69.237  1.00  0.00    -0.216 C  
HETATM    3  N   UNL     1      -9.389  10.298  69.543  1.00  0.00    -0.325 NA 
HETATM    4  H1  UNL     1      -9.633  11.152  69.042  1.00  0.00     0.000 HD 
HETATM    5  H2  UNL     1      -8.428  10.013  69.357  1.00  0.00     0.000 HD 
ENDROOT
BRANCH   2   6
HETATM    6  C   UNL     1     -10.422   8.975  67.711  1.00  0.00    -0.245 C  
HETATM    7  O   UNL     1     -11.108   8.100  67.193  1.00  0.00    -0.020 OA 
HETATM    8  N   UNL     1      -9.643   9.900  67.029  1.00  0.00    -0.169 N  
HETATM    9  H   UNL     1      -9.163  10.634  67.549  1.00  0.00     0.000 HD 
BRANCH   8  10
HETATM   10  C   UNL     1      -9.506   9.840  65.627  1.00  0.00    -0.246 A  
HETATM   11  C   UNL     1     -10.262  10.695  64.801  1.00  0.00    -0.401 A  
HETATM   12  C   UNL     1     -11.326  11.629  65.309  1.00  0.00    -0.220 C  
HETATM   13  C   UNL     1      -9.984  10.717  63.421  1.00  0.00    -0.385 A  
HETATM   14  C   UNL     1      -8.999   9.902  62.875  1.00  0.00    -0.271 A  
HETATM   15  C   UNL     1      -8.293   9.024  63.692  1.00  0.00    -0.178 A  
HETATM   16  C   UNL     1      -8.536   8.980  65.072  1.00  0.00    -0.207 A  
HETATM   17  C   UNL     1      -7.854   7.929  65.904  1.00  0.00    -0.101 C  
ENDBRANCH   8  10
ENDBRANCH   2   6
TORSDOF 2
ENDMDL
MODEL      192
REMARK 921   NORMALIZED FREE ENERGY PREDICTED BY IDOCK:   -2.69 KCAL/MOL
REMARK 922        TOTAL FREE ENERGY PREDICTED BY IDOCK:   -3.27 KCAL/MOL
REMARK 923 INTER-LIGAND FREE ENERGY PREDICTED BY IDOCK:   -3.12 KCAL/MOL
REMARK 924 INTRA-LIGAND FREE ENERGY PREDICTED BY IDOCK:   -0.15 KCAL/MOL
REMARK 927      BINDING AFFINITY PREDICTED BY RF-SCORE:    0.00 PKD
ROOT
HETATM    1  C   UNL     1      -6.904   8.497  64.708  1.00  0.00    -0.072 C  
HETATM    2  C   UNL     1      -7.181   9.971  64.970  1.00  0.00    -0.139 C  
HETATM    3  N   UNL     1      -7.095  10.756  63.716  1.00  0.00    -0.320 NA 
HETATM    4  H1  UNL     1      -7.282  11.744  63.892  1.00  0.00     0.000 HD 
HETATM    5  H2  UNL     1      -7.709  10.380  62.994  1.00  0.00     0.000 HD 
ENDROOT
BRANCH   2   6
HETATM    6  C   UNL     1      -8.557  10.181  65.641  1.00  0.00    -0.155 C  
HETATM    7  O   UNL     1      -9.598   9.689  65.217  1.00  0.00    -0.274 OA 
HETATM    8  N   UNL     1      -8.439  10.961  66.784  1.00  0.00    -0.135 N  
HETATM    9  H   UNL     1      -7.515  11.266  67.090  1.00  0.00     0.000 HD 
BRANCH   8  10
HETATM   10  C   UNL     1      -9.576  11.336  67.527  1.00  0.00    -0.170 A  
HETATM   11  C   UNL     1     -10.061  10.504  68.555  1.00  0.00    -0.187 A  
HETATM   12  C   UNL     1      -9.506   9.141  68.864  1.00  0.00    -0.151 C  
HETATM   13  C   UNL     1     -11.098  10.984  69.377  1.00  0.00    -0.320 A  
HETATM   14  C   UNL     1     -11.650  12.243  69.172  1.00  0.00    -0.373 A  
HETATM   15  C   UNL     1     -11.199  13.038  68.122  1.00  0.00    -0.305 A  
HETATM   16  C   UNL     1     -10.162  12.597  67.288  1.00  0.00    -0.227 A  
HETATM   17  C   UNL     1      -9.791  13.417  66.083  1.00  0.00    -0.289 C  
ENDBRANCH   8  10
ENDBRANCH   2   6
TORSDOF 2
ENDMDL
MODEL      193
REMARK 921   NORMALIZED FREE ENERGY PREDICTED BY IDOCK:   -2.69 KCAL/MOL
REMARK 922        TOTAL FREE ENERGY PREDICTED BY IDOCK:   -3.27 KCAL/MOL
REMARK 923 INTER-LIGAND FREE ENERGY PREDICTED BY IDOCK:   -3.07 KCAL/MOL
REMARK 924 INTRA-LIGAND FREE ENERGY PREDICTED BY IDOCK:   -0.20 KCAL/MOL
REMARK 927      BINDING AFFINITY PREDICTED BY RF-SCORE:    0.00 PKD
ROOT
HETATM    1  C   UNL     1     -12.201  12.889  70.318  1.00  0.00    -0.362 C  
HETATM    2  C   UNL     1     -11.876  13.009  68.835  1.00  0.00    -0.316 C  
HETATM    3  N   UNL     1     -11.638  14.423  68.459  1.00  0.00    -0.297 NA 
HETATM    4  H1  UNL     1     -11.420  14.504  67.466  1.00  0.00     0.000 HD 
HETATM    5  H2  UNL     1     -10.917  14.851  69.039  1.00  0.00     0.000 HD 
ENDROOT
BRANCH   2   6
HETATM    6  C   UNL     1     -10.658  12.141  68.447  1.00  0.00    -0.226 C  
HETATM    7  O   UNL     1     -10.372  11.088  69.008  1.00  0.00    -0.208 OA 
HETATM    8  N   UNL     1      -9.975  12.696  67.373  1.00  0.00    -0.203 N  
HETATM    9  H   UNL     1     -10.335  13.542  66.932  1.00  0.00     0.000 HD 
BRANCH   8  10
HETATM   10  C   UNL     1      -8.790  12.108  66.885  1.00  0.00    -0.202 A  
HETATM   11  C   UNL     1      -7.538  12.491  67.405  1.00  0.00    -0.156 A  
HETATM   12  C   UNL     1      -7.348  13.598  68.405  1.00  0.00    -0.118 C  
HETATM   13  C   UNL     1      -6.396  11.771  67.008  1.00  0.00    -0.150 A  
HETATM   14  C   UNL     1      -6.490  10.718  66.106  1.00  0.00    -0.129 A  
HETATM   15  C   UNL     1      -7.723  10.380  65.558  1.00  0.00    -0.147 A  
HETATM   16  C   UNL     1      -8.885  11.069  65.936  1.00  0.00    -0.204 A  
HETATM   17  C   UNL     1     -10.178  10.771  65.228  1.00  0.00    -0.351 C  
ENDBRANCH   8  10
ENDBRANCH   2   6
TORSDOF 2
ENDMDL
MODEL      194
REMARK 921   NORMALIZED FREE ENERGY PREDICTED BY IDOCK:   -2.67 KCAL/MOL
REMARK 922        TOTAL FREE ENERGY PREDICTED BY IDOCK:   -3.25 KCAL/MOL
REMARK 923 INTER-LIGAND FREE ENERGY PREDICTED BY IDOCK:   -2.98 KCAL/MOL
REMARK 924 INTRA-LIGAND FREE ENERGY PREDICTED BY IDOCK:   -0.27 KCAL/MOL
REMARK 927      BINDING AFFINITY PREDICTED BY RF-SCORE:    0.00 PKD
ROOT
HETATM    1  C   UNL     1      -9.313   9.384  70.403  1.00  0.00    -0.317 C  
HETATM    2  C   UNL     1      -7.958   8.720  70.601  1.00  0.00    -0.122 C  
HETATM    3  N   UNL     1      -7.070   9.567  71.433  1.00  0.00    -0.322 NA 
HETATM    4  H1  UNL     1      -6.162   9.122  71.566  1.00  0.00     0.000 HD 
HETATM    5  H2  UNL     1      -7.506   9.808  72.323  1.00  0.00     0.000 HD 
ENDROOT
BRANCH   2   6
HETATM    6  C   UNL     1      -8.098   7.315  71.228  1.00  0.00    -0.102 C  
HETATM    7  O   UNL     1      -7.146   6.659  71.640  1.00  0.00    -0.077 OA 
HETATM    8  N   UNL     1      -9.431   6.929  71.287  1.00  0.00    -0.165 N  
HETATM    9  H   UNL     1     -10.156   7.577  70.980  1.00  0.00     0.000 HD 
BRANCH   8  10
HETATM   10  C   UNL     1      -9.797   5.654  71.766  1.00  0.00    -0.168 A  
HETATM   11  C   UNL     1      -9.745   4.533  70.915  1.00  0.00    -0.263 A  
HETATM   12  C   UNL     1      -9.421   4.606  69.448  1.00  0.00    -0.239 C  
HETATM   13  C   UNL     1      -9.962   3.257  71.468  1.00  0.00    -0.148 A  
HETATM   14  C   UNL     1     -10.244   3.101  72.820  1.00  0.00    -0.238 A  
HETATM   15  C   UNL     1     -10.344   4.219  73.643  1.00  0.00    -0.242 A  
HETATM   16  C   UNL     1     -10.124   5.505  73.129  1.00  0.00    -0.201 A  
HETATM   17  C   UNL     1     -10.372   6.699  74.010  1.00  0.00    -0.377 C  
ENDBRANCH   8  10
ENDBRANCH   2   6
TORSDOF 2
ENDMDL
MODEL      195
REMARK 921   NORMALIZED FREE ENERGY PREDICTED BY IDOCK:   -2.67 KCAL/MOL
REMARK 922        TOTAL FREE ENERGY PREDICTED BY IDOCK:   -3.25 KCAL/MOL
REMARK 923 INTER-LIGAND FREE ENERGY PREDICTED BY IDOCK:   -2.99 KCAL/MOL
REMARK 924 INTRA-LIGAND FREE ENERGY PREDICTED BY IDOCK:   -0.26 KCAL/MOL
REMARK 927      BINDING AFFINITY PREDICTED BY RF-SCORE:    0.00 PKD
ROOT
HETATM    1  C   UNL     1      -7.384   6.741  65.379  1.00  0.00    -0.080 C  
HETATM    2  C   UNL     1      -8.092   8.088  65.413  1.00  0.00    -0.135 C  
HETATM    3  N   UNL     1      -8.587   8.460  64.066  1.00  0.00    -0.397 NA 
HETATM    4  H1  UNL     1      -9.062   9.362  64.088  1.00  0.00     0.000 HD 
HETATM    5  H2  UNL     1      -9.181   7.732  63.669  1.00  0.00     0.000 HD 
ENDROOT
BRANCH   2   6
HETATM    6  C   UNL     1      -9.255   8.095  66.430  1.00  0.00    -0.199 C  
HETATM    7  O   UNL     1     -10.411   8.382  66.135  1.00  0.00    -0.034 OA 
HETATM    8  N   UNL     1      -8.815   7.704  67.689  1.00  0.00    -0.125 N  
HETATM    9  H   UNL     1      -7.844   7.419  67.816  1.00  0.00     0.000 HD 
BRANCH   8  10
HETATM   10  C   UNL     1      -9.691   7.696  68.793  1.00  0.00    -0.153 A  
HETATM   11  C   UNL     1      -9.841   8.847  69.592  1.00  0.00    -0.182 A  
HETATM   12  C   UNL     1      -9.028  10.100  69.419  1.00  0.00    -0.205 C  
HETATM   13  C   UNL     1     -10.839   8.852  70.585  1.00  0.00    -0.286 A  
HETATM   14  C   UNL     1     -11.649   7.742  70.792  1.00  0.00    -0.270 A  
HETATM   15  C   UNL     1     -11.459   6.591  70.033  1.00  0.00    -0.476 A  
HETATM   16  C   UNL     1     -10.481   6.552  69.029  1.00  0.00    -0.252 A  
HETATM   17  C   UNL     1     -10.210   5.254  68.319  1.00  0.00    -0.200 C  
ENDBRANCH   8  10
ENDBRANCH   2   6
TORSDOF 2
ENDMDL
MODEL      196
REMARK 921   NORMALIZED FREE ENERGY PREDICTED BY IDOCK:   -2.66 KCAL/MOL
REMARK 922        TOTAL FREE ENERGY PREDICTED BY IDOCK:   -3.24 KCAL/MOL
REMARK 923 INTER-LIGAND FREE ENERGY PREDICTED BY IDOCK:   -2.98 KCAL/MOL
REMARK 924 INTRA-LIGAND FREE ENERGY PREDICTED BY IDOCK:   -0.26 KCAL/MOL
REMARK 927      BINDING AFFINITY PREDICTED BY RF-SCORE:    0.00 PKD
ROOT
HETATM    1  C   UNL     1     -11.021  10.131  67.503  1.00  0.00    -0.319 C  
HETATM    2  C   UNL     1     -10.219   9.128  66.686  1.00  0.00    -0.258 C  
HETATM    3  N   UNL     1      -8.790   9.517  66.625  1.00  0.00    -0.133 NA 
HETATM    4  H1  UNL     1      -8.253   8.844  66.078  1.00  0.00     0.000 HD 
HETATM    5  H2  UNL     1      -8.395   9.646  67.556  1.00  0.00     0.000 HD 
ENDROOT
BRANCH   2   6
HETATM    6  C   UNL     1     -10.360   7.695  67.248  1.00  0.00    -0.297 C  
HETATM    7  O   UNL     1     -11.242   6.916  66.901  1.00  0.00    -0.353 OA 
HETATM    8  N   UNL     1      -9.345   7.415  68.154  1.00  0.00    -0.136 N  
HETATM    9  H   UNL     1      -8.617   8.109  68.323  1.00  0.00     0.000 HD 
BRANCH   8  10
HETATM   10  C   UNL     1      -9.306   6.186  68.843  1.00  0.00    -0.124 A  
HETATM   11  C   UNL     1      -9.979   6.037  70.071  1.00  0.00    -0.227 A  
HETATM   12  C   UNL     1     -10.674   7.160  70.789  1.00  0.00    -0.251 C  
HETATM   13  C   UNL     1     -10.050   4.755  70.649  1.00  0.00    -0.288 A  
HETATM   14  C   UNL     1      -9.454   3.659  70.036  1.00  0.00    -0.260 A  
HETATM   15  C   UNL     1      -8.748   3.825  68.849  1.00  0.00    -0.132 A  
HETATM   16  C   UNL     1      -8.663   5.086  68.239  1.00  0.00    -0.106 A  
HETATM   17  C   UNL     1      -7.782   5.259  67.033  1.00  0.00    -0.096 C  
ENDBRANCH   8  10
ENDBRANCH   2   6
TORSDOF 2
ENDMDL
MODEL      197
REMARK 921   NORMALIZED FREE ENERGY PREDICTED BY IDOCK:   -2.63 KCAL/MOL
REMARK 922        TOTAL FREE ENERGY PREDICTED BY IDOCK:   -3.20 KCAL/MOL
REMARK 923 INTER-LIGAND FREE ENERGY PREDICTED BY IDOCK:   -2.92 KCAL/MOL
REMARK 924 INTRA-LIGAND FREE ENERGY PREDICTED BY IDOCK:   -0.28 KCAL/MOL
REMARK 927      BINDING AFFINITY PREDICTED BY RF-SCORE:    0.00 PKD
ROOT
HETATM    1  C   UNL     1      -6.453  12.296  69.262  1.00  0.00    -0.109 C  
HETATM    2  C   UNL     1      -7.447  12.481  68.124  1.00  0.00    -0.117 C  
HETATM    3  N   UNL     1      -6.764  12.418  66.809  1.00  0.00    -0.421 NA 
HETATM    4  H1  UNL     1      -7.430  12.542  66.047  1.00  0.00     0.000 HD 
HETATM    5  H2  UNL     1      -6.228  11.558  66.705  1.00  0.00     0.000 HD 
ENDROOT
BRANCH   2   6
HETATM    6  C   UNL     1      -8.585  11.437  68.186  1.00  0.00    -0.153 C  
HETATM    7  O   UNL     1      -9.764  11.731  68.352  1.00  0.00    -0.194 OA 
HETATM    8  N   UNL     1      -8.090  10.153  67.997  1.00  0.00    -0.111 N  
HETATM    9  H   UNL     1      -7.099  10.020  67.797  1.00  0.00     0.000 HD 
BRANCH   8  10
HETATM   10  C   UNL     1      -8.939   9.030  68.075  1.00  0.00    -0.132 A  
HETATM   11  C   UNL     1      -9.181   8.406  69.314  1.00  0.00    -0.154 A  
HETATM   12  C   UNL     1      -8.493   8.790  70.596  1.00  0.00    -0.193 C  
HETATM   13  C   UNL     1     -10.154   7.391  69.379  1.00  0.00    -0.185 A  
HETATM   14  C   UNL     1     -10.851   6.994  68.244  1.00  0.00    -0.198 A  
HETATM   15  C   UNL     1     -10.570   7.581  67.014  1.00  0.00    -0.409 A  
HETATM   16  C   UNL     1      -9.613   8.601  66.913  1.00  0.00    -0.254 A  
HETATM   17  C   UNL     1      -9.235   9.120  65.552  1.00  0.00    -0.287 C  
ENDBRANCH   8  10
ENDBRANCH   2   6
TORSDOF 2
ENDMDL
MODEL      198
REMARK 921   NORMALIZED FREE ENERGY PREDICTED BY IDOCK:   -2.62 KCAL/MOL
REMARK 922        TOTAL FREE ENERGY PREDICTED BY IDOCK:   -3.19 KCAL/MOL
REMARK 923 INTER-LIGAND FREE ENERGY PREDICTED BY IDOCK:   -2.96 KCAL/MOL
REMARK 924 INTRA-LIGAND FREE ENERGY PREDICTED BY IDOCK:   -0.23 KCAL/MOL
REMARK 927      BINDING AFFINITY PREDICTED BY RF-SCORE:    0.00 PKD
ROOT
HETATM    1  C   UNL     1     -10.159   3.826  72.536  1.00  0.00    -0.235 C  
HETATM    2  C   UNL     1     -11.006   5.088  72.453  1.00  0.00    -0.132 C  
HETATM    3  N   UNL     1     -11.100   5.750  73.777  1.00  0.00    -0.387 NA 
HETATM    4  H1  UNL     1     -11.667   6.596  73.722  1.00  0.00     0.000 HD 
HETATM    5  H2  UNL     1     -10.178   5.939  74.169  1.00  0.00     0.000 HD 
ENDROOT
BRANCH   2   6
HETATM    6  C   UNL     1     -10.455   6.076  71.400  1.00  0.00    -0.231 C  
HETATM    7  O   UNL     1     -10.361   5.809  70.206  1.00  0.00    -0.212 OA 
HETATM    8  N   UNL     1     -10.123   7.291  71.985  1.00  0.00    -0.184 N  
HETATM    9  H   UNL     1     -10.304   7.437  72.978  1.00  0.00     0.000 HD 
BRANCH   8  10
HETATM   10  C   UNL     1      -9.541   8.327  71.226  1.00  0.00    -0.171 A  
HETATM   11  C   UNL     1      -8.148   8.362  71.020  1.00  0.00    -0.132 A  
HETATM   12  C   UNL     1      -7.181   7.405  71.660  1.00  0.00    -0.071 C  
HETATM   13  C   UNL     1      -7.623   9.316  70.128  1.00  0.00    -0.111 A  
HETATM   14  C   UNL     1      -8.453  10.221  69.477  1.00  0.00    -0.156 A  
HETATM   15  C   UNL     1      -9.822  10.213  69.726  1.00  0.00    -0.245 A  
HETATM   16  C   UNL     1     -10.382   9.271  70.601  1.00  0.00    -0.326 A  
HETATM   17  C   UNL     1     -11.841   9.373  70.953  1.00  0.00    -0.365 C  
ENDBRANCH   8  10
ENDBRANCH   2   6
TORSDOF 2
ENDMDL
MODEL      199
REMARK 921   NORMALIZED FREE ENERGY PREDICTED BY IDOCK:   -2.60 KCAL/MOL
REMARK 922        TOTAL FREE ENERGY PREDICTED BY IDOCK:   -3.17 KCAL/MOL
REMARK 923 INTER-LIGAND FREE ENERGY PREDICTED BY IDOCK:   -2.94 KCAL/MOL
REMARK 924 INTRA-LIGAND FREE ENERGY PREDICTED BY IDOCK:   -0.23 KCAL/MOL
REMARK 927      BINDING AFFINITY PREDICTED BY RF-SCORE:    0.00 PKD
ROOT
HETATM    1  C   UNL     1      -6.162  11.919  68.062  1.00  0.00    -0.055 C  
HETATM    2  C   UNL     1      -6.345  13.407  68.325  1.00  0.00    -0.102 C  
HETATM    3  N   UNL     1      -5.587  14.216  67.341  1.00  0.00    -0.310 NA 
HETATM    4  H1  UNL     1      -5.710  15.213  67.517  1.00  0.00     0.000 HD 
HETATM    5  H2  UNL     1      -5.832  13.970  66.382  1.00  0.00     0.000 HD 
ENDROOT
BRANCH   2   6
HETATM    6  C   UNL     1      -7.837  13.808  68.310  1.00  0.00    -0.144 C  
HETATM    7  O   UNL     1      -8.330  14.611  69.096  1.00  0.00    -0.139 OA 
HETATM    8  N   UNL     1      -8.513  13.167  67.280  1.00  0.00    -0.197 N  
HETATM    9  H   UNL     1      -7.996  12.569  66.636  1.00  0.00     0.000 HD 
BRANCH   8  10
HETATM   10  C   UNL     1      -9.903  13.333  67.110  1.00  0.00    -0.237 A  
HETATM   11  C   UNL     1     -10.404  14.411  66.354  1.00  0.00    -0.289 A  
HETATM   12  C   UNL     1      -9.546  15.504  65.780  1.00  0.00    -0.367 C  
HETATM   13  C   UNL     1     -11.783  14.454  66.074  1.00  0.00    -0.378 A  
HETATM   14  C   UNL     1     -12.641  13.468  66.548  1.00  0.00    -0.181 A  
HETATM   15  C   UNL     1     -12.145  12.435  67.337  1.00  0.00    -0.075 A  
HETATM   16  C   UNL     1     -10.776  12.354  67.630  1.00  0.00    -0.248 A  
HETATM   17  C   UNL     1     -10.291  11.306  68.593  1.00  0.00    -0.217 C  
ENDBRANCH   8  10
ENDBRANCH   2   6
TORSDOF 2
ENDMDL
MODEL      200
REMARK 921   NORMALIZED FREE ENERGY PREDICTED BY IDOCK:   -2.60 KCAL/MOL
REMARK 922        TOTAL FREE ENERGY PREDICTED BY IDOCK:   -3.16 KCAL/MOL
REMARK 923 INTER-LIGAND FREE ENERGY PREDICTED BY IDOCK:   -2.99 KCAL/MOL
REMARK 924 INTRA-LIGAND FREE ENERGY PREDICTED BY IDOCK:   -0.18 KCAL/MOL
REMARK 927      BINDING AFFINITY PREDICTED BY RF-SCORE:    0.00 PKD
ROOT
HETATM    1  C   UNL     1      -6.171   3.506  72.592  1.00  0.00    -0.009 C  
HETATM    2  C   UNL     1      -7.595   3.428  72.058  1.00  0.00    -0.057 C  
HETATM    3  N   UNL     1      -8.465   2.662  72.981  1.00  0.00    -0.070 NA 
HETATM    4  H1  UNL     1      -9.419   2.610  72.624  1.00  0.00     0.000 HD 
HETATM    5  H2  UNL     1      -8.438   3.042  73.927  1.00  0.00     0.000 HD 
ENDROOT
BRANCH   2   6
HETATM    6  C   UNL     1      -8.186   4.834  71.808  1.00  0.00    -0.109 C  
HETATM    7  O   UNL     1      -7.512   5.802  71.471  1.00  0.00    -0.088 OA 
HETATM    8  N   UNL     1      -9.564   4.831  71.984  1.00  0.00    -0.144 N  
HETATM    9  H   UNL     1     -10.042   3.955  72.198  1.00  0.00     0.000 HD 
BRANCH   8  10
HETATM   10  C   UNL     1     -10.313   6.020  71.869  1.00  0.00    -0.209 A  
HETATM   11  C   UNL     1     -10.883   6.385  70.633  1.00  0.00    -0.331 A  
HETATM   12  C   UNL     1     -10.657   5.635  69.350  1.00  0.00    -0.374 C  
HETATM   13  C   UNL     1     -11.753   7.491  70.594  1.00  0.00    -0.240 A  
HETATM   14  C   UNL     1     -12.033   8.224  71.741  1.00  0.00    -0.364 A  
HETATM   15  C   UNL     1     -11.426   7.886  72.947  1.00  0.00    -0.357 A  
HETATM   16  C   UNL     1     -10.560   6.785  73.027  1.00  0.00    -0.295 A  
HETATM   17  C   UNL     1      -9.816   6.528  74.308  1.00  0.00    -0.337 C  
ENDBRANCH   8  10
ENDBRANCH   2   6
TORSDOF 2
ENDMDL
MODEL      201
REMARK 921   NORMALIZED FREE ENERGY PREDICTED BY IDOCK:   -2.59 KCAL/MOL
REMARK 922        TOTAL FREE ENERGY PREDICTED BY IDOCK:   -3.15 KCAL/MOL
REMARK 923 INTER-LIGAND FREE ENERGY PREDICTED BY IDOCK:   -2.93 KCAL/MOL
REMARK 924 INTRA-LIGAND FREE ENERGY PREDICTED BY IDOCK:   -0.23 KCAL/MOL
REMARK 927      BINDING AFFINITY PREDICTED BY RF-SCORE:    0.00 PKD
ROOT
HETATM    1  C   UNL     1      -6.654   1.936  69.990  1.00  0.00    -0.029 C  
HETATM    2  C   UNL     1      -7.296   2.087  71.362  1.00  0.00    -0.032 C  
HETATM    3  N   UNL     1      -6.446   2.907  72.258  1.00  0.00    -0.014 NA 
HETATM    4  H1  UNL     1      -6.877   3.009  73.177  1.00  0.00     0.000 HD 
HETATM    5  H2  UNL     1      -6.227   3.812  71.843  1.00  0.00     0.000 HD 
ENDROOT
BRANCH   2   6
HETATM    6  C   UNL     1      -8.713   2.696  71.264  1.00  0.00    -0.066 C  
HETATM    7  O   UNL     1      -9.737   2.023  71.204  1.00  0.00    -0.141 OA 
HETATM    8  N   UNL     1      -8.659   4.084  71.287  1.00  0.00    -0.087 N  
HETATM    9  H   UNL     1      -7.760   4.550  71.408  1.00  0.00     0.000 HD 
BRANCH   8  10
HETATM   10  C   UNL     1      -9.828   4.858  71.146  1.00  0.00    -0.192 A  
HETATM   11  C   UNL     1     -10.558   5.259  72.282  1.00  0.00    -0.280 A  
HETATM   12  C   UNL     1     -10.237   4.818  73.684  1.00  0.00    -0.224 C  
HETATM   13  C   UNL     1     -11.626   6.160  72.114  1.00  0.00    -0.369 A  
HETATM   14  C   UNL     1     -11.972   6.633  70.854  1.00  0.00    -0.413 A  
HETATM   15  C   UNL     1     -11.278   6.193  69.731  1.00  0.00    -0.494 A  
HETATM   16  C   UNL     1     -10.203   5.302  69.861  1.00  0.00    -0.364 A  
HETATM   17  C   UNL     1      -9.562   4.740  68.621  1.00  0.00    -0.223 C  
ENDBRANCH   8  10
ENDBRANCH   2   6
TORSDOF 2
ENDMDL
MODEL      202
REMARK 921   NORMALIZED FREE ENERGY PREDICTED BY IDOCK:   -2.55 KCAL/MOL
REMARK 922        TOTAL FREE ENERGY PREDICTED BY IDOCK:   -3.11 KCAL/MOL
REMARK 923 INTER-LIGAND FREE ENERGY PREDICTED BY IDOCK:   -2.89 KCAL/MOL
REMARK 924 INTRA-LIGAND FREE ENERGY PREDICTED BY IDOCK:   -0.22 KCAL/MOL
REMARK 927      BINDING AFFINITY PREDICTED BY RF-SCORE:    0.00 PKD
ROOT
HETATM    1  C   UNL     1      -9.479   9.323  70.215  1.00  0.00    -0.277 C  
HETATM    2  C   UNL     1      -8.123   8.658  70.399  1.00  0.00    -0.107 C  
HETATM    3  N   UNL     1      -7.141   9.607  70.976  1.00  0.00    -0.326 NA 
HETATM    4  H1  UNL     1      -6.232   9.161  71.100  1.00  0.00     0.000 HD 
HETATM    5  H2  UNL     1      -7.481  10.017  71.846  1.00  0.00     0.000 HD 
ENDROOT
BRANCH   2   6
HETATM    6  C   UNL     1      -8.224   7.392  71.279  1.00  0.00    -0.105 C  
HETATM    7  O   UNL     1      -7.307   6.983  71.984  1.00  0.00    -0.080 OA 
HETATM    8  N   UNL     1      -9.486   6.820  71.183  1.00  0.00    -0.163 N  
HETATM    9  H   UNL     1     -10.203   7.278  70.620  1.00  0.00     0.000 HD 
BRANCH   8  10
HETATM   10  C   UNL     1      -9.791   5.618  71.852  1.00  0.00    -0.166 A  
HETATM   11  C   UNL     1     -10.373   5.646  73.135  1.00  0.00    -0.227 A  
HETATM   12  C   UNL     1     -10.605   6.905  73.925  1.00  0.00    -0.260 C  
HETATM   13  C   UNL     1     -10.808   4.434  73.704  1.00  0.00    -0.367 A  
HETATM   14  C   UNL     1     -10.652   3.229  73.028  1.00  0.00    -0.241 A  
HETATM   15  C   UNL     1     -10.030   3.205  71.784  1.00  0.00    -0.192 A  
HETATM   16  C   UNL     1      -9.592   4.394  71.182  1.00  0.00    -0.245 A  
HETATM   17  C   UNL     1      -8.804   4.321  69.903  1.00  0.00    -0.130 C  
ENDBRANCH   8  10
ENDBRANCH   2   6
TORSDOF 2
ENDMDL
MODEL      203
REMARK 921   NORMALIZED FREE ENERGY PREDICTED BY IDOCK:   -2.53 KCAL/MOL
REMARK 922        TOTAL FREE ENERGY PREDICTED BY IDOCK:   -3.09 KCAL/MOL
REMARK 923 INTER-LIGAND FREE ENERGY PREDICTED BY IDOCK:   -2.84 KCAL/MOL
REMARK 924 INTRA-LIGAND FREE ENERGY PREDICTED BY IDOCK:   -0.24 KCAL/MOL
REMARK 927      BINDING AFFINITY PREDICTED BY RF-SCORE:    0.00 PKD
ROOT
HETATM    1  C   UNL     1     -10.877  10.358  69.221  1.00  0.00    -0.280 C  
HETATM    2  C   UNL     1      -9.437  10.025  68.855  1.00  0.00    -0.172 C  
HETATM    3  N   UNL     1      -8.501  11.014  69.440  1.00  0.00    -0.379 NA 
HETATM    4  H1  UNL     1      -7.536  10.791  69.196  1.00  0.00     0.000 HD 
HETATM    5  H2  UNL     1      -8.624  11.099  70.449  1.00  0.00     0.000 HD 
ENDROOT
BRANCH   2   6
HETATM    6  C   UNL     1      -9.053   8.596  69.301  1.00  0.00    -0.149 C  
HETATM    7  O   UNL     1      -8.385   7.829  68.614  1.00  0.00    -0.126 OA 
HETATM    8  N   UNL     1      -9.533   8.328  70.577  1.00  0.00    -0.165 N  
HETATM    9  H   UNL     1     -10.021   9.060  71.094  1.00  0.00     0.000 HD 
BRANCH   8  10
HETATM   10  C   UNL     1      -9.357   7.060  71.167  1.00  0.00    -0.158 A  
HETATM   11  C   UNL     1      -8.212   6.789  71.942  1.00  0.00    -0.102 A  
HETATM   12  C   UNL     1      -7.064   7.748  72.108  1.00  0.00    -0.072 C  
HETATM   13  C   UNL     1      -8.146   5.571  72.644  1.00  0.00    -0.106 A  
HETATM   14  C   UNL     1      -9.176   4.641  72.562  1.00  0.00    -0.147 A  
HETATM   15  C   UNL     1     -10.280   4.895  71.754  1.00  0.00    -0.268 A  
HETATM   16  C   UNL     1     -10.384   6.102  71.047  1.00  0.00    -0.260 A  
HETATM   17  C   UNL     1     -11.520   6.289  70.078  1.00  0.00    -0.460 C  
ENDBRANCH   8  10
ENDBRANCH   2   6
TORSDOF 2
ENDMDL
MODEL      204
REMARK 921   NORMALIZED FREE ENERGY PREDICTED BY IDOCK:   -2.51 KCAL/MOL
REMARK 922        TOTAL FREE ENERGY PREDICTED BY IDOCK:   -3.07 KCAL/MOL
REMARK 923 INTER-LIGAND FREE ENERGY PREDICTED BY IDOCK:   -2.86 KCAL/MOL
REMARK 924 INTRA-LIGAND FREE ENERGY PREDICTED BY IDOCK:   -0.20 KCAL/MOL
REMARK 927      BINDING AFFINITY PREDICTED BY RF-SCORE:    0.00 PKD
ROOT
HETATM    1  C   UNL     1      -6.246  12.410  69.359  1.00  0.00    -0.114 C  
HETATM    2  C   UNL     1      -7.553  12.062  68.661  1.00  0.00    -0.112 C  
HETATM    3  N   UNL     1      -7.461  12.322  67.204  1.00  0.00    -0.272 NA 
HETATM    4  H1  UNL     1      -8.336  12.088  66.736  1.00  0.00     0.000 HD 
HETATM    5  H2  UNL     1      -6.668  11.836  66.785  1.00  0.00     0.000 HD 
ENDROOT
BRANCH   2   6
HETATM    6  C   UNL     1      -7.962  10.594  68.918  1.00  0.00    -0.132 C  
HETATM    7  O   UNL     1      -7.218   9.764  69.431  1.00  0.00    -0.064 OA 
HETATM    8  N   UNL     1      -9.275  10.368  68.523  1.00  0.00    -0.139 N  
HETATM    9  H   UNL     1      -9.833  11.145  68.169  1.00  0.00     0.000 HD 
BRANCH   8  10
HETATM   10  C   UNL     1      -9.846   9.082  68.605  1.00  0.00    -0.165 A  
HETATM   11  C   UNL     1      -9.712   8.175  67.536  1.00  0.00    -0.207 A  
HETATM   12  C   UNL     1      -9.076   8.519  66.217  1.00  0.00    -0.232 C  
HETATM   13  C   UNL     1     -10.156   6.851  67.716  1.00  0.00    -0.199 A  
HETATM   14  C   UNL     1     -10.734   6.447  68.914  1.00  0.00    -0.339 A  
HETATM   15  C   UNL     1     -10.909   7.363  69.946  1.00  0.00    -0.259 A  
HETATM   16  C   UNL     1     -10.471   8.688  69.806  1.00  0.00    -0.220 A  
HETATM   17  C   UNL     1     -10.795   9.686  70.884  1.00  0.00    -0.409 C  
ENDBRANCH   8  10
ENDBRANCH   2   6
TORSDOF 2
ENDMDL
MODEL      205
REMARK 921   NORMALIZED FREE ENERGY PREDICTED BY IDOCK:   -2.50 KCAL/MOL
REMARK 922        TOTAL FREE ENERGY PREDICTED BY IDOCK:   -3.06 KCAL/MOL
REMARK 923 INTER-LIGAND FREE ENERGY PREDICTED BY IDOCK:   -2.86 KCAL/MOL
REMARK 924 INTRA-LIGAND FREE ENERGY PREDICTED BY IDOCK:   -0.20 KCAL/MOL
REMARK 927      BINDING AFFINITY PREDICTED BY RF-SCORE:    0.00 PKD
ROOT
HETATM    1  C   UNL     1      -7.571   3.556  71.135  1.00  0.00    -0.044 C  
HETATM    2  C   UNL     1      -8.379   4.403  72.108  1.00  0.00    -0.108 C  
HETATM    3  N   UNL     1      -7.487   5.174  73.006  1.00  0.00    -0.094 NA 
HETATM    4  H1  UNL     1      -8.028   5.743  73.658  1.00  0.00     0.000 HD 
HETATM    5  H2  UNL     1      -6.819   5.738  72.480  1.00  0.00     0.000 HD 
ENDROOT
BRANCH   2   6
HETATM    6  C   UNL     1      -9.345   5.356  71.367  1.00  0.00    -0.147 C  
HETATM    7  O   UNL     1     -10.326   4.971  70.738  1.00  0.00    -0.235 OA 
HETATM    8  N   UNL     1      -8.967   6.681  71.543  1.00  0.00    -0.139 N  
HETATM    9  H   UNL     1      -8.172   6.901  72.142  1.00  0.00     0.000 HD 
BRANCH   8  10
HETATM   10  C   UNL     1      -9.666   7.726  70.905  1.00  0.00    -0.168 A  
HETATM   11  C   UNL     1     -10.726   8.379  71.565  1.00  0.00    -0.313 A  
HETATM   12  C   UNL     1     -11.263   7.963  72.906  1.00  0.00    -0.429 C  
HETATM   13  C   UNL     1     -11.294   9.518  70.963  1.00  0.00    -0.423 A  
HETATM   14  C   UNL     1     -10.838   9.981  69.734  1.00  0.00    -0.308 A  
HETATM   15  C   UNL     1      -9.825   9.300  69.066  1.00  0.00    -0.168 A  
HETATM   16  C   UNL     1      -9.229   8.167  69.639  1.00  0.00    -0.155 A  
HETATM   17  C   UNL     1      -8.235   7.375  68.835  1.00  0.00    -0.129 C  
ENDBRANCH   8  10
ENDBRANCH   2   6
TORSDOF 2
ENDMDL
MODEL      206
REMARK 921   NORMALIZED FREE ENERGY PREDICTED BY IDOCK:   -2.48 KCAL/MOL
REMARK 922        TOTAL FREE ENERGY PREDICTED BY IDOCK:   -3.03 KCAL/MOL
REMARK 923 INTER-LIGAND FREE ENERGY PREDICTED BY IDOCK:   -2.76 KCAL/MOL
REMARK 924 INTRA-LIGAND FREE ENERGY PREDICTED BY IDOCK:   -0.28 KCAL/MOL
REMARK 927      BINDING AFFINITY PREDICTED BY RF-SCORE:    0.00 PKD
ROOT
HETATM    1  C   UNL     1      -7.810  15.600  69.673  1.00  0.00    -0.089 C  
HETATM    2  C   UNL     1      -7.660  15.316  68.185  1.00  0.00    -0.115 C  
HETATM    3  N   UNL     1      -6.256  14.979  67.850  1.00  0.00    -0.149 NA 
HETATM    4  H1  UNL     1      -6.156  14.788  66.853  1.00  0.00     0.000 HD 
HETATM    5  H2  UNL     1      -5.908  14.207  68.418  1.00  0.00     0.000 HD 
ENDROOT
BRANCH   2   6
HETATM    6  C   UNL     1      -8.607  14.185  67.724  1.00  0.00    -0.184 C  
HETATM    7  O   UNL     1      -9.188  14.187  66.643  1.00  0.00    -0.265 OA 
HETATM    8  N   UNL     1      -8.673  13.174  68.674  1.00  0.00    -0.370 N  
HETATM    9  H   UNL     1      -8.096  13.235  69.513  1.00  0.00     0.000 HD 
BRANCH   8  10
HETATM   10  C   UNL     1      -9.526  12.066  68.496  1.00  0.00    -0.133 A  
HETATM   11  C   UNL     1     -10.852  12.105  68.971  1.00  0.00    -0.208 A  
HETATM   12  C   UNL     1     -11.421  13.238  69.779  1.00  0.00    -0.228 C  
HETATM   13  C   UNL     1     -11.718  11.047  68.636  1.00  0.00    -0.367 A  
HETATM   14  C   UNL     1     -11.276   9.973  67.872  1.00  0.00    -0.169 A  
HETATM   15  C   UNL     1      -9.951   9.919  67.451  1.00  0.00    -0.235 A  
HETATM   16  C   UNL     1      -9.061  10.958  67.758  1.00  0.00    -0.149 A  
HETATM   17  C   UNL     1      -7.606  10.807  67.406  1.00  0.00    -0.099 C  
ENDBRANCH   8  10
ENDBRANCH   2   6
TORSDOF 2
ENDMDL
MODEL      207
REMARK 921   NORMALIZED FREE ENERGY PREDICTED BY IDOCK:   -2.47 KCAL/MOL
REMARK 922        TOTAL FREE ENERGY PREDICTED BY IDOCK:   -3.02 KCAL/MOL
REMARK 923 INTER-LIGAND FREE ENERGY PREDICTED BY IDOCK:   -2.82 KCAL/MOL
REMARK 924 INTRA-LIGAND FREE ENERGY PREDICTED BY IDOCK:   -0.20 KCAL/MOL
REMARK 927      BINDING AFFINITY PREDICTED BY RF-SCORE:    0.00 PKD
ROOT
HETATM    1  C   UNL     1      -6.400  11.219  68.923  1.00  0.00    -0.055 C  
HETATM    2  C   UNL     1      -7.116  10.270  67.972  1.00  0.00    -0.083 C  
HETATM    3  N   UNL     1      -6.251   9.118  67.621  1.00  0.00    -0.058 NA 
HETATM    4  H1  UNL     1      -6.731   8.482  66.985  1.00  0.00     0.000 HD 
HETATM    5  H2  UNL     1      -5.912   8.635  68.453  1.00  0.00     0.000 HD 
ENDROOT
BRANCH   2   6
HETATM    6  C   UNL     1      -8.454   9.772  68.565  1.00  0.00    -0.115 C  
HETATM    7  O   UNL     1      -9.450  10.479  68.675  1.00  0.00    -0.156 OA 
HETATM    8  N   UNL     1      -8.373   8.430  68.915  1.00  0.00    -0.119 N  
HETATM    9  H   UNL     1      -7.517   7.911  68.720  1.00  0.00     0.000 HD 
BRANCH   8  10
HETATM   10  C   UNL     1      -9.456   7.775  69.535  1.00  0.00    -0.160 A  
HETATM   11  C   UNL     1     -10.426   7.111  68.757  1.00  0.00    -0.217 A  
HETATM   12  C   UNL     1     -10.458   7.138  67.254  1.00  0.00    -0.372 C  
HETATM   13  C   UNL     1     -11.401   6.337  69.414  1.00  0.00    -0.448 A  
HETATM   14  C   UNL     1     -11.425   6.242  70.800  1.00  0.00    -0.383 A  
HETATM   15  C   UNL     1     -10.495   6.942  71.562  1.00  0.00    -0.231 A  
HETATM   16  C   UNL     1      -9.503   7.716  70.943  1.00  0.00    -0.166 A  
HETATM   17  C   UNL     1      -8.599   8.567  71.792  1.00  0.00    -0.254 C  
ENDBRANCH   8  10
ENDBRANCH   2   6
TORSDOF 2
ENDMDL
MODEL      208
REMARK 921   NORMALIZED FREE ENERGY PREDICTED BY IDOCK:   -2.47 KCAL/MOL
REMARK 922        TOTAL FREE ENERGY PREDICTED BY IDOCK:   -3.02 KCAL/MOL
REMARK 923 INTER-LIGAND FREE ENERGY PREDICTED BY IDOCK:   -2.77 KCAL/MOL
REMARK 924 INTRA-LIGAND FREE ENERGY PREDICTED BY IDOCK:   -0.25 KCAL/MOL
REMARK 927      BINDING AFFINITY PREDICTED BY RF-SCORE:    0.00 PKD
ROOT
HETATM    1  C   UNL     1      -8.524   4.512  70.232  1.00  0.00    -0.092 C  
HETATM    2  C   UNL     1      -7.595   5.282  69.303  1.00  0.00    -0.073 C  
HETATM    3  N   UNL     1      -7.506   4.624  67.978  1.00  0.00    -0.073 NA 
HETATM    4  H1  UNL     1      -6.885   5.140  67.356  1.00  0.00     0.000 HD 
HETATM    5  H2  UNL     1      -8.428   4.488  67.563  1.00  0.00     0.000 HD 
ENDROOT
BRANCH   2   6
HETATM    6  C   UNL     1      -8.044   6.752  69.141  1.00  0.00    -0.120 C  
HETATM    7  O   UNL     1      -7.297   7.650  68.763  1.00  0.00    -0.086 OA 
HETATM    8  N   UNL     1      -9.391   6.897  69.445  1.00  0.00    -0.146 N  
HETATM    9  H   UNL     1      -9.943   6.073  69.684  1.00  0.00     0.000 HD 
BRANCH   8  10
HETATM   10  C   UNL     1     -10.007   8.164  69.427  1.00  0.00    -0.188 A  
HETATM   11  C   UNL     1     -10.099   8.928  70.608  1.00  0.00    -0.262 A  
HETATM   12  C   UNL     1      -9.671   8.434  71.962  1.00  0.00    -0.353 C  
HETATM   13  C   UNL     1     -10.575  10.250  70.520  1.00  0.00    -0.136 A  
HETATM   14  C   UNL     1     -10.968  10.790  69.301  1.00  0.00    -0.292 A  
HETATM   15  C   UNL     1     -10.922  10.011  68.148  1.00  0.00    -0.289 A  
HETATM   16  C   UNL     1     -10.445   8.693  68.195  1.00  0.00    -0.241 A  
HETATM   17  C   UNL     1     -10.535   7.836  66.963  1.00  0.00    -0.419 C  
ENDBRANCH   8  10
ENDBRANCH   2   6
TORSDOF 2
ENDMDL
MODEL      209
REMARK 921   NORMALIZED FREE ENERGY PREDICTED BY IDOCK:   -2.46 KCAL/MOL
REMARK 922        TOTAL FREE ENERGY PREDICTED BY IDOCK:   -3.01 KCAL/MOL
REMARK 923 INTER-LIGAND FREE ENERGY PREDICTED BY IDOCK:   -2.79 KCAL/MOL
REMARK 924 INTRA-LIGAND FREE ENERGY PREDICTED BY IDOCK:   -0.21 KCAL/MOL
REMARK 927      BINDING AFFINITY PREDICTED BY RF-SCORE:    0.00 PKD
ROOT
HETATM    1  C   UNL     1     -11.008   8.327  72.464  1.00  0.00    -0.424 C  
HETATM    2  C   UNL     1      -9.964   9.178  71.755  1.00  0.00    -0.187 C  
HETATM    3  N   UNL     1      -8.602   8.866  72.249  1.00  0.00    -0.378 NA 
HETATM    4  H1  UNL     1      -7.902   9.437  71.774  1.00  0.00     0.000 HD 
HETATM    5  H2  UNL     1      -8.392   7.871  72.172  1.00  0.00     0.000 HD 
ENDROOT
BRANCH   2   6
HETATM    6  C   UNL     1     -10.030   9.000  70.221  1.00  0.00    -0.195 C  
HETATM    7  O   UNL     1     -10.693   9.722  69.484  1.00  0.00    -0.213 OA 
HETATM    8  N   UNL     1      -9.220   7.950  69.808  1.00  0.00    -0.150 N  
HETATM    9  H   UNL     1      -8.653   7.453  70.495  1.00  0.00     0.000 HD 
BRANCH   8  10
HETATM   10  C   UNL     1      -9.170   7.561  68.454  1.00  0.00    -0.139 A  
HETATM   11  C   UNL     1      -8.170   8.073  67.604  1.00  0.00    -0.124 A  
HETATM   12  C   UNL     1      -7.177   9.126  68.014  1.00  0.00    -0.079 C  
HETATM   13  C   UNL     1      -8.054   7.543  66.305  1.00  0.00    -0.113 A  
HETATM   14  C   UNL     1      -8.918   6.551  65.857  1.00  0.00    -0.103 A  
HETATM   15  C   UNL     1      -9.935   6.088  66.686  1.00  0.00    -0.211 A  
HETATM   16  C   UNL     1     -10.075   6.586  67.989  1.00  0.00    -0.168 A  
HETATM   17  C   UNL     1     -11.263   6.166  68.811  1.00  0.00    -0.307 C  
ENDBRANCH   8  10
ENDBRANCH   2   6
TORSDOF 2
ENDMDL
MODEL      210
REMARK 921   NORMALIZED FREE ENERGY PREDICTED BY IDOCK:   -2.45 KCAL/MOL
REMARK 922        TOTAL FREE ENERGY PREDICTED BY IDOCK:   -3.00 KCAL/MOL
REMARK 923 INTER-LIGAND FREE ENERGY PREDICTED BY IDOCK:   -2.80 KCAL/MOL
REMARK 924 INTRA-LIGAND FREE ENERGY PREDICTED BY IDOCK:   -0.20 KCAL/MOL
REMARK 927      BINDING AFFINITY PREDICTED BY RF-SCORE:    0.00 PKD
ROOT
HETATM    1  C   UNL     1      -9.369  10.287  62.384  1.00  0.00    -0.301 C  
HETATM    2  C   UNL     1      -9.413  11.309  63.512  1.00  0.00    -0.256 C  
HETATM    3  N   UNL     1     -10.544  12.249  63.329  1.00  0.00    -0.557 NA 
HETATM    4  H1  UNL     1     -10.575  12.934  64.085  1.00  0.00     0.000 HD 
HETATM    5  H2  UNL     1     -11.432  11.756  63.232  1.00  0.00     0.000 HD 
ENDROOT
BRANCH   2   6
HETATM    6  C   UNL     1      -9.502  10.627  64.896  1.00  0.00    -0.243 C  
HETATM    7  O   UNL     1     -10.396   9.847  65.209  1.00  0.00    -0.186 OA 
HETATM    8  N   UNL     1      -8.429  10.991  65.698  1.00  0.00    -0.309 N  
HETATM    9  H   UNL     1      -7.699  11.594  65.319  1.00  0.00     0.000 HD 
BRANCH   8  10
HETATM   10  C   UNL     1      -8.333  10.538  67.030  1.00  0.00    -0.128 A  
HETATM   11  C   UNL     1      -8.988  11.232  68.066  1.00  0.00    -0.156 A  
HETATM   12  C   UNL     1      -9.724  12.530  67.874  1.00  0.00    -0.205 C  
HETATM   13  C   UNL     1      -9.001  10.663  69.354  1.00  0.00    -0.049 A  
HETATM   14  C   UNL     1      -8.365   9.454  69.610  1.00  0.00    -0.147 A  
HETATM   15  C   UNL     1      -7.677   8.802  68.592  1.00  0.00    -0.098 A  
HETATM   16  C   UNL     1      -7.650   9.333  67.294  1.00  0.00    -0.091 A  
HETATM   17  C   UNL     1      -6.787   8.678  66.251  1.00  0.00    -0.070 C  
ENDBRANCH   8  10
ENDBRANCH   2   6
TORSDOF 2
ENDMDL
MODEL      211
REMARK 921   NORMALIZED FREE ENERGY PREDICTED BY IDOCK:   -2.45 KCAL/MOL
REMARK 922        TOTAL FREE ENERGY PREDICTED BY IDOCK:   -2.99 KCAL/MOL
REMARK 923 INTER-LIGAND FREE ENERGY PREDICTED BY IDOCK:   -2.75 KCAL/MOL
REMARK 924 INTRA-LIGAND FREE ENERGY PREDICTED BY IDOCK:   -0.25 KCAL/MOL
REMARK 927      BINDING AFFINITY PREDICTED BY RF-SCORE:    0.00 PKD
ROOT
HETATM    1  C   UNL     1      -9.187   6.952  70.469  1.00  0.00    -0.156 C  
HETATM    2  C   UNL     1     -10.344   7.669  69.788  1.00  0.00    -0.223 C  
HETATM    3  N   UNL     1     -11.601   7.491  70.553  1.00  0.00    -0.420 NA 
HETATM    4  H1  UNL     1     -12.377   7.971  70.097  1.00  0.00     0.000 HD 
HETATM    5  H2  UNL     1     -11.496   7.783  71.524  1.00  0.00     0.000 HD 
ENDROOT
BRANCH   2   6
HETATM    6  C   UNL     1     -10.046   9.173  69.593  1.00  0.00    -0.198 C  
HETATM    7  O   UNL     1     -10.566  10.059  70.265  1.00  0.00    -0.275 OA 
HETATM    8  N   UNL     1      -9.101   9.366  68.593  1.00  0.00    -0.131 N  
HETATM    9  H   UNL     1      -8.678   8.558  68.139  1.00  0.00     0.000 HD 
BRANCH   8  10
HETATM   10  C   UNL     1      -8.719  10.664  68.198  1.00  0.00    -0.130 A  
HETATM   11  C   UNL     1      -9.480  11.372  67.247  1.00  0.00    -0.176 A  
HETATM   12  C   UNL     1     -10.655  10.789  66.510  1.00  0.00    -0.279 C  
HETATM   13  C   UNL     1      -9.161  12.719  66.996  1.00  0.00    -0.220 A  
HETATM   14  C   UNL     1      -8.104  13.339  67.653  1.00  0.00    -0.174 A  
HETATM   15  C   UNL     1      -7.326  12.618  68.553  1.00  0.00    -0.115 A  
HETATM   16  C   UNL     1      -7.620  11.276  68.835  1.00  0.00    -0.126 A  
HETATM   17  C   UNL     1      -6.681  10.487  69.706  1.00  0.00    -0.126 C  
ENDBRANCH   8  10
ENDBRANCH   2   6
TORSDOF 2
ENDMDL
MODEL      212
REMARK 921   NORMALIZED FREE ENERGY PREDICTED BY IDOCK:   -2.44 KCAL/MOL
REMARK 922        TOTAL FREE ENERGY PREDICTED BY IDOCK:   -2.98 KCAL/MOL
REMARK 923 INTER-LIGAND FREE ENERGY PREDICTED BY IDOCK:   -2.90 KCAL/MOL
REMARK 924 INTRA-LIGAND FREE ENERGY PREDICTED BY IDOCK:   -0.08 KCAL/MOL
REMARK 927      BINDING AFFINITY PREDICTED BY RF-SCORE:    0.00 PKD
ROOT
HETATM    1  C   UNL     1      -6.605  15.855  68.682  1.00  0.00    -0.118 C  
HETATM    2  C   UNL     1      -6.930  14.771  67.664  1.00  0.00    -0.182 C  
HETATM    3  N   UNL     1      -5.771  13.869  67.463  1.00  0.00    -0.354 NA 
HETATM    4  H1  UNL     1      -5.989  13.142  66.781  1.00  0.00     0.000 HD 
HETATM    5  H2  UNL     1      -5.444  13.473  68.344  1.00  0.00     0.000 HD 
ENDROOT
BRANCH   2   6
HETATM    6  C   UNL     1      -8.176  13.955  68.079  1.00  0.00    -0.161 C  
HETATM    7  O   UNL     1      -9.096  14.418  68.745  1.00  0.00    -0.188 OA 
HETATM    8  N   UNL     1      -8.116  12.665  67.569  1.00  0.00    -0.166 N  
HETATM    9  H   UNL     1      -7.338  12.397  66.967  1.00  0.00     0.000 HD 
BRANCH   8  10
HETATM   10  C   UNL     1      -9.117  11.719  67.872  1.00  0.00    -0.181 A  
HETATM   11  C   UNL     1      -8.908  10.761  68.884  1.00  0.00    -0.154 A  
HETATM   12  C   UNL     1      -7.610  10.592  69.625  1.00  0.00    -0.134 C  
HETATM   13  C   UNL     1      -9.985   9.939  69.266  1.00  0.00    -0.217 A  
HETATM   14  C   UNL     1     -11.225  10.049  68.646  1.00  0.00    -0.175 A  
HETATM   15  C   UNL     1     -11.407  10.962  67.612  1.00  0.00    -0.345 A  
HETATM   16  C   UNL     1     -10.360  11.804  67.211  1.00  0.00    -0.231 A  
HETATM   17  C   UNL     1     -10.546  12.683  66.005  1.00  0.00    -0.294 C  
ENDBRANCH   8  10
ENDBRANCH   2   6
TORSDOF 2
ENDMDL
MODEL      213
REMARK 921   NORMALIZED FREE ENERGY PREDICTED BY IDOCK:   -2.43 KCAL/MOL
REMARK 922        TOTAL FREE ENERGY PREDICTED BY IDOCK:   -2.98 KCAL/MOL
REMARK 923 INTER-LIGAND FREE ENERGY PREDICTED BY IDOCK:   -2.83 KCAL/MOL
REMARK 924 INTRA-LIGAND FREE ENERGY PREDICTED BY IDOCK:   -0.15 KCAL/MOL
REMARK 927      BINDING AFFINITY PREDICTED BY RF-SCORE:    0.00 PKD
ROOT
HETATM    1  C   UNL     1      -9.543   3.827  69.074  1.00  0.00    -0.190 C  
HETATM    2  C   UNL     1      -8.870   5.190  68.982  1.00  0.00    -0.092 C  
HETATM    3  N   UNL     1      -7.619   5.110  68.190  1.00  0.00    -0.079 NA 
HETATM    4  H1  UNL     1      -7.168   6.022  68.128  1.00  0.00     0.000 HD 
HETATM    5  H2  UNL     1      -7.783   4.707  67.267  1.00  0.00     0.000 HD 
ENDROOT
BRANCH   2   6
HETATM    6  C   UNL     1      -9.817   6.253  68.381  1.00  0.00    -0.130 C  
HETATM    7  O   UNL     1     -10.976   6.020  68.055  1.00  0.00    -0.304 OA 
HETATM    8  N   UNL     1      -9.187   7.489  68.300  1.00  0.00    -0.139 N  
HETATM    9  H   UNL     1      -8.239   7.595  68.662  1.00  0.00     0.000 HD 
BRANCH   8  10
HETATM   10  C   UNL     1      -9.838   8.598  67.724  1.00  0.00    -0.175 A  
HETATM   11  C   UNL     1     -10.695   9.403  68.501  1.00  0.00    -0.203 A  
HETATM   12  C   UNL     1     -11.070   9.097  69.925  1.00  0.00    -0.175 C  
HETATM   13  C   UNL     1     -11.200  10.589  67.937  1.00  0.00    -0.358 A  
HETATM   14  C   UNL     1     -10.882  10.955  66.635  1.00  0.00    -0.258 A  
HETATM   15  C   UNL     1     -10.076  10.129  65.857  1.00  0.00    -0.325 A  
HETATM   16  C   UNL     1      -9.547   8.943  66.388  1.00  0.00    -0.304 A  
HETATM   17  C   UNL     1      -8.794   8.007  65.484  1.00  0.00    -0.102 C  
ENDBRANCH   8  10
ENDBRANCH   2   6
TORSDOF 2
ENDMDL
MODEL      214
REMARK 921   NORMALIZED FREE ENERGY PREDICTED BY IDOCK:   -2.42 KCAL/MOL
REMARK 922        TOTAL FREE ENERGY PREDICTED BY IDOCK:   -2.96 KCAL/MOL
REMARK 923 INTER-LIGAND FREE ENERGY PREDICTED BY IDOCK:   -2.71 KCAL/MOL
REMARK 924 INTRA-LIGAND FREE ENERGY PREDICTED BY IDOCK:   -0.26 KCAL/MOL
REMARK 927      BINDING AFFINITY PREDICTED BY RF-SCORE:    0.00 PKD
ROOT
HETATM    1  C   UNL     1     -11.545   8.484  71.638  1.00  0.00    -0.364 C  
HETATM    2  C   UNL     1     -10.316   9.227  71.132  1.00  0.00    -0.322 C  
HETATM    3  N   UNL     1      -9.116   8.865  71.923  1.00  0.00    -0.378 NA 
HETATM    4  H1  UNL     1      -8.292   9.362  71.585  1.00  0.00     0.000 HD 
HETATM    5  H2  UNL     1      -8.966   7.856  71.940  1.00  0.00     0.000 HD 
ENDROOT
BRANCH   2   6
HETATM    6  C   UNL     1     -10.067   8.961  69.631  1.00  0.00    -0.200 C  
HETATM    7  O   UNL     1     -10.573   9.626  68.732  1.00  0.00    -0.209 OA 
HETATM    8  N   UNL     1      -9.181   7.906  69.454  1.00  0.00    -0.146 N  
HETATM    9  H   UNL     1      -8.761   7.460  70.270  1.00  0.00     0.000 HD 
BRANCH   8  10
HETATM   10  C   UNL     1      -8.853   7.442  68.164  1.00  0.00    -0.127 A  
HETATM   11  C   UNL     1      -9.689   6.519  67.506  1.00  0.00    -0.141 A  
HETATM   12  C   UNL     1     -10.896   5.881  68.137  1.00  0.00    -0.323 C  
HETATM   13  C   UNL     1      -9.416   6.202  66.162  1.00  0.00    -0.100 A  
HETATM   14  C   UNL     1      -8.333   6.767  65.499  1.00  0.00    -0.143 A  
HETATM   15  C   UNL     1      -7.483   7.638  66.172  1.00  0.00    -0.083 A  
HETATM   16  C   UNL     1      -7.729   7.985  67.509  1.00  0.00    -0.106 A  
HETATM   17  C   UNL     1      -6.719   8.819  68.248  1.00  0.00    -0.065 C  
ENDBRANCH   8  10
ENDBRANCH   2   6
TORSDOF 2
ENDMDL
MODEL      215
REMARK 921   NORMALIZED FREE ENERGY PREDICTED BY IDOCK:   -2.40 KCAL/MOL
REMARK 922        TOTAL FREE ENERGY PREDICTED BY IDOCK:   -2.94 KCAL/MOL
REMARK 923 INTER-LIGAND FREE ENERGY PREDICTED BY IDOCK:   -2.73 KCAL/MOL
REMARK 924 INTRA-LIGAND FREE ENERGY PREDICTED BY IDOCK:   -0.21 KCAL/MOL
REMARK 927      BINDING AFFINITY PREDICTED BY RF-SCORE:    0.00 PKD
ROOT
HETATM    1  C   UNL     1      -6.149   8.904  69.479  1.00  0.00    -0.036 C  
HETATM    2  C   UNL     1      -7.016  10.094  69.867  1.00  0.00    -0.133 C  
HETATM    3  N   UNL     1      -6.273  11.366  69.702  1.00  0.00    -0.103 NA 
HETATM    4  H1  UNL     1      -6.853  12.163  69.962  1.00  0.00     0.000 HD 
HETATM    5  H2  UNL     1      -5.898  11.464  68.759  1.00  0.00     0.000 HD 
ENDROOT
BRANCH   2   6
HETATM    6  C   UNL     1      -8.328  10.132  69.052  1.00  0.00    -0.138 C  
HETATM    7  O   UNL     1      -9.304   9.433  69.306  1.00  0.00    -0.156 OA 
HETATM    8  N   UNL     1      -8.254  11.076  68.035  1.00  0.00    -0.119 N  
HETATM    9  H   UNL     1      -7.420  11.657  67.949  1.00  0.00     0.000 HD 
BRANCH   8  10
HETATM   10  C   UNL     1      -9.314  11.244  67.122  1.00  0.00    -0.163 A  
HETATM   11  C   UNL     1     -10.344  12.168  67.388  1.00  0.00    -0.220 A  
HETATM   12  C   UNL     1     -10.465  12.943  68.672  1.00  0.00    -0.231 C  
HETATM   13  C   UNL     1     -11.296  12.423  66.384  1.00  0.00    -0.392 A  
HETATM   14  C   UNL     1     -11.241  11.765  65.161  1.00  0.00    -0.311 A  
HETATM   15  C   UNL     1     -10.250  10.817  64.925  1.00  0.00    -0.388 A  
HETATM   16  C   UNL     1      -9.279  10.543  65.899  1.00  0.00    -0.210 A  
HETATM   17  C   UNL     1      -8.305   9.420  65.668  1.00  0.00    -0.129 C  
ENDBRANCH   8  10
ENDBRANCH   2   6
TORSDOF 2
ENDMDL
MODEL      216
REMARK 921   NORMALIZED FREE ENERGY PREDICTED BY IDOCK:   -2.39 KCAL/MOL
REMARK 922        TOTAL FREE ENERGY PREDICTED BY IDOCK:   -2.93 KCAL/MOL
REMARK 923 INTER-LIGAND FREE ENERGY PREDICTED BY IDOCK:   -2.75 KCAL/MOL
REMARK 924 INTRA-LIGAND FREE ENERGY PREDICTED BY IDOCK:   -0.18 KCAL/MOL
REMARK 927      BINDING AFFINITY PREDICTED BY RF-SCORE:    0.00 PKD
ROOT
HETATM    1  C   UNL     1      -8.899   8.516  71.980  1.00  0.00    -0.286 C  
HETATM    2  C   UNL     1      -9.461   8.755  70.585  1.00  0.00    -0.197 C  
HETATM    3  N   UNL     1      -9.155  10.128  70.119  1.00  0.00    -0.361 NA 
HETATM    4  H1  UNL     1      -9.531  10.288  69.185  1.00  0.00     0.000 HD 
HETATM    5  H2  UNL     1      -8.155  10.326  70.162  1.00  0.00     0.000 HD 
ENDROOT
BRANCH   2   6
HETATM    6  C   UNL     1      -8.930   7.716  69.572  1.00  0.00    -0.139 C  
HETATM    7  O   UNL     1      -7.935   7.895  68.877  1.00  0.00    -0.118 OA 
HETATM    8  N   UNL     1      -9.707   6.564  69.590  1.00  0.00    -0.156 N  
HETATM    9  H   UNL     1     -10.476   6.487  70.256  1.00  0.00     0.000 HD 
BRANCH   8  10
HETATM   10  C   UNL     1      -9.448   5.501  68.701  1.00  0.00    -0.129 A  
HETATM   11  C   UNL     1      -8.593   4.448  69.082  1.00  0.00    -0.106 A  
HETATM   12  C   UNL     1      -7.818   4.420  70.370  1.00  0.00    -0.052 C  
HETATM   13  C   UNL     1      -8.484   3.329  68.234  1.00  0.00    -0.105 A  
HETATM   14  C   UNL     1      -9.187   3.266  67.037  1.00  0.00    -0.206 A  
HETATM   15  C   UNL     1      -9.989   4.333  66.645  1.00  0.00    -0.202 A  
HETATM   16  C   UNL     1     -10.129   5.461  67.467  1.00  0.00    -0.220 A  
HETATM   17  C   UNL     1     -10.893   6.652  66.956  1.00  0.00    -0.467 C  
ENDBRANCH   8  10
ENDBRANCH   2   6
TORSDOF 2
ENDMDL
MODEL      217
REMARK 921   NORMALIZED FREE ENERGY PREDICTED BY IDOCK:   -2.35 KCAL/MOL
REMARK 922        TOTAL FREE ENERGY PREDICTED BY IDOCK:   -2.89 KCAL/MOL
REMARK 923 INTER-LIGAND FREE ENERGY PREDICTED BY IDOCK:   -2.67 KCAL/MOL
REMARK 924 INTRA-LIGAND FREE ENERGY PREDICTED BY IDOCK:   -0.22 KCAL/MOL
REMARK 927      BINDING AFFINITY PREDICTED BY RF-SCORE:    0.00 PKD
ROOT
HETATM    1  C   UNL     1     -10.314  16.942  66.890  1.00  0.00    -0.304 C  
HETATM    2  C   UNL     1     -10.676  15.464  66.917  1.00  0.00    -0.314 C  
HETATM    3  N   UNL     1     -10.414  14.831  65.602  1.00  0.00    -0.325 NA 
HETATM    4  H1  UNL     1     -10.657  13.841  65.620  1.00  0.00     0.000 HD 
HETATM    5  H2  UNL     1      -9.451  14.978  65.299  1.00  0.00     0.000 HD 
ENDROOT
BRANCH   2   6
HETATM    6  C   UNL     1      -9.918  14.712  68.034  1.00  0.00    -0.220 C  
HETATM    7  O   UNL     1     -10.406  14.458  69.130  1.00  0.00    -0.223 OA 
HETATM    8  N   UNL     1      -8.647  14.345  67.610  1.00  0.00    -0.173 N  
HETATM    9  H   UNL     1      -8.360  14.545  66.652  1.00  0.00     0.000 HD 
BRANCH   8  10
HETATM   10  C   UNL     1      -7.748  13.701  68.485  1.00  0.00    -0.129 A  
HETATM   11  C   UNL     1      -7.658  12.295  68.504  1.00  0.00    -0.118 A  
HETATM   12  C   UNL     1      -8.556  11.386  67.712  1.00  0.00    -0.129 C  
HETATM   13  C   UNL     1      -6.642  11.696  69.271  1.00  0.00    -0.111 A  
HETATM   14  C   UNL     1      -5.755  12.468  70.013  1.00  0.00    -0.140 A  
HETATM   15  C   UNL     1      -5.884  13.853  70.029  1.00  0.00    -0.135 A  
HETATM   16  C   UNL     1      -6.879  14.486  69.270  1.00  0.00    -0.134 A  
HETATM   17  C   UNL     1      -7.078  15.970  69.413  1.00  0.00    -0.217 C  
ENDBRANCH   8  10
ENDBRANCH   2   6
TORSDOF 2
ENDMDL
MODEL      218
REMARK 921   NORMALIZED FREE ENERGY PREDICTED BY IDOCK:   -2.34 KCAL/MOL
REMARK 922        TOTAL FREE ENERGY PREDICTED BY IDOCK:   -2.88 KCAL/MOL
REMARK 923 INTER-LIGAND FREE ENERGY PREDICTED BY IDOCK:   -2.62 KCAL/MOL
REMARK 924 INTRA-LIGAND FREE ENERGY PREDICTED BY IDOCK:   -0.26 KCAL/MOL
REMARK 927      BINDING AFFINITY PREDICTED BY RF-SCORE:    0.00 PKD
ROOT
HETATM    1  C   UNL     1      -9.172   3.826  73.037  1.00  0.00    -0.121 C  
HETATM    2  C   UNL     1      -8.755   5.276  72.834  1.00  0.00    -0.118 C  
HETATM    3  N   UNL     1      -7.430   5.537  73.446  1.00  0.00    -0.095 NA 
HETATM    4  H1  UNL     1      -7.150   6.508  73.309  1.00  0.00     0.000 HD 
HETATM    5  H2  UNL     1      -6.722   4.889  73.100  1.00  0.00     0.000 HD 
ENDROOT
BRANCH   2   6
HETATM    6  C   UNL     1      -8.738   5.659  71.337  1.00  0.00    -0.132 C  
HETATM    7  O   UNL     1      -7.811   6.261  70.803  1.00  0.00    -0.102 OA 
HETATM    8  N   UNL     1      -9.882   5.203  70.695  1.00  0.00    -0.190 N  
HETATM    9  H   UNL     1     -10.564   4.651  71.215  1.00  0.00     0.000 HD 
BRANCH   8  10
HETATM   10  C   UNL     1     -10.114   5.491  69.335  1.00  0.00    -0.236 A  
HETATM   11  C   UNL     1     -10.669   6.728  68.954  1.00  0.00    -0.276 A  
HETATM   12  C   UNL     1     -11.154   7.767  69.928  1.00  0.00    -0.142 C  
HETATM   13  C   UNL     1     -10.738   7.042  67.583  1.00  0.00    -0.331 A  
HETATM   14  C   UNL     1     -10.289   6.146  66.620  1.00  0.00    -0.249 A  
HETATM   15  C   UNL     1      -9.789   4.906  67.003  1.00  0.00    -0.214 A  
HETATM   16  C   UNL     1      -9.697   4.561  68.359  1.00  0.00    -0.188 A  
HETATM   17  C   UNL     1      -9.281   3.166  68.736  1.00  0.00    -0.227 C  
ENDBRANCH   8  10
ENDBRANCH   2   6
TORSDOF 2
ENDMDL
MODEL      219
REMARK 921   NORMALIZED FREE ENERGY PREDICTED BY IDOCK:   -2.30 KCAL/MOL
REMARK 922        TOTAL FREE ENERGY PREDICTED BY IDOCK:   -2.83 KCAL/MOL
REMARK 923 INTER-LIGAND FREE ENERGY PREDICTED BY IDOCK:   -2.59 KCAL/MOL
REMARK 924 INTRA-LIGAND FREE ENERGY PREDICTED BY IDOCK:   -0.24 KCAL/MOL
REMARK 927      BINDING AFFINITY PREDICTED BY RF-SCORE:    0.00 PKD
ROOT
HETATM    1  C   UNL     1     -10.350   6.871  73.429  1.00  0.00    -0.337 C  
HETATM    2  C   UNL     1     -11.241   7.321  72.281  1.00  0.00    -0.267 C  
HETATM    3  N   UNL     1     -11.405   8.794  72.284  1.00  0.00    -0.338 NA 
HETATM    4  H1  UNL     1     -12.002   9.096  71.514  1.00  0.00     0.000 HD 
HETATM    5  H2  UNL     1     -10.505   9.273  72.273  1.00  0.00     0.000 HD 
ENDROOT
BRANCH   2   6
HETATM    6  C   UNL     1     -10.694   6.847  70.915  1.00  0.00    -0.230 C  
HETATM    7  O   UNL     1     -11.328   6.136  70.142  1.00  0.00    -0.382 OA 
HETATM    8  N   UNL     1      -9.424   7.361  70.684  1.00  0.00    -0.164 N  
HETATM    9  H   UNL     1      -9.010   8.001  71.362  1.00  0.00     0.000 HD 
BRANCH   8  10
HETATM   10  C   UNL     1      -8.700   7.012  69.527  1.00  0.00    -0.134 A  
HETATM   11  C   UNL     1      -8.790   7.804  68.365  1.00  0.00    -0.130 A  
HETATM   12  C   UNL     1      -9.718   8.979  68.220  1.00  0.00    -0.169 C  
HETATM   13  C   UNL     1      -7.934   7.516  67.286  1.00  0.00    -0.118 A  
HETATM   14  C   UNL     1      -7.030   6.462  67.349  1.00  0.00    -0.075 A  
HETATM   15  C   UNL     1      -6.984   5.653  68.481  1.00  0.00    -0.064 A  
HETATM   16  C   UNL     1      -7.816   5.915  69.579  1.00  0.00    -0.098 A  
HETATM   17  C   UNL     1      -7.839   4.945  70.729  1.00  0.00    -0.078 C  
ENDBRANCH   8  10
ENDBRANCH   2   6
TORSDOF 2
ENDMDL
MODEL      220
REMARK 921   NORMALIZED FREE ENERGY PREDICTED BY IDOCK:   -2.29 KCAL/MOL
REMARK 922        TOTAL FREE ENERGY PREDICTED BY IDOCK:   -2.81 KCAL/MOL
REMARK 923 INTER-LIGAND FREE ENERGY PREDICTED BY IDOCK:   -2.64 KCAL/MOL
REMARK 924 INTRA-LIGAND FREE ENERGY PREDICTED BY IDOCK:   -0.17 KCAL/MOL
REMARK 927      BINDING AFFINITY PREDICTED BY RF-SCORE:    0.00 PKD
ROOT
HETATM    1  C   UNL     1     -10.190  10.675  68.783  1.00  0.00    -0.204 C  
HETATM    2  C   UNL     1      -8.741  10.224  68.663  1.00  0.00    -0.133 C  
HETATM    3  N   UNL     1      -7.979  10.561  69.889  1.00  0.00    -0.360 NA 
HETATM    4  H1  UNL     1      -7.008  10.259  69.809  1.00  0.00     0.000 HD 
HETATM    5  H2  UNL     1      -8.424  10.182  70.725  1.00  0.00     0.000 HD 
ENDROOT
BRANCH   2   6
HETATM    6  C   UNL     1      -8.638   8.711  68.368  1.00  0.00    -0.135 C  
HETATM    7  O   UNL     1      -7.997   7.928  69.063  1.00  0.00    -0.117 OA 
HETATM    8  N   UNL     1      -9.387   8.371  67.249  1.00  0.00    -0.142 N  
HETATM    9  H   UNL     1      -9.942   9.087  66.780  1.00  0.00     0.000 HD 
BRANCH   8  10
HETATM   10  C   UNL     1      -9.394   7.051  66.754  1.00  0.00    -0.156 A  
HETATM   11  C   UNL     1     -10.262   6.088  67.304  1.00  0.00    -0.239 A  
HETATM   12  C   UNL     1     -11.143   6.337  68.498  1.00  0.00    -0.397 C  
HETATM   13  C   UNL     1     -10.354   4.830  66.681  1.00  0.00    -0.258 A  
HETATM   14  C   UNL     1      -9.592   4.529  65.558  1.00  0.00    -0.190 A  
HETATM   15  C   UNL     1      -8.699   5.468  65.052  1.00  0.00    -0.096 A  
HETATM   16  C   UNL     1      -8.586   6.736  65.641  1.00  0.00    -0.126 A  
HETATM   17  C   UNL     1      -7.519   7.678  65.157  1.00  0.00    -0.088 C  
ENDBRANCH   8  10
ENDBRANCH   2   6
TORSDOF 2
ENDMDL
MODEL      221
REMARK 921   NORMALIZED FREE ENERGY PREDICTED BY IDOCK:   -2.21 KCAL/MOL
REMARK 922        TOTAL FREE ENERGY PREDICTED BY IDOCK:   -2.73 KCAL/MOL
REMARK 923 INTER-LIGAND FREE ENERGY PREDICTED BY IDOCK:   -2.60 KCAL/MOL
REMARK 924 INTRA-LIGAND FREE ENERGY PREDICTED BY IDOCK:   -0.13 KCAL/MOL
REMARK 927      BINDING AFFINITY PREDICTED BY RF-SCORE:    0.00 PKD
ROOT
HETATM    1  C   UNL     1     -10.958   9.494  69.522  1.00  0.00    -0.217 C  
HETATM    2  C   UNL     1     -10.038   8.470  68.873  1.00  0.00    -0.203 C  
HETATM    3  N   UNL     1      -8.615   8.812  69.110  1.00  0.00    -0.126 NA 
HETATM    4  H1  UNL     1      -7.998   8.125  68.676  1.00  0.00     0.000 HD 
HETATM    5  H2  UNL     1      -8.415   8.922  70.104  1.00  0.00     0.000 HD 
ENDROOT
BRANCH   2   6
HETATM    6  C   UNL     1     -10.335   7.039  69.374  1.00  0.00    -0.207 C  
HETATM    7  O   UNL     1     -11.446   6.666  69.738  1.00  0.00    -0.351 OA 
HETATM    8  N   UNL     1      -9.194   6.248  69.321  1.00  0.00    -0.133 N  
HETATM    9  H   UNL     1      -8.332   6.634  68.938  1.00  0.00     0.000 HD 
BRANCH   8  10
HETATM   10  C   UNL     1      -9.212   4.918  69.789  1.00  0.00    -0.121 A  
HETATM   11  C   UNL     1      -9.192   4.650  71.173  1.00  0.00    -0.193 A  
HETATM   12  C   UNL     1      -9.040   5.709  72.230  1.00  0.00    -0.144 C  
HETATM   13  C   UNL     1      -9.371   3.322  71.604  1.00  0.00    -0.207 A  
HETATM   14  C   UNL     1      -9.542   2.289  70.690  1.00  0.00    -0.149 A  
HETATM   15  C   UNL     1      -9.508   2.556  69.325  1.00  0.00    -0.137 A  
HETATM   16  C   UNL     1      -9.342   3.868  68.858  1.00  0.00    -0.231 A  
HETATM   17  C   UNL     1      -9.174   4.106  67.382  1.00  0.00    -0.180 C  
ENDBRANCH   8  10
ENDBRANCH   2   6
TORSDOF 2
ENDMDL
MODEL      222
REMARK 921   NORMALIZED FREE ENERGY PREDICTED BY IDOCK:   -2.20 KCAL/MOL
REMARK 922        TOTAL FREE ENERGY PREDICTED BY IDOCK:   -2.72 KCAL/MOL
REMARK 923 INTER-LIGAND FREE ENERGY PREDICTED BY IDOCK:   -2.50 KCAL/MOL
REMARK 924 INTRA-LIGAND FREE ENERGY PREDICTED BY IDOCK:   -0.22 KCAL/MOL
REMARK 927      BINDING AFFINITY PREDICTED BY RF-SCORE:    0.00 PKD
ROOT
HETATM    1  C   UNL     1      -7.144   4.403  67.578  1.00  0.00    -0.064 C  
HETATM    2  C   UNL     1      -8.397   4.827  66.826  1.00  0.00    -0.106 C  
HETATM    3  N   UNL     1      -9.197   3.646  66.422  1.00  0.00    -0.158 NA 
HETATM    4  H1  UNL     1     -10.037   3.930  65.918  1.00  0.00     0.000 HD 
HETATM    5  H2  UNL     1      -9.418   3.051  67.219  1.00  0.00     0.000 HD 
ENDROOT
BRANCH   2   6
HETATM    6  C   UNL     1      -9.263   5.797  67.663  1.00  0.00    -0.105 C  
HETATM    7  O   UNL     1     -10.388   6.157  67.332  1.00  0.00    -0.158 OA 
HETATM    8  N   UNL     1      -8.608   6.163  68.832  1.00  0.00    -0.120 N  
HETATM    9  H   UNL     1      -7.699   5.754  69.049  1.00  0.00     0.000 HD 
BRANCH   8  10
HETATM   10  C   UNL     1      -9.181   7.093  69.724  1.00  0.00    -0.143 A  
HETATM   11  C   UNL     1     -10.077   6.662  70.722  1.00  0.00    -0.205 A  
HETATM   12  C   UNL     1     -10.575   5.249  70.850  1.00  0.00    -0.247 C  
HETATM   13  C   UNL     1     -10.503   7.590  71.690  1.00  0.00    -0.226 A  
HETATM   14  C   UNL     1     -10.070   8.911  71.656  1.00  0.00    -0.411 A  
HETATM   15  C   UNL     1      -9.226   9.340  70.637  1.00  0.00    -0.321 A  
HETATM   16  C   UNL     1      -8.773   8.441  69.660  1.00  0.00    -0.133 A  
HETATM   17  C   UNL     1      -7.973   8.963  68.498  1.00  0.00    -0.104 C  
ENDBRANCH   8  10
ENDBRANCH   2   6
TORSDOF 2
ENDMDL
MODEL      223
REMARK 921   NORMALIZED FREE ENERGY PREDICTED BY IDOCK:   -2.18 KCAL/MOL
REMARK 922        TOTAL FREE ENERGY PREDICTED BY IDOCK:   -2.69 KCAL/MOL
REMARK 923 INTER-LIGAND FREE ENERGY PREDICTED BY IDOCK:   -2.42 KCAL/MOL
REMARK 924 INTRA-LIGAND FREE ENERGY PREDICTED BY IDOCK:   -0.27 KCAL/MOL
REMARK 927      BINDING AFFINITY PREDICTED BY RF-SCORE:    0.00 PKD
ROOT
HETATM    1  C   UNL     1      -8.264   8.671  72.345  1.00  0.00    -0.078 C  
HETATM    2  C   UNL     1      -9.736   8.436  72.035  1.00  0.00    -0.283 C  
HETATM    3  N   UNL     1     -10.253   9.468  71.106  1.00  0.00    -0.283 NA 
HETATM    4  H1  UNL     1     -11.239   9.311  70.897  1.00  0.00     0.000 HD 
HETATM    5  H2  UNL     1      -9.693   9.524  70.255  1.00  0.00     0.000 HD 
ENDROOT
BRANCH   2   6
HETATM    6  C   UNL     1      -9.976   7.024  71.453  1.00  0.00    -0.184 C  
HETATM    7  O   UNL     1     -10.782   6.789  70.558  1.00  0.00    -0.222 OA 
HETATM    8  N   UNL     1      -9.141   6.091  72.053  1.00  0.00    -0.144 N  
HETATM    9  H   UNL     1      -8.455   6.400  72.742  1.00  0.00     0.000 HD 
BRANCH   8  10
HETATM   10  C   UNL     1      -9.227   4.723  71.725  1.00  0.00    -0.138 A  
HETATM   11  C   UNL     1     -10.117   3.879  72.418  1.00  0.00    -0.237 A  
HETATM   12  C   UNL     1     -10.937   4.315  73.601  1.00  0.00    -0.364 C  
HETATM   13  C   UNL     1     -10.291   2.560  71.959  1.00  0.00    -0.023 A  
HETATM   14  C   UNL     1      -9.587   2.087  70.857  1.00  0.00    -0.181 A  
HETATM   15  C   UNL     1      -8.672   2.912  70.209  1.00  0.00    -0.132 A  
HETATM   16  C   UNL     1      -8.479   4.234  70.633  1.00  0.00    -0.096 A  
HETATM   17  C   UNL     1      -7.389   5.056  70.001  1.00  0.00    -0.059 C  
ENDBRANCH   8  10
ENDBRANCH   2   6
TORSDOF 2
ENDMDL
MODEL      224
REMARK 921   NORMALIZED FREE ENERGY PREDICTED BY IDOCK:   -2.15 KCAL/MOL
REMARK 922        TOTAL FREE ENERGY PREDICTED BY IDOCK:   -2.66 KCAL/MOL
REMARK 923 INTER-LIGAND FREE ENERGY PREDICTED BY IDOCK:   -2.46 KCAL/MOL
REMARK 924 INTRA-LIGAND FREE ENERGY PREDICTED BY IDOCK:   -0.20 KCAL/MOL
REMARK 927      BINDING AFFINITY PREDICTED BY RF-SCORE:    0.00 PKD
ROOT
HETATM    1  C   UNL     1      -8.724   3.811  74.313  1.00  0.00    -0.088 C  
HETATM    2  C   UNL     1      -7.950   5.112  74.149  1.00  0.00    -0.100 C  
HETATM    3  N   UNL     1      -6.508   4.908  74.420  1.00  0.00    -0.062 NA 
HETATM    4  H1  UNL     1      -5.989   5.779  74.310  1.00  0.00     0.000 HD 
HETATM    5  H2  UNL     1      -6.118   4.162  73.844  1.00  0.00     0.000 HD 
ENDROOT
BRANCH   2   6
HETATM    6  C   UNL     1      -8.149   5.718  72.741  1.00  0.00    -0.108 C  
HETATM    7  O   UNL     1      -7.272   6.328  72.137  1.00  0.00    -0.087 OA 
HETATM    8  N   UNL     1      -9.423   5.447  72.259  1.00  0.00    -0.145 N  
HETATM    9  H   UNL     1     -10.057   4.870  72.812  1.00  0.00     0.000 HD 
BRANCH   8  10
HETATM   10  C   UNL     1      -9.852   5.955  71.016  1.00  0.00    -0.182 A  
HETATM   11  C   UNL     1      -9.759   5.165  69.853  1.00  0.00    -0.269 A  
HETATM   12  C   UNL     1      -9.113   3.808  69.810  1.00  0.00    -0.192 C  
HETATM   13  C   UNL     1     -10.341   5.644  68.665  1.00  0.00    -0.277 A  
HETATM   14  C   UNL     1     -10.978   6.879  68.627  1.00  0.00    -0.203 A  
HETATM   15  C   UNL     1     -11.021   7.675  69.767  1.00  0.00    -0.178 A  
HETATM   16  C   UNL     1     -10.459   7.227  70.972  1.00  0.00    -0.226 A  
HETATM   17  C   UNL     1     -10.401   8.163  72.147  1.00  0.00    -0.342 C  
ENDBRANCH   8  10
ENDBRANCH   2   6
TORSDOF 2
ENDMDL
MODEL      225
REMARK 921   NORMALIZED FREE ENERGY PREDICTED BY IDOCK:   -2.14 KCAL/MOL
REMARK 922        TOTAL FREE ENERGY PREDICTED BY IDOCK:   -2.65 KCAL/MOL
REMARK 923 INTER-LIGAND FREE ENERGY PREDICTED BY IDOCK:   -2.46 KCAL/MOL
REMARK 924 INTRA-LIGAND FREE ENERGY PREDICTED BY IDOCK:   -0.19 KCAL/MOL
REMARK 927      BINDING AFFINITY PREDICTED BY RF-SCORE:    0.00 PKD
ROOT
HETATM    1  C   UNL     1      -9.769   3.586  65.389  1.00  0.00    -0.093 C  
HETATM    2  C   UNL     1      -9.828   5.014  65.913  1.00  0.00    -0.164 C  
HETATM    3  N   UNL     1     -11.226   5.416  66.196  1.00  0.00    -0.750 NA 
HETATM    4  H1  UNL     1     -11.266   6.373  66.547  1.00  0.00     0.000 HD 
HETATM    5  H2  UNL     1     -11.685   4.762  66.830  1.00  0.00     0.000 HD 
ENDROOT
BRANCH   2   6
HETATM    6  C   UNL     1      -8.954   5.194  67.175  1.00  0.00    -0.112 C  
HETATM    7  O   UNL     1      -7.739   5.021  67.188  1.00  0.00    -0.090 OA 
HETATM    8  N   UNL     1      -9.724   5.603  68.257  1.00  0.00    -0.124 N  
HETATM    9  H   UNL     1     -10.718   5.784  68.126  1.00  0.00     0.000 HD 
BRANCH   8  10
HETATM   10  C   UNL     1      -9.149   5.771  69.533  1.00  0.00    -0.130 A  
HETATM   11  C   UNL     1      -8.626   7.020  69.919  1.00  0.00    -0.141 A  
HETATM   12  C   UNL     1      -8.529   8.209  69.003  1.00  0.00    -0.129 C  
HETATM   13  C   UNL     1      -8.207   7.193  71.252  1.00  0.00    -0.108 A  
HETATM   14  C   UNL     1      -8.285   6.150  72.168  1.00  0.00    -0.110 A  
HETATM   15  C   UNL     1      -8.756   4.904  71.765  1.00  0.00    -0.137 A  
HETATM   16  C   UNL     1      -9.191   4.698  70.447  1.00  0.00    -0.187 A  
HETATM   17  C   UNL     1      -9.565   3.309  70.008  1.00  0.00    -0.182 C  
ENDBRANCH   8  10
ENDBRANCH   2   6
TORSDOF 2
ENDMDL
MODEL      226
REMARK 921   NORMALIZED FREE ENERGY PREDICTED BY IDOCK:   -2.12 KCAL/MOL
REMARK 922        TOTAL FREE ENERGY PREDICTED BY IDOCK:   -2.63 KCAL/MOL
REMARK 923 INTER-LIGAND FREE ENERGY PREDICTED BY IDOCK:   -2.46 KCAL/MOL
REMARK 924 INTRA-LIGAND FREE ENERGY PREDICTED BY IDOCK:   -0.17 KCAL/MOL
REMARK 927      BINDING AFFINITY PREDICTED BY RF-SCORE:    0.00 PKD
ROOT
HETATM    1  C   UNL     1      -8.984   4.971  69.914  1.00  0.00    -0.142 C  
HETATM    2  C   UNL     1      -8.293   6.262  70.329  1.00  0.00    -0.126 C  
HETATM    3  N   UNL     1      -6.944   6.359  69.722  1.00  0.00    -0.065 NA 
HETATM    4  H1  UNL     1      -6.481   7.225  70.000  1.00  0.00     0.000 HD 
HETATM    5  H2  UNL     1      -6.979   6.259  68.708  1.00  0.00     0.000 HD 
ENDROOT
BRANCH   2   6
HETATM    6  C   UNL     1      -9.136   7.503  69.958  1.00  0.00    -0.148 C  
HETATM    7  O   UNL     1     -10.181   7.806  70.525  1.00  0.00    -0.199 OA 
HETATM    8  N   UNL     1      -8.533   8.226  68.936  1.00  0.00    -0.127 N  
HETATM    9  H   UNL     1      -7.627   7.927  68.577  1.00  0.00     0.000 HD 
BRANCH   8  10
HETATM   10  C   UNL     1      -9.155   9.367  68.389  1.00  0.00    -0.128 A  
HETATM   11  C   UNL     1     -10.232   9.229  67.492  1.00  0.00    -0.300 A  
HETATM   12  C   UNL     1     -10.722   7.908  66.965  1.00  0.00    -0.289 C  
HETATM   13  C   UNL     1     -10.928  10.385  67.092  1.00  0.00    -0.263 A  
HETATM   14  C   UNL     1     -10.553  11.642  67.553  1.00  0.00    -0.245 A  
HETATM   15  C   UNL     1      -9.456  11.774  68.398  1.00  0.00    -0.188 A  
HETATM   16  C   UNL     1      -8.744  10.643  68.825  1.00  0.00    -0.157 A  
HETATM   17  C   UNL     1      -7.485  10.829  69.627  1.00  0.00    -0.082 C  
ENDBRANCH   8  10
ENDBRANCH   2   6
TORSDOF 2
ENDMDL
MODEL      227
REMARK 921   NORMALIZED FREE ENERGY PREDICTED BY IDOCK:   -2.09 KCAL/MOL
REMARK 922        TOTAL FREE ENERGY PREDICTED BY IDOCK:   -2.60 KCAL/MOL
REMARK 923 INTER-LIGAND FREE ENERGY PREDICTED BY IDOCK:   -2.42 KCAL/MOL
REMARK 924 INTRA-LIGAND FREE ENERGY PREDICTED BY IDOCK:   -0.17 KCAL/MOL
REMARK 927      BINDING AFFINITY PREDICTED BY RF-SCORE:    0.00 PKD
ROOT
HETATM    1  C   UNL     1      -5.879   8.650  64.304  1.00  0.00    -0.065 C  
HETATM    2  C   UNL     1      -6.468  10.031  64.556  1.00  0.00    -0.130 C  
HETATM    3  N   UNL     1      -6.678  10.758  63.281  1.00  0.00    -0.350 NA 
HETATM    4  H1  UNL     1      -7.073  11.683  63.449  1.00  0.00     0.000 HD 
HETATM    5  H2  UNL     1      -7.248  10.218  62.630  1.00  0.00     0.000 HD 
ENDROOT
BRANCH   2   6
HETATM    6  C   UNL     1      -7.792   9.950  65.349  1.00  0.00    -0.132 C  
HETATM    7  O   UNL     1      -8.882   9.738  64.828  1.00  0.00    -0.176 OA 
HETATM    8  N   UNL     1      -7.565  10.114  66.710  1.00  0.00    -0.103 N  
HETATM    9  H   UNL     1      -6.610  10.217  67.052  1.00  0.00     0.000 HD 
BRANCH   8  10
HETATM   10  C   UNL     1      -8.637  10.139  67.626  1.00  0.00    -0.118 A  
HETATM   11  C   UNL     1      -9.196  11.366  68.033  1.00  0.00    -0.171 A  
HETATM   12  C   UNL     1      -8.650  12.710  67.636  1.00  0.00    -0.180 C  
HETATM   13  C   UNL     1     -10.363  11.346  68.821  1.00  0.00    -0.222 A  
HETATM   14  C   UNL     1     -10.943  10.145  69.210  1.00  0.00    -0.279 A  
HETATM   15  C   UNL     1     -10.355   8.938  68.846  1.00  0.00    -0.229 A  
HETATM   16  C   UNL     1      -9.198   8.918  68.054  1.00  0.00    -0.147 A  
HETATM   17  C   UNL     1      -8.511   7.606  67.792  1.00  0.00    -0.122 C  
ENDBRANCH   8  10
ENDBRANCH   2   6
TORSDOF 2
ENDMDL
MODEL      228
REMARK 921   NORMALIZED FREE ENERGY PREDICTED BY IDOCK:   -2.08 KCAL/MOL
REMARK 922        TOTAL FREE ENERGY PREDICTED BY IDOCK:   -2.59 KCAL/MOL
REMARK 923 INTER-LIGAND FREE ENERGY PREDICTED BY IDOCK:   -2.35 KCAL/MOL
REMARK 924 INTRA-LIGAND FREE ENERGY PREDICTED BY IDOCK:   -0.24 KCAL/MOL
REMARK 927      BINDING AFFINITY PREDICTED BY RF-SCORE:    0.00 PKD
ROOT
HETATM    1  C   UNL     1      -7.623   4.511  74.019  1.00  0.00    -0.085 C  
HETATM    2  C   UNL     1      -7.716   5.988  73.662  1.00  0.00    -0.096 C  
HETATM    3  N   UNL     1      -6.464   6.698  74.017  1.00  0.00    -0.072 NA 
HETATM    4  H1  UNL     1      -6.526   7.687  73.777  1.00  0.00     0.000 HD 
HETATM    5  H2  UNL     1      -5.648   6.257  73.593  1.00  0.00     0.000 HD 
ENDROOT
BRANCH   2   6
HETATM    6  C   UNL     1      -8.039   6.192  72.164  1.00  0.00    -0.110 C  
HETATM    7  O   UNL     1      -7.238   6.648  71.355  1.00  0.00    -0.078 OA 
HETATM    8  N   UNL     1      -9.327   5.761  71.871  1.00  0.00    -0.151 N  
HETATM    9  H   UNL     1      -9.892   5.331  72.604  1.00  0.00     0.000 HD 
BRANCH   8  10
HETATM   10  C   UNL     1      -9.864   5.907  70.576  1.00  0.00    -0.183 A  
HETATM   11  C   UNL     1     -10.577   7.071  70.229  1.00  0.00    -0.247 A  
HETATM   12  C   UNL     1     -10.918   8.168  71.200  1.00  0.00    -0.271 C  
HETATM   13  C   UNL     1     -10.959   7.252  68.886  1.00  0.00    -0.055 A  
HETATM   14  C   UNL     1     -10.661   6.296  67.922  1.00  0.00    -0.380 A  
HETATM   15  C   UNL     1     -10.002   5.126  68.284  1.00  0.00    -0.208 A  
HETATM   16  C   UNL     1      -9.597   4.915  69.610  1.00  0.00    -0.243 A  
HETATM   17  C   UNL     1      -9.009   3.585  69.996  1.00  0.00    -0.171 C  
ENDBRANCH   8  10
ENDBRANCH   2   6
TORSDOF 2
ENDMDL
MODEL      229
REMARK 921   NORMALIZED FREE ENERGY PREDICTED BY IDOCK:   -2.02 KCAL/MOL
REMARK 922        TOTAL FREE ENERGY PREDICTED BY IDOCK:   -2.52 KCAL/MOL
REMARK 923 INTER-LIGAND FREE ENERGY PREDICTED BY IDOCK:   -2.26 KCAL/MOL
REMARK 924 INTRA-LIGAND FREE ENERGY PREDICTED BY IDOCK:   -0.26 KCAL/MOL
REMARK 927      BINDING AFFINITY PREDICTED BY RF-SCORE:    0.00 PKD
ROOT
HETATM    1  C   UNL     1      -5.627   8.560  64.297  1.00  0.00    -0.063 C  
HETATM    2  C   UNL     1      -6.037   9.923  64.835  1.00  0.00    -0.103 C  
HETATM    3  N   UNL     1      -6.747  10.710  63.799  1.00  0.00    -0.355 NA 
HETATM    4  H1  UNL     1      -7.023  11.623  64.159  1.00  0.00     0.000 HD 
HETATM    5  H2  UNL     1      -7.544  10.199  63.418  1.00  0.00     0.000 HD 
ENDROOT
BRANCH   2   6
HETATM    6  C   UNL     1      -6.914   9.794  66.102  1.00  0.00    -0.095 C  
HETATM    7  O   UNL     1      -6.454   9.678  67.234  1.00  0.00    -0.068 OA 
HETATM    8  N   UNL     1      -8.263   9.864  65.781  1.00  0.00    -0.122 N  
HETATM    9  H   UNL     1      -8.542  10.032  64.814  1.00  0.00     0.000 HD 
BRANCH   8  10
HETATM   10  C   UNL     1      -9.254   9.707  66.772  1.00  0.00    -0.149 A  
HETATM   11  C   UNL     1      -9.697   8.421  67.137  1.00  0.00    -0.250 A  
HETATM   12  C   UNL     1      -9.259   7.156  66.452  1.00  0.00    -0.196 C  
HETATM   13  C   UNL     1     -10.567   8.295  68.237  1.00  0.00    -0.157 A  
HETATM   14  C   UNL     1     -11.000   9.414  68.939  1.00  0.00    -0.081 A  
HETATM   15  C   UNL     1     -10.597  10.685  68.539  1.00  0.00    -0.229 A  
HETATM   16  C   UNL     1      -9.724  10.848  67.454  1.00  0.00    -0.190 A  
HETATM   17  C   UNL     1      -9.416  12.236  66.962  1.00  0.00    -0.204 C  
ENDBRANCH   8  10
ENDBRANCH   2   6
TORSDOF 2
ENDMDL
MODEL      230
REMARK 921   NORMALIZED FREE ENERGY PREDICTED BY IDOCK:   -2.00 KCAL/MOL
REMARK 922        TOTAL FREE ENERGY PREDICTED BY IDOCK:   -2.50 KCAL/MOL
REMARK 923 INTER-LIGAND FREE ENERGY PREDICTED BY IDOCK:   -2.26 KCAL/MOL
REMARK 924 INTRA-LIGAND FREE ENERGY PREDICTED BY IDOCK:   -0.24 KCAL/MOL
REMARK 927      BINDING AFFINITY PREDICTED BY RF-SCORE:    0.00 PKD
ROOT
HETATM    1  C   UNL     1      -6.924   7.200  65.534  1.00  0.00    -0.056 C  
HETATM    2  C   UNL     1      -6.387   8.059  66.671  1.00  0.00    -0.054 C  
HETATM    3  N   UNL     1      -6.360   9.490  66.286  1.00  0.00    -0.068 NA 
HETATM    4  H1  UNL     1      -6.001  10.066  67.047  1.00  0.00     0.000 HD 
HETATM    5  H2  UNL     1      -7.274   9.812  65.970  1.00  0.00     0.000 HD 
ENDROOT
BRANCH   2   6
HETATM    6  C   UNL     1      -7.209   7.869  67.966  1.00  0.00    -0.090 C  
HETATM    7  O   UNL     1      -6.801   8.184  69.079  1.00  0.00    -0.057 OA 
HETATM    8  N   UNL     1      -8.460   7.334  67.685  1.00  0.00    -0.117 N  
HETATM    9  H   UNL     1      -8.730   7.170  66.715  1.00  0.00     0.000 HD 
BRANCH   8  10
HETATM   10  C   UNL     1      -9.361   7.015  68.720  1.00  0.00    -0.134 A  
HETATM   11  C   UNL     1     -10.293   7.971  69.172  1.00  0.00    -0.226 A  
HETATM   12  C   UNL     1     -10.333   9.396  68.693  1.00  0.00    -0.227 C  
HETATM   13  C   UNL     1     -11.279   7.568  70.092  1.00  0.00    -0.213 A  
HETATM   14  C   UNL     1     -11.325   6.262  70.566  1.00  0.00    -0.428 A  
HETATM   15  C   UNL     1     -10.369   5.338  70.154  1.00  0.00    -0.354 A  
HETATM   16  C   UNL     1      -9.378   5.701  69.231  1.00  0.00    -0.150 A  
HETATM   17  C   UNL     1      -8.282   4.722  68.909  1.00  0.00    -0.082 C  
ENDBRANCH   8  10
ENDBRANCH   2   6
TORSDOF 2
ENDMDL
MODEL      231
REMARK 921   NORMALIZED FREE ENERGY PREDICTED BY IDOCK:   -2.00 KCAL/MOL
REMARK 922        TOTAL FREE ENERGY PREDICTED BY IDOCK:   -2.50 KCAL/MOL
REMARK 923 INTER-LIGAND FREE ENERGY PREDICTED BY IDOCK:   -2.32 KCAL/MOL
REMARK 924 INTRA-LIGAND FREE ENERGY PREDICTED BY IDOCK:   -0.17 KCAL/MOL
REMARK 927      BINDING AFFINITY PREDICTED BY RF-SCORE:    0.00 PKD
ROOT
HETATM    1  C   UNL     1     -11.633  10.978  68.948  1.00  0.00    -0.383 C  
HETATM    2  C   UNL     1     -10.309  10.898  68.201  1.00  0.00    -0.178 C  
HETATM    3  N   UNL     1      -9.194  11.388  69.046  1.00  0.00    -0.400 NA 
HETATM    4  H1  UNL     1      -8.307  11.334  68.546  1.00  0.00     0.000 HD 
HETATM    5  H2  UNL     1      -9.154  10.896  69.939  1.00  0.00     0.000 HD 
ENDROOT
BRANCH   2   6
HETATM    6  C   UNL     1     -10.018   9.462  67.711  1.00  0.00    -0.184 C  
HETATM    7  O   UNL     1     -10.895   8.653  67.427  1.00  0.00    -0.211 OA 
HETATM    8  N   UNL     1      -8.650   9.240  67.611  1.00  0.00    -0.116 N  
HETATM    9  H   UNL     1      -8.001  10.002  67.806  1.00  0.00     0.000 HD 
BRANCH   8  10
HETATM   10  C   UNL     1      -8.145   7.976  67.242  1.00  0.00    -0.121 A  
HETATM   11  C   UNL     1      -7.952   7.656  65.883  1.00  0.00    -0.116 A  
HETATM   12  C   UNL     1      -8.359   8.550  64.744  1.00  0.00    -0.163 C  
HETATM   13  C   UNL     1      -7.300   6.451  65.562  1.00  0.00    -0.076 A  
HETATM   14  C   UNL     1      -6.872   5.580  66.557  1.00  0.00    -0.059 A  
HETATM   15  C   UNL     1      -7.113   5.881  67.894  1.00  0.00    -0.071 A  
HETATM   16  C   UNL     1      -7.751   7.076  68.253  1.00  0.00    -0.117 A  
HETATM   17  C   UNL     1      -8.118   7.309  69.694  1.00  0.00    -0.129 C  
ENDBRANCH   8  10
ENDBRANCH   2   6
TORSDOF 2
ENDMDL
MODEL      232
REMARK 921   NORMALIZED FREE ENERGY PREDICTED BY IDOCK:   -1.99 KCAL/MOL
REMARK 922        TOTAL FREE ENERGY PREDICTED BY IDOCK:   -2.49 KCAL/MOL
REMARK 923 INTER-LIGAND FREE ENERGY PREDICTED BY IDOCK:   -2.28 KCAL/MOL
REMARK 924 INTRA-LIGAND FREE ENERGY PREDICTED BY IDOCK:   -0.20 KCAL/MOL
REMARK 927      BINDING AFFINITY PREDICTED BY RF-SCORE:    0.00 PKD
ROOT
HETATM    1  C   UNL     1      -6.313  12.077  69.140  1.00  0.00    -0.093 C  
HETATM    2  C   UNL     1      -7.147  11.774  67.903  1.00  0.00    -0.087 C  
HETATM    3  N   UNL     1      -6.400  12.107  66.667  1.00  0.00    -0.473 NA 
HETATM    4  H1  UNL     1      -6.958  11.903  65.837  1.00  0.00     0.000 HD 
HETATM    5  H2  UNL     1      -5.495  11.638  66.636  1.00  0.00     0.000 HD 
ENDROOT
BRANCH   2   6
HETATM    6  C   UNL     1      -7.603  10.298  67.871  1.00  0.00    -0.089 C  
HETATM    7  O   UNL     1      -7.182   9.443  68.644  1.00  0.00    -0.073 OA 
HETATM    8  N   UNL     1      -8.561  10.095  66.886  1.00  0.00    -0.126 N  
HETATM    9  H   UNL     1      -8.895  10.889  66.339  1.00  0.00     0.000 HD 
BRANCH   8  10
HETATM   10  C   UNL     1      -9.078   8.809  66.631  1.00  0.00    -0.158 A  
HETATM   11  C   UNL     1      -8.438   7.953  65.713  1.00  0.00    -0.152 A  
HETATM   12  C   UNL     1      -7.260   8.358  64.869  1.00  0.00    -0.084 C  
HETATM   13  C   UNL     1      -8.889   6.625  65.603  1.00  0.00    -0.050 A  
HETATM   14  C   UNL     1      -9.956   6.165  66.365  1.00  0.00    -0.130 A  
HETATM   15  C   UNL     1     -10.615   7.032  67.232  1.00  0.00    -0.395 A  
HETATM   16  C   UNL     1     -10.189   8.360  67.375  1.00  0.00    -0.328 A  
HETATM   17  C   UNL     1     -11.003   9.306  68.214  1.00  0.00    -0.047 C  
ENDBRANCH   8  10
ENDBRANCH   2   6
TORSDOF 2
ENDMDL
MODEL      233
REMARK 921   NORMALIZED FREE ENERGY PREDICTED BY IDOCK:   -1.95 KCAL/MOL
REMARK 922        TOTAL FREE ENERGY PREDICTED BY IDOCK:   -2.44 KCAL/MOL
REMARK 923 INTER-LIGAND FREE ENERGY PREDICTED BY IDOCK:   -2.19 KCAL/MOL
REMARK 924 INTRA-LIGAND FREE ENERGY PREDICTED BY IDOCK:   -0.25 KCAL/MOL
REMARK 927      BINDING AFFINITY PREDICTED BY RF-SCORE:    0.00 PKD
ROOT
HETATM    1  C   UNL     1      -8.606   9.061  70.577  1.00  0.00    -0.229 C  
HETATM    2  C   UNL     1      -7.419   8.644  69.720  1.00  0.00    -0.060 C  
HETATM    3  N   UNL     1      -6.220   8.402  70.557  1.00  0.00    -0.035 NA 
HETATM    4  H1  UNL     1      -5.425   8.122  69.983  1.00  0.00     0.000 HD 
HETATM    5  H2  UNL     1      -6.407   7.725  71.297  1.00  0.00     0.000 HD 
ENDROOT
BRANCH   2   6
HETATM    6  C   UNL     1      -7.741   7.391  68.873  1.00  0.00    -0.115 C  
HETATM    7  O   UNL     1      -7.257   6.285  69.090  1.00  0.00    -0.081 OA 
HETATM    8  N   UNL     1      -8.663   7.689  67.878  1.00  0.00    -0.125 N  
HETATM    9  H   UNL     1      -9.059   8.627  67.824  1.00  0.00     0.000 HD 
BRANCH   8  10
HETATM   10  C   UNL     1      -9.060   6.713  66.941  1.00  0.00    -0.136 A  
HETATM   11  C   UNL     1      -8.304   6.498  65.772  1.00  0.00    -0.143 A  
HETATM   12  C   UNL     1      -7.118   7.335  65.374  1.00  0.00    -0.061 C  
HETATM   13  C   UNL     1      -8.639   5.412  64.943  1.00  0.00    -0.131 A  
HETATM   14  C   UNL     1      -9.706   4.577  65.253  1.00  0.00    -0.182 A  
HETATM   15  C   UNL     1     -10.480   4.827  66.382  1.00  0.00    -0.283 A  
HETATM   16  C   UNL     1     -10.170   5.895  67.237  1.00  0.00    -0.242 A  
HETATM   17  C   UNL     1     -11.102   6.221  68.372  1.00  0.00    -0.371 C  
ENDBRANCH   8  10
ENDBRANCH   2   6
TORSDOF 2
ENDMDL
MODEL      234
REMARK 921   NORMALIZED FREE ENERGY PREDICTED BY IDOCK:   -1.93 KCAL/MOL
REMARK 922        TOTAL FREE ENERGY PREDICTED BY IDOCK:   -2.42 KCAL/MOL
REMARK 923 INTER-LIGAND FREE ENERGY PREDICTED BY IDOCK:   -2.27 KCAL/MOL
REMARK 924 INTRA-LIGAND FREE ENERGY PREDICTED BY IDOCK:   -0.14 KCAL/MOL
REMARK 927      BINDING AFFINITY PREDICTED BY RF-SCORE:    0.00 PKD
ROOT
HETATM    1  C   UNL     1      -7.667   6.427  65.197  1.00  0.00    -0.100 C  
HETATM    2  C   UNL     1      -8.210   7.086  66.458  1.00  0.00    -0.114 C  
HETATM    3  N   UNL     1      -9.236   8.102  66.124  1.00  0.00    -0.254 NA 
HETATM    4  H1  UNL     1      -9.600   8.543  66.969  1.00  0.00     0.000 HD 
HETATM    5  H2  UNL     1      -9.983   7.709  65.552  1.00  0.00     0.000 HD 
ENDROOT
BRANCH   2   6
HETATM    6  C   UNL     1      -8.790   6.043  67.440  1.00  0.00    -0.106 C  
HETATM    7  O   UNL     1      -9.333   5.003  67.080  1.00  0.00    -0.117 OA 
HETATM    8  N   UNL     1      -8.581   6.432  68.757  1.00  0.00    -0.123 N  
HETATM    9  H   UNL     1      -8.057   7.285  68.952  1.00  0.00     0.000 HD 
BRANCH   8  10
HETATM   10  C   UNL     1      -9.081   5.664  69.828  1.00  0.00    -0.138 A  
HETATM   11  C   UNL     1      -8.331   4.589  70.345  1.00  0.00    -0.084 A  
HETATM   12  C   UNL     1      -7.036   4.108  69.752  1.00  0.00    -0.042 C  
HETATM   13  C   UNL     1      -8.788   3.949  71.512  1.00  0.00    -0.141 A  
HETATM   14  C   UNL     1      -9.964   4.349  72.136  1.00  0.00    -0.249 A  
HETATM   15  C   UNL     1     -10.725   5.378  71.589  1.00  0.00    -0.266 A  
HETATM   16  C   UNL     1     -10.297   6.046  70.432  1.00  0.00    -0.282 A  
HETATM   17  C   UNL     1     -11.205   7.059  69.791  1.00  0.00    -0.257 C  
ENDBRANCH   8  10
ENDBRANCH   2   6
TORSDOF 2
ENDMDL
MODEL      235
REMARK 921   NORMALIZED FREE ENERGY PREDICTED BY IDOCK:   -1.90 KCAL/MOL
REMARK 922        TOTAL FREE ENERGY PREDICTED BY IDOCK:   -2.39 KCAL/MOL
REMARK 923 INTER-LIGAND FREE ENERGY PREDICTED BY IDOCK:   -2.26 KCAL/MOL
REMARK 924 INTRA-LIGAND FREE ENERGY PREDICTED BY IDOCK:   -0.13 KCAL/MOL
REMARK 927      BINDING AFFINITY PREDICTED BY RF-SCORE:    0.00 PKD
ROOT
HETATM    1  C   UNL     1      -6.269   8.036  63.710  1.00  0.00    -0.066 C  
HETATM    2  C   UNL     1      -6.606   9.138  64.705  1.00  0.00    -0.075 C  
HETATM    3  N   UNL     1      -7.505  10.146  64.095  1.00  0.00    -0.184 NA 
HETATM    4  H1  UNL     1      -7.731  10.884  64.761  1.00  0.00     0.000 HD 
HETATM    5  H2  UNL     1      -8.346   9.717  63.709  1.00  0.00     0.000 HD 
ENDROOT
BRANCH   2   6
HETATM    6  C   UNL     1      -7.240   8.567  65.994  1.00  0.00    -0.077 C  
HETATM    7  O   UNL     1      -6.638   8.470  67.058  1.00  0.00    -0.057 OA 
HETATM    8  N   UNL     1      -8.568   8.221  65.782  1.00  0.00    -0.153 N  
HETATM    9  H   UNL     1      -8.997   8.406  64.875  1.00  0.00     0.000 HD 
BRANCH   8  10
HETATM   10  C   UNL     1      -9.333   7.620  66.803  1.00  0.00    -0.172 A  
HETATM   11  C   UNL     1      -9.900   8.407  67.825  1.00  0.00    -0.218 A  
HETATM   12  C   UNL     1      -9.655   9.883  67.981  1.00  0.00    -0.155 C  
HETATM   13  C   UNL     1     -10.785   7.796  68.733  1.00  0.00    -0.093 A  
HETATM   14  C   UNL     1     -11.082   6.441  68.642  1.00  0.00    -0.393 A  
HETATM   15  C   UNL     1     -10.477   5.661  67.661  1.00  0.00    -0.284 A  
HETATM   16  C   UNL     1      -9.597   6.237  66.733  1.00  0.00    -0.183 A  
HETATM   17  C   UNL     1      -8.858   5.346  65.773  1.00  0.00    -0.151 C  
ENDBRANCH   8  10
ENDBRANCH   2   6
TORSDOF 2
ENDMDL
MODEL      236
REMARK 921   NORMALIZED FREE ENERGY PREDICTED BY IDOCK:   -1.88 KCAL/MOL
REMARK 922        TOTAL FREE ENERGY PREDICTED BY IDOCK:   -2.36 KCAL/MOL
REMARK 923 INTER-LIGAND FREE ENERGY PREDICTED BY IDOCK:   -2.10 KCAL/MOL
REMARK 924 INTRA-LIGAND FREE ENERGY PREDICTED BY IDOCK:   -0.26 KCAL/MOL
REMARK 927      BINDING AFFINITY PREDICTED BY RF-SCORE:    0.00 PKD
ROOT
HETATM    1  C   UNL     1      -7.317  10.393  68.669  1.00  0.00    -0.085 C  
HETATM    2  C   UNL     1      -8.429  10.213  69.693  1.00  0.00    -0.157 C  
HETATM    3  N   UNL     1      -9.507  11.209  69.485  1.00  0.00    -0.329 NA 
HETATM    4  H1  UNL     1     -10.252  11.088  70.170  1.00  0.00     0.000 HD 
HETATM    5  H2  UNL     1      -9.865  11.182  68.530  1.00  0.00     0.000 HD 
ENDROOT
BRANCH   2   6
HETATM    6  C   UNL     1      -9.010   8.781  69.656  1.00  0.00    -0.145 C  
HETATM    7  O   UNL     1     -10.176   8.516  69.933  1.00  0.00    -0.194 OA 
HETATM    8  N   UNL     1      -8.051   7.866  69.240  1.00  0.00    -0.124 N  
HETATM    9  H   UNL     1      -7.126   8.198  68.967  1.00  0.00     0.000 HD 
BRANCH   8  10
HETATM   10  C   UNL     1      -8.337   6.487  69.191  1.00  0.00    -0.119 A  
HETATM   11  C   UNL     1      -8.274   5.705  70.361  1.00  0.00    -0.105 A  
HETATM   12  C   UNL     1      -7.803   6.221  71.692  1.00  0.00    -0.102 C  
HETATM   13  C   UNL     1      -8.719   4.370  70.303  1.00  0.00    -0.119 A  
HETATM   14  C   UNL     1      -9.192   3.824  69.116  1.00  0.00    -0.226 A  
HETATM   15  C   UNL     1      -9.203   4.589  67.954  1.00  0.00    -0.162 A  
HETATM   16  C   UNL     1      -8.776   5.924  67.974  1.00  0.00    -0.111 A  
HETATM   17  C   UNL     1      -8.671   6.681  66.679  1.00  0.00    -0.126 C  
ENDBRANCH   8  10
ENDBRANCH   2   6
TORSDOF 2
ENDMDL
MODEL      237
REMARK 921   NORMALIZED FREE ENERGY PREDICTED BY IDOCK:   -1.83 KCAL/MOL
REMARK 922        TOTAL FREE ENERGY PREDICTED BY IDOCK:   -2.31 KCAL/MOL
REMARK 923 INTER-LIGAND FREE ENERGY PREDICTED BY IDOCK:   -2.14 KCAL/MOL
REMARK 924 INTRA-LIGAND FREE ENERGY PREDICTED BY IDOCK:   -0.18 KCAL/MOL
REMARK 927      BINDING AFFINITY PREDICTED BY RF-SCORE:    0.00 PKD
ROOT
HETATM    1  C   UNL     1      -6.187   5.898  66.234  1.00  0.00    -0.037 C  
HETATM    2  C   UNL     1      -7.037   7.159  66.306  1.00  0.00    -0.074 C  
HETATM    3  N   UNL     1      -7.391   7.636  64.947  1.00  0.00    -0.070 NA 
HETATM    4  H1  UNL     1      -7.961   8.481  64.995  1.00  0.00     0.000 HD 
HETATM    5  H2  UNL     1      -7.844   6.907  64.398  1.00  0.00     0.000 HD 
ENDROOT
BRANCH   2   6
HETATM    6  C   UNL     1      -8.316   6.936  67.144  1.00  0.00    -0.121 C  
HETATM    7  O   UNL     1      -9.351   6.461  66.687  1.00  0.00    -0.145 OA 
HETATM    8  N   UNL     1      -8.114   7.311  68.466  1.00  0.00    -0.123 N  
HETATM    9  H   UNL     1      -7.192   7.632  68.762  1.00  0.00     0.000 HD 
BRANCH   8  10
HETATM   10  C   UNL     1      -9.164   7.255  69.405  1.00  0.00    -0.148 A  
HETATM   11  C   UNL     1      -9.408   6.071  70.130  1.00  0.00    -0.172 A  
HETATM   12  C   UNL     1      -8.676   4.778  69.896  1.00  0.00    -0.113 C  
HETATM   13  C   UNL     1     -10.358   6.101  71.168  1.00  0.00    -0.257 A  
HETATM   14  C   UNL     1     -11.060   7.263  71.463  1.00  0.00    -0.264 A  
HETATM   15  C   UNL     1     -10.850   8.413  70.708  1.00  0.00    -0.255 A  
HETATM   16  C   UNL     1      -9.905   8.424  69.672  1.00  0.00    -0.184 A  
HETATM   17  C   UNL     1      -9.798   9.637  68.790  1.00  0.00    -0.173 C  
ENDBRANCH   8  10
ENDBRANCH   2   6
TORSDOF 2
ENDMDL
MODEL      238
REMARK 921   NORMALIZED FREE ENERGY PREDICTED BY IDOCK:   -1.83 KCAL/MOL
REMARK 922        TOTAL FREE ENERGY PREDICTED BY IDOCK:   -2.30 KCAL/MOL
REMARK 923 INTER-LIGAND FREE ENERGY PREDICTED BY IDOCK:   -2.09 KCAL/MOL
REMARK 924 INTRA-LIGAND FREE ENERGY PREDICTED BY IDOCK:   -0.21 KCAL/MOL
REMARK 927      BINDING AFFINITY PREDICTED BY RF-SCORE:    0.00 PKD
ROOT
HETATM    1  C   UNL     1      -8.483  10.945  68.328  1.00  0.00    -0.134 C  
HETATM    2  C   UNL     1      -9.363   9.884  68.974  1.00  0.00    -0.174 C  
HETATM    3  N   UNL     1      -9.834   8.902  67.968  1.00  0.00    -0.161 NA 
HETATM    4  H1  UNL     1     -10.423   8.191  68.401  1.00  0.00     0.000 HD 
HETATM    5  H2  UNL     1      -9.056   8.486  67.455  1.00  0.00     0.000 HD 
ENDROOT
BRANCH   2   6
HETATM    6  C   UNL     1      -8.628   9.159  70.125  1.00  0.00    -0.182 C  
HETATM    7  O   UNL     1      -7.824   9.712  70.868  1.00  0.00    -0.317 OA 
HETATM    8  N   UNL     1      -9.030   7.833  70.213  1.00  0.00    -0.147 N  
HETATM    9  H   UNL     1      -9.759   7.486  69.589  1.00  0.00     0.000 HD 
BRANCH   8  10
HETATM   10  C   UNL     1      -8.447   6.958  71.152  1.00  0.00    -0.123 A  
HETATM   11  C   UNL     1      -7.288   6.228  70.821  1.00  0.00    -0.076 A  
HETATM   12  C   UNL     1      -6.661   6.225  69.454  1.00  0.00    -0.044 C  
HETATM   13  C   UNL     1      -6.645   5.490  71.833  1.00  0.00    -0.056 A  
HETATM   14  C   UNL     1      -7.149   5.461  73.128  1.00  0.00    -0.085 A  
HETATM   15  C   UNL     1      -8.322   6.144  73.434  1.00  0.00    -0.116 A  
HETATM   16  C   UNL     1      -8.985   6.897  72.454  1.00  0.00    -0.143 A  
HETATM   17  C   UNL     1     -10.320   7.511  72.779  1.00  0.00    -0.331 C  
ENDBRANCH   8  10
ENDBRANCH   2   6
TORSDOF 2
ENDMDL
MODEL      239
REMARK 921   NORMALIZED FREE ENERGY PREDICTED BY IDOCK:   -1.82 KCAL/MOL
REMARK 922        TOTAL FREE ENERGY PREDICTED BY IDOCK:   -2.30 KCAL/MOL
REMARK 923 INTER-LIGAND FREE ENERGY PREDICTED BY IDOCK:   -2.06 KCAL/MOL
REMARK 924 INTRA-LIGAND FREE ENERGY PREDICTED BY IDOCK:   -0.24 KCAL/MOL
REMARK 927      BINDING AFFINITY PREDICTED BY RF-SCORE:    0.00 PKD
ROOT
HETATM    1  C   UNL     1      -9.343   6.017  72.751  1.00  0.00    -0.145 C  
HETATM    2  C   UNL     1      -9.066   4.960  71.690  1.00  0.00    -0.140 C  
HETATM    3  N   UNL     1      -9.835   3.723  71.961  1.00  0.00    -0.165 NA 
HETATM    4  H1  UNL     1      -9.650   3.015  71.251  1.00  0.00     0.000 HD 
HETATM    5  H2  UNL     1     -10.833   3.912  72.053  1.00  0.00     0.000 HD 
ENDROOT
BRANCH   2   6
HETATM    6  C   UNL     1      -9.379   5.484  70.270  1.00  0.00    -0.154 C  
HETATM    7  O   UNL     1     -10.427   5.249  69.678  1.00  0.00    -0.281 OA 
HETATM    8  N   UNL     1      -8.338   6.269  69.790  1.00  0.00    -0.124 N  
HETATM    9  H   UNL     1      -7.536   6.461  70.389  1.00  0.00     0.000 HD 
BRANCH   8  10
HETATM   10  C   UNL     1      -8.376   6.805  68.486  1.00  0.00    -0.120 A  
HETATM   11  C   UNL     1      -7.863   6.069  67.400  1.00  0.00    -0.102 A  
HETATM   12  C   UNL     1      -7.154   4.750  67.539  1.00  0.00    -0.065 C  
HETATM   13  C   UNL     1      -8.061   6.565  66.097  1.00  0.00    -0.118 A  
HETATM   14  C   UNL     1      -8.728   7.765  65.882  1.00  0.00    -0.175 A  
HETATM   15  C   UNL     1      -9.185   8.510  66.964  1.00  0.00    -0.187 A  
HETATM   16  C   UNL     1      -9.015   8.044  68.275  1.00  0.00    -0.132 A  
HETATM   17  C   UNL     1      -9.397   8.933  69.426  1.00  0.00    -0.153 C  
ENDBRANCH   8  10
ENDBRANCH   2   6
TORSDOF 2
ENDMDL
MODEL      240
REMARK 921   NORMALIZED FREE ENERGY PREDICTED BY IDOCK:   -1.82 KCAL/MOL
REMARK 922        TOTAL FREE ENERGY PREDICTED BY IDOCK:   -2.29 KCAL/MOL
REMARK 923 INTER-LIGAND FREE ENERGY PREDICTED BY IDOCK:   -2.11 KCAL/MOL
REMARK 924 INTRA-LIGAND FREE ENERGY PREDICTED BY IDOCK:   -0.18 KCAL/MOL
REMARK 927      BINDING AFFINITY PREDICTED BY RF-SCORE:    0.00 PKD
ROOT
HETATM    1  C   UNL     1      -7.623   4.511  74.019  1.00  0.00    -0.085 C  
HETATM    2  C   UNL     1      -7.717   5.987  73.660  1.00  0.00    -0.096 C  
HETATM    3  N   UNL     1      -6.462   6.696  74.006  1.00  0.00    -0.072 NA 
HETATM    4  H1  UNL     1      -6.524   7.686  73.765  1.00  0.00     0.000 HD 
HETATM    5  H2  UNL     1      -5.649   6.255  73.576  1.00  0.00     0.000 HD 
ENDROOT
BRANCH   2   6
HETATM    6  C   UNL     1      -8.051   6.190  72.165  1.00  0.00    -0.110 C  
HETATM    7  O   UNL     1      -7.690   5.421  71.280  1.00  0.00    -0.097 OA 
HETATM    8  N   UNL     1      -8.832   7.324  71.980  1.00  0.00    -0.124 N  
HETATM    9  H   UNL     1      -9.138   7.861  72.792  1.00  0.00     0.000 HD 
BRANCH   8  10
HETATM   10  C   UNL     1      -9.208   7.743  70.688  1.00  0.00    -0.161 A  
HETATM   11  C   UNL     1      -8.396   8.641  69.967  1.00  0.00    -0.124 A  
HETATM   12  C   UNL     1      -7.166   9.299  70.530  1.00  0.00    -0.111 C  
HETATM   13  C   UNL     1      -8.719   8.912  68.624  1.00  0.00    -0.134 A  
HETATM   14  C   UNL     1      -9.827   8.326  68.022  1.00  0.00    -0.201 A  
HETATM   15  C   UNL     1     -10.652   7.481  68.757  1.00  0.00    -0.179 A  
HETATM   16  C   UNL     1     -10.356   7.180  70.094  1.00  0.00    -0.218 A  
HETATM   17  C   UNL     1     -11.338   6.374  70.900  1.00  0.00    -0.398 C  
ENDBRANCH   8  10
ENDBRANCH   2   6
TORSDOF 2
ENDMDL
MODEL      241
REMARK 921   NORMALIZED FREE ENERGY PREDICTED BY IDOCK:   -1.76 KCAL/MOL
REMARK 922        TOTAL FREE ENERGY PREDICTED BY IDOCK:   -2.23 KCAL/MOL
REMARK 923 INTER-LIGAND FREE ENERGY PREDICTED BY IDOCK:   -1.95 KCAL/MOL
REMARK 924 INTRA-LIGAND FREE ENERGY PREDICTED BY IDOCK:   -0.28 KCAL/MOL
REMARK 927      BINDING AFFINITY PREDICTED BY RF-SCORE:    0.00 PKD
ROOT
HETATM    1  C   UNL     1      -9.009   8.772  70.209  1.00  0.00    -0.174 C  
HETATM    2  C   UNL     1      -7.848   8.952  69.241  1.00  0.00    -0.096 C  
HETATM    3  N   UNL     1      -6.549   8.863  69.950  1.00  0.00    -0.041 NA 
HETATM    4  H1  UNL     1      -5.771   8.983  69.302  1.00  0.00     0.000 HD 
HETATM    5  H2  UNL     1      -6.468   7.995  70.479  1.00  0.00     0.000 HD 
ENDROOT
BRANCH   2   6
HETATM    6  C   UNL     1      -7.901   7.922  68.090  1.00  0.00    -0.127 C  
HETATM    7  O   UNL     1      -7.493   8.152  66.956  1.00  0.00    -0.086 OA 
HETATM    8  N   UNL     1      -8.433   6.716  68.529  1.00  0.00    -0.122 N  
HETATM    9  H   UNL     1      -8.680   6.603  69.512  1.00  0.00     0.000 HD 
BRANCH   8  10
HETATM   10  C   UNL     1      -8.636   5.645  67.634  1.00  0.00    -0.108 A  
HETATM   11  C   UNL     1      -9.860   5.514  66.948  1.00  0.00    -0.181 A  
HETATM   12  C   UNL     1     -11.053   6.398  67.182  1.00  0.00    -0.422 C  
HETATM   13  C   UNL     1      -9.968   4.529  65.948  1.00  0.00    -0.260 A  
HETATM   14  C   UNL     1      -8.903   3.686  65.654  1.00  0.00    -0.126 A  
HETATM   15  C   UNL     1      -7.716   3.789  66.373  1.00  0.00    -0.089 A  
HETATM   16  C   UNL     1      -7.567   4.765  67.369  1.00  0.00    -0.086 A  
HETATM   17  C   UNL     1      -6.326   4.763  68.219  1.00  0.00    -0.036 C  
ENDBRANCH   8  10
ENDBRANCH   2   6
TORSDOF 2
ENDMDL
MODEL      242
REMARK 921   NORMALIZED FREE ENERGY PREDICTED BY IDOCK:   -1.64 KCAL/MOL
REMARK 922        TOTAL FREE ENERGY PREDICTED BY IDOCK:   -2.10 KCAL/MOL
REMARK 923 INTER-LIGAND FREE ENERGY PREDICTED BY IDOCK:   -1.81 KCAL/MOL
REMARK 924 INTRA-LIGAND FREE ENERGY PREDICTED BY IDOCK:   -0.28 KCAL/MOL
REMARK 927      BINDING AFFINITY PREDICTED BY RF-SCORE:    0.00 PKD
ROOT
HETATM    1  C   UNL     1      -6.947   7.436  65.432  1.00  0.00    -0.059 C  
HETATM    2  C   UNL     1      -6.577   8.876  65.759  1.00  0.00    -0.064 C  
HETATM    3  N   UNL     1      -7.031   9.795  64.687  1.00  0.00    -0.117 NA 
HETATM    4  H1  UNL     1      -6.784  10.760  64.906  1.00  0.00     0.000 HD 
HETATM    5  H2  UNL     1      -8.028   9.694  64.502  1.00  0.00     0.000 HD 
ENDROOT
BRANCH   2   6
HETATM    6  C   UNL     1      -7.157   9.317  67.122  1.00  0.00    -0.086 C  
HETATM    7  O   UNL     1      -7.103  10.470  67.539  1.00  0.00    -0.086 OA 
HETATM    8  N   UNL     1      -7.762   8.249  67.773  1.00  0.00    -0.102 N  
HETATM    9  H   UNL     1      -7.813   7.342  67.309  1.00  0.00     0.000 HD 
BRANCH   8  10
HETATM   10  C   UNL     1      -8.307   8.401  69.064  1.00  0.00    -0.119 A  
HETATM   11  C   UNL     1      -7.495   8.233  70.203  1.00  0.00    -0.060 A  
HETATM   12  C   UNL     1      -6.061   7.781  70.153  1.00  0.00    -0.030 C  
HETATM   13  C   UNL     1      -8.032   8.548  71.465  1.00  0.00    -0.169 A  
HETATM   14  C   UNL     1      -9.342   8.995  71.595  1.00  0.00    -0.254 A  
HETATM   15  C   UNL     1     -10.152   9.109  70.470  1.00  0.00    -0.288 A  
HETATM   16  C   UNL     1      -9.649   8.814  69.195  1.00  0.00    -0.162 A  
HETATM   17  C   UNL     1     -10.585   8.816  68.017  1.00  0.00    -0.218 C  
ENDBRANCH   8  10
ENDBRANCH   2   6
TORSDOF 2
ENDMDL
MODEL      243
REMARK 921   NORMALIZED FREE ENERGY PREDICTED BY IDOCK:   -1.58 KCAL/MOL
REMARK 922        TOTAL FREE ENERGY PREDICTED BY IDOCK:   -2.03 KCAL/MOL
REMARK 923 INTER-LIGAND FREE ENERGY PREDICTED BY IDOCK:   -1.83 KCAL/MOL
REMARK 924 INTRA-LIGAND FREE ENERGY PREDICTED BY IDOCK:   -0.20 KCAL/MOL
REMARK 927      BINDING AFFINITY PREDICTED BY RF-SCORE:    0.00 PKD
ROOT
HETATM    1  C   UNL     1      -9.731   5.936  71.944  1.00  0.00    -0.173 C  
HETATM    2  C   UNL     1      -9.170   4.658  71.336  1.00  0.00    -0.142 C  
HETATM    3  N   UNL     1      -9.798   3.462  71.947  1.00  0.00    -0.168 NA 
HETATM    4  H1  UNL     1      -9.423   2.605  71.539  1.00  0.00     0.000 HD 
HETATM    5  H2  UNL     1     -10.815   3.496  71.882  1.00  0.00     0.000 HD 
ENDROOT
BRANCH   2   6
HETATM    6  C   UNL     1      -9.350   4.631  69.801  1.00  0.00    -0.145 C  
HETATM    7  O   UNL     1     -10.290   5.165  69.220  1.00  0.00    -0.226 OA 
HETATM    8  N   UNL     1      -8.298   3.961  69.190  1.00  0.00    -0.071 N  
HETATM    9  H   UNL     1      -7.527   3.612  69.759  1.00  0.00     0.000 HD 
BRANCH   8  10
HETATM   10  C   UNL     1      -8.280   3.757  67.795  1.00  0.00    -0.089 A  
HETATM   11  C   UNL     1      -8.905   2.627  67.233  1.00  0.00    -0.161 A  
HETATM   12  C   UNL     1      -9.522   1.519  68.043  1.00  0.00    -0.190 C  
HETATM   13  C   UNL     1      -9.005   2.539  65.832  1.00  0.00    -0.122 A  
HETATM   14  C   UNL     1      -8.481   3.533  65.013  1.00  0.00    -0.101 A  
HETATM   15  C   UNL     1      -7.820   4.620  65.576  1.00  0.00    -0.094 A  
HETATM   16  C   UNL     1      -7.709   4.746  66.968  1.00  0.00    -0.091 A  
HETATM   17  C   UNL     1      -6.874   5.859  67.540  1.00  0.00    -0.060 C  
ENDBRANCH   8  10
ENDBRANCH   2   6
TORSDOF 2
ENDMDL
MODEL      244
REMARK 921   NORMALIZED FREE ENERGY PREDICTED BY IDOCK:   -1.56 KCAL/MOL
REMARK 922        TOTAL FREE ENERGY PREDICTED BY IDOCK:   -2.01 KCAL/MOL
REMARK 923 INTER-LIGAND FREE ENERGY PREDICTED BY IDOCK:   -2.00 KCAL/MOL
REMARK 924 INTRA-LIGAND FREE ENERGY PREDICTED BY IDOCK:   -0.01 KCAL/MOL
REMARK 927      BINDING AFFINITY PREDICTED BY RF-SCORE:    0.00 PKD
ROOT
HETATM    1  C   UNL     1      -9.068   5.094  72.339  1.00  0.00    -0.145 C  
HETATM    2  C   UNL     1      -8.400   4.749  71.015  1.00  0.00    -0.100 C  
HETATM    3  N   UNL     1      -9.142   3.675  70.312  1.00  0.00    -0.114 NA 
HETATM    4  H1  UNL     1      -8.694   3.444  69.425  1.00  0.00     0.000 HD 
HETATM    5  H2  UNL     1     -10.125   3.916  70.187  1.00  0.00     0.000 HD 
ENDROOT
BRANCH   2   6
HETATM    6  C   UNL     1      -8.266   5.991  70.104  1.00  0.00    -0.119 C  
HETATM    7  O   UNL     1      -8.014   7.115  70.526  1.00  0.00    -0.102 OA 
HETATM    8  N   UNL     1      -8.433   5.647  68.769  1.00  0.00    -0.102 N  
HETATM    9  H   UNL     1      -8.572   4.669  68.516  1.00  0.00     0.000 HD 
BRANCH   8  10
HETATM   10  C   UNL     1      -8.415   6.630  67.759  1.00  0.00    -0.122 A  
HETATM   11  C   UNL     1      -9.619   7.088  67.189  1.00  0.00    -0.187 A  
HETATM   12  C   UNL     1     -10.971   6.512  67.509  1.00  0.00    -0.444 C  
HETATM   13  C   UNL     1      -9.572   8.179  66.301  1.00  0.00    -0.248 A  
HETATM   14  C   UNL     1      -8.364   8.783  65.973  1.00  0.00    -0.130 A  
HETATM   15  C   UNL     1      -7.174   8.292  66.500  1.00  0.00    -0.076 A  
HETATM   16  C   UNL     1      -7.183   7.212  67.395  1.00  0.00    -0.090 A  
HETATM   17  C   UNL     1      -5.875   6.618  67.841  1.00  0.00    -0.023 C  
ENDBRANCH   8  10
ENDBRANCH   2   6
TORSDOF 2
ENDMDL
MODEL      245
REMARK 921   NORMALIZED FREE ENERGY PREDICTED BY IDOCK:   -1.22 KCAL/MOL
REMARK 922        TOTAL FREE ENERGY PREDICTED BY IDOCK:   -1.62 KCAL/MOL
REMARK 923 INTER-LIGAND FREE ENERGY PREDICTED BY IDOCK:   -1.41 KCAL/MOL
REMARK 924 INTRA-LIGAND FREE ENERGY PREDICTED BY IDOCK:   -0.21 KCAL/MOL
REMARK 927      BINDING AFFINITY PREDICTED BY RF-SCORE:    0.00 PKD
ROOT
HETATM    1  C   UNL     1      -6.288   6.917  64.052  1.00  0.00    -0.039 C  
HETATM    2  C   UNL     1      -6.583   8.127  64.928  1.00  0.00    -0.055 C  
HETATM    3  N   UNL     1      -7.205   9.214  64.136  1.00  0.00    -0.095 NA 
HETATM    4  H1  UNL     1      -7.403  10.025  64.722  1.00  0.00     0.000 HD 
HETATM    5  H2  UNL     1      -8.039   8.892  63.644  1.00  0.00     0.000 HD 
ENDROOT
BRANCH   2   6
HETATM    6  C   UNL     1      -7.484   7.756  66.127  1.00  0.00    -0.079 C  
HETATM    7  O   UNL     1      -8.370   8.487  66.560  1.00  0.00    -0.108 OA 
HETATM    8  N   UNL     1      -7.174   6.490  66.608  1.00  0.00    -0.072 N  
HETATM    9  H   UNL     1      -6.464   5.933  66.134  1.00  0.00     0.000 HD 
BRANCH   8  10
HETATM   10  C   UNL     1      -7.827   5.965  67.742  1.00  0.00    -0.098 A  
HETATM   11  C   UNL     1      -8.969   5.154  67.593  1.00  0.00    -0.112 A  
HETATM   12  C   UNL     1      -9.639   4.880  66.274  1.00  0.00    -0.180 C  
HETATM   13  C   UNL     1      -9.497   4.519  68.733  1.00  0.00    -0.221 A  
HETATM   14  C   UNL     1      -8.922   4.701  69.985  1.00  0.00    -0.140 A  
HETATM   15  C   UNL     1      -7.825   5.545  70.131  1.00  0.00    -0.089 A  
HETATM   16  C   UNL     1      -7.266   6.187  69.016  1.00  0.00    -0.083 A  
HETATM   17  C   UNL     1      -6.169   7.195  69.224  1.00  0.00    -0.035 C  
ENDBRANCH   8  10
ENDBRANCH   2   6
TORSDOF 2
ENDMDL
MODEL      246
REMARK 921   NORMALIZED FREE ENERGY PREDICTED BY IDOCK:   -1.13 KCAL/MOL
REMARK 922        TOTAL FREE ENERGY PREDICTED BY IDOCK:   -1.53 KCAL/MOL
REMARK 923 INTER-LIGAND FREE ENERGY PREDICTED BY IDOCK:   -1.59 KCAL/MOL
REMARK 924 INTRA-LIGAND FREE ENERGY PREDICTED BY IDOCK:    0.06 KCAL/MOL
REMARK 927      BINDING AFFINITY PREDICTED BY RF-SCORE:    0.00 PKD
ROOT
HETATM    1  C   UNL     1     -10.540   3.985  65.134  1.00  0.00    -0.073 C  
HETATM    2  C   UNL     1     -10.040   5.105  66.036  1.00  0.00    -0.168 C  
HETATM    3  N   UNL     1     -11.149   5.671  66.841  1.00  0.00    -0.463 NA 
HETATM    4  H1  UNL     1     -10.814   6.421  67.446  1.00  0.00     0.000 HD 
HETATM    5  H2  UNL     1     -11.636   4.948  67.371  1.00  0.00     0.000 HD 
ENDROOT
BRANCH   2   6
HETATM    6  C   UNL     1      -8.898   4.625  66.961  1.00  0.00    -0.111 C  
HETATM    7  O   UNL     1      -7.727   4.546  66.604  1.00  0.00    -0.092 OA 
HETATM    8  N   UNL     1      -9.378   4.338  68.232  1.00  0.00    -0.142 N  
HETATM    9  H   UNL     1     -10.361   4.503  68.448  1.00  0.00     0.000 HD 
BRANCH   8  10
HETATM   10  C   UNL     1      -8.525   3.823  69.230  1.00  0.00    -0.068 A  
HETATM   11  C   UNL     1      -8.105   4.639  70.299  1.00  0.00    -0.067 A  
HETATM   12  C   UNL     1      -8.420   6.106  70.408  1.00  0.00    -0.133 C  
HETATM   13  C   UNL     1      -7.387   4.049  71.355  1.00  0.00    -0.044 A  
HETATM   14  C   UNL     1      -7.077   2.694  71.341  1.00  0.00    -0.032 A  
HETATM   15  C   UNL     1      -7.451   1.906  70.257  1.00  0.00    -0.036 A  
HETATM   16  C   UNL     1      -8.175   2.457  69.190  1.00  0.00    -0.071 A  
HETATM   17  C   UNL     1      -8.446   1.615  67.974  1.00  0.00    -0.087 C  
ENDBRANCH   8  10
ENDBRANCH   2   6
TORSDOF 2
ENDMDL
MODEL      247
REMARK 921   NORMALIZED FREE ENERGY PREDICTED BY IDOCK:   -0.45 KCAL/MOL
REMARK 922        TOTAL FREE ENERGY PREDICTED BY IDOCK:   -0.77 KCAL/MOL
REMARK 923 INTER-LIGAND FREE ENERGY PREDICTED BY IDOCK:   -0.59 KCAL/MOL
REMARK 924 INTRA-LIGAND FREE ENERGY PREDICTED BY IDOCK:   -0.18 KCAL/MOL
REMARK 927      BINDING AFFINITY PREDICTED BY RF-SCORE:    0.00 PKD
ROOT
HETATM    1  C   UNL     1      -9.155   2.406  73.067  1.00  0.00    -0.090 C  
HETATM    2  C   UNL     1      -8.911   2.615  71.579  1.00  0.00    -0.076 C  
HETATM    3  N   UNL     1     -10.192   2.726  70.842  1.00  0.00     0.442 NA 
HETATM    4  H1  UNL     1     -10.029   2.867  69.845  1.00  0.00     0.000 HD 
HETATM    5  H2  UNL     1     -10.789   3.456  71.232  1.00  0.00     0.000 HD 
ENDROOT
BRANCH   2   6
HETATM    6  C   UNL     1      -8.033   3.859  71.315  1.00  0.00    -0.067 C  
HETATM    7  O   UNL     1      -6.914   4.012  71.796  1.00  0.00    -0.034 OA 
HETATM    8  N   UNL     1      -8.667   4.739  70.448  1.00  0.00    -0.096 N  
HETATM    9  H   UNL     1      -9.570   4.487  70.047  1.00  0.00     0.000 HD 
BRANCH   8  10
HETATM   10  C   UNL     1      -8.080   5.976  70.112  1.00  0.00    -0.114 A  
HETATM   11  C   UNL     1      -8.408   7.139  70.836  1.00  0.00    -0.121 A  
HETATM   12  C   UNL     1      -9.457   7.191  71.912  1.00  0.00    -0.157 C  
HETATM   13  C   UNL     1      -7.685   8.320  70.576  1.00  0.00    -0.081 A  
HETATM   14  C   UNL     1      -6.683   8.349  69.614  1.00  0.00    -0.037 A  
HETATM   15  C   UNL     1      -6.401   7.209  68.868  1.00  0.00    -0.032 A  
HETATM   16  C   UNL     1      -7.094   6.012  69.104  1.00  0.00    -0.070 A  
HETATM   17  C   UNL     1      -6.862   4.838  68.193  1.00  0.00    -0.056 C  
ENDBRANCH   8  10
ENDBRANCH   2   6
TORSDOF 2
ENDMDL
MODEL      248
REMARK 921   NORMALIZED FREE ENERGY PREDICTED BY IDOCK:    0.05 KCAL/MOL
REMARK 922        TOTAL FREE ENERGY PREDICTED BY IDOCK:   -0.21 KCAL/MOL
REMARK 923 INTER-LIGAND FREE ENERGY PREDICTED BY IDOCK:   -0.28 KCAL/MOL
REMARK 924 INTRA-LIGAND FREE ENERGY PREDICTED BY IDOCK:    0.07 KCAL/MOL
REMARK 927      BINDING AFFINITY PREDICTED BY RF-SCORE:    0.00 PKD
ROOT
HETATM    1  C   UNL     1      -9.689  18.498  68.217  1.00  0.00    -0.385 C  
HETATM    2  C   UNL     1     -10.204  17.164  67.694  1.00  0.00    -0.329 C  
HETATM    3  N   UNL     1      -9.276  16.597  66.686  1.00  0.00    -0.238 NA 
HETATM    4  H1  UNL     1      -9.621  15.703  66.336  1.00  0.00     0.000 HD 
HETATM    5  H2  UNL     1      -8.327  16.518  67.050  1.00  0.00     0.000 HD 
ENDROOT
BRANCH   2   6
HETATM    6  C   UNL     1     -10.431  16.152  68.840  1.00  0.00    -0.258 C  
HETATM    7  O   UNL     1      -9.766  15.131  68.983  1.00  0.00    -0.216 OA 
HETATM    8  N   UNL     1     -11.450  16.578  69.683  1.00  0.00    -0.303 N  
HETATM    9  H   UNL     1     -11.897  17.480  69.516  1.00  0.00     0.000 HD 
BRANCH   8  10
HETATM   10  C   UNL     1     -11.876  15.782  70.766  1.00  0.00    -0.404 A  
HETATM   11  C   UNL     1     -12.538  14.561  70.534  1.00  0.00    -0.413 A  
HETATM   12  C   UNL     1     -12.940  14.069  69.171  1.00  0.00     1.224 C  
HETATM   13  C   UNL     1     -12.805  13.721  71.632  1.00  0.00    -0.438 A  
HETATM   14  C   UNL     1     -12.444  14.092  72.922  1.00  0.00    -0.044 A  
HETATM   15  C   UNL     1     -11.836  15.323  73.147  1.00  0.00    -0.498 A  
HETATM   16  C   UNL     1     -11.546  16.182  72.077  1.00  0.00    -0.477 A  
HETATM   17  C   UNL     1     -11.014  17.559  72.366  1.00  0.00     2.493 C  
ENDBRANCH   8  10
ENDBRANCH   2   6
TORSDOF 2
ENDMDL
MODEL      249
REMARK 921   NORMALIZED FREE ENERGY PREDICTED BY IDOCK:    0.48 KCAL/MOL
REMARK 922        TOTAL FREE ENERGY PREDICTED BY IDOCK:    0.27 KCAL/MOL
REMARK 923 INTER-LIGAND FREE ENERGY PREDICTED BY IDOCK:    0.02 KCAL/MOL
REMARK 924 INTRA-LIGAND FREE ENERGY PREDICTED BY IDOCK:    0.25 KCAL/MOL
REMARK 927      BINDING AFFINITY PREDICTED BY RF-SCORE:    0.00 PKD
ROOT
HETATM    1  C   UNL     1      -6.849   4.875  69.979  1.00  0.00    -0.048 C  
HETATM    2  C   UNL     1      -8.107   5.680  69.684  1.00  0.00    -0.102 C  
HETATM    3  N   UNL     1      -9.300   5.038  70.287  1.00  0.00    -0.145 NA 
HETATM    4  H1  UNL     1     -10.143   5.578  70.089  1.00  0.00     0.000 HD 
HETATM    5  H2  UNL     1      -9.178   4.882  71.287  1.00  0.00     0.000 HD 
ENDROOT
BRANCH   2   6
HETATM    6  C   UNL     1      -7.978   7.139  70.178  1.00  0.00    -0.113 C  
HETATM    7  O   UNL     1      -8.394   7.524  71.266  1.00  0.00    -0.109 OA 
HETATM    8  N   UNL     1      -7.308   7.921  69.246  1.00  0.00    -0.081 N  
HETATM    9  H   UNL     1      -6.941   7.488  68.398  1.00  0.00     0.000 HD 
BRANCH   8  10
HETATM   10  C   UNL     1      -7.127   9.303  69.454  1.00  0.00    -0.053 A  
HETATM   11  C   UNL     1      -7.832  10.239  68.671  1.00  0.00    -0.101 A  
HETATM   12  C   UNL     1      -8.715   9.867  67.512  1.00  0.00    -0.121 C  
HETATM   13  C   UNL     1      -7.748  11.602  69.012  1.00  0.00    -0.002 A  
HETATM   14  C   UNL     1      -6.972  12.025  70.085  1.00  0.00     0.839 A  
HETATM   15  C   UNL     1      -6.239  11.099  70.821  1.00  0.00     0.191 A  
HETATM   16  C   UNL     1      -6.305   9.732  70.516  1.00  0.00    -0.100 A  
HETATM   17  C   UNL     1      -5.399   8.774  71.241  1.00  0.00    -0.035 C  
ENDBRANCH   8  10
ENDBRANCH   2   6
TORSDOF 2
ENDMDL
MODEL      250
REMARK 921   NORMALIZED FREE ENERGY PREDICTED BY IDOCK:    0.49 KCAL/MOL
REMARK 922        TOTAL FREE ENERGY PREDICTED BY IDOCK:    0.28 KCAL/MOL
REMARK 923 INTER-LIGAND FREE ENERGY PREDICTED BY IDOCK:    0.55 KCAL/MOL
REMARK 924 INTRA-LIGAND FREE ENERGY PREDICTED BY IDOCK:   -0.27 KCAL/MOL
REMARK 927      BINDING AFFINITY PREDICTED BY RF-SCORE:    0.00 PKD
ROOT
HETATM    1  C   UNL     1     -11.444   4.644  64.978  1.00  0.00     0.753 C  
HETATM    2  C   UNL     1     -10.740   5.595  65.935  1.00  0.00     0.310 C  
HETATM    3  N   UNL     1     -11.419   5.619  67.253  1.00  0.00     0.304 NA 
HETATM    4  H1  UNL     1     -10.947   6.255  67.895  1.00  0.00     0.000 HD 
HETATM    5  H2  UNL     1     -11.508   4.683  67.648  1.00  0.00     0.000 HD 
ENDROOT
BRANCH   2   6
HETATM    6  C   UNL     1      -9.249   5.226  66.109  1.00  0.00    -0.154 C  
HETATM    7  O   UNL     1      -8.341   5.762  65.482  1.00  0.00    -0.128 OA 
HETATM    8  N   UNL     1      -9.090   4.247  67.082  1.00  0.00    -0.128 N  
HETATM    9  H   UNL     1      -9.905   3.914  67.597  1.00  0.00     0.000 HD 
BRANCH   8  10
HETATM   10  C   UNL     1      -7.820   3.708  67.369  1.00  0.00    -0.079 A  
HETATM   11  C   UNL     1      -7.315   2.634  66.610  1.00  0.00    -0.069 A  
HETATM   12  C   UNL     1      -8.099   1.917  65.545  1.00  0.00    -0.076 C  
HETATM   13  C   UNL     1      -5.983   2.228  66.819  1.00  0.00    -0.023 A  
HETATM   14  C   UNL     1      -5.184   2.855  67.768  1.00  0.00    -0.012 A  
HETATM   15  C   UNL     1      -5.707   3.882  68.549  1.00  0.00    -0.022 A  
HETATM   16  C   UNL     1      -7.027   4.319  68.362  1.00  0.00    -0.051 A  
HETATM   17  C   UNL     1      -7.604   5.334  69.310  1.00  0.00    -0.073 C  
ENDBRANCH   8  10
ENDBRANCH   2   6
TORSDOF 2
ENDMDL
MODEL      251
REMARK 921   NORMALIZED FREE ENERGY PREDICTED BY IDOCK:    3.00 KCAL/MOL
REMARK 922        TOTAL FREE ENERGY PREDICTED BY IDOCK:    3.09 KCAL/MOL
REMARK 923 INTER-LIGAND FREE ENERGY PREDICTED BY IDOCK:   -1.95 KCAL/MOL
REMARK 924 INTRA-LIGAND FREE ENERGY PREDICTED BY IDOCK:    5.05 KCAL/MOL
REMARK 927      BINDING AFFINITY PREDICTED BY RF-SCORE:    0.00 PKD
ROOT
HETATM    1  C   UNL     1      -6.884   4.595  69.770  1.00  0.00    -0.044 C  
HETATM    2  C   UNL     1      -8.250   4.330  69.151  1.00  0.00    -0.070 C  
HETATM    3  N   UNL     1      -9.120   3.581  70.089  1.00  0.00    -0.116 NA 
HETATM    4  H1  UNL     1     -10.035   3.404  69.674  1.00  0.00     0.000 HD 
HETATM    5  H2  UNL     1      -9.199   4.054  70.988  1.00  0.00     0.000 HD 
ENDROOT
BRANCH   2   6
HETATM    6  C   UNL     1      -8.940   5.642  68.713  1.00  0.00    -0.115 C  
HETATM    7  O   UNL     1     -10.104   5.918  68.987  1.00  0.00    -0.158 OA 
HETATM    8  N   UNL     1      -8.060   6.455  68.011  1.00  0.00    -0.115 N  
HETATM    9  H   UNL     1      -7.090   6.164  67.895  1.00  0.00     0.000 HD 
BRANCH   8  10
HETATM   10  C   UNL     1      -8.488   7.679  67.458  1.00  0.00    -0.116 A  
HETATM   11  C   UNL     1      -7.666   8.377  66.552  1.00  0.00    -0.089 A  
HETATM   12  C   UNL     1      -6.265   7.959  66.196  1.00  0.00    -0.045 C  
HETATM   13  C   UNL     1      -8.190   9.509  65.900  1.00  0.00    -0.115 A  
HETATM   14  C   UNL     1      -9.484   9.948  66.156  1.00  0.00    -0.254 A  
HETATM   15  C   UNL     1     -10.271   9.282  67.091  1.00  0.00    -0.324 A  
HETATM   16  C   UNL     1      -9.786   8.145  67.753  1.00  0.00    -0.209 A  
HETATM   17  C   UNL     1     -10.607   7.530  68.853  1.00  0.00    -0.184 C  
ENDBRANCH   8  10
ENDBRANCH   2   6
TORSDOF 2
ENDMDL
MODEL      252
REMARK 921   NORMALIZED FREE ENERGY PREDICTED BY IDOCK:    5.00 KCAL/MOL
REMARK 922        TOTAL FREE ENERGY PREDICTED BY IDOCK:    5.32 KCAL/MOL
REMARK 923 INTER-LIGAND FREE ENERGY PREDICTED BY IDOCK:    5.27 KCAL/MOL
REMARK 924 INTRA-LIGAND FREE ENERGY PREDICTED BY IDOCK:    0.05 KCAL/MOL
REMARK 927      BINDING AFFINITY PREDICTED BY RF-SCORE:    0.00 PKD
ROOT
HETATM    1  C   UNL     1     -12.161   5.240  64.934  1.00  0.00     4.145 C  
HETATM    2  C   UNL     1     -11.130   5.667  65.969  1.00  0.00     0.504 C  
HETATM    3  N   UNL     1     -11.454   5.107  67.302  1.00  0.00     1.288 NA 
HETATM    4  H1  UNL     1     -10.763   5.392  67.996  1.00  0.00     0.000 HD 
HETATM    5  H2  UNL     1     -11.558   4.093  67.269  1.00  0.00     0.000 HD 
ENDROOT
BRANCH   2   6
HETATM    6  C   UNL     1      -9.700   5.257  65.550  1.00  0.00     0.055 C  
HETATM    7  O   UNL     1      -8.856   6.054  65.154  1.00  0.00    -0.079 OA 
HETATM    8  N   UNL     1      -9.506   3.892  65.718  1.00  0.00    -0.169 N  
HETATM    9  H   UNL     1     -10.252   3.324  66.120  1.00  0.00     0.000 HD 
BRANCH   8  10
HETATM   10  C   UNL     1      -8.294   3.279  65.340  1.00  0.00    -0.099 A  
HETATM   11  C   UNL     1      -7.930   3.198  63.982  1.00  0.00    -0.082 A  
HETATM   12  C   UNL     1      -8.817   3.634  62.848  1.00  0.00    -0.095 C  
HETATM   13  C   UNL     1      -6.645   2.726  63.656  1.00  0.00    -0.031 A  
HETATM   14  C   UNL     1      -5.756   2.326  64.647  1.00  0.00    -0.013 A  
HETATM   15  C   UNL     1      -6.142   2.361  65.983  1.00  0.00    -0.023 A  
HETATM   16  C   UNL     1      -7.411   2.835  66.347  1.00  0.00    -0.071 A  
HETATM   17  C   UNL     1      -7.849   2.734  67.782  1.00  0.00    -0.060 C  
ENDBRANCH   8  10
ENDBRANCH   2   6
TORSDOF 2
ENDMDL
MODEL      253
REMARK 921   NORMALIZED FREE ENERGY PREDICTED BY IDOCK:    6.94 KCAL/MOL
REMARK 922        TOTAL FREE ENERGY PREDICTED BY IDOCK:    7.49 KCAL/MOL
REMARK 923 INTER-LIGAND FREE ENERGY PREDICTED BY IDOCK:    7.66 KCAL/MOL
REMARK 924 INTRA-LIGAND FREE ENERGY PREDICTED BY IDOCK:   -0.17 KCAL/MOL
REMARK 927      BINDING AFFINITY PREDICTED BY RF-SCORE:    0.00 PKD
ROOT
HETATM    1  C   UNL     1     -12.230   4.532  63.798  1.00  0.00     3.759 C  
HETATM    2  C   UNL     1     -11.521   5.117  65.012  1.00  0.00     1.599 C  
HETATM    3  N   UNL     1     -11.910   4.397  66.249  1.00  0.00     2.773 NA 
HETATM    4  H1  UNL     1     -11.434   4.788  67.062  1.00  0.00     0.000 HD 
HETATM    5  H2  UNL     1     -11.751   3.394  66.166  1.00  0.00     0.000 HD 
ENDROOT
BRANCH   2   6
HETATM    6  C   UNL     1      -9.986   5.094  64.840  1.00  0.00     0.479 C  
HETATM    7  O   UNL     1      -9.384   4.204  64.246  1.00  0.00    -0.150 OA 
HETATM    8  N   UNL     1      -9.405   6.218  65.413  1.00  0.00    -0.320 N  
HETATM    9  H   UNL     1     -10.001   6.936  65.825  1.00  0.00     0.000 HD 
BRANCH   8  10
HETATM   10  C   UNL     1      -8.005   6.382  65.433  1.00  0.00    -0.116 A  
HETATM   11  C   UNL     1      -7.227   5.733  66.411  1.00  0.00    -0.077 A  
HETATM   12  C   UNL     1      -7.802   4.934  67.548  1.00  0.00    -0.094 C  
HETATM   13  C   UNL     1      -5.824   5.791  66.303  1.00  0.00    -0.018 A  
HETATM   14  C   UNL     1      -5.214   6.490  65.268  1.00  0.00    -0.018 A  
HETATM   15  C   UNL     1      -5.991   7.170  64.336  1.00  0.00    -0.037 A  
HETATM   16  C   UNL     1      -7.391   7.128  64.406  1.00  0.00    -0.082 A  
HETATM   17  C   UNL     1      -8.199   7.981  63.467  1.00  0.00    -0.038 C  
ENDBRANCH   8  10
ENDBRANCH   2   6
TORSDOF 2
ENDMDL
