MODEL        1
REMARK 921   NORMALIZED FREE ENERGY PREDICTED BY IDOCK:   -6.84 KCAL/MOL
REMARK 922        TOTAL FREE ENERGY PREDICTED BY IDOCK:   -8.36 KCAL/MOL
REMARK 923 INTER-LIGAND FREE ENERGY PREDICTED BY IDOCK:   -8.04 KCAL/MOL
REMARK 924 INTRA-LIGAND FREE ENERGY PREDICTED BY IDOCK:   -0.32 KCAL/MOL
REMARK 927      BINDING AFFINITY PREDICTED BY RF-SCORE:    0.00 PKD
ROOT
HETATM    1  C   UNL     1     -11.382  12.515  66.553  1.00  0.00    -0.387 C  
HETATM    2  C   UNL     1     -10.002  12.870  65.984  1.00  0.00    -0.275 C  
HETATM    3  C   UNL     1     -11.368  11.182  67.300  1.00  0.00    -0.302 C  
HETATM    4  C   UNL     1     -10.038  14.190  65.206  1.00  0.00    -0.335 C  
HETATM    5  N   UNL     1     -10.688  15.277  65.949  1.00  0.00    -0.322 N  
HETATM    6  C   UNL     1     -12.009  14.957  66.513  1.00  0.00    -0.073 C  
HETATM    7  C   UNL     1     -10.017  16.489  66.115  1.00  0.00    -0.343 C  
HETATM    8  O   UNL     1      -8.860  16.635  65.714  1.00  0.00    -0.493 OA 
HETATM    9  C   UNL     1     -11.988  13.676  67.382  1.00  0.00    -0.376 C  
ENDROOT
BRANCH   7  10
HETATM   10  C   UNL     1     -10.761  17.611  66.815  1.00  0.00    -0.129 C  
HETATM   11  C   UNL     1     -10.422  18.933  66.272  1.00  0.00    -0.445 C  
HETATM   12  N   UNL     1     -10.185  20.005  65.896  1.00  0.00    -0.476 NA 
ENDBRANCH   7  10
BRANCH   9  13
HETATM   13  N   UNL     1     -11.316  13.865  68.683  1.00  0.00    -0.260 NA 
HETATM   14  C   UNL     1      -9.881  13.998  68.868  1.00  0.00    -0.071 C  
BRANCH  13  15
HETATM   15  C   UNL     1     -12.091  14.087  69.815  1.00  0.00    -0.348 A  
HETATM   16  N   UNL     1     -12.450  15.358  70.138  1.00  0.00    -0.364 NA 
HETATM   17  C   UNL     1     -13.123  15.579  71.289  1.00  0.00    -0.511 A  
HETATM   18  N   UNL     1     -13.521  14.684  72.205  1.00  0.00    -0.360 NA 
HETATM   19  C   UNL     1     -13.192  13.440  71.839  1.00  0.00    -0.431 A  
HETATM   20  C   UNL     1     -12.510  13.056  70.695  1.00  0.00    -0.347 A  
HETATM   21  C   UNL     1     -12.447  11.629  70.730  1.00  0.00    -0.425 A  
HETATM   22  C   UNL     1     -13.041  11.201  71.898  1.00  0.00    -0.408 A  
HETATM   23  N   UNL     1     -13.484  12.315  72.563  1.00  0.00    -0.563 NA 
HETATM   24  H   UNL     1     -13.961  12.308  73.465  1.00  0.00     0.000 HD 
ENDBRANCH  13  15
ENDBRANCH   9  13
TORSDOF 3
ENDMDL
MODEL        2
REMARK 921   NORMALIZED FREE ENERGY PREDICTED BY IDOCK:   -6.69 KCAL/MOL
REMARK 922        TOTAL FREE ENERGY PREDICTED BY IDOCK:   -8.18 KCAL/MOL
REMARK 923 INTER-LIGAND FREE ENERGY PREDICTED BY IDOCK:   -7.95 KCAL/MOL
REMARK 924 INTRA-LIGAND FREE ENERGY PREDICTED BY IDOCK:   -0.23 KCAL/MOL
REMARK 927      BINDING AFFINITY PREDICTED BY RF-SCORE:    0.00 PKD
ROOT
HETATM    1  C   UNL     1     -11.289  12.342  66.199  1.00  0.00    -0.398 C  
HETATM    2  C   UNL     1      -9.977  12.868  65.601  1.00  0.00    -0.245 C  
HETATM    3  C   UNL     1     -11.152  10.909  66.710  1.00  0.00    -0.196 C  
HETATM    4  C   UNL     1     -10.139  14.292  65.059  1.00  0.00    -0.291 C  
HETATM    5  N   UNL     1     -10.779  15.203  66.016  1.00  0.00    -0.319 N  
HETATM    6  C   UNL     1     -12.034  14.716  66.611  1.00  0.00    -0.275 C  
HETATM    7  C   UNL     1     -10.156  16.410  66.334  1.00  0.00    -0.316 C  
HETATM    8  O   UNL     1      -9.043  16.689  65.883  1.00  0.00    -0.480 OA 
HETATM    9  C   UNL     1     -11.882  13.314  67.252  1.00  0.00    -0.372 C  
ENDROOT
BRANCH   7  10
HETATM   10  C   UNL     1     -10.895  17.357  67.262  1.00  0.00    -0.126 C  
HETATM   11  C   UNL     1     -10.639  18.767  66.945  1.00  0.00    -0.409 C  
HETATM   12  N   UNL     1     -10.465  19.898  66.752  1.00  0.00    -0.463 NA 
ENDBRANCH   7  10
BRANCH   9  13
HETATM   13  N   UNL     1     -11.118  13.329  68.514  1.00  0.00    -0.252 NA 
HETATM   14  C   UNL     1      -9.789  13.895  68.678  1.00  0.00    -0.175 C  
BRANCH  13  15
HETATM   15  C   UNL     1     -11.744  12.918  69.685  1.00  0.00    -0.299 A  
HETATM   16  N   UNL     1     -11.692  11.608  70.044  1.00  0.00    -0.330 NA 
HETATM   17  C   UNL     1     -12.379  11.197  71.132  1.00  0.00    -0.346 A  
HETATM   18  N   UNL     1     -13.139  11.928  71.962  1.00  0.00    -0.424 NA 
HETATM   19  C   UNL     1     -13.137  13.218  71.608  1.00  0.00    -0.363 A  
HETATM   20  C   UNL     1     -12.482  13.789  70.528  1.00  0.00    -0.409 A  
HETATM   21  C   UNL     1     -12.741  15.192  70.602  1.00  0.00    -0.451 A  
HETATM   22  C   UNL     1     -13.571  15.419  71.680  1.00  0.00    -0.509 A  
HETATM   23  N   UNL     1     -13.806  14.208  72.277  1.00  0.00    -0.501 NA 
HETATM   24  H   UNL     1     -14.393  14.064  73.099  1.00  0.00     0.000 HD 
ENDBRANCH  13  15
ENDBRANCH   9  13
TORSDOF 3
ENDMDL
MODEL        3
REMARK 921   NORMALIZED FREE ENERGY PREDICTED BY IDOCK:   -6.68 KCAL/MOL
REMARK 922        TOTAL FREE ENERGY PREDICTED BY IDOCK:   -8.17 KCAL/MOL
REMARK 923 INTER-LIGAND FREE ENERGY PREDICTED BY IDOCK:   -8.13 KCAL/MOL
REMARK 924 INTRA-LIGAND FREE ENERGY PREDICTED BY IDOCK:   -0.03 KCAL/MOL
REMARK 927      BINDING AFFINITY PREDICTED BY RF-SCORE:    0.00 PKD
ROOT
HETATM    1  C   UNL     1      -8.694  14.910  68.381  1.00  0.00    -0.172 C  
HETATM    2  C   UNL     1      -8.888  15.957  67.277  1.00  0.00    -0.213 C  
HETATM    3  C   UNL     1      -8.235  15.540  69.695  1.00  0.00    -0.117 C  
HETATM    4  C   UNL     1      -9.313  15.309  65.956  1.00  0.00    -0.311 C  
HETATM    5  N   UNL     1     -10.433  14.372  66.109  1.00  0.00    -0.284 N  
HETATM    6  C   UNL     1     -10.274  13.363  67.169  1.00  0.00    -0.247 C  
HETATM    7  C   UNL     1     -11.564  14.520  65.306  1.00  0.00    -0.359 C  
HETATM    8  O   UNL     1     -11.668  15.467  64.524  1.00  0.00    -0.382 OA 
HETATM    9  C   UNL     1      -9.934  13.994  68.542  1.00  0.00    -0.230 C  
ENDROOT
BRANCH   7  10
HETATM   10  C   UNL     1     -12.659  13.478  65.440  1.00  0.00    -0.531 C  
HETATM   11  C   UNL     1     -12.765  12.619  64.254  1.00  0.00    -0.305 C  
HETATM   12  N   UNL     1     -12.907  11.918  63.340  1.00  0.00    -0.697 NA 
ENDBRANCH   7  10
BRANCH   9  13
HETATM   13  N   UNL     1     -11.080  14.682  69.167  1.00  0.00    -0.257 NA 
HETATM   14  C   UNL     1     -11.679  15.914  68.680  1.00  0.00    -0.322 C  
BRANCH  13  15
HETATM   15  C   UNL     1     -11.756  14.057  70.208  1.00  0.00    -0.238 A  
HETATM   16  N   UNL     1     -12.131  12.757  70.073  1.00  0.00    -0.318 NA 
HETATM   17  C   UNL     1     -12.868  12.182  71.049  1.00  0.00    -0.166 A  
HETATM   18  N   UNL     1     -13.300  12.725  72.196  1.00  0.00    -0.528 NA 
HETATM   19  C   UNL     1     -12.879  13.990  72.320  1.00  0.00    -0.315 A  
HETATM   20  C   UNL     1     -12.118  14.711  71.413  1.00  0.00    -0.416 A  
HETATM   21  C   UNL     1     -11.887  15.987  72.015  1.00  0.00    -0.623 A  
HETATM   22  C   UNL     1     -12.543  16.015  73.228  1.00  0.00    -0.540 A  
HETATM   23  N   UNL     1     -13.146  14.795  73.395  1.00  0.00    -0.565 NA 
HETATM   24  H   UNL     1     -13.710  14.526  74.201  1.00  0.00     0.000 HD 
ENDBRANCH  13  15
ENDBRANCH   9  13
TORSDOF 3
ENDMDL
MODEL        4
REMARK 921   NORMALIZED FREE ENERGY PREDICTED BY IDOCK:   -6.51 KCAL/MOL
REMARK 922        TOTAL FREE ENERGY PREDICTED BY IDOCK:   -7.97 KCAL/MOL
REMARK 923 INTER-LIGAND FREE ENERGY PREDICTED BY IDOCK:   -7.66 KCAL/MOL
REMARK 924 INTRA-LIGAND FREE ENERGY PREDICTED BY IDOCK:   -0.31 KCAL/MOL
REMARK 927      BINDING AFFINITY PREDICTED BY RF-SCORE:    0.00 PKD
ROOT
HETATM    1  C   UNL     1      -9.817  15.850  68.308  1.00  0.00    -0.217 C  
HETATM    2  C   UNL     1     -10.140  16.191  66.847  1.00  0.00    -0.273 C  
HETATM    3  C   UNL     1     -10.462  16.835  69.281  1.00  0.00    -0.331 C  
HETATM    4  C   UNL     1      -9.457  15.218  65.879  1.00  0.00    -0.316 C  
HETATM    5  N   UNL     1      -9.668  13.810  66.236  1.00  0.00    -0.293 N  
HETATM    6  C   UNL     1      -9.375  13.460  67.635  1.00  0.00    -0.217 C  
HETATM    7  C   UNL     1     -10.167  12.928  65.276  1.00  0.00    -0.278 C  
HETATM    8  O   UNL     1     -10.502  13.328  64.159  1.00  0.00    -0.414 OA 
HETATM    9  C   UNL     1     -10.124  14.368  68.642  1.00  0.00    -0.242 C  
ENDROOT
BRANCH   7  10
HETATM   10  C   UNL     1     -10.288  11.466  65.664  1.00  0.00    -0.307 C  
HETATM   11  C   UNL     1      -9.697  10.569  64.663  1.00  0.00    -0.309 C  
HETATM   12  N   UNL     1      -9.259   9.809  63.903  1.00  0.00    -0.245 NA 
ENDBRANCH   7  10
BRANCH   9  13
HETATM   13  N   UNL     1     -11.570  14.083  68.721  1.00  0.00    -0.307 NA 
HETATM   14  C   UNL     1     -12.520  14.289  67.640  1.00  0.00     0.189 C  
BRANCH  13  15
HETATM   15  C   UNL     1     -12.068  13.429  69.842  1.00  0.00    -0.322 A  
HETATM   16  N   UNL     1     -11.913  12.083  69.951  1.00  0.00    -0.328 NA 
HETATM   17  C   UNL     1     -12.479  11.440  70.996  1.00  0.00    -0.383 A  
HETATM   18  N   UNL     1     -13.201  11.958  72.000  1.00  0.00    -0.456 NA 
HETATM   19  C   UNL     1     -13.300  13.288  71.888  1.00  0.00    -0.451 A  
HETATM   20  C   UNL     1     -12.774  14.085  70.883  1.00  0.00    -0.420 A  
HETATM   21  C   UNL     1     -13.102  15.431  71.231  1.00  0.00    -0.564 A  
HETATM   22  C   UNL     1     -13.845  15.406  72.393  1.00  0.00    -0.562 A  
HETATM   23  N   UNL     1     -13.961  14.095  72.776  1.00  0.00    -0.619 NA 
HETATM   24  H   UNL     1     -14.465  13.768  73.600  1.00  0.00     0.000 HD 
ENDBRANCH  13  15
ENDBRANCH   9  13
TORSDOF 3
ENDMDL
MODEL        5
REMARK 921   NORMALIZED FREE ENERGY PREDICTED BY IDOCK:   -6.46 KCAL/MOL
REMARK 922        TOTAL FREE ENERGY PREDICTED BY IDOCK:   -7.91 KCAL/MOL
REMARK 923 INTER-LIGAND FREE ENERGY PREDICTED BY IDOCK:   -7.75 KCAL/MOL
REMARK 924 INTRA-LIGAND FREE ENERGY PREDICTED BY IDOCK:   -0.16 KCAL/MOL
REMARK 927      BINDING AFFINITY PREDICTED BY RF-SCORE:    0.00 PKD
ROOT
HETATM    1  C   UNL     1      -9.944  15.545  68.751  1.00  0.00    -0.214 C  
HETATM    2  C   UNL     1     -10.665  16.516  67.806  1.00  0.00    -0.329 C  
HETATM    3  C   UNL     1     -10.404  15.707  70.199  1.00  0.00    -0.268 C  
HETATM    4  C   UNL     1     -10.169  16.369  66.364  1.00  0.00    -0.316 C  
HETATM    5  N   UNL     1     -10.146  14.976  65.903  1.00  0.00    -0.298 N  
HETATM    6  C   UNL     1      -9.468  14.023  66.798  1.00  0.00    -0.282 C  
HETATM    7  C   UNL     1     -10.791  14.638  64.713  1.00  0.00    -0.385 C  
HETATM    8  O   UNL     1     -11.441  15.475  64.083  1.00  0.00    -0.240 OA 
HETATM    9  C   UNL     1     -10.012  14.081  68.247  1.00  0.00    -0.236 C  
ENDROOT
BRANCH   7  10
HETATM   10  C   UNL     1     -10.669  13.203  64.233  1.00  0.00    -0.431 C  
HETATM   11  C   UNL     1     -11.967  12.621  63.870  1.00  0.00    -0.479 C  
HETATM   12  N   UNL     1     -12.963  12.100  63.581  1.00  0.00    -0.790 NA 
ENDBRANCH   7  10
BRANCH   9  13
HETATM   13  N   UNL     1     -11.355  13.486  68.390  1.00  0.00    -0.272 NA 
HETATM   14  C   UNL     1     -12.473  13.723  67.492  1.00  0.00     0.139 C  
BRANCH  13  15
HETATM   15  C   UNL     1     -11.557  12.504  69.354  1.00  0.00    -0.305 A  
HETATM   16  N   UNL     1     -10.992  11.279  69.186  1.00  0.00    -0.227 NA 
HETATM   17  C   UNL     1     -11.268  10.301  70.076  1.00  0.00    -0.311 A  
HETATM   18  N   UNL     1     -12.047  10.362  71.166  1.00  0.00    -0.375 NA 
HETATM   19  C   UNL     1     -12.554  11.591  71.328  1.00  0.00    -0.347 A  
HETATM   20  C   UNL     1     -12.361  12.691  70.507  1.00  0.00    -0.350 A  
HETATM   21  C   UNL     1     -13.061  13.773  71.124  1.00  0.00    -0.324 A  
HETATM   22  C   UNL     1     -13.685  13.293  72.256  1.00  0.00    -0.589 A  
HETATM   23  N   UNL     1     -13.371  11.963  72.362  1.00  0.00    -0.518 NA 
HETATM   24  H   UNL     1     -13.697  11.341  73.102  1.00  0.00     0.000 HD 
ENDBRANCH  13  15
ENDBRANCH   9  13
TORSDOF 3
ENDMDL
MODEL        6
REMARK 921   NORMALIZED FREE ENERGY PREDICTED BY IDOCK:   -6.40 KCAL/MOL
REMARK 922        TOTAL FREE ENERGY PREDICTED BY IDOCK:   -7.84 KCAL/MOL
REMARK 923 INTER-LIGAND FREE ENERGY PREDICTED BY IDOCK:   -7.45 KCAL/MOL
REMARK 924 INTRA-LIGAND FREE ENERGY PREDICTED BY IDOCK:   -0.39 KCAL/MOL
REMARK 927      BINDING AFFINITY PREDICTED BY RF-SCORE:    0.00 PKD
ROOT
HETATM    1  C   UNL     1      -7.134  15.061  67.771  1.00  0.00    -0.189 C  
HETATM    2  C   UNL     1      -6.992  15.829  69.092  1.00  0.00    -0.174 C  
HETATM    3  C   UNL     1      -7.631  13.633  67.990  1.00  0.00    -0.139 C  
HETATM    4  C   UNL     1      -6.458  17.247  68.862  1.00  0.00    -0.202 C  
HETATM    5  N   UNL     1      -7.183  17.971  67.812  1.00  0.00    -0.208 N  
HETATM    6  C   UNL     1      -7.341  17.250  66.538  1.00  0.00    -0.277 C  
HETATM    7  C   UNL     1      -7.708  19.234  68.088  1.00  0.00    -0.297 C  
HETATM    8  O   UNL     1      -7.637  19.717  69.221  1.00  0.00    -0.336 OA 
HETATM    9  C   UNL     1      -7.966  15.846  66.725  1.00  0.00    -0.252 C  
ENDROOT
BRANCH   7  10
HETATM   10  C   UNL     1      -8.375  19.981  66.948  1.00  0.00    -0.376 C  
HETATM   11  C   UNL     1      -9.839  19.889  66.998  1.00  0.00    -0.411 C  
HETATM   12  N   UNL     1     -10.999  19.842  66.975  1.00  0.00    -0.358 NA 
ENDBRANCH   7  10
BRANCH   9  13
HETATM   13  N   UNL     1      -9.405  15.886  67.049  1.00  0.00    -0.210 NA 
HETATM   14  C   UNL     1      -9.973  16.473  68.251  1.00  0.00    -0.250 C  
BRANCH  13  15
HETATM   15  C   UNL     1     -10.323  15.480  66.087  1.00  0.00    -0.315 A  
HETATM   16  N   UNL     1     -10.685  16.345  65.103  1.00  0.00    -0.628 NA 
HETATM   17  C   UNL     1     -11.646  15.979  64.227  1.00  0.00    -0.138 A  
HETATM   18  N   UNL     1     -12.326  14.824  64.172  1.00  0.00    -0.752 NA 
HETATM   19  C   UNL     1     -11.918  13.978  65.125  1.00  0.00    -0.387 A  
HETATM   20  C   UNL     1     -10.947  14.206  66.088  1.00  0.00    -0.309 A  
HETATM   21  C   UNL     1     -10.837  12.994  66.836  1.00  0.00    -0.282 A  
HETATM   22  C   UNL     1     -11.763  12.098  66.342  1.00  0.00    -0.324 A  
HETATM   23  N   UNL     1     -12.415  12.714  65.306  1.00  0.00    -0.639 NA 
HETATM   24  H   UNL     1     -13.161  12.295  64.750  1.00  0.00     0.000 HD 
ENDBRANCH  13  15
ENDBRANCH   9  13
TORSDOF 3
ENDMDL
MODEL        7
REMARK 921   NORMALIZED FREE ENERGY PREDICTED BY IDOCK:   -6.32 KCAL/MOL
REMARK 922        TOTAL FREE ENERGY PREDICTED BY IDOCK:   -7.74 KCAL/MOL
REMARK 923 INTER-LIGAND FREE ENERGY PREDICTED BY IDOCK:   -7.24 KCAL/MOL
REMARK 924 INTRA-LIGAND FREE ENERGY PREDICTED BY IDOCK:   -0.50 KCAL/MOL
REMARK 927      BINDING AFFINITY PREDICTED BY RF-SCORE:    0.00 PKD
ROOT
HETATM    1  C   UNL     1      -9.995  19.335  67.055  1.00  0.00    -0.447 C  
HETATM    2  C   UNL     1      -8.523  19.759  67.141  1.00  0.00    -0.364 C  
HETATM    3  C   UNL     1     -10.658  19.826  65.769  1.00  0.00    -0.522 C  
HETATM    4  C   UNL     1      -7.880  19.292  68.451  1.00  0.00    -0.341 C  
HETATM    5  N   UNL     1      -8.122  17.873  68.737  1.00  0.00    -0.271 N  
HETATM    6  C   UNL     1      -9.527  17.440  68.651  1.00  0.00    -0.280 C  
HETATM    7  C   UNL     1      -7.041  17.036  69.011  1.00  0.00    -0.233 C  
HETATM    8  O   UNL     1      -5.882  17.452  68.944  1.00  0.00    -0.164 OA 
HETATM    9  C   UNL     1     -10.181  17.816  67.299  1.00  0.00    -0.350 C  
ENDROOT
BRANCH   7  10
HETATM   10  C   UNL     1      -7.346  15.596  69.385  1.00  0.00    -0.216 C  
HETATM   11  C   UNL     1      -6.938  14.648  68.341  1.00  0.00    -0.113 C  
HETATM   12  N   UNL     1      -6.650  13.850  67.548  1.00  0.00    -0.270 NA 
ENDBRANCH   7  10
BRANCH   9  13
HETATM   13  N   UNL     1      -9.705  16.991  66.171  1.00  0.00    -0.412 NA 
HETATM   14  C   UNL     1      -8.321  16.891  65.737  1.00  0.00     0.282 C  
BRANCH  13  15
HETATM   15  C   UNL     1     -10.593  16.117  65.554  1.00  0.00    -0.377 A  
HETATM   16  N   UNL     1     -11.191  16.486  64.391  1.00  0.00    -0.980 NA 
HETATM   17  C   UNL     1     -12.122  15.673  63.844  1.00  0.00     0.294 A  
HETATM   18  N   UNL     1     -12.561  14.489  64.295  1.00  0.00    -0.715 NA 
HETATM   19  C   UNL     1     -11.924  14.134  65.417  1.00  0.00    -0.381 A  
HETATM   20  C   UNL     1     -10.950  14.853  66.091  1.00  0.00    -0.334 A  
HETATM   21  C   UNL     1     -10.546  14.039  67.194  1.00  0.00    -0.274 A  
HETATM   22  C   UNL     1     -11.309  12.890  67.182  1.00  0.00    -0.306 A  
HETATM   23  N   UNL     1     -12.145  12.966  66.099  1.00  0.00    -0.471 NA 
HETATM   24  H   UNL     1     -12.832  12.258  65.838  1.00  0.00     0.000 HD 
ENDBRANCH  13  15
ENDBRANCH   9  13
TORSDOF 3
ENDMDL
MODEL        8
REMARK 921   NORMALIZED FREE ENERGY PREDICTED BY IDOCK:   -6.30 KCAL/MOL
REMARK 922        TOTAL FREE ENERGY PREDICTED BY IDOCK:   -7.72 KCAL/MOL
REMARK 923 INTER-LIGAND FREE ENERGY PREDICTED BY IDOCK:   -7.67 KCAL/MOL
REMARK 924 INTRA-LIGAND FREE ENERGY PREDICTED BY IDOCK:   -0.05 KCAL/MOL
REMARK 927      BINDING AFFINITY PREDICTED BY RF-SCORE:    0.00 PKD
ROOT
HETATM    1  C   UNL     1     -10.155  10.478  67.915  1.00  0.00    -0.204 C  
HETATM    2  C   UNL     1      -9.164  10.733  66.772  1.00  0.00    -0.174 C  
HETATM    3  C   UNL     1      -9.444  10.173  69.233  1.00  0.00    -0.231 C  
HETATM    4  C   UNL     1      -9.889  11.000  65.449  1.00  0.00    -0.251 C  
HETATM    5  N   UNL     1     -10.951  12.006  65.569  1.00  0.00    -0.290 N  
HETATM    6  C   UNL     1     -11.909  11.788  66.665  1.00  0.00     0.050 C  
HETATM    7  C   UNL     1     -10.960  13.099  64.701  1.00  0.00    -0.356 C  
HETATM    8  O   UNL     1     -10.050  13.271  63.888  1.00  0.00    -0.274 OA 
HETATM    9  C   UNL     1     -11.212  11.606  68.035  1.00  0.00    -0.263 C  
ENDROOT
BRANCH   7  10
HETATM   10  C   UNL     1     -12.124  14.067  64.806  1.00  0.00    -0.455 C  
HETATM   11  C   UNL     1     -11.746  15.439  64.447  1.00  0.00    -0.258 C  
HETATM   12  N   UNL     1     -11.506  16.545  64.189  1.00  0.00    -1.092 NA 
ENDBRANCH   7  10
BRANCH   9  13
HETATM   13  N   UNL     1     -10.653  12.860  68.576  1.00  0.00    -0.251 NA 
HETATM   14  C   UNL     1      -9.384  13.448  68.180  1.00  0.00    -0.217 C  
BRANCH  13  15
HETATM   15  C   UNL     1     -11.440  13.641  69.416  1.00  0.00    -0.286 A  
HETATM   16  N   UNL     1     -11.443  14.991  69.260  1.00  0.00    -0.288 NA 
HETATM   17  C   UNL     1     -12.135  15.752  70.137  1.00  0.00    -0.333 A  
HETATM   18  N   UNL     1     -12.868  15.353  71.186  1.00  0.00    -0.423 NA 
HETATM   19  C   UNL     1     -12.881  14.019  71.287  1.00  0.00    -0.358 A  
HETATM   20  C   UNL     1     -12.229  13.111  70.469  1.00  0.00    -0.405 A  
HETATM   21  C   UNL     1     -12.589  11.814  70.948  1.00  0.00    -0.384 A  
HETATM   22  C   UNL     1     -13.398  11.973  72.053  1.00  0.00    -0.341 A  
HETATM   23  N   UNL     1     -13.561  13.320  72.249  1.00  0.00    -0.581 NA 
HETATM   24  H   UNL     1     -14.108  13.740  73.001  1.00  0.00     0.000 HD 
ENDBRANCH  13  15
ENDBRANCH   9  13
TORSDOF 3
ENDMDL
MODEL        9
REMARK 921   NORMALIZED FREE ENERGY PREDICTED BY IDOCK:   -6.26 KCAL/MOL
REMARK 922        TOTAL FREE ENERGY PREDICTED BY IDOCK:   -7.68 KCAL/MOL
REMARK 923 INTER-LIGAND FREE ENERGY PREDICTED BY IDOCK:   -7.32 KCAL/MOL
REMARK 924 INTRA-LIGAND FREE ENERGY PREDICTED BY IDOCK:   -0.36 KCAL/MOL
REMARK 927      BINDING AFFINITY PREDICTED BY RF-SCORE:    0.00 PKD
ROOT
HETATM    1  C   UNL     1      -8.081  15.100  69.239  1.00  0.00    -0.217 C  
HETATM    2  C   UNL     1      -7.785  13.874  68.366  1.00  0.00    -0.139 C  
HETATM    3  C   UNL     1      -6.849  15.983  69.424  1.00  0.00    -0.215 C  
HETATM    4  C   UNL     1      -9.019  12.977  68.219  1.00  0.00    -0.177 C  
HETATM    5  N   UNL     1     -10.226  13.719  67.836  1.00  0.00    -0.240 N  
HETATM    6  C   UNL     1     -10.526  14.906  68.653  1.00  0.00    -0.242 C  
HETATM    7  C   UNL     1     -10.963  13.302  66.727  1.00  0.00    -0.287 C  
HETATM    8  O   UNL     1     -10.576  12.368  66.022  1.00  0.00    -0.247 OA 
HETATM    9  C   UNL     1      -9.327  15.881  68.746  1.00  0.00    -0.220 C  
ENDROOT
BRANCH   7  10
HETATM   10  C   UNL     1     -12.249  14.047  66.420  1.00  0.00    -0.492 C  
HETATM   11  C   UNL     1     -12.355  14.424  65.005  1.00  0.00    -0.396 C  
HETATM   12  N   UNL     1     -12.490  14.763  63.903  1.00  0.00    -0.779 NA 
ENDBRANCH   7  10
BRANCH   9  13
HETATM   13  N   UNL     1      -9.080  16.624  67.495  1.00  0.00    -0.201 NA 
HETATM   14  C   UNL     1      -8.718  16.019  66.224  1.00  0.00    -0.336 C  
BRANCH  13  15
HETATM   15  C   UNL     1      -9.353  17.986  67.456  1.00  0.00    -0.257 A  
HETATM   16  N   UNL     1     -10.646  18.406  67.442  1.00  0.00    -0.420 NA 
HETATM   17  C   UNL     1     -10.907  19.725  67.310  1.00  0.00    -0.342 A  
HETATM   18  N   UNL     1     -10.036  20.738  67.195  1.00  0.00    -0.324 NA 
HETATM   19  C   UNL     1      -8.773  20.298  67.254  1.00  0.00    -0.352 A  
HETATM   20  C   UNL     1      -8.349  18.986  67.391  1.00  0.00    -0.299 A  
HETATM   21  C   UNL     1      -6.923  19.034  67.455  1.00  0.00    -0.217 A  
HETATM   22  C   UNL     1      -6.530  20.348  67.310  1.00  0.00    -0.223 A  
HETATM   23  N   UNL     1      -7.667  21.103  67.183  1.00  0.00    -0.694 NA 
HETATM   24  H   UNL     1      -7.687  22.115  67.056  1.00  0.00     0.000 HD 
ENDBRANCH  13  15
ENDBRANCH   9  13
TORSDOF 3
ENDMDL
MODEL       10
REMARK 921   NORMALIZED FREE ENERGY PREDICTED BY IDOCK:   -6.23 KCAL/MOL
REMARK 922        TOTAL FREE ENERGY PREDICTED BY IDOCK:   -7.64 KCAL/MOL
REMARK 923 INTER-LIGAND FREE ENERGY PREDICTED BY IDOCK:   -7.73 KCAL/MOL
REMARK 924 INTRA-LIGAND FREE ENERGY PREDICTED BY IDOCK:    0.09 KCAL/MOL
REMARK 927      BINDING AFFINITY PREDICTED BY RF-SCORE:    0.00 PKD
ROOT
HETATM    1  C   UNL     1     -11.646  15.110  69.302  1.00  0.00    -0.344 C  
HETATM    2  C   UNL     1     -11.425  13.644  69.700  1.00  0.00    -0.286 C  
HETATM    3  C   UNL     1     -11.109  16.076  70.357  1.00  0.00    -0.376 C  
HETATM    4  C   UNL     1     -12.001  12.686  68.653  1.00  0.00    -0.223 C  
HETATM    5  N   UNL     1     -11.586  13.013  67.283  1.00  0.00    -0.335 N  
HETATM    6  C   UNL     1     -11.778  14.417  66.882  1.00  0.00    -0.402 C  
HETATM    7  C   UNL     1     -11.005  12.024  66.489  1.00  0.00    -0.295 C  
HETATM    8  O   UNL     1     -10.768  10.903  66.943  1.00  0.00    -0.253 OA 
HETATM    9  C   UNL     1     -11.127  15.411  67.873  1.00  0.00    -0.323 C  
ENDROOT
BRANCH   7  10
HETATM   10  C   UNL     1     -10.670  12.386  65.053  1.00  0.00    -0.329 C  
HETATM   11  C   UNL     1     -11.807  12.188  64.145  1.00  0.00    -0.404 C  
HETATM   12  N   UNL     1     -12.663  12.040  63.376  1.00  0.00    -0.742 NA 
ENDBRANCH   7  10
BRANCH   9  13
HETATM   13  N   UNL     1      -9.654  15.437  67.791  1.00  0.00    -0.209 NA 
HETATM   14  C   UNL     1      -8.776  14.354  68.205  1.00  0.00    -0.175 C  
BRANCH  13  15
HETATM   15  C   UNL     1      -9.034  16.495  67.135  1.00  0.00    -0.205 A  
HETATM   16  N   UNL     1      -7.832  16.292  66.533  1.00  0.00    -0.275 NA 
HETATM   17  C   UNL     1      -7.190  17.344  65.977  1.00  0.00    -0.234 A  
HETATM   18  N   UNL     1      -7.586  18.624  65.919  1.00  0.00    -0.477 NA 
HETATM   19  C   UNL     1      -8.790  18.783  66.481  1.00  0.00    -0.312 A  
HETATM   20  C   UNL     1      -9.568  17.807  67.084  1.00  0.00    -0.276 A  
HETATM   21  C   UNL     1     -10.778  18.455  67.483  1.00  0.00    -0.399 A  
HETATM   22  C   UNL     1     -10.678  19.791  67.158  1.00  0.00    -0.421 A  
HETATM   23  N   UNL     1      -9.461  19.975  66.555  1.00  0.00    -0.431 NA 
HETATM   24  H   UNL     1      -9.107  20.867  66.211  1.00  0.00     0.000 HD 
ENDBRANCH  13  15
ENDBRANCH   9  13
TORSDOF 3
ENDMDL
MODEL       11
REMARK 921   NORMALIZED FREE ENERGY PREDICTED BY IDOCK:   -6.19 KCAL/MOL
REMARK 922        TOTAL FREE ENERGY PREDICTED BY IDOCK:   -7.59 KCAL/MOL
REMARK 923 INTER-LIGAND FREE ENERGY PREDICTED BY IDOCK:   -7.22 KCAL/MOL
REMARK 924 INTRA-LIGAND FREE ENERGY PREDICTED BY IDOCK:   -0.37 KCAL/MOL
REMARK 927      BINDING AFFINITY PREDICTED BY RF-SCORE:    0.00 PKD
ROOT
HETATM    1  C   UNL     1     -11.404  12.088  65.773  1.00  0.00    -0.384 C  
HETATM    2  C   UNL     1     -10.179  12.797  65.181  1.00  0.00    -0.297 C  
HETATM    3  C   UNL     1     -11.156  10.595  65.983  1.00  0.00     0.169 C  
HETATM    4  C   UNL     1     -10.454  14.286  64.941  1.00  0.00    -0.430 C  
HETATM    5  N   UNL     1     -11.040  14.957  66.107  1.00  0.00    -0.334 N  
HETATM    6  C   UNL     1     -12.212  14.290  66.699  1.00  0.00    -0.381 C  
HETATM    7  C   UNL     1     -10.445  16.118  66.600  1.00  0.00    -0.300 C  
HETATM    8  O   UNL     1      -9.393  16.545  66.120  1.00  0.00    -0.288 OA 
HETATM    9  C   UNL     1     -11.938  12.804  67.040  1.00  0.00    -0.295 C  
ENDROOT
BRANCH   7  10
HETATM   10  C   UNL     1     -11.134  16.824  67.753  1.00  0.00    -0.135 C  
HETATM   11  C   UNL     1     -10.591  18.167  67.994  1.00  0.00    -0.341 C  
HETATM   12  N   UNL     1     -10.195  19.229  68.243  1.00  0.00    -0.412 NA 
ENDBRANCH   7  10
BRANCH   9  13
HETATM   13  N   UNL     1     -11.060  12.627  68.213  1.00  0.00    -0.244 NA 
HETATM   14  C   UNL     1      -9.687  13.095  68.306  1.00  0.00    -0.223 C  
BRANCH  13  15
HETATM   15  C   UNL     1     -11.600  12.114  69.387  1.00  0.00    -0.317 A  
HETATM   16  N   UNL     1     -11.487  10.785  69.647  1.00  0.00    -0.278 NA 
HETATM   17  C   UNL     1     -12.094  10.276  70.743  1.00  0.00    -0.353 A  
HETATM   18  N   UNL     1     -12.821  10.921  71.667  1.00  0.00    -0.449 NA 
HETATM   19  C   UNL     1     -12.878  12.232  71.406  1.00  0.00    -0.271 A  
HETATM   20  C   UNL     1     -12.309  12.899  70.333  1.00  0.00    -0.333 A  
HETATM   21  C   UNL     1     -12.604  14.284  70.523  1.00  0.00    -0.418 A  
HETATM   22  C   UNL     1     -13.371  14.408  71.663  1.00  0.00    -0.363 A  
HETATM   23  N   UNL     1     -13.533  13.150  72.184  1.00  0.00    -0.540 NA 
HETATM   24  H   UNL     1     -14.064  12.929  73.027  1.00  0.00     0.000 HD 
ENDBRANCH  13  15
ENDBRANCH   9  13
TORSDOF 3
ENDMDL
MODEL       12
REMARK 921   NORMALIZED FREE ENERGY PREDICTED BY IDOCK:   -6.14 KCAL/MOL
REMARK 922        TOTAL FREE ENERGY PREDICTED BY IDOCK:   -7.53 KCAL/MOL
REMARK 923 INTER-LIGAND FREE ENERGY PREDICTED BY IDOCK:   -7.68 KCAL/MOL
REMARK 924 INTRA-LIGAND FREE ENERGY PREDICTED BY IDOCK:    0.15 KCAL/MOL
REMARK 927      BINDING AFFINITY PREDICTED BY RF-SCORE:    0.00 PKD
ROOT
HETATM    1  C   UNL     1     -10.519  16.242  66.868  1.00  0.00    -0.302 C  
HETATM    2  C   UNL     1      -9.964  16.783  68.192  1.00  0.00    -0.270 C  
HETATM    3  C   UNL     1      -9.506  16.363  65.731  1.00  0.00    -0.191 C  
HETATM    4  C   UNL     1     -11.002  16.690  69.316  1.00  0.00    -0.261 C  
HETATM    5  N   UNL     1     -11.625  15.364  69.414  1.00  0.00    -0.317 N  
HETATM    6  C   UNL     1     -12.156  14.819  68.154  1.00  0.00    -0.132 C  
HETATM    7  C   UNL     1     -11.631  14.700  70.640  1.00  0.00    -0.250 C  
HETATM    8  O   UNL     1     -11.056  15.174  71.623  1.00  0.00    -0.334 OA 
HETATM    9  C   UNL     1     -11.102  14.814  67.020  1.00  0.00    -0.333 C  
ENDROOT
BRANCH   7  10
HETATM   10  C   UNL     1     -12.361  13.371  70.714  1.00  0.00    -0.433 C  
HETATM   11  C   UNL     1     -13.360  13.339  71.789  1.00  0.00    -0.393 C  
HETATM   12  N   UNL     1     -14.155  13.247  72.630  1.00  0.00    -0.674 NA 
ENDBRANCH   7  10
BRANCH   9  13
HETATM   13  N   UNL     1     -10.060  13.783  67.196  1.00  0.00    -0.239 NA 
HETATM   14  C   UNL     1      -9.062  13.779  68.253  1.00  0.00    -0.195 C  
BRANCH  13  15
HETATM   15  C   UNL     1     -10.101  12.641  66.405  1.00  0.00    -0.253 A  
HETATM   16  N   UNL     1      -9.337  11.569  66.743  1.00  0.00    -0.177 NA 
HETATM   17  C   UNL     1      -9.309  10.497  65.921  1.00  0.00    -0.181 A  
HETATM   18  N   UNL     1      -9.965  10.317  64.765  1.00  0.00    -0.341 NA 
HETATM   19  C   UNL     1     -10.739  11.371  64.481  1.00  0.00    -0.327 A  
HETATM   20  C   UNL     1     -10.877  12.533  65.222  1.00  0.00    -0.321 A  
HETATM   21  C   UNL     1     -11.848  13.328  64.539  1.00  0.00    -0.433 A  
HETATM   22  C   UNL     1     -12.230  12.654  63.398  1.00  0.00    -0.517 A  
HETATM   23  N   UNL     1     -11.542  11.468  63.375  1.00  0.00    -0.807 NA 
HETATM   24  H   UNL     1     -11.616  10.762  62.643  1.00  0.00     0.000 HD 
ENDBRANCH  13  15
ENDBRANCH   9  13
TORSDOF 3
ENDMDL
MODEL       13
REMARK 921   NORMALIZED FREE ENERGY PREDICTED BY IDOCK:   -6.10 KCAL/MOL
REMARK 922        TOTAL FREE ENERGY PREDICTED BY IDOCK:   -7.49 KCAL/MOL
REMARK 923 INTER-LIGAND FREE ENERGY PREDICTED BY IDOCK:   -7.12 KCAL/MOL
REMARK 924 INTRA-LIGAND FREE ENERGY PREDICTED BY IDOCK:   -0.36 KCAL/MOL
REMARK 927      BINDING AFFINITY PREDICTED BY RF-SCORE:    0.00 PKD
ROOT
HETATM    1  C   UNL     1     -11.210  12.818  64.649  1.00  0.00    -0.356 C  
HETATM    2  C   UNL     1     -10.510  14.170  64.837  1.00  0.00    -0.461 C  
HETATM    3  C   UNL     1     -10.481  11.931  63.641  1.00  0.00    -0.493 C  
HETATM    4  C   UNL     1     -11.271  15.064  65.822  1.00  0.00    -0.318 C  
HETATM    5  N   UNL     1     -11.614  14.378  67.074  1.00  0.00    -0.369 N  
HETATM    6  C   UNL     1     -12.278  13.072  66.919  1.00  0.00    -0.168 C  
HETATM    7  C   UNL     1     -11.258  14.956  68.292  1.00  0.00    -0.294 C  
HETATM    8  O   UNL     1     -10.595  15.995  68.332  1.00  0.00    -0.248 OA 
HETATM    9  C   UNL     1     -11.485  12.110  66.001  1.00  0.00    -0.370 C  
ENDROOT
BRANCH   7  10
HETATM   10  C   UNL     1     -11.708  14.254  69.560  1.00  0.00    -0.366 C  
HETATM   11  C   UNL     1     -12.644  15.065  70.348  1.00  0.00    -0.350 C  
HETATM   12  N   UNL     1     -13.376  15.662  71.022  1.00  0.00    -0.568 NA 
ENDBRANCH   7  10
BRANCH   9  13
HETATM   13  N   UNL     1     -10.261  11.578  66.630  1.00  0.00    -0.213 NA 
HETATM   14  C   UNL     1      -9.066  12.354  66.919  1.00  0.00    -0.211 C  
BRANCH  13  15
HETATM   15  C   UNL     1     -10.272  10.283  67.135  1.00  0.00    -0.225 A  
HETATM   16  N   UNL     1      -9.943   9.247  66.319  1.00  0.00    -0.287 NA 
HETATM   17  C   UNL     1     -10.045   7.983  66.787  1.00  0.00    -0.287 A  
HETATM   18  N   UNL     1     -10.432   7.576  68.005  1.00  0.00    -0.208 NA 
HETATM   19  C   UNL     1     -10.708   8.618  68.797  1.00  0.00    -0.064 A  
HETATM   20  C   UNL     1     -10.648   9.962  68.465  1.00  0.00    -0.248 A  
HETATM   21  C   UNL     1     -10.982  10.681  69.654  1.00  0.00    -0.331 A  
HETATM   22  C   UNL     1     -11.276   9.765  70.642  1.00  0.00    -0.334 A  
HETATM   23  N   UNL     1     -11.110   8.515  70.103  1.00  0.00    -0.356 NA 
HETATM   24  H   UNL     1     -11.264   7.638  70.600  1.00  0.00     0.000 HD 
ENDBRANCH  13  15
ENDBRANCH   9  13
TORSDOF 3
ENDMDL
MODEL       14
REMARK 921   NORMALIZED FREE ENERGY PREDICTED BY IDOCK:   -6.08 KCAL/MOL
REMARK 922        TOTAL FREE ENERGY PREDICTED BY IDOCK:   -7.47 KCAL/MOL
REMARK 923 INTER-LIGAND FREE ENERGY PREDICTED BY IDOCK:   -7.23 KCAL/MOL
REMARK 924 INTRA-LIGAND FREE ENERGY PREDICTED BY IDOCK:   -0.24 KCAL/MOL
REMARK 927      BINDING AFFINITY PREDICTED BY RF-SCORE:    0.00 PKD
ROOT
HETATM    1  C   UNL     1      -9.741  16.089  68.533  1.00  0.00    -0.214 C  
HETATM    2  C   UNL     1      -9.823  16.161  67.002  1.00  0.00    -0.248 C  
HETATM    3  C   UNL     1     -10.450  17.265  69.201  1.00  0.00    -0.263 C  
HETATM    4  C   UNL     1      -9.076  14.996  66.344  1.00  0.00    -0.277 C  
HETATM    5  N   UNL     1      -9.435  13.690  66.911  1.00  0.00    -0.253 N  
HETATM    6  C   UNL     1      -9.374  13.599  68.379  1.00  0.00    -0.181 C  
HETATM    7  C   UNL     1      -9.849  12.665  66.060  1.00  0.00    -0.254 C  
HETATM    8  O   UNL     1      -9.990  12.861  64.851  1.00  0.00    -0.227 OA 
HETATM    9  C   UNL     1     -10.196  14.710  69.077  1.00  0.00    -0.220 C  
ENDROOT
BRANCH   7  10
HETATM   10  C   UNL     1     -10.128  11.309  66.681  1.00  0.00    -0.251 C  
HETATM   11  C   UNL     1      -9.683  10.200  65.828  1.00  0.00    -0.245 C  
HETATM   12  N   UNL     1      -9.367   9.281  65.193  1.00  0.00    -0.219 NA 
ENDBRANCH   7  10
BRANCH   9  13
HETATM   13  N   UNL     1     -11.654  14.507  68.978  1.00  0.00    -0.281 NA 
HETATM   14  C   UNL     1     -12.387  14.306  67.739  1.00  0.00    -0.006 C  
BRANCH  13  15
HETATM   15  C   UNL     1     -12.391  14.337  70.145  1.00  0.00    -0.353 A  
HETATM   16  N   UNL     1     -12.937  15.424  70.753  1.00  0.00    -0.465 NA 
HETATM   17  C   UNL     1     -13.572  15.266  71.935  1.00  0.00    -0.475 A  
HETATM   18  N   UNL     1     -13.765  14.136  72.631  1.00  0.00    -0.640 NA 
HETATM   19  C   UNL     1     -13.254  13.079  71.988  1.00  0.00    -0.444 A  
HETATM   20  C   UNL     1     -12.583  13.081  70.776  1.00  0.00    -0.321 A  
HETATM   21  C   UNL     1     -12.282  11.714  70.486  1.00  0.00    -0.451 A  
HETATM   22  C   UNL     1     -12.732  10.943  71.538  1.00  0.00    -0.428 A  
HETATM   23  N   UNL     1     -13.315  11.789  72.445  1.00  0.00    -0.507 NA 
HETATM   24  H   UNL     1     -13.733  11.502  73.330  1.00  0.00     0.000 HD 
ENDBRANCH  13  15
ENDBRANCH   9  13
TORSDOF 3
ENDMDL
MODEL       15
REMARK 921   NORMALIZED FREE ENERGY PREDICTED BY IDOCK:   -6.08 KCAL/MOL
REMARK 922        TOTAL FREE ENERGY PREDICTED BY IDOCK:   -7.47 KCAL/MOL
REMARK 923 INTER-LIGAND FREE ENERGY PREDICTED BY IDOCK:   -7.30 KCAL/MOL
REMARK 924 INTRA-LIGAND FREE ENERGY PREDICTED BY IDOCK:   -0.17 KCAL/MOL
REMARK 927      BINDING AFFINITY PREDICTED BY RF-SCORE:    0.00 PKD
ROOT
HETATM    1  C   UNL     1      -7.442  14.367  67.664  1.00  0.00    -0.191 C  
HETATM    2  C   UNL     1      -7.775  14.982  69.029  1.00  0.00    -0.170 C  
HETATM    3  C   UNL     1      -7.186  12.864  67.760  1.00  0.00    -0.134 C  
HETATM    4  C   UNL     1      -7.993  16.495  68.926  1.00  0.00    -0.239 C  
HETATM    5  N   UNL     1      -8.918  16.870  67.849  1.00  0.00    -0.222 N  
HETATM    6  C   UNL     1      -8.625  16.284  66.530  1.00  0.00    -0.297 C  
HETATM    7  C   UNL     1     -10.011  17.687  68.138  1.00  0.00    -0.330 C  
HETATM    8  O   UNL     1     -10.253  18.038  69.295  1.00  0.00    -0.297 OA 
HETATM    9  C   UNL     1      -8.490  14.742  66.584  1.00  0.00    -0.058 C  
ENDROOT
BRANCH   7  10
HETATM   10  C   UNL     1     -10.890  18.118  66.978  1.00  0.00    -0.162 C  
HETATM   11  C   UNL     1     -10.403  19.342  66.329  1.00  0.00    -0.480 C  
HETATM   12  N   UNL     1     -10.077  20.313  65.784  1.00  0.00    -0.300 NA 
ENDBRANCH   7  10
BRANCH   9  13
HETATM   13  N   UNL     1      -9.779  14.049  66.769  1.00  0.00    -0.269 NA 
HETATM   14  C   UNL     1     -10.379  13.732  68.054  1.00  0.00    -0.246 C  
BRANCH  13  15
HETATM   15  C   UNL     1     -10.576  13.801  65.657  1.00  0.00    -0.298 A  
HETATM   16  N   UNL     1     -11.554  14.687  65.328  1.00  0.00    -0.351 NA 
HETATM   17  C   UNL     1     -12.386  14.396  64.303  1.00  0.00    -0.373 A  
HETATM   18  N   UNL     1     -12.386  13.313  63.513  1.00  0.00    -0.753 NA 
HETATM   19  C   UNL     1     -11.387  12.481  63.834  1.00  0.00    -0.438 A  
HETATM   20  C   UNL     1     -10.457  12.642  64.849  1.00  0.00    -0.331 A  
HETATM   21  C   UNL     1      -9.573  11.522  64.758  1.00  0.00    -0.198 A  
HETATM   22  C   UNL     1     -10.016  10.706  63.738  1.00  0.00    -0.317 A  
HETATM   23  N   UNL     1     -11.123  11.301  63.190  1.00  0.00    -0.846 NA 
HETATM   24  H   UNL     1     -11.669  10.922  62.417  1.00  0.00     0.000 HD 
ENDBRANCH  13  15
ENDBRANCH   9  13
TORSDOF 3
ENDMDL
MODEL       16
REMARK 921   NORMALIZED FREE ENERGY PREDICTED BY IDOCK:   -6.08 KCAL/MOL
REMARK 922        TOTAL FREE ENERGY PREDICTED BY IDOCK:   -7.46 KCAL/MOL
REMARK 923 INTER-LIGAND FREE ENERGY PREDICTED BY IDOCK:   -7.17 KCAL/MOL
REMARK 924 INTRA-LIGAND FREE ENERGY PREDICTED BY IDOCK:   -0.29 KCAL/MOL
REMARK 927      BINDING AFFINITY PREDICTED BY RF-SCORE:    0.00 PKD
ROOT
HETATM    1  C   UNL     1     -11.056  14.696  64.856  1.00  0.00    -0.409 C  
HETATM    2  C   UNL     1     -12.343  13.947  65.229  1.00  0.00    -0.485 C  
HETATM    3  C   UNL     1     -11.332  16.145  64.458  1.00  0.00    -0.273 C  
HETATM    4  C   UNL     1     -12.057  12.486  65.590  1.00  0.00    -0.400 C  
HETATM    5  N   UNL     1     -10.964  12.336  66.559  1.00  0.00    -0.266 N  
HETATM    6  C   UNL     1      -9.722  13.054  66.228  1.00  0.00    -0.263 C  
HETATM    7  C   UNL     1     -11.175  11.592  67.720  1.00  0.00    -0.268 C  
HETATM    8  O   UNL     1     -12.285  11.123  67.981  1.00  0.00    -0.584 OA 
HETATM    9  C   UNL     1      -9.963  14.557  65.947  1.00  0.00    -0.329 C  
ENDROOT
BRANCH   7  10
HETATM   10  C   UNL     1      -9.992  11.394  68.650  1.00  0.00    -0.209 C  
HETATM   11  C   UNL     1     -10.254  10.384  69.683  1.00  0.00    -0.209 C  
HETATM   12  N   UNL     1     -10.405   9.607  70.531  1.00  0.00    -0.281 NA 
ENDBRANCH   7  10
BRANCH   9  13
HETATM   13  N   UNL     1     -10.263  15.338  67.163  1.00  0.00    -0.249 NA 
HETATM   14  C   UNL     1     -11.395  15.105  68.045  1.00  0.00    -0.337 C  
BRANCH  13  15
HETATM   15  C   UNL     1      -9.334  16.270  67.611  1.00  0.00    -0.218 A  
HETATM   16  N   UNL     1      -8.124  15.843  68.059  1.00  0.00    -0.139 NA 
HETATM   17  C   UNL     1      -7.261  16.743  68.579  1.00  0.00    -0.194 A  
HETATM   18  N   UNL     1      -7.423  18.067  68.719  1.00  0.00    -0.276 NA 
HETATM   19  C   UNL     1      -8.605  18.463  68.231  1.00  0.00    -0.303 A  
HETATM   20  C   UNL     1      -9.587  17.665  67.666  1.00  0.00    -0.268 A  
HETATM   21  C   UNL     1     -10.631  18.550  67.255  1.00  0.00    -0.453 A  
HETATM   22  C   UNL     1     -10.275  19.832  67.619  1.00  0.00    -0.434 A  
HETATM   23  N   UNL     1      -9.043  19.760  68.216  1.00  0.00    -0.325 NA 
HETATM   24  H   UNL     1      -8.529  20.556  68.594  1.00  0.00     0.000 HD 
ENDBRANCH  13  15
ENDBRANCH   9  13
TORSDOF 3
ENDMDL
MODEL       17
REMARK 921   NORMALIZED FREE ENERGY PREDICTED BY IDOCK:   -6.04 KCAL/MOL
REMARK 922        TOTAL FREE ENERGY PREDICTED BY IDOCK:   -7.42 KCAL/MOL
REMARK 923 INTER-LIGAND FREE ENERGY PREDICTED BY IDOCK:   -7.09 KCAL/MOL
REMARK 924 INTRA-LIGAND FREE ENERGY PREDICTED BY IDOCK:   -0.33 KCAL/MOL
REMARK 927      BINDING AFFINITY PREDICTED BY RF-SCORE:    0.00 PKD
ROOT
HETATM    1  C   UNL     1      -9.998  15.760  69.104  1.00  0.00    -0.241 C  
HETATM    2  C   UNL     1     -10.611  16.821  68.180  1.00  0.00    -0.350 C  
HETATM    3  C   UNL     1     -10.566  15.837  70.520  1.00  0.00    -0.174 C  
HETATM    4  C   UNL     1     -10.007  16.757  66.773  1.00  0.00    -0.282 C  
HETATM    5  N   UNL     1      -9.994  15.400  66.215  1.00  0.00    -0.269 N  
HETATM    6  C   UNL     1      -9.420  14.362  67.086  1.00  0.00    -0.222 C  
HETATM    7  C   UNL     1     -10.553  15.172  64.957  1.00  0.00    -0.413 C  
HETATM    8  O   UNL     1     -11.124  16.076  64.342  1.00  0.00    -0.560 OA 
HETATM    9  C   UNL     1     -10.074  14.338  68.490  1.00  0.00    -0.246 C  
ENDROOT
BRANCH   7  10
HETATM   10  C   UNL     1     -10.440  13.771  64.384  1.00  0.00    -0.265 C  
HETATM   11  C   UNL     1     -11.751  13.171  64.107  1.00  0.00    -0.418 C  
HETATM   12  N   UNL     1     -12.757  12.637  63.880  1.00  0.00    -0.726 NA 
ENDBRANCH   7  10
BRANCH   9  13
HETATM   13  N   UNL     1     -11.442  13.786  68.486  1.00  0.00    -0.284 NA 
HETATM   14  C   UNL     1     -12.520  14.231  67.618  1.00  0.00     0.189 C  
BRANCH  13  15
HETATM   15  C   UNL     1     -11.714  12.655  69.248  1.00  0.00    -0.322 A  
HETATM   16  N   UNL     1     -12.304  12.798  70.465  1.00  0.00    -0.318 NA 
HETATM   17  C   UNL     1     -12.481  11.706  71.241  1.00  0.00    -0.266 A  
HETATM   18  N   UNL     1     -12.155  10.433  70.974  1.00  0.00    -0.357 NA 
HETATM   19  C   UNL     1     -11.616  10.319  69.754  1.00  0.00    -0.227 A  
HETATM   20  C   UNL     1     -11.376  11.338  68.846  1.00  0.00    -0.340 A  
HETATM   21  C   UNL     1     -10.841  10.712  67.678  1.00  0.00    -0.346 A  
HETATM   22  C   UNL     1     -10.732   9.359  67.928  1.00  0.00    -0.210 A  
HETATM   23  N   UNL     1     -11.203   9.139  69.196  1.00  0.00    -0.438 NA 
HETATM   24  H   UNL     1     -11.239   8.229  69.657  1.00  0.00     0.000 HD 
ENDBRANCH  13  15
ENDBRANCH   9  13
TORSDOF 3
ENDMDL
MODEL       18
REMARK 921   NORMALIZED FREE ENERGY PREDICTED BY IDOCK:   -6.02 KCAL/MOL
REMARK 922        TOTAL FREE ENERGY PREDICTED BY IDOCK:   -7.40 KCAL/MOL
REMARK 923 INTER-LIGAND FREE ENERGY PREDICTED BY IDOCK:   -7.52 KCAL/MOL
REMARK 924 INTRA-LIGAND FREE ENERGY PREDICTED BY IDOCK:    0.12 KCAL/MOL
REMARK 927      BINDING AFFINITY PREDICTED BY RF-SCORE:    0.00 PKD
ROOT
HETATM    1  C   UNL     1     -11.011  14.216  68.940  1.00  0.00    -0.280 C  
HETATM    2  C   UNL     1     -11.645  15.610  68.851  1.00  0.00    -0.392 C  
HETATM    3  C   UNL     1     -11.972  13.120  68.481  1.00  0.00    -0.324 C  
HETATM    4  C   UNL     1     -10.685  16.696  69.348  1.00  0.00    -0.331 C  
HETATM    5  N   UNL     1      -9.347  16.597  68.752  1.00  0.00    -0.249 N  
HETATM    6  C   UNL     1      -8.722  15.266  68.816  1.00  0.00    -0.195 C  
HETATM    7  C   UNL     1      -8.788  17.717  68.135  1.00  0.00    -0.269 C  
HETATM    8  O   UNL     1      -9.429  18.763  68.018  1.00  0.00    -0.294 OA 
HETATM    9  C   UNL     1      -9.632  14.155  68.235  1.00  0.00    -0.226 C  
ENDROOT
BRANCH   7  10
HETATM   10  C   UNL     1      -7.370  17.591  67.609  1.00  0.00    -0.192 C  
HETATM   11  C   UNL     1      -7.191  18.262  66.315  1.00  0.00    -0.262 C  
HETATM   12  N   UNL     1      -6.990  18.761  65.287  1.00  0.00    -0.508 NA 
ENDBRANCH   7  10
BRANCH   9  13
HETATM   13  N   UNL     1      -9.736  14.197  66.763  1.00  0.00    -0.267 NA 
HETATM   14  C   UNL     1      -9.585  15.393  65.950  1.00  0.00    -0.351 C  
BRANCH  13  15
HETATM   15  C   UNL     1      -9.834  13.002  66.061  1.00  0.00    -0.255 A  
HETATM   16  N   UNL     1      -8.998  11.976  66.372  1.00  0.00    -0.192 NA 
HETATM   17  C   UNL     1      -9.034  10.850  65.625  1.00  0.00    -0.194 A  
HETATM   18  N   UNL     1      -9.820  10.573  64.574  1.00  0.00    -0.314 NA 
HETATM   19  C   UNL     1     -10.659  11.583  64.320  1.00  0.00    -0.347 A  
HETATM   20  C   UNL     1     -10.745  12.791  64.994  1.00  0.00    -0.321 A  
HETATM   21  C   UNL     1     -11.820  13.510  64.386  1.00  0.00    -0.455 A  
HETATM   22  C   UNL     1     -12.314  12.748  63.348  1.00  0.00    -0.437 A  
HETATM   23  N   UNL     1     -11.594  11.582  63.318  1.00  0.00    -0.863 NA 
HETATM   24  H   UNL     1     -11.733  10.825  62.649  1.00  0.00     0.000 HD 
ENDBRANCH  13  15
ENDBRANCH   9  13
TORSDOF 3
ENDMDL
MODEL       19
REMARK 921   NORMALIZED FREE ENERGY PREDICTED BY IDOCK:   -5.98 KCAL/MOL
REMARK 922        TOTAL FREE ENERGY PREDICTED BY IDOCK:   -7.34 KCAL/MOL
REMARK 923 INTER-LIGAND FREE ENERGY PREDICTED BY IDOCK:   -7.27 KCAL/MOL
REMARK 924 INTRA-LIGAND FREE ENERGY PREDICTED BY IDOCK:   -0.08 KCAL/MOL
REMARK 927      BINDING AFFINITY PREDICTED BY RF-SCORE:    0.00 PKD
ROOT
HETATM    1  C   UNL     1     -11.813  14.634  68.820  1.00  0.00    -0.348 C  
HETATM    2  C   UNL     1     -11.159  13.265  69.052  1.00  0.00    -0.291 C  
HETATM    3  C   UNL     1     -11.320  15.681  69.816  1.00  0.00    -0.327 C  
HETATM    4  C   UNL     1     -11.690  12.215  68.071  1.00  0.00    -0.344 C  
HETATM    5  N   UNL     1     -11.669  12.670  66.676  1.00  0.00    -0.386 N  
HETATM    6  C   UNL     1     -12.283  13.985  66.429  1.00  0.00    -0.460 C  
HETATM    7  C   UNL     1     -11.046  11.882  65.708  1.00  0.00    -0.317 C  
HETATM    8  O   UNL     1     -10.448  10.849  66.018  1.00  0.00    -0.251 OA 
HETATM    9  C   UNL     1     -11.701  15.091  67.343  1.00  0.00    -0.239 C  
ENDROOT
BRANCH   7  10
HETATM   10  C   UNL     1     -11.123  12.350  64.266  1.00  0.00    -0.399 C  
HETATM   11  C   UNL     1     -10.101  11.725  63.418  1.00  0.00    -0.446 C  
HETATM   12  N   UNL     1      -9.308  11.276  62.699  1.00  0.00    -0.335 NA 
ENDBRANCH   7  10
BRANCH   9  13
HETATM   13  N   UNL     1     -10.332  15.497  66.970  1.00  0.00    -0.273 NA 
HETATM   14  C   UNL     1      -9.295  14.595  66.496  1.00  0.00    -0.288 C  
BRANCH  13  15
HETATM   15  C   UNL     1     -10.023  16.851  66.910  1.00  0.00    -0.279 A  
HETATM   16  N   UNL     1     -10.761  17.667  66.111  1.00  0.00    -0.194 NA 
HETATM   17  C   UNL     1     -10.399  18.963  65.984  1.00  0.00    -0.429 A  
HETATM   18  N   UNL     1      -9.374  19.602  66.566  1.00  0.00    -0.363 NA 
HETATM   19  C   UNL     1      -8.693  18.784  67.378  1.00  0.00    -0.273 A  
HETATM   20  C   UNL     1      -8.943  17.441  67.614  1.00  0.00    -0.233 A  
HETATM   21  C   UNL     1      -7.983  17.024  68.587  1.00  0.00    -0.258 A  
HETATM   22  C   UNL     1      -7.165  18.097  68.872  1.00  0.00    -0.258 A  
HETATM   23  N   UNL     1      -7.607  19.157  68.124  1.00  0.00    -0.275 NA 
HETATM   24  H   UNL     1      -7.189  20.088  68.122  1.00  0.00     0.000 HD 
ENDBRANCH  13  15
ENDBRANCH   9  13
TORSDOF 3
ENDMDL
MODEL       20
REMARK 921   NORMALIZED FREE ENERGY PREDICTED BY IDOCK:   -5.96 KCAL/MOL
REMARK 922        TOTAL FREE ENERGY PREDICTED BY IDOCK:   -7.32 KCAL/MOL
REMARK 923 INTER-LIGAND FREE ENERGY PREDICTED BY IDOCK:   -7.63 KCAL/MOL
REMARK 924 INTRA-LIGAND FREE ENERGY PREDICTED BY IDOCK:    0.31 KCAL/MOL
REMARK 927      BINDING AFFINITY PREDICTED BY RF-SCORE:    0.00 PKD
ROOT
HETATM    1  C   UNL     1      -8.822  14.795  68.609  1.00  0.00    -0.180 C  
HETATM    2  C   UNL     1      -8.822  15.830  67.476  1.00  0.00    -0.196 C  
HETATM    3  C   UNL     1      -8.358  15.397  69.934  1.00  0.00     0.159 C  
HETATM    4  C   UNL     1      -9.254  15.206  66.145  1.00  0.00    -0.283 C  
HETATM    5  N   UNL     1     -10.491  14.422  66.252  1.00  0.00    -0.284 N  
HETATM    6  C   UNL     1     -10.519  13.429  67.339  1.00  0.00    -0.243 C  
HETATM    7  C   UNL     1     -11.549  14.690  65.384  1.00  0.00    -0.345 C  
HETATM    8  O   UNL     1     -11.489  15.623  64.579  1.00  0.00    -0.415 OA 
HETATM    9  C   UNL     1     -10.176  14.048  68.716  1.00  0.00    -0.197 C  
ENDROOT
BRANCH   7  10
HETATM   10  C   UNL     1     -12.774  13.799  65.475  1.00  0.00    -0.530 C  
HETATM   11  C   UNL     1     -12.771  12.737  64.462  1.00  0.00    -0.328 C  
HETATM   12  N   UNL     1     -12.834  11.885  63.676  1.00  0.00    -0.665 NA 
ENDBRANCH   7  10
BRANCH   9  13
HETATM   13  N   UNL     1     -11.257  14.892  69.262  1.00  0.00    -0.269 NA 
HETATM   14  C   UNL     1     -11.708  16.147  68.684  1.00  0.00    -0.205 C  
BRANCH  13  15
HETATM   15  C   UNL     1     -12.022  14.407  70.317  1.00  0.00    -0.321 A  
HETATM   16  N   UNL     1     -12.601  15.286  71.178  1.00  0.00    -0.357 NA 
HETATM   17  C   UNL     1     -13.266  14.809  72.254  1.00  0.00    -0.374 A  
HETATM   18  N   UNL     1     -13.460  13.532  72.614  1.00  0.00    -0.633 NA 
HETATM   19  C   UNL     1     -12.915  12.692  71.726  1.00  0.00    -0.313 A  
HETATM   20  C   UNL     1     -12.211  13.026  70.580  1.00  0.00    -0.392 A  
HETATM   21  C   UNL     1     -11.881  11.791  69.942  1.00  0.00    -0.423 A  
HETATM   22  C   UNL     1     -12.346  10.761  70.733  1.00  0.00    -0.383 A  
HETATM   23  N   UNL     1     -12.968  11.327  71.816  1.00  0.00    -0.454 NA 
HETATM   24  H   UNL     1     -13.405  10.807  72.577  1.00  0.00     0.000 HD 
ENDBRANCH  13  15
ENDBRANCH   9  13
TORSDOF 3
ENDMDL
MODEL       21
REMARK 921   NORMALIZED FREE ENERGY PREDICTED BY IDOCK:   -5.89 KCAL/MOL
REMARK 922        TOTAL FREE ENERGY PREDICTED BY IDOCK:   -7.24 KCAL/MOL
REMARK 923 INTER-LIGAND FREE ENERGY PREDICTED BY IDOCK:   -7.18 KCAL/MOL
REMARK 924 INTRA-LIGAND FREE ENERGY PREDICTED BY IDOCK:   -0.06 KCAL/MOL
REMARK 927      BINDING AFFINITY PREDICTED BY RF-SCORE:    0.00 PKD
ROOT
HETATM    1  C   UNL     1     -11.217  13.059  69.160  1.00  0.00    -0.297 C  
HETATM    2  C   UNL     1     -12.018  14.345  69.402  1.00  0.00    -0.370 C  
HETATM    3  C   UNL     1     -12.113  11.821  69.138  1.00  0.00    -0.290 C  
HETATM    4  C   UNL     1     -11.104  15.573  69.458  1.00  0.00    -0.286 C  
HETATM    5  N   UNL     1     -10.165  15.644  68.332  1.00  0.00    -0.219 N  
HETATM    6  C   UNL     1      -9.392  14.418  68.074  1.00  0.00    -0.200 C  
HETATM    7  C   UNL     1     -10.101  16.808  67.566  1.00  0.00    -0.276 C  
HETATM    8  O   UNL     1     -10.871  17.748  67.774  1.00  0.00    -0.371 OA 
HETATM    9  C   UNL     1     -10.294  13.169  67.919  1.00  0.00    -0.231 C  
ENDROOT
BRANCH   7  10
HETATM   10  C   UNL     1      -9.057  16.867  66.466  1.00  0.00    -0.302 C  
HETATM   11  C   UNL     1      -8.529  18.222  66.265  1.00  0.00    -0.191 C  
HETATM   12  N   UNL     1      -8.084  19.272  66.049  1.00  0.00    -0.433 NA 
ENDBRANCH   7  10
BRANCH   9  13
HETATM   13  N   UNL     1     -11.040  13.142  66.646  1.00  0.00    -0.286 NA 
HETATM   14  C   UNL     1     -12.150  14.018  66.310  1.00  0.00    -0.456 C  
BRANCH  13  15
HETATM   15  C   UNL     1     -10.576  12.338  65.611  1.00  0.00    -0.260 A  
HETATM   16  N   UNL     1     -10.465  12.859  64.360  1.00  0.00    -0.384 NA 
HETATM   17  C   UNL     1     -10.103  12.049  63.341  1.00  0.00    -0.408 A  
HETATM   18  N   UNL     1      -9.812  10.741  63.381  1.00  0.00    -0.334 NA 
HETATM   19  C   UNL     1      -9.889  10.267  64.630  1.00  0.00    -0.327 A  
HETATM   20  C   UNL     1     -10.240  10.969  65.772  1.00  0.00    -0.316 A  
HETATM   21  C   UNL     1     -10.128  10.046  66.856  1.00  0.00    -0.287 A  
HETATM   22  C   UNL     1      -9.764   8.819  66.341  1.00  0.00    -0.265 A  
HETATM   23  N   UNL     1      -9.628   8.970  64.985  1.00  0.00    -0.387 NA 
HETATM   24  H   UNL     1      -9.371   8.226  64.336  1.00  0.00     0.000 HD 
ENDBRANCH  13  15
ENDBRANCH   9  13
TORSDOF 3
ENDMDL
MODEL       22
REMARK 921   NORMALIZED FREE ENERGY PREDICTED BY IDOCK:   -5.87 KCAL/MOL
REMARK 922        TOTAL FREE ENERGY PREDICTED BY IDOCK:   -7.21 KCAL/MOL
REMARK 923 INTER-LIGAND FREE ENERGY PREDICTED BY IDOCK:   -7.35 KCAL/MOL
REMARK 924 INTRA-LIGAND FREE ENERGY PREDICTED BY IDOCK:    0.13 KCAL/MOL
REMARK 927      BINDING AFFINITY PREDICTED BY RF-SCORE:    0.00 PKD
ROOT
HETATM    1  C   UNL     1     -12.157  13.587  69.287  1.00  0.00    -0.335 C  
HETATM    2  C   UNL     1     -11.255  12.349  69.363  1.00  0.00    -0.225 C  
HETATM    3  C   UNL     1     -11.990  14.494  70.505  1.00  0.00    -0.387 C  
HETATM    4  C   UNL     1     -11.459  11.430  68.154  1.00  0.00    -0.305 C  
HETATM    5  N   UNL     1     -11.403  12.144  66.873  1.00  0.00    -0.323 N  
HETATM    6  C   UNL     1     -12.253  13.343  66.779  1.00  0.00    -0.312 C  
HETATM    7  C   UNL     1     -10.540  11.693  65.875  1.00  0.00    -0.271 C  
HETATM    8  O   UNL     1      -9.771  10.751  66.078  1.00  0.00    -0.200 OA 
HETATM    9  C   UNL     1     -12.005  14.338  67.939  1.00  0.00    -0.329 C  
ENDROOT
BRANCH   7  10
HETATM   10  C   UNL     1     -10.578  12.411  64.538  1.00  0.00    -0.352 C  
HETATM   11  C   UNL     1     -11.828  12.167  63.806  1.00  0.00    -0.500 C  
HETATM   12  N   UNL     1     -12.786  12.002  63.173  1.00  0.00    -0.587 NA 
ENDBRANCH   7  10
BRANCH   9  13
HETATM   13  N   UNL     1     -10.723  15.059  67.825  1.00  0.00    -0.272 NA 
HETATM   14  C   UNL     1      -9.432  14.538  68.245  1.00  0.00    -0.207 C  
BRANCH  13  15
HETATM   15  C   UNL     1     -10.687  16.264  67.132  1.00  0.00    -0.247 A  
HETATM   16  N   UNL     1     -10.884  16.265  65.787  1.00  0.00    -0.226 NA 
HETATM   17  C   UNL     1     -10.756  17.425  65.105  1.00  0.00     0.139 A  
HETATM   18  N   UNL     1     -10.457  18.642  65.582  1.00  0.00    -0.594 NA 
HETATM   19  C   UNL     1     -10.311  18.616  66.912  1.00  0.00    -0.402 A  
HETATM   20  C   UNL     1     -10.415  17.514  67.745  1.00  0.00    -0.381 A  
HETATM   21  C   UNL     1     -10.229  18.002  69.075  1.00  0.00    -0.262 A  
HETATM   22  C   UNL     1      -9.975  19.355  69.005  1.00  0.00    -0.406 A  
HETATM   23  N   UNL     1     -10.023  19.712  67.682  1.00  0.00    -0.362 NA 
HETATM   24  H   UNL     1      -9.867  20.654  67.323  1.00  0.00     0.000 HD 
ENDBRANCH  13  15
ENDBRANCH   9  13
TORSDOF 3
ENDMDL
MODEL       23
REMARK 921   NORMALIZED FREE ENERGY PREDICTED BY IDOCK:   -5.83 KCAL/MOL
REMARK 922        TOTAL FREE ENERGY PREDICTED BY IDOCK:   -7.17 KCAL/MOL
REMARK 923 INTER-LIGAND FREE ENERGY PREDICTED BY IDOCK:   -6.82 KCAL/MOL
REMARK 924 INTRA-LIGAND FREE ENERGY PREDICTED BY IDOCK:   -0.35 KCAL/MOL
REMARK 927      BINDING AFFINITY PREDICTED BY RF-SCORE:    0.00 PKD
ROOT
HETATM    1  C   UNL     1     -10.407   9.497  66.737  1.00  0.00    -0.298 C  
HETATM    2  C   UNL     1      -9.059  10.122  66.355  1.00  0.00    -0.176 C  
HETATM    3  C   UNL     1     -10.259   8.044  67.185  1.00  0.00    -0.362 C  
HETATM    4  C   UNL     1      -9.226  11.567  65.873  1.00  0.00    -0.210 C  
HETATM    5  N   UNL     1     -10.041  12.385  66.779  1.00  0.00    -0.212 N  
HETATM    6  C   UNL     1     -11.335  11.802  67.168  1.00  0.00    -0.322 C  
HETATM    7  C   UNL     1      -9.536  13.600  67.245  1.00  0.00    -0.238 C  
HETATM    8  O   UNL     1      -8.390  13.960  66.967  1.00  0.00    -0.178 OA 
HETATM    9  C   UNL     1     -11.192  10.373  67.747  1.00  0.00    -0.237 C  
ENDROOT
BRANCH   7  10
HETATM   10  C   UNL     1     -10.447  14.451  68.110  1.00  0.00    -0.237 C  
HETATM   11  C   UNL     1     -10.382  15.875  67.762  1.00  0.00    -0.278 C  
HETATM   12  N   UNL     1     -10.364  17.015  67.543  1.00  0.00    -0.321 NA 
ENDBRANCH   7  10
BRANCH   9  13
HETATM   13  N   UNL     1     -10.608  10.349  69.103  1.00  0.00    -0.213 NA 
HETATM   14  C   UNL     1      -9.222  10.652  69.419  1.00  0.00    -0.051 C  
BRANCH  13  15
HETATM   15  C   UNL     1     -11.450  10.177  70.195  1.00  0.00    -0.296 A  
HETATM   16  N   UNL     1     -11.641   8.929  70.699  1.00  0.00    -0.252 NA 
HETATM   17  C   UNL     1     -12.531   8.753  71.701  1.00  0.00    -0.339 A  
HETATM   18  N   UNL     1     -13.287   9.676  72.313  1.00  0.00    -0.439 NA 
HETATM   19  C   UNL     1     -13.046  10.899  71.825  1.00  0.00    -0.459 A  
HETATM   20  C   UNL     1     -12.166  11.236  70.809  1.00  0.00    -0.479 A  
HETATM   21  C   UNL     1     -12.227  12.659  70.686  1.00  0.00    -0.373 A  
HETATM   22  C   UNL     1     -13.162  13.128  71.586  1.00  0.00    -0.346 A  
HETATM   23  N   UNL     1     -13.654  12.044  72.266  1.00  0.00    -0.504 NA 
HETATM   24  H   UNL     1     -14.368  12.084  72.993  1.00  0.00     0.000 HD 
ENDBRANCH  13  15
ENDBRANCH   9  13
TORSDOF 3
ENDMDL
MODEL       24
REMARK 921   NORMALIZED FREE ENERGY PREDICTED BY IDOCK:   -5.81 KCAL/MOL
REMARK 922        TOTAL FREE ENERGY PREDICTED BY IDOCK:   -7.14 KCAL/MOL
REMARK 923 INTER-LIGAND FREE ENERGY PREDICTED BY IDOCK:   -6.67 KCAL/MOL
REMARK 924 INTRA-LIGAND FREE ENERGY PREDICTED BY IDOCK:   -0.48 KCAL/MOL
REMARK 927      BINDING AFFINITY PREDICTED BY RF-SCORE:    0.00 PKD
ROOT
HETATM    1  C   UNL     1     -10.270  10.183  66.035  1.00  0.00    -0.288 C  
HETATM    2  C   UNL     1      -9.219  11.212  65.598  1.00  0.00    -0.238 C  
HETATM    3  C   UNL     1      -9.651   8.813  66.308  1.00  0.00    -0.328 C  
HETATM    4  C   UNL     1      -9.857  12.571  65.291  1.00  0.00    -0.139 C  
HETATM    5  N   UNL     1     -10.758  13.035  66.354  1.00  0.00    -0.280 N  
HETATM    6  C   UNL     1     -11.769  12.061  66.798  1.00  0.00    -0.264 C  
HETATM    7  C   UNL     1     -10.576  14.307  66.898  1.00  0.00    -0.273 C  
HETATM    8  O   UNL     1      -9.628  15.015  66.553  1.00  0.00    -0.246 OA 
HETATM    9  C   UNL     1     -11.146  10.703  67.204  1.00  0.00    -0.196 C  
ENDROOT
BRANCH   7  10
HETATM   10  C   UNL     1     -11.582  14.777  67.932  1.00  0.00    -0.373 C  
HETATM   11  C   UNL     1     -10.943  15.201  69.184  1.00  0.00    -0.259 C  
HETATM   12  N   UNL     1     -10.499  15.537  70.202  1.00  0.00    -0.313 NA 
ENDBRANCH   7  10
BRANCH   9  13
HETATM   13  N   UNL     1     -10.419  10.755  68.487  1.00  0.00    -0.176 NA 
HETATM   14  C   UNL     1      -9.234  11.557  68.743  1.00  0.00    -0.067 C  
BRANCH  13  15
HETATM   15  C   UNL     1     -10.967  10.122  69.597  1.00  0.00    -0.264 A  
HETATM   16  N   UNL     1     -10.673   8.816  69.832  1.00  0.00    -0.225 NA 
HETATM   17  C   UNL     1     -11.280   8.179  70.857  1.00  0.00    -0.266 A  
HETATM   18  N   UNL     1     -12.169   8.671  71.732  1.00  0.00    -0.321 NA 
HETATM   19  C   UNL     1     -12.406   9.968  71.502  1.00  0.00    -0.419 A  
HETATM   20  C   UNL     1     -11.861  10.754  70.499  1.00  0.00    -0.453 A  
HETATM   21  C   UNL     1     -12.379  12.070  70.699  1.00  0.00    -0.394 A  
HETATM   22  C   UNL     1     -13.245  12.033  71.772  1.00  0.00    -0.317 A  
HETATM   23  N   UNL     1     -13.254  10.746  72.245  1.00  0.00    -0.567 NA 
HETATM   24  H   UNL     1     -13.810  10.416  73.034  1.00  0.00     0.000 HD 
ENDBRANCH  13  15
ENDBRANCH   9  13
TORSDOF 3
ENDMDL
MODEL       25
REMARK 921   NORMALIZED FREE ENERGY PREDICTED BY IDOCK:   -5.79 KCAL/MOL
REMARK 922        TOTAL FREE ENERGY PREDICTED BY IDOCK:   -7.13 KCAL/MOL
REMARK 923 INTER-LIGAND FREE ENERGY PREDICTED BY IDOCK:   -6.65 KCAL/MOL
REMARK 924 INTRA-LIGAND FREE ENERGY PREDICTED BY IDOCK:   -0.48 KCAL/MOL
REMARK 927      BINDING AFFINITY PREDICTED BY RF-SCORE:    0.00 PKD
ROOT
HETATM    1  C   UNL     1     -11.439  10.265  69.590  1.00  0.00    -0.297 C  
HETATM    2  C   UNL     1     -10.107   9.967  70.291  1.00  0.00    -0.295 C  
HETATM    3  C   UNL     1     -12.147  11.476  70.196  1.00  0.00    -0.432 C  
HETATM    4  C   UNL     1      -9.425   8.729  69.699  1.00  0.00    -0.170 C  
HETATM    5  N   UNL     1      -9.347   8.763  68.233  1.00  0.00    -0.137 N  
HETATM    6  C   UNL     1     -10.610   9.057  67.538  1.00  0.00    -0.237 C  
HETATM    7  C   UNL     1      -8.113   8.572  67.609  1.00  0.00    -0.107 C  
HETATM    8  O   UNL     1      -7.079   8.452  68.270  1.00  0.00    -0.081 OA 
HETATM    9  C   UNL     1     -11.281  10.355  68.050  1.00  0.00    -0.272 C  
ENDROOT
BRANCH   7  10
HETATM   10  C   UNL     1      -8.095   8.530  66.092  1.00  0.00    -0.105 C  
HETATM   11  C   UNL     1      -7.197   9.538  65.514  1.00  0.00    -0.091 C  
HETATM   12  N   UNL     1      -6.515  10.322  64.997  1.00  0.00    -0.129 NA 
ENDBRANCH   7  10
BRANCH   9  13
HETATM   13  N   UNL     1     -10.585  11.582  67.615  1.00  0.00    -0.191 NA 
HETATM   14  C   UNL     1      -9.237  11.961  68.007  1.00  0.00    -0.190 C  
BRANCH  13  15
HETATM   15  C   UNL     1     -11.173  12.380  66.640  1.00  0.00    -0.315 A  
HETATM   16  N   UNL     1     -12.018  13.376  67.015  1.00  0.00    -0.389 NA 
HETATM   17  C   UNL     1     -12.659  14.088  66.062  1.00  0.00    -0.414 A  
HETATM   18  N   UNL     1     -12.574  13.959  64.729  1.00  0.00    -0.654 NA 
HETATM   19  C   UNL     1     -11.704  13.000  64.391  1.00  0.00    -0.373 A  
HETATM   20  C   UNL     1     -10.972  12.194  65.248  1.00  0.00    -0.349 A  
HETATM   21  C   UNL     1     -10.155  11.369  64.416  1.00  0.00    -0.341 A  
HETATM   22  C   UNL     1     -10.445  11.664  63.100  1.00  0.00    -0.311 A  
HETATM   23  N   UNL     1     -11.393  12.654  63.103  1.00  0.00    -0.769 NA 
HETATM   24  H   UNL     1     -11.806  13.071  62.269  1.00  0.00     0.000 HD 
ENDBRANCH  13  15
ENDBRANCH   9  13
TORSDOF 3
ENDMDL
MODEL       26
REMARK 921   NORMALIZED FREE ENERGY PREDICTED BY IDOCK:   -5.79 KCAL/MOL
REMARK 922        TOTAL FREE ENERGY PREDICTED BY IDOCK:   -7.12 KCAL/MOL
REMARK 923 INTER-LIGAND FREE ENERGY PREDICTED BY IDOCK:   -7.15 KCAL/MOL
REMARK 924 INTRA-LIGAND FREE ENERGY PREDICTED BY IDOCK:    0.02 KCAL/MOL
REMARK 927      BINDING AFFINITY PREDICTED BY RF-SCORE:    0.00 PKD
ROOT
HETATM    1  C   UNL     1     -11.215  12.103  65.513  1.00  0.00    -0.381 C  
HETATM    2  C   UNL     1     -10.344  13.003  64.627  1.00  0.00    -0.374 C  
HETATM    3  C   UNL     1     -10.782  10.639  65.443  1.00  0.00    -0.106 C  
HETATM    4  C   UNL     1     -10.811  14.462  64.677  1.00  0.00    -0.346 C  
HETATM    5  N   UNL     1     -11.002  14.957  66.045  1.00  0.00    -0.329 N  
HETATM    6  C   UNL     1     -11.827  14.105  66.918  1.00  0.00    -0.431 C  
HETATM    7  C   UNL     1     -10.371  16.137  66.440  1.00  0.00    -0.315 C  
HETATM    8  O   UNL     1      -9.598  16.728  65.684  1.00  0.00    -0.527 OA 
HETATM    9  C   UNL     1     -11.325  12.641  66.963  1.00  0.00    -0.323 C  
ENDROOT
BRANCH   7  10
HETATM   10  C   UNL     1     -10.666  16.656  67.836  1.00  0.00    -0.344 C  
HETATM   11  C   UNL     1     -10.421  18.098  67.962  1.00  0.00    -0.371 C  
HETATM   12  N   UNL     1     -10.232  19.231  68.128  1.00  0.00    -0.404 NA 
ENDBRANCH   7  10
BRANCH   9  13
HETATM   13  N   UNL     1     -10.077  12.475  67.733  1.00  0.00    -0.213 NA 
HETATM   14  C   UNL     1      -8.961  13.407  67.725  1.00  0.00    -0.205 C  
BRANCH  13  15
HETATM   15  C   UNL     1      -9.990  11.443  68.660  1.00  0.00    -0.202 A  
HETATM   16  N   UNL     1      -8.939  10.582  68.603  1.00  0.00    -0.153 NA 
HETATM   17  C   UNL     1      -8.908   9.527  69.446  1.00  0.00    -0.170 A  
HETATM   18  N   UNL     1      -9.799   9.188  70.389  1.00  0.00    -0.201 NA 
HETATM   19  C   UNL     1     -10.798  10.076  70.449  1.00  0.00    -0.318 A  
HETATM   20  C   UNL     1     -10.967  11.203  69.661  1.00  0.00    -0.254 A  
HETATM   21  C   UNL     1     -12.147  11.850  70.139  1.00  0.00    -0.382 A  
HETATM   22  C   UNL     1     -12.676  11.083  71.156  1.00  0.00    -0.419 A  
HETATM   23  N   UNL     1     -11.847  10.005  71.328  1.00  0.00    -0.379 NA 
HETATM   24  H   UNL     1     -11.989   9.260  72.010  1.00  0.00     0.000 HD 
ENDBRANCH  13  15
ENDBRANCH   9  13
TORSDOF 3
ENDMDL
MODEL       27
REMARK 921   NORMALIZED FREE ENERGY PREDICTED BY IDOCK:   -5.75 KCAL/MOL
REMARK 922        TOTAL FREE ENERGY PREDICTED BY IDOCK:   -7.08 KCAL/MOL
REMARK 923 INTER-LIGAND FREE ENERGY PREDICTED BY IDOCK:   -6.72 KCAL/MOL
REMARK 924 INTRA-LIGAND FREE ENERGY PREDICTED BY IDOCK:   -0.35 KCAL/MOL
REMARK 927      BINDING AFFINITY PREDICTED BY RF-SCORE:    0.00 PKD
ROOT
HETATM    1  C   UNL     1     -11.112  14.784  64.867  1.00  0.00    -0.416 C  
HETATM    2  C   UNL     1     -12.334  13.904  65.163  1.00  0.00    -0.471 C  
HETATM    3  C   UNL     1     -11.512  16.204  64.471  1.00  0.00    -0.233 C  
HETATM    4  C   UNL     1     -11.922  12.473  65.523  1.00  0.00    -0.442 C  
HETATM    5  N   UNL     1     -10.870  12.418  66.546  1.00  0.00    -0.243 N  
HETATM    6  C   UNL     1      -9.692  13.262  66.289  1.00  0.00    -0.268 C  
HETATM    7  C   UNL     1     -11.065  11.638  67.686  1.00  0.00    -0.255 C  
HETATM    8  O   UNL     1     -12.134  11.056  67.883  1.00  0.00    -0.600 OA 
HETATM    9  C   UNL     1     -10.068  14.738  66.012  1.00  0.00    -0.308 C  
ENDROOT
BRANCH   7  10
HETATM   10  C   UNL     1      -9.917  11.544  68.675  1.00  0.00    -0.207 C  
HETATM   11  C   UNL     1      -9.971  10.318  69.481  1.00  0.00    -0.228 C  
HETATM   12  N   UNL     1      -9.966   9.376  70.159  1.00  0.00    -0.212 NA 
ENDBRANCH   7  10
BRANCH   9  13
HETATM   13  N   UNL     1     -10.507  15.464  67.219  1.00  0.00    -0.276 NA 
HETATM   14  C   UNL     1     -11.651  15.103  68.040  1.00  0.00    -0.328 C  
BRANCH  13  15
HETATM   15  C   UNL     1      -9.704  16.481  67.723  1.00  0.00    -0.235 A  
HETATM   16  N   UNL     1     -10.042  17.776  67.488  1.00  0.00    -0.325 NA 
HETATM   17  C   UNL     1      -9.209  18.758  67.899  1.00  0.00    -0.294 A  
HETATM   18  N   UNL     1      -8.042  18.641  68.548  1.00  0.00    -0.334 NA 
HETATM   19  C   UNL     1      -7.757  17.358  68.803  1.00  0.00    -0.258 A  
HETATM   20  C   UNL     1      -8.509  16.248  68.451  1.00  0.00    -0.195 A  
HETATM   21  C   UNL     1      -7.819  15.116  68.986  1.00  0.00    -0.181 A  
HETATM   22  C   UNL     1      -6.666  15.563  69.595  1.00  0.00    -0.180 A  
HETATM   23  N   UNL     1      -6.641  16.928  69.470  1.00  0.00    -0.231 NA 
HETATM   24  H   UNL     1      -5.900  17.535  69.821  1.00  0.00     0.000 HD 
ENDBRANCH  13  15
ENDBRANCH   9  13
TORSDOF 3
ENDMDL
MODEL       28
REMARK 921   NORMALIZED FREE ENERGY PREDICTED BY IDOCK:   -5.74 KCAL/MOL
REMARK 922        TOTAL FREE ENERGY PREDICTED BY IDOCK:   -7.06 KCAL/MOL
REMARK 923 INTER-LIGAND FREE ENERGY PREDICTED BY IDOCK:   -6.73 KCAL/MOL
REMARK 924 INTRA-LIGAND FREE ENERGY PREDICTED BY IDOCK:   -0.33 KCAL/MOL
REMARK 927      BINDING AFFINITY PREDICTED BY RF-SCORE:    0.00 PKD
ROOT
HETATM    1  C   UNL     1      -9.721   9.545  66.591  1.00  0.00    -0.270 C  
HETATM    2  C   UNL     1      -8.797  10.769  66.580  1.00  0.00    -0.162 C  
HETATM    3  C   UNL     1      -8.937   8.234  66.549  1.00  0.00    -0.189 C  
HETATM    4  C   UNL     1      -9.596  12.076  66.584  1.00  0.00    -0.216 C  
HETATM    5  N   UNL     1     -10.637  12.110  67.618  1.00  0.00    -0.206 N  
HETATM    6  C   UNL     1     -11.531  10.941  67.655  1.00  0.00    -0.200 C  
HETATM    7  C   UNL     1     -10.685  13.184  68.507  1.00  0.00    -0.259 C  
HETATM    8  O   UNL     1      -9.823  14.065  68.485  1.00  0.00    -0.227 OA 
HETATM    9  C   UNL     1     -10.755   9.604  67.744  1.00  0.00    -0.257 C  
ENDROOT
BRANCH   7  10
HETATM   10  C   UNL     1     -11.830  13.219  69.503  1.00  0.00    -0.388 C  
HETATM   11  C   UNL     1     -12.091  14.571  70.010  1.00  0.00    -0.339 C  
HETATM   12  N   UNL     1     -12.337  15.613  70.459  1.00  0.00    -0.411 NA 
ENDBRANCH   7  10
BRANCH   9  13
HETATM   13  N   UNL     1     -10.151   9.367  69.070  1.00  0.00    -0.187 NA 
HETATM   14  C   UNL     1      -9.005  10.085  69.604  1.00  0.00    -0.202 C  
BRANCH  13  15
HETATM   15  C   UNL     1     -10.791   8.511  69.958  1.00  0.00    -0.223 A  
HETATM   16  N   UNL     1     -10.514   7.180  69.917  1.00  0.00    -0.217 NA 
HETATM   17  C   UNL     1     -11.206   6.340  70.718  1.00  0.00    -0.324 A  
HETATM   18  N   UNL     1     -12.169   6.638  71.603  1.00  0.00    -0.355 NA 
HETATM   19  C   UNL     1     -12.388   7.957  71.651  1.00  0.00    -0.315 A  
HETATM   20  C   UNL     1     -11.761   8.939  70.900  1.00  0.00    -0.312 A  
HETATM   21  C   UNL     1     -12.299  10.185  71.346  1.00  0.00    -0.515 A  
HETATM   22  C   UNL     1     -13.255   9.922  72.306  1.00  0.00    -0.340 A  
HETATM   23  N   UNL     1     -13.300   8.562  72.475  1.00  0.00    -0.612 NA 
HETATM   24  H   UNL     1     -13.921   8.073  73.119  1.00  0.00     0.000 HD 
ENDBRANCH  13  15
ENDBRANCH   9  13
TORSDOF 3
ENDMDL
MODEL       29
REMARK 921   NORMALIZED FREE ENERGY PREDICTED BY IDOCK:   -5.72 KCAL/MOL
REMARK 922        TOTAL FREE ENERGY PREDICTED BY IDOCK:   -7.04 KCAL/MOL
REMARK 923 INTER-LIGAND FREE ENERGY PREDICTED BY IDOCK:   -6.94 KCAL/MOL
REMARK 924 INTRA-LIGAND FREE ENERGY PREDICTED BY IDOCK:   -0.10 KCAL/MOL
REMARK 927      BINDING AFFINITY PREDICTED BY RF-SCORE:    0.00 PKD
ROOT
HETATM    1  C   UNL     1     -12.079  13.795  65.443  1.00  0.00    -0.427 C  
HETATM    2  C   UNL     1     -10.863  14.249  64.624  1.00  0.00    -0.384 C  
HETATM    3  C   UNL     1     -12.524  12.382  65.071  1.00  0.00    -0.393 C  
HETATM    4  C   UNL     1     -10.449  15.681  64.980  1.00  0.00    -0.333 C  
HETATM    5  N   UNL     1     -10.325  15.901  66.426  1.00  0.00    -0.296 N  
HETATM    6  C   UNL     1     -11.476  15.464  67.234  1.00  0.00    -0.165 C  
HETATM    7  C   UNL     1      -9.146  16.443  66.938  1.00  0.00    -0.216 C  
HETATM    8  O   UNL     1      -8.181  16.669  66.204  1.00  0.00    -0.315 OA 
HETATM    9  C   UNL     1     -11.863  13.989  66.966  1.00  0.00    -0.428 C  
ENDROOT
BRANCH   7  10
HETATM   10  C   UNL     1      -9.096  16.731  68.427  1.00  0.00    -0.233 C  
HETATM   11  C   UNL     1      -8.102  15.906  69.125  1.00  0.00    -0.239 C  
HETATM   12  N   UNL     1      -7.344  15.274  69.735  1.00  0.00    -0.180 NA 
ENDBRANCH   7  10
BRANCH   9  13
HETATM   13  N   UNL     1     -10.907  13.021  67.538  1.00  0.00    -0.243 NA 
HETATM   14  C   UNL     1      -9.508  12.908  67.160  1.00  0.00    -0.229 C  
BRANCH  13  15
HETATM   15  C   UNL     1     -11.299  12.251  68.627  1.00  0.00    -0.291 A  
HETATM   16  N   UNL     1     -11.131  10.902  68.583  1.00  0.00    -0.230 NA 
HETATM   17  C   UNL     1     -11.598  10.149  69.603  1.00  0.00    -0.153 A  
HETATM   18  N   UNL     1     -12.227  10.553  70.716  1.00  0.00    -0.336 NA 
HETATM   19  C   UNL     1     -12.340  11.886  70.750  1.00  0.00    -0.320 A  
HETATM   20  C   UNL     1     -11.910  12.788  69.789  1.00  0.00    -0.380 A  
HETATM   21  C   UNL     1     -12.209  14.088  70.301  1.00  0.00    -0.430 A  
HETATM   22  C   UNL     1     -12.843  13.936  71.516  1.00  0.00    -0.361 A  
HETATM   23  N   UNL     1     -12.919  12.591  71.772  1.00  0.00    -0.357 NA 
HETATM   24  H   UNL     1     -13.345  12.175  72.600  1.00  0.00     0.000 HD 
ENDBRANCH  13  15
ENDBRANCH   9  13
TORSDOF 3
ENDMDL
MODEL       30
REMARK 921   NORMALIZED FREE ENERGY PREDICTED BY IDOCK:   -5.68 KCAL/MOL
REMARK 922        TOTAL FREE ENERGY PREDICTED BY IDOCK:   -7.00 KCAL/MOL
REMARK 923 INTER-LIGAND FREE ENERGY PREDICTED BY IDOCK:   -6.92 KCAL/MOL
REMARK 924 INTRA-LIGAND FREE ENERGY PREDICTED BY IDOCK:   -0.07 KCAL/MOL
REMARK 927      BINDING AFFINITY PREDICTED BY RF-SCORE:    0.00 PKD
ROOT
HETATM    1  C   UNL     1     -10.211   9.700  66.745  1.00  0.00    -0.308 C  
HETATM    2  C   UNL     1      -9.049  10.593  66.290  1.00  0.00    -0.186 C  
HETATM    3  C   UNL     1      -9.720   8.420  67.419  1.00  0.00    -0.222 C  
HETATM    4  C   UNL     1      -9.553  11.855  65.583  1.00  0.00    -0.204 C  
HETATM    5  N   UNL     1     -10.600  12.556  66.336  1.00  0.00    -0.244 N  
HETATM    6  C   UNL     1     -11.722  11.718  66.791  1.00  0.00    -0.116 C  
HETATM    7  C   UNL     1     -10.451  13.915  66.611  1.00  0.00    -0.272 C  
HETATM    8  O   UNL     1      -9.422  14.518  66.298  1.00  0.00    -0.289 OA 
HETATM    9  C   UNL     1     -11.249  10.479  67.591  1.00  0.00    -0.265 C  
ENDROOT
BRANCH   7  10
HETATM   10  C   UNL     1     -11.597  14.617  67.317  1.00  0.00    -0.404 C  
HETATM   11  C   UNL     1     -11.151  15.783  68.089  1.00  0.00    -0.341 C  
HETATM   12  N   UNL     1     -10.858  16.707  68.728  1.00  0.00    -0.331 NA 
ENDBRANCH   7  10
BRANCH   9  13
HETATM   13  N   UNL     1     -10.756  10.811  68.942  1.00  0.00    -0.207 NA 
HETATM   14  C   UNL     1      -9.356  10.955  69.307  1.00  0.00    -0.006 C  
BRANCH  13  15
HETATM   15  C   UNL     1     -11.673  11.166  69.926  1.00  0.00    -0.355 A  
HETATM   16  N   UNL     1     -12.001  12.475  70.088  1.00  0.00    -0.343 NA 
HETATM   17  C   UNL     1     -12.820  12.826  71.104  1.00  0.00    -0.226 A  
HETATM   18  N   UNL     1     -13.396  12.034  72.019  1.00  0.00    -0.454 NA 
HETATM   19  C   UNL     1     -13.089  10.749  71.808  1.00  0.00    -0.468 A  
HETATM   20  C   UNL     1     -12.272  10.236  70.813  1.00  0.00    -0.447 A  
HETATM   21  C   UNL     1     -12.295   8.816  70.972  1.00  0.00    -0.186 A  
HETATM   22  C   UNL     1     -13.076   8.519  72.070  1.00  0.00    -0.371 A  
HETATM   23  N   UNL     1     -13.546   9.706  72.570  1.00  0.00    -0.680 NA 
HETATM   24  H   UNL     1     -14.148   9.800  73.388  1.00  0.00     0.000 HD 
ENDBRANCH  13  15
ENDBRANCH   9  13
TORSDOF 3
ENDMDL
MODEL       31
REMARK 921   NORMALIZED FREE ENERGY PREDICTED BY IDOCK:   -5.68 KCAL/MOL
REMARK 922        TOTAL FREE ENERGY PREDICTED BY IDOCK:   -6.99 KCAL/MOL
REMARK 923 INTER-LIGAND FREE ENERGY PREDICTED BY IDOCK:   -6.49 KCAL/MOL
REMARK 924 INTRA-LIGAND FREE ENERGY PREDICTED BY IDOCK:   -0.50 KCAL/MOL
REMARK 927      BINDING AFFINITY PREDICTED BY RF-SCORE:    0.00 PKD
ROOT
HETATM    1  C   UNL     1     -11.024  12.227  65.535  1.00  0.00    -0.337 C  
HETATM    2  C   UNL     1      -9.952  13.288  65.254  1.00  0.00    -0.192 C  
HETATM    3  C   UNL     1     -10.486  10.808  65.357  1.00  0.00    -0.272 C  
HETATM    4  C   UNL     1     -10.514  14.707  65.399  1.00  0.00    -0.380 C  
HETATM    5  N   UNL     1     -11.253  14.906  66.652  1.00  0.00    -0.345 N  
HETATM    6  C   UNL     1     -12.280  13.895  66.949  1.00  0.00    -0.377 C  
HETATM    7  C   UNL     1     -10.915  15.974  67.483  1.00  0.00    -0.261 C  
HETATM    8  O   UNL     1      -9.958  16.706  67.220  1.00  0.00    -0.258 OA 
HETATM    9  C   UNL     1     -11.723  12.451  66.901  1.00  0.00    -0.362 C  
ENDROOT
BRANCH   7  10
HETATM   10  C   UNL     1     -11.761  16.191  68.724  1.00  0.00    -0.231 C  
HETATM   11  C   UNL     1     -11.190  15.546  69.913  1.00  0.00    -0.316 C  
HETATM   12  N   UNL     1     -10.797  15.047  70.884  1.00  0.00    -0.131 NA 
ENDBRANCH   7  10
BRANCH   9  13
HETATM   13  N   UNL     1     -10.857  12.121  68.050  1.00  0.00    -0.213 NA 
HETATM   14  C   UNL     1      -9.520  12.651  68.266  1.00  0.00    -0.203 C  
BRANCH  13  15
HETATM   15  C   UNL     1     -11.383  11.373  69.097  1.00  0.00    -0.288 A  
HETATM   16  N   UNL     1     -12.143  11.990  70.040  1.00  0.00    -0.303 NA 
HETATM   17  C   UNL     1     -12.574  11.278  71.105  1.00  0.00    -0.397 A  
HETATM   18  N   UNL     1     -12.363   9.983  71.381  1.00  0.00    -0.385 NA 
HETATM   19  C   UNL     1     -11.649   9.394  70.414  1.00  0.00    -0.192 A  
HETATM   20  C   UNL     1     -11.143   9.986  69.267  1.00  0.00    -0.248 A  
HETATM   21  C   UNL     1     -10.503   8.942  68.531  1.00  0.00    -0.218 A  
HETATM   22  C   UNL     1     -10.599   7.777  69.264  1.00  0.00    -0.192 A  
HETATM   23  N   UNL     1     -11.294   8.071  70.408  1.00  0.00    -0.395 NA 
HETATM   24  H   UNL     1     -11.514   7.404  71.147  1.00  0.00     0.000 HD 
ENDBRANCH  13  15
ENDBRANCH   9  13
TORSDOF 3
ENDMDL
MODEL       32
REMARK 921   NORMALIZED FREE ENERGY PREDICTED BY IDOCK:   -5.62 KCAL/MOL
REMARK 922        TOTAL FREE ENERGY PREDICTED BY IDOCK:   -6.93 KCAL/MOL
REMARK 923 INTER-LIGAND FREE ENERGY PREDICTED BY IDOCK:   -6.67 KCAL/MOL
REMARK 924 INTRA-LIGAND FREE ENERGY PREDICTED BY IDOCK:   -0.26 KCAL/MOL
REMARK 927      BINDING AFFINITY PREDICTED BY RF-SCORE:    0.00 PKD
ROOT
HETATM    1  C   UNL     1     -11.294  13.783  66.091  1.00  0.00    -0.320 C  
HETATM    2  C   UNL     1     -10.536  15.098  66.316  1.00  0.00    -0.312 C  
HETATM    3  C   UNL     1     -10.632  12.916  65.021  1.00  0.00    -0.333 C  
HETATM    4  C   UNL     1     -11.230  15.975  67.364  1.00  0.00    -0.085 C  
HETATM    5  N   UNL     1     -11.561  15.246  68.594  1.00  0.00    -0.341 N  
HETATM    6  C   UNL     1     -12.281  13.976  68.403  1.00  0.00    -0.167 C  
HETATM    7  C   UNL     1     -11.145  15.755  69.824  1.00  0.00    -0.322 C  
HETATM    8  O   UNL     1     -10.440  16.764  69.888  1.00  0.00    -0.198 OA 
HETATM    9  C   UNL     1     -11.556  13.026  67.418  1.00  0.00    -0.356 C  
ENDROOT
BRANCH   7  10
HETATM   10  C   UNL     1     -11.583  15.013  71.074  1.00  0.00    -0.367 C  
HETATM   11  C   UNL     1     -11.805  15.914  72.212  1.00  0.00    -0.516 C  
HETATM   12  N   UNL     1     -11.982  16.572  73.152  1.00  0.00    -0.476 NA 
ENDBRANCH   7  10
BRANCH   9  13
HETATM   13  N   UNL     1     -10.335  12.419  67.984  1.00  0.00    -0.210 NA 
HETATM   14  C   UNL     1      -9.115  13.142  68.303  1.00  0.00    -0.181 C  
BRANCH  13  15
HETATM   15  C   UNL     1     -10.372  11.092  68.395  1.00  0.00    -0.183 A  
HETATM   16  N   UNL     1      -9.686  10.156  67.686  1.00  0.00    -0.159 NA 
HETATM   17  C   UNL     1      -9.799   8.855  68.034  1.00  0.00    -0.168 A  
HETATM   18  N   UNL     1     -10.516   8.320  69.033  1.00  0.00    -0.217 NA 
HETATM   19  C   UNL     1     -11.145   9.269  69.737  1.00  0.00    -0.150 A  
HETATM   20  C   UNL     1     -11.124  10.635  69.508  1.00  0.00    -0.328 A  
HETATM   21  C   UNL     1     -11.902  11.226  70.550  1.00  0.00    -0.421 A  
HETATM   22  C   UNL     1     -12.403  10.212  71.340  1.00  0.00    -0.416 A  
HETATM   23  N   UNL     1     -11.938   9.028  70.828  1.00  0.00    -0.442 NA 
HETATM   24  H   UNL     1     -12.150   8.104  71.204  1.00  0.00     0.000 HD 
ENDBRANCH  13  15
ENDBRANCH   9  13
TORSDOF 3
ENDMDL
MODEL       33
REMARK 921   NORMALIZED FREE ENERGY PREDICTED BY IDOCK:   -5.61 KCAL/MOL
REMARK 922        TOTAL FREE ENERGY PREDICTED BY IDOCK:   -6.91 KCAL/MOL
REMARK 923 INTER-LIGAND FREE ENERGY PREDICTED BY IDOCK:   -6.41 KCAL/MOL
REMARK 924 INTRA-LIGAND FREE ENERGY PREDICTED BY IDOCK:   -0.51 KCAL/MOL
REMARK 927      BINDING AFFINITY PREDICTED BY RF-SCORE:    0.00 PKD
ROOT
HETATM    1  C   UNL     1      -6.832  14.292  68.220  1.00  0.00    -0.109 C  
HETATM    2  C   UNL     1      -6.550  15.314  69.329  1.00  0.00    -0.141 C  
HETATM    3  C   UNL     1      -7.203  12.921  68.785  1.00  0.00    -0.081 C  
HETATM    4  C   UNL     1      -6.143  16.673  68.749  1.00  0.00    -0.144 C  
HETATM    5  N   UNL     1      -7.056  17.148  67.703  1.00  0.00    -0.150 N  
HETATM    6  C   UNL     1      -7.350  16.181  66.632  1.00  0.00    -0.121 C  
HETATM    7  C   UNL     1      -7.612  18.423  67.806  1.00  0.00    -0.231 C  
HETATM    8  O   UNL     1      -7.409  19.125  68.799  1.00  0.00    -0.312 OA 
HETATM    9  C   UNL     1      -7.853  14.824  67.181  1.00  0.00    -0.148 C  
ENDROOT
BRANCH   7  10
HETATM   10  C   UNL     1      -8.482  18.903  66.659  1.00  0.00    -0.308 C  
HETATM   11  C   UNL     1      -9.882  19.096  67.058  1.00  0.00    -0.336 C  
HETATM   12  N   UNL     1     -11.004  19.253  67.309  1.00  0.00    -0.445 NA 
ENDBRANCH   7  10
BRANCH   9  13
HETATM   13  N   UNL     1      -9.230  14.882  67.708  1.00  0.00    -0.184 NA 
HETATM   14  C   UNL     1      -9.665  15.715  68.817  1.00  0.00    -0.212 C  
BRANCH  13  15
HETATM   15  C   UNL     1     -10.242  14.220  67.021  1.00  0.00    -0.260 A  
HETATM   16  N   UNL     1     -10.618  12.978  67.424  1.00  0.00    -0.233 NA 
HETATM   17  C   UNL     1     -11.536  12.302  66.698  1.00  0.00    -0.375 A  
HETATM   18  N   UNL     1     -12.174  12.698  65.586  1.00  0.00    -0.590 NA 
HETATM   19  C   UNL     1     -11.815  13.940  65.240  1.00  0.00    -0.357 A  
HETATM   20  C   UNL     1     -10.896  14.755  65.882  1.00  0.00    -0.331 A  
HETATM   21  C   UNL     1     -10.898  15.993  65.168  1.00  0.00    -0.411 A  
HETATM   22  C   UNL     1     -11.768  15.876  64.105  1.00  0.00    -0.027 A  
HETATM   23  N   UNL     1     -12.313  14.619  64.160  1.00  0.00    -0.900 NA 
HETATM   24  H   UNL     1     -12.990  14.244  63.495  1.00  0.00     0.000 HD 
ENDBRANCH  13  15
ENDBRANCH   9  13
TORSDOF 3
ENDMDL
MODEL       34
REMARK 921   NORMALIZED FREE ENERGY PREDICTED BY IDOCK:   -5.60 KCAL/MOL
REMARK 922        TOTAL FREE ENERGY PREDICTED BY IDOCK:   -6.90 KCAL/MOL
REMARK 923 INTER-LIGAND FREE ENERGY PREDICTED BY IDOCK:   -6.94 KCAL/MOL
REMARK 924 INTRA-LIGAND FREE ENERGY PREDICTED BY IDOCK:    0.03 KCAL/MOL
REMARK 927      BINDING AFFINITY PREDICTED BY RF-SCORE:    0.00 PKD
ROOT
HETATM    1  C   UNL     1     -11.619  14.684  66.323  1.00  0.00    -0.344 C  
HETATM    2  C   UNL     1     -10.270  14.247  65.737  1.00  0.00    -0.351 C  
HETATM    3  C   UNL     1     -12.642  13.549  66.313  1.00  0.00    -0.298 C  
HETATM    4  C   UNL     1      -9.265  15.404  65.718  1.00  0.00    -0.137 C  
HETATM    5  N   UNL     1      -9.171  16.104  67.005  1.00  0.00    -0.205 N  
HETATM    6  C   UNL     1     -10.454  16.525  67.592  1.00  0.00    -0.305 C  
HETATM    7  C   UNL     1      -7.921  16.278  67.600  1.00  0.00    -0.144 C  
HETATM    8  O   UNL     1      -6.906  15.789  67.100  1.00  0.00    -0.198 OA 
HETATM    9  C   UNL     1     -11.462  15.356  67.711  1.00  0.00    -0.278 C  
ENDROOT
BRANCH   7  10
HETATM   10  C   UNL     1      -7.863  17.083  68.886  1.00  0.00    -0.224 C  
HETATM   11  C   UNL     1      -6.538  17.669  69.122  1.00  0.00    -0.251 C  
HETATM   12  N   UNL     1      -5.510  18.146  69.371  1.00  0.00    -0.200 NA 
ENDBRANCH   7  10
BRANCH   9  13
HETATM   13  N   UNL     1     -11.121  14.397  68.779  1.00  0.00    -0.246 NA 
HETATM   14  C   UNL     1      -9.873  13.656  68.866  1.00  0.00     0.030 C  
BRANCH  13  15
HETATM   15  C   UNL     1     -11.965  14.282  69.877  1.00  0.00    -0.339 A  
HETATM   16  N   UNL     1     -12.508  15.404  70.420  1.00  0.00    -0.398 NA 
HETATM   17  C   UNL     1     -13.252  15.297  71.543  1.00  0.00    -0.459 A  
HETATM   18  N   UNL     1     -13.561  14.190  72.234  1.00  0.00    -0.452 NA 
HETATM   19  C   UNL     1     -13.049  13.099  71.652  1.00  0.00    -0.353 A  
HETATM   20  C   UNL     1     -12.274  13.048  70.504  1.00  0.00    -0.392 A  
HETATM   21  C   UNL     1     -12.016  11.664  70.260  1.00  0.00    -0.445 A  
HETATM   22  C   UNL     1     -12.594  10.933  71.277  1.00  0.00    -0.421 A  
HETATM   23  N   UNL     1     -13.213  11.821  72.118  1.00  0.00    -0.526 NA 
HETATM   24  H   UNL     1     -13.721  11.569  72.965  1.00  0.00     0.000 HD 
ENDBRANCH  13  15
ENDBRANCH   9  13
TORSDOF 3
ENDMDL
MODEL       35
REMARK 921   NORMALIZED FREE ENERGY PREDICTED BY IDOCK:   -5.60 KCAL/MOL
REMARK 922        TOTAL FREE ENERGY PREDICTED BY IDOCK:   -6.89 KCAL/MOL
REMARK 923 INTER-LIGAND FREE ENERGY PREDICTED BY IDOCK:   -6.57 KCAL/MOL
REMARK 924 INTRA-LIGAND FREE ENERGY PREDICTED BY IDOCK:   -0.32 KCAL/MOL
REMARK 927      BINDING AFFINITY PREDICTED BY RF-SCORE:    0.00 PKD
ROOT
HETATM    1  C   UNL     1      -7.612   8.870  68.006  1.00  0.00    -0.093 C  
HETATM    2  C   UNL     1      -8.013   7.580  68.735  1.00  0.00    -0.126 C  
HETATM    3  C   UNL     1      -7.081   8.592  66.601  1.00  0.00    -0.080 C  
HETATM    4  C   UNL     1      -8.509   7.869  70.156  1.00  0.00    -0.129 C  
HETATM    5  N   UNL     1      -9.516   8.935  70.207  1.00  0.00    -0.176 N  
HETATM    6  C   UNL     1      -9.158  10.180  69.507  1.00  0.00    -0.195 C  
HETATM    7  C   UNL     1     -10.732   8.698  70.849  1.00  0.00    -0.219 C  
HETATM    8  O   UNL     1     -11.002   7.585  71.306  1.00  0.00    -0.238 OA 
HETATM    9  C   UNL     1      -8.740   9.933  68.037  1.00  0.00    -0.125 C  
ENDROOT
BRANCH   7  10
HETATM   10  C   UNL     1     -11.708   9.856  70.952  1.00  0.00    -0.449 C  
HETATM   11  C   UNL     1     -12.873   9.535  71.786  1.00  0.00    -0.406 C  
HETATM   12  N   UNL     1     -13.824   9.337  72.421  1.00  0.00    -0.462 NA 
ENDBRANCH   7  10
BRANCH   9  13
HETATM   13  N   UNL     1      -9.874   9.591  67.157  1.00  0.00    -0.174 NA 
HETATM   14  C   UNL     1     -10.602   8.333  67.184  1.00  0.00    -0.270 C  
BRANCH  13  15
HETATM   15  C   UNL     1     -10.410  10.577  66.335  1.00  0.00    -0.221 A  
HETATM   16  N   UNL     1     -11.306  11.459  66.850  1.00  0.00    -0.425 NA 
HETATM   17  C   UNL     1     -11.894  12.355  66.026  1.00  0.00    -0.395 A  
HETATM   18  N   UNL     1     -11.708  12.521  64.709  1.00  0.00    -0.342 NA 
HETATM   19  C   UNL     1     -10.790  11.667  64.240  1.00  0.00    -0.359 A  
HETATM   20  C   UNL     1     -10.102  10.700  64.955  1.00  0.00    -0.388 A  
HETATM   21  C   UNL     1      -9.204  10.085  64.031  1.00  0.00    -0.318 A  
HETATM   22  C   UNL     1      -9.404  10.656  62.791  1.00  0.00    -0.327 A  
HETATM   23  N   UNL     1     -10.376  11.613  62.935  1.00  0.00    -0.656 NA 
HETATM   24  H   UNL     1     -10.738  12.198  62.182  1.00  0.00     0.000 HD 
ENDBRANCH  13  15
ENDBRANCH   9  13
TORSDOF 3
ENDMDL
MODEL       36
REMARK 921   NORMALIZED FREE ENERGY PREDICTED BY IDOCK:   -5.59 KCAL/MOL
REMARK 922        TOTAL FREE ENERGY PREDICTED BY IDOCK:   -6.88 KCAL/MOL
REMARK 923 INTER-LIGAND FREE ENERGY PREDICTED BY IDOCK:   -7.09 KCAL/MOL
REMARK 924 INTRA-LIGAND FREE ENERGY PREDICTED BY IDOCK:    0.21 KCAL/MOL
REMARK 927      BINDING AFFINITY PREDICTED BY RF-SCORE:    0.00 PKD
ROOT
HETATM    1  C   UNL     1     -10.421   9.924  68.538  1.00  0.00    -0.232 C  
HETATM    2  C   UNL     1      -9.301   9.364  67.652  1.00  0.00    -0.146 C  
HETATM    3  C   UNL     1     -10.022   9.960  70.012  1.00  0.00    -0.302 C  
HETATM    4  C   UNL     1      -9.727   9.299  66.181  1.00  0.00    -0.279 C  
HETATM    5  N   UNL     1     -10.315  10.554  65.697  1.00  0.00    -0.237 N  
HETATM    6  C   UNL     1     -11.386  11.116  66.536  1.00  0.00     0.044 C  
HETATM    7  C   UNL     1      -9.808  11.146  64.541  1.00  0.00    -0.280 C  
HETATM    8  O   UNL     1      -8.827  10.674  63.963  1.00  0.00    -0.183 OA 
HETATM    9  C   UNL     1     -10.956  11.282  68.014  1.00  0.00    -0.247 C  
ENDROOT
BRANCH   7  10
HETATM   10  C   UNL     1     -10.503  12.396  64.031  1.00  0.00    -0.443 C  
HETATM   11  C   UNL     1     -11.879  12.133  63.592  1.00  0.00    -0.516 C  
HETATM   12  N   UNL     1     -12.967  11.986  63.216  1.00  0.00    -0.665 NA 
ENDBRANCH   7  10
BRANCH   9  13
HETATM   13  N   UNL     1     -10.008  12.392  68.225  1.00  0.00    -0.222 NA 
HETATM   14  C   UNL     1      -8.560  12.262  68.234  1.00  0.00    -0.172 C  
BRANCH  13  15
HETATM   15  C   UNL     1     -10.494  13.694  68.270  1.00  0.00    -0.249 A  
HETATM   16  N   UNL     1     -10.022  14.612  67.385  1.00  0.00    -0.230 NA 
HETATM   17  C   UNL     1     -10.427  15.897  67.492  1.00  0.00    -0.298 A  
HETATM   18  N   UNL     1     -11.279  16.429  68.380  1.00  0.00    -0.361 NA 
HETATM   19  C   UNL     1     -11.758  15.494  69.210  1.00  0.00    -0.365 A  
HETATM   20  C   UNL     1     -11.443  14.145  69.222  1.00  0.00    -0.337 A  
HETATM   21  C   UNL     1     -12.244  13.559  70.250  1.00  0.00    -0.417 A  
HETATM   22  C   UNL     1     -12.975  14.563  70.851  1.00  0.00    -0.361 A  
HETATM   23  N   UNL     1     -12.663  15.734  70.210  1.00  0.00    -0.592 NA 
HETATM   24  H   UNL     1     -13.048  16.650  70.443  1.00  0.00     0.000 HD 
ENDBRANCH  13  15
ENDBRANCH   9  13
TORSDOF 3
ENDMDL
MODEL       37
REMARK 921   NORMALIZED FREE ENERGY PREDICTED BY IDOCK:   -5.58 KCAL/MOL
REMARK 922        TOTAL FREE ENERGY PREDICTED BY IDOCK:   -6.87 KCAL/MOL
REMARK 923 INTER-LIGAND FREE ENERGY PREDICTED BY IDOCK:   -6.55 KCAL/MOL
REMARK 924 INTRA-LIGAND FREE ENERGY PREDICTED BY IDOCK:   -0.32 KCAL/MOL
REMARK 927      BINDING AFFINITY PREDICTED BY RF-SCORE:    0.00 PKD
ROOT
HETATM    1  C   UNL     1     -10.388   9.265  66.670  1.00  0.00    -0.292 C  
HETATM    2  C   UNL     1      -8.934   9.672  66.397  1.00  0.00    -0.179 C  
HETATM    3  C   UNL     1     -10.508   7.791  67.052  1.00  0.00    -0.419 C  
HETATM    4  C   UNL     1      -8.831  11.143  65.979  1.00  0.00    -0.189 C  
HETATM    5  N   UNL     1      -9.557  12.047  66.879  1.00  0.00    -0.199 N  
HETATM    6  C   UNL     1     -10.952  11.672  67.164  1.00  0.00    -0.280 C  
HETATM    7  C   UNL     1      -8.892  13.142  67.432  1.00  0.00    -0.204 C  
HETATM    8  O   UNL     1      -7.687  13.317  67.238  1.00  0.00    -0.157 OA 
HETATM    9  C   UNL     1     -11.081  10.218  67.678  1.00  0.00    -0.251 C  
ENDROOT
BRANCH   7  10
HETATM   10  C   UNL     1      -9.705  14.097  68.287  1.00  0.00    -0.227 C  
HETATM   11  C   UNL     1     -10.124  15.293  67.547  1.00  0.00    -0.232 C  
HETATM   12  N   UNL     1     -10.474  16.267  67.021  1.00  0.00    -0.310 NA 
ENDBRANCH   7  10
BRANCH   9  13
HETATM   13  N   UNL     1     -10.597  10.042  69.061  1.00  0.00    -0.204 NA 
HETATM   14  C   UNL     1      -9.206  10.130  69.475  1.00  0.00    -0.204 C  
BRANCH  13  15
HETATM   15  C   UNL     1     -11.525   9.935  70.091  1.00  0.00    -0.248 A  
HETATM   16  N   UNL     1     -12.194  11.044  70.503  1.00  0.00    -0.350 NA 
HETATM   17  C   UNL     1     -13.024  10.954  71.565  1.00  0.00    -0.451 A  
HETATM   18  N   UNL     1     -13.312   9.874  72.307  1.00  0.00    -0.406 NA 
HETATM   19  C   UNL     1     -12.672   8.791  71.851  1.00  0.00    -0.374 A  
HETATM   20  C   UNL     1     -11.797   8.724  70.778  1.00  0.00    -0.209 A  
HETATM   21  C   UNL     1     -11.419   7.352  70.658  1.00  0.00    -0.307 A  
HETATM   22  C   UNL     1     -12.031   6.647  71.674  1.00  0.00    -0.347 A  
HETATM   23  N   UNL     1     -12.784   7.538  72.393  1.00  0.00    -0.512 NA 
HETATM   24  H   UNL     1     -13.346   7.303  73.212  1.00  0.00     0.000 HD 
ENDBRANCH  13  15
ENDBRANCH   9  13
TORSDOF 3
ENDMDL
MODEL       38
REMARK 921   NORMALIZED FREE ENERGY PREDICTED BY IDOCK:   -5.56 KCAL/MOL
REMARK 922        TOTAL FREE ENERGY PREDICTED BY IDOCK:   -6.85 KCAL/MOL
REMARK 923 INTER-LIGAND FREE ENERGY PREDICTED BY IDOCK:   -6.74 KCAL/MOL
REMARK 924 INTRA-LIGAND FREE ENERGY PREDICTED BY IDOCK:   -0.11 KCAL/MOL
REMARK 927      BINDING AFFINITY PREDICTED BY RF-SCORE:    0.00 PKD
ROOT
HETATM    1  C   UNL     1      -8.759  12.928  68.258  1.00  0.00    -0.168 C  
HETATM    2  C   UNL     1      -7.667  11.857  68.392  1.00  0.00    -0.131 C  
HETATM    3  C   UNL     1      -8.223  14.218  67.640  1.00  0.00    -0.193 C  
HETATM    4  C   UNL     1      -8.209  10.582  69.047  1.00  0.00    -0.145 C  
HETATM    5  N   UNL     1      -9.455  10.106  68.434  1.00  0.00    -0.141 N  
HETATM    6  C   UNL     1     -10.514  11.117  68.285  1.00  0.00    -0.191 C  
HETATM    7  C   UNL     1      -9.541   8.784  67.996  1.00  0.00    -0.142 C  
HETATM    8  O   UNL     1      -8.565   8.033  68.047  1.00  0.00    -0.128 OA 
HETATM    9  C   UNL     1     -10.023  12.385  67.543  1.00  0.00    -0.196 C  
ENDROOT
BRANCH   7  10
HETATM   10  C   UNL     1     -10.876   8.313  67.447  1.00  0.00    -0.105 C  
HETATM   11  C   UNL     1     -10.856   6.896  67.066  1.00  0.00    -0.366 C  
HETATM   12  N   UNL     1     -10.900   5.784  66.733  1.00  0.00    -0.293 NA 
ENDBRANCH   7  10
BRANCH   9  13
HETATM   13  N   UNL     1      -9.820  12.173  66.097  1.00  0.00    -0.233 NA 
HETATM   14  C   UNL     1      -8.770  11.354  65.514  1.00  0.00     0.031 C  
BRANCH  13  15
HETATM   15  C   UNL     1     -10.773  12.652  65.205  1.00  0.00    -0.289 A  
HETATM   16  N   UNL     1     -11.513  11.769  64.484  1.00  0.00    -0.287 NA 
HETATM   17  C   UNL     1     -12.371  12.239  63.552  1.00  0.00    -0.565 A  
HETATM   18  N   UNL     1     -12.624  13.514  63.221  1.00  0.00    -0.750 NA 
HETATM   19  C   UNL     1     -11.913  14.359  63.976  1.00  0.00    -0.258 A  
HETATM   20  C   UNL     1     -11.002  14.032  64.968  1.00  0.00    -0.379 A  
HETATM   21  C   UNL     1     -10.547  15.271  65.515  1.00  0.00    -0.390 A  
HETATM   22  C   UNL     1     -11.151  16.296  64.817  1.00  0.00    -0.281 A  
HETATM   23  N   UNL     1     -11.974  15.724  63.882  1.00  0.00    -1.139 NA 
HETATM   24  H   UNL     1     -12.548  16.239  63.214  1.00  0.00     0.000 HD 
ENDBRANCH  13  15
ENDBRANCH   9  13
TORSDOF 3
ENDMDL
MODEL       39
REMARK 921   NORMALIZED FREE ENERGY PREDICTED BY IDOCK:   -5.56 KCAL/MOL
REMARK 922        TOTAL FREE ENERGY PREDICTED BY IDOCK:   -6.85 KCAL/MOL
REMARK 923 INTER-LIGAND FREE ENERGY PREDICTED BY IDOCK:   -6.69 KCAL/MOL
REMARK 924 INTRA-LIGAND FREE ENERGY PREDICTED BY IDOCK:   -0.16 KCAL/MOL
REMARK 927      BINDING AFFINITY PREDICTED BY RF-SCORE:    0.00 PKD
ROOT
HETATM    1  C   UNL     1      -8.583   9.444  66.045  1.00  0.00    -0.154 C  
HETATM    2  C   UNL     1      -9.466   8.211  66.273  1.00  0.00    -0.259 C  
HETATM    3  C   UNL     1      -8.721   9.993  64.626  1.00  0.00    -0.210 C  
HETATM    4  C   UNL     1      -9.290   7.648  67.688  1.00  0.00    -0.142 C  
HETATM    5  N   UNL     1      -9.398   8.675  68.732  1.00  0.00    -0.142 N  
HETATM    6  C   UNL     1      -8.567   9.873  68.530  1.00  0.00    -0.117 C  
HETATM    7  C   UNL     1     -10.288   8.485  69.789  1.00  0.00    -0.212 C  
HETATM    8  O   UNL     1     -11.038   7.507  69.821  1.00  0.00    -0.224 OA 
HETATM    9  C   UNL     1      -8.789  10.521  67.141  1.00  0.00    -0.136 C  
ENDROOT
BRANCH   7  10
HETATM   10  C   UNL     1     -10.303   9.531  70.889  1.00  0.00    -0.372 C  
HETATM   11  C   UNL     1     -11.663   9.966  71.231  1.00  0.00    -0.392 C  
HETATM   12  N   UNL     1     -12.711  10.360  71.537  1.00  0.00    -0.422 NA 
ENDBRANCH   7  10
BRANCH   9  13
HETATM   13  N   UNL     1     -10.084  11.220  67.024  1.00  0.00    -0.201 NA 
HETATM   14  C   UNL     1     -11.340  10.749  67.585  1.00  0.00    -0.252 C  
BRANCH  13  15
HETATM   15  C   UNL     1     -10.112  12.497  66.475  1.00  0.00    -0.238 A  
HETATM   16  N   UNL     1      -9.413  13.496  67.076  1.00  0.00    -0.243 NA 
HETATM   17  C   UNL     1      -9.519  14.754  66.594  1.00  0.00    -0.273 A  
HETATM   18  N   UNL     1     -10.240  15.187  65.550  1.00  0.00    -0.351 NA 
HETATM   19  C   UNL     1     -10.883  14.175  64.954  1.00  0.00    -0.411 A  
HETATM   20  C   UNL     1     -10.870  12.840  65.326  1.00  0.00    -0.319 A  
HETATM   21  C   UNL     1     -11.662  12.150  64.357  1.00  0.00    -0.430 A  
HETATM   22  C   UNL     1     -12.161  13.080  63.469  1.00  0.00    -0.542 A  
HETATM   23  N   UNL     1     -11.682  14.306  63.849  1.00  0.00    -0.651 NA 
HETATM   24  H   UNL     1     -11.890  15.188  63.380  1.00  0.00     0.000 HD 
ENDBRANCH  13  15
ENDBRANCH   9  13
TORSDOF 3
ENDMDL
MODEL       40
REMARK 921   NORMALIZED FREE ENERGY PREDICTED BY IDOCK:   -5.53 KCAL/MOL
REMARK 922        TOTAL FREE ENERGY PREDICTED BY IDOCK:   -6.82 KCAL/MOL
REMARK 923 INTER-LIGAND FREE ENERGY PREDICTED BY IDOCK:   -6.45 KCAL/MOL
REMARK 924 INTRA-LIGAND FREE ENERGY PREDICTED BY IDOCK:   -0.37 KCAL/MOL
REMARK 927      BINDING AFFINITY PREDICTED BY RF-SCORE:    0.00 PKD
ROOT
HETATM    1  C   UNL     1      -7.697   9.042  68.084  1.00  0.00    -0.096 C  
HETATM    2  C   UNL     1      -8.323   8.007  69.028  1.00  0.00    -0.129 C  
HETATM    3  C   UNL     1      -6.990   8.384  66.900  1.00  0.00    -0.074 C  
HETATM    4  C   UNL     1      -8.997   8.678  70.230  1.00  0.00    -0.154 C  
HETATM    5  N   UNL     1      -9.895   9.774  69.847  1.00  0.00    -0.230 N  
HETATM    6  C   UNL     1      -9.320  10.775  68.933  1.00  0.00    -0.175 C  
HETATM    7  C   UNL     1     -11.210   9.775  70.312  1.00  0.00    -0.288 C  
HETATM    8  O   UNL     1     -11.650   8.834  70.977  1.00  0.00    -0.277 OA 
HETATM    9  C   UNL     1      -8.712  10.136  67.661  1.00  0.00    -0.121 C  
ENDROOT
BRANCH   7  10
HETATM   10  C   UNL     1     -12.077  10.971  69.961  1.00  0.00    -0.441 C  
HETATM   11  C   UNL     1     -12.692  11.585  71.144  1.00  0.00    -0.356 C  
HETATM   12  N   UNL     1     -13.219  12.105  72.039  1.00  0.00    -0.471 NA 
ENDBRANCH   7  10
BRANCH   9  13
HETATM   13  N   UNL     1      -9.728   9.640  66.713  1.00  0.00    -0.185 NA 
HETATM   14  C   UNL     1     -10.620   8.518  66.958  1.00  0.00    -0.235 C  
BRANCH  13  15
HETATM   15  C   UNL     1      -9.983  10.368  65.557  1.00  0.00    -0.282 A  
HETATM   16  N   UNL     1      -9.423   9.972  64.383  1.00  0.00    -0.293 NA 
HETATM   17  C   UNL     1      -9.597  10.735  63.281  1.00  0.00    -0.350 A  
HETATM   18  N   UNL     1     -10.285  11.880  63.162  1.00  0.00    -0.381 NA 
HETATM   19  C   UNL     1     -10.859  12.221  64.322  1.00  0.00    -0.348 A  
HETATM   20  C   UNL     1     -10.776  11.544  65.529  1.00  0.00    -0.328 A  
HETATM   21  C   UNL     1     -11.594  12.269  66.449  1.00  0.00    -0.445 A  
HETATM   22  C   UNL     1     -12.102  13.373  65.795  1.00  0.00    -0.436 A  
HETATM   23  N   UNL     1     -11.640  13.331  64.505  1.00  0.00    -0.352 NA 
HETATM   24  H   UNL     1     -11.848  14.024  63.786  1.00  0.00     0.000 HD 
ENDBRANCH  13  15
ENDBRANCH   9  13
TORSDOF 3
ENDMDL
MODEL       41
REMARK 921   NORMALIZED FREE ENERGY PREDICTED BY IDOCK:   -5.52 KCAL/MOL
REMARK 922        TOTAL FREE ENERGY PREDICTED BY IDOCK:   -6.80 KCAL/MOL
REMARK 923 INTER-LIGAND FREE ENERGY PREDICTED BY IDOCK:   -6.62 KCAL/MOL
REMARK 924 INTRA-LIGAND FREE ENERGY PREDICTED BY IDOCK:   -0.18 KCAL/MOL
REMARK 927      BINDING AFFINITY PREDICTED BY RF-SCORE:    0.00 PKD
ROOT
HETATM    1  C   UNL     1      -9.026   8.337  67.063  1.00  0.00    -0.159 C  
HETATM    2  C   UNL     1      -8.021   9.424  66.659  1.00  0.00    -0.108 C  
HETATM    3  C   UNL     1      -8.372   7.232  67.892  1.00  0.00    -0.119 C  
HETATM    4  C   UNL     1      -8.680  10.506  65.798  1.00  0.00    -0.177 C  
HETATM    5  N   UNL     1      -9.930  11.017  66.375  1.00  0.00    -0.214 N  
HETATM    6  C   UNL     1     -10.906   9.993  66.780  1.00  0.00    -0.021 C  
HETATM    7  C   UNL     1     -10.092  12.392  66.548  1.00  0.00    -0.232 C  
HETATM    8  O   UNL     1      -9.175  13.177  66.295  1.00  0.00    -0.184 OA 
HETATM    9  C   UNL     1     -10.294   8.932  67.727  1.00  0.00    -0.242 C  
ENDROOT
BRANCH   7  10
HETATM   10  C   UNL     1     -11.432  12.880  67.068  1.00  0.00    -0.390 C  
HETATM   11  C   UNL     1     -12.302  13.379  65.995  1.00  0.00    -0.413 C  
HETATM   12  N   UNL     1     -13.029  13.799  65.195  1.00  0.00    -0.762 NA 
ENDBRANCH   7  10
BRANCH   9  13
HETATM   13  N   UNL     1     -10.044   9.441  69.089  1.00  0.00    -0.188 NA 
HETATM   14  C   UNL     1      -9.064  10.459  69.433  1.00  0.00    -0.152 C  
BRANCH  13  15
HETATM   15  C   UNL     1     -10.892   9.053  70.120  1.00  0.00    -0.237 A  
HETATM   16  N   UNL     1     -10.917   7.751  70.508  1.00  0.00    -0.243 NA 
HETATM   17  C   UNL     1     -11.809   7.361  71.445  1.00  0.00    -0.300 A  
HETATM   18  N   UNL     1     -12.716   8.107  72.092  1.00  0.00    -0.317 NA 
HETATM   19  C   UNL     1     -12.639   9.390  71.720  1.00  0.00    -0.387 A  
HETATM   20  C   UNL     1     -11.780   9.940  70.782  1.00  0.00    -0.424 A  
HETATM   21  C   UNL     1     -12.045  11.344  70.775  1.00  0.00    -0.433 A  
HETATM   22  C   UNL     1     -13.072  11.592  71.662  1.00  0.00    -0.351 A  
HETATM   23  N   UNL     1     -13.425  10.393  72.224  1.00  0.00    -0.568 NA 
HETATM   24  H   UNL     1     -14.164  10.264  72.915  1.00  0.00     0.000 HD 
ENDBRANCH  13  15
ENDBRANCH   9  13
TORSDOF 3
ENDMDL
MODEL       42
REMARK 921   NORMALIZED FREE ENERGY PREDICTED BY IDOCK:   -5.50 KCAL/MOL
REMARK 922        TOTAL FREE ENERGY PREDICTED BY IDOCK:   -6.78 KCAL/MOL
REMARK 923 INTER-LIGAND FREE ENERGY PREDICTED BY IDOCK:   -6.60 KCAL/MOL
REMARK 924 INTRA-LIGAND FREE ENERGY PREDICTED BY IDOCK:   -0.19 KCAL/MOL
REMARK 927      BINDING AFFINITY PREDICTED BY RF-SCORE:    0.00 PKD
ROOT
HETATM    1  C   UNL     1      -9.208   8.655  67.216  1.00  0.00    -0.167 C  
HETATM    2  C   UNL     1      -8.186   9.731  66.830  1.00  0.00    -0.120 C  
HETATM    3  C   UNL     1      -8.574   7.527  68.028  1.00  0.00    -0.122 C  
HETATM    4  C   UNL     1      -8.827  10.837  65.984  1.00  0.00    -0.180 C  
HETATM    5  N   UNL     1     -10.069  11.359  66.568  1.00  0.00    -0.209 N  
HETATM    6  C   UNL     1     -11.062  10.344  66.956  1.00  0.00    -0.067 C  
HETATM    7  C   UNL     1     -10.209  12.734  66.761  1.00  0.00    -0.239 C  
HETATM    8  O   UNL     1      -9.280  13.507  66.521  1.00  0.00    -0.243 OA 
HETATM    9  C   UNL     1     -10.468   9.260  67.887  1.00  0.00    -0.236 C  
ENDROOT
BRANCH   7  10
HETATM   10  C   UNL     1     -11.542  13.234  67.287  1.00  0.00    -0.404 C  
HETATM   11  C   UNL     1     -12.448  13.653  66.210  1.00  0.00    -0.366 C  
HETATM   12  N   UNL     1     -13.204  14.012  65.406  1.00  0.00    -0.691 NA 
ENDBRANCH   7  10
BRANCH   9  13
HETATM   13  N   UNL     1     -10.212   9.744  69.258  1.00  0.00    -0.192 NA 
HETATM   14  C   UNL     1      -8.946  10.283  69.729  1.00  0.00    -0.049 C  
BRANCH  13  15
HETATM   15  C   UNL     1     -11.276   9.849  70.145  1.00  0.00    -0.289 A  
HETATM   16  N   UNL     1     -11.812  11.072  70.402  1.00  0.00    -0.344 NA 
HETATM   17  C   UNL     1     -12.784  11.181  71.335  1.00  0.00    -0.418 A  
HETATM   18  N   UNL     1     -13.337  10.211  72.077  1.00  0.00    -0.434 NA 
HETATM   19  C   UNL     1     -12.819   9.015  71.772  1.00  0.00    -0.374 A  
HETATM   20  C   UNL     1     -11.828   8.744  70.843  1.00  0.00    -0.267 A  
HETATM   21  C   UNL     1     -11.658   7.325  70.845  1.00  0.00    -0.331 A  
HETATM   22  C   UNL     1     -12.506   6.792  71.794  1.00  0.00    -0.349 A  
HETATM   23  N   UNL     1     -13.200   7.834  72.352  1.00  0.00    -0.505 NA 
HETATM   24  H   UNL     1     -13.898   7.744  73.091  1.00  0.00     0.000 HD 
ENDBRANCH  13  15
ENDBRANCH   9  13
TORSDOF 3
ENDMDL
MODEL       43
REMARK 921   NORMALIZED FREE ENERGY PREDICTED BY IDOCK:   -5.47 KCAL/MOL
REMARK 922        TOTAL FREE ENERGY PREDICTED BY IDOCK:   -6.74 KCAL/MOL
REMARK 923 INTER-LIGAND FREE ENERGY PREDICTED BY IDOCK:   -6.48 KCAL/MOL
REMARK 924 INTRA-LIGAND FREE ENERGY PREDICTED BY IDOCK:   -0.26 KCAL/MOL
REMARK 927      BINDING AFFINITY PREDICTED BY RF-SCORE:    0.00 PKD
ROOT
HETATM    1  C   UNL     1     -11.289  13.070  64.582  1.00  0.00    -0.361 C  
HETATM    2  C   UNL     1     -10.484  14.367  64.734  1.00  0.00    -0.394 C  
HETATM    3  C   UNL     1     -10.738  12.181  63.468  1.00  0.00    -0.509 C  
HETATM    4  C   UNL     1     -11.068  15.266  65.829  1.00  0.00    -0.301 C  
HETATM    5  N   UNL     1     -11.315  14.552  67.087  1.00  0.00    -0.337 N  
HETATM    6  C   UNL     1     -12.077  13.298  66.966  1.00  0.00    -0.320 C  
HETATM    7  C   UNL     1     -10.786  15.057  68.276  1.00  0.00    -0.259 C  
HETATM    8  O   UNL     1     -10.055  16.050  68.274  1.00  0.00    -0.223 OA 
HETATM    9  C   UNL     1     -11.458  12.326  65.932  1.00  0.00    -0.376 C  
ENDROOT
BRANCH   7  10
HETATM   10  C   UNL     1     -11.138  14.334  69.563  1.00  0.00    -0.244 C  
HETATM   11  C   UNL     1     -11.412  15.259  70.670  1.00  0.00    -0.319 C  
HETATM   12  N   UNL     1     -11.625  15.937  71.587  1.00  0.00    -0.446 NA 
ENDBRANCH   7  10
BRANCH   9  13
HETATM   13  N   UNL     1     -10.210  11.693  66.400  1.00  0.00    -0.215 NA 
HETATM   14  C   UNL     1      -9.032  12.411  66.860  1.00  0.00    -0.212 C  
BRANCH  13  15
HETATM   15  C   UNL     1     -10.177  10.314  66.570  1.00  0.00    -0.226 A  
HETATM   16  N   UNL     1     -10.894   9.750  67.579  1.00  0.00    -0.270 NA 
HETATM   17  C   UNL     1     -10.785   8.421  67.798  1.00  0.00    -0.095 A  
HETATM   18  N   UNL     1     -10.046   7.525  67.129  1.00  0.00    -0.220 NA 
HETATM   19  C   UNL     1      -9.386   8.102  66.118  1.00  0.00    -0.166 A  
HETATM   20  C   UNL     1      -9.399   9.442  65.766  1.00  0.00    -0.301 A  
HETATM   21  C   UNL     1      -8.584   9.555  64.598  1.00  0.00    -0.207 A  
HETATM   22  C   UNL     1      -8.072   8.307  64.309  1.00  0.00    -0.147 A  
HETATM   23  N   UNL     1      -8.565   7.436  65.246  1.00  0.00    -0.333 NA 
HETATM   24  H   UNL     1      -8.353   6.440  65.289  1.00  0.00     0.000 HD 
ENDBRANCH  13  15
ENDBRANCH   9  13
TORSDOF 3
ENDMDL
MODEL       44
REMARK 921   NORMALIZED FREE ENERGY PREDICTED BY IDOCK:   -5.46 KCAL/MOL
REMARK 922        TOTAL FREE ENERGY PREDICTED BY IDOCK:   -6.74 KCAL/MOL
REMARK 923 INTER-LIGAND FREE ENERGY PREDICTED BY IDOCK:   -6.39 KCAL/MOL
REMARK 924 INTRA-LIGAND FREE ENERGY PREDICTED BY IDOCK:   -0.34 KCAL/MOL
REMARK 927      BINDING AFFINITY PREDICTED BY RF-SCORE:    0.00 PKD
ROOT
HETATM    1  C   UNL     1      -9.100   6.839  71.486  1.00  0.00    -0.145 C  
HETATM    2  C   UNL     1     -10.323   6.445  72.324  1.00  0.00    -0.215 C  
HETATM    3  C   UNL     1      -8.420   5.623  70.858  1.00  0.00    -0.125 C  
HETATM    4  C   UNL     1     -10.973   7.668  72.978  1.00  0.00    -0.400 C  
HETATM    5  N   UNL     1     -11.212   8.766  72.033  1.00  0.00    -0.364 N  
HETATM    6  C   UNL     1     -10.056   9.156  71.210  1.00  0.00    -0.318 C  
HETATM    7  C   UNL     1     -12.489   9.321  71.937  1.00  0.00    -0.382 C  
HETATM    8  O   UNL     1     -13.434   8.854  72.577  1.00  0.00    -0.438 OA 
HETATM    9  C   UNL     1      -9.430   7.954  70.461  1.00  0.00    -0.162 C  
ENDROOT
BRANCH   7  10
HETATM   10  C   UNL     1     -12.668  10.509  71.010  1.00  0.00    -0.504 C  
HETATM   11  C   UNL     1     -13.161  11.700  71.713  1.00  0.00    -0.382 C  
HETATM   12  N   UNL     1     -13.562  12.670  72.209  1.00  0.00    -0.515 NA 
ENDBRANCH   7  10
BRANCH   9  13
HETATM   13  N   UNL     1     -10.255   7.474  69.335  1.00  0.00    -0.199 NA 
HETATM   14  C   UNL     1     -11.524   6.777  69.469  1.00  0.00    -0.190 C  
BRANCH  13  15
HETATM   15  C   UNL     1      -9.900   7.831  68.039  1.00  0.00    -0.163 A  
HETATM   16  N   UNL     1      -9.180   6.960  67.283  1.00  0.00    -0.125 NA 
HETATM   17  C   UNL     1      -8.757   7.347  66.059  1.00  0.00    -0.153 A  
HETATM   18  N   UNL     1      -8.961   8.520  65.441  1.00  0.00    -0.147 NA 
HETATM   19  C   UNL     1      -9.707   9.338  66.192  1.00  0.00    -0.279 A  
HETATM   20  C   UNL     1     -10.215   9.085  67.456  1.00  0.00    -0.302 A  
HETATM   21  C   UNL     1     -10.981  10.236  67.815  1.00  0.00    -0.360 A  
HETATM   22  C   UNL     1     -10.878  11.157  66.793  1.00  0.00    -0.268 A  
HETATM   23  N   UNL     1     -10.095  10.597  65.817  1.00  0.00    -0.256 NA 
HETATM   24  H   UNL     1      -9.839  11.051  64.940  1.00  0.00     0.000 HD 
ENDBRANCH  13  15
ENDBRANCH   9  13
TORSDOF 3
ENDMDL
MODEL       45
REMARK 921   NORMALIZED FREE ENERGY PREDICTED BY IDOCK:   -5.45 KCAL/MOL
REMARK 922        TOTAL FREE ENERGY PREDICTED BY IDOCK:   -6.73 KCAL/MOL
REMARK 923 INTER-LIGAND FREE ENERGY PREDICTED BY IDOCK:   -6.47 KCAL/MOL
REMARK 924 INTRA-LIGAND FREE ENERGY PREDICTED BY IDOCK:   -0.26 KCAL/MOL
REMARK 927      BINDING AFFINITY PREDICTED BY RF-SCORE:    0.00 PKD
ROOT
HETATM    1  C   UNL     1     -11.633  13.182  65.328  1.00  0.00    -0.350 C  
HETATM    2  C   UNL     1     -10.378  13.866  64.771  1.00  0.00    -0.419 C  
HETATM    3  C   UNL     1     -11.646  11.683  65.036  1.00  0.00    -0.133 C  
HETATM    4  C   UNL     1     -10.394  15.375  65.038  1.00  0.00    -0.329 C  
HETATM    5  N   UNL     1     -10.700  15.708  66.435  1.00  0.00    -0.306 N  
HETATM    6  C   UNL     1     -11.895  15.056  66.995  1.00  0.00    -0.109 C  
HETATM    7  C   UNL     1      -9.841  16.551  67.141  1.00  0.00    -0.255 C  
HETATM    8  O   UNL     1      -8.793  16.959  66.635  1.00  0.00    -0.215 OA 
HETATM    9  C   UNL     1     -11.866  13.517  66.824  1.00  0.00    -0.406 C  
ENDROOT
BRANCH   7  10
HETATM   10  C   UNL     1     -10.242  16.936  68.553  1.00  0.00    -0.310 C  
HETATM   11  C   UNL     1     -10.033  18.363  68.826  1.00  0.00    -0.375 C  
HETATM   12  N   UNL     1      -9.878  19.478  69.108  1.00  0.00    -0.424 NA 
ENDBRANCH   7  10
BRANCH   9  13
HETATM   13  N   UNL     1     -10.902  12.849  67.719  1.00  0.00    -0.224 NA 
HETATM   14  C   UNL     1      -9.476  13.125  67.765  1.00  0.00    -0.209 C  
BRANCH  13  15
HETATM   15  C   UNL     1     -11.381  11.997  68.708  1.00  0.00    -0.278 A  
HETATM   16  N   UNL     1     -12.191  12.494  69.681  1.00  0.00    -0.167 NA 
HETATM   17  C   UNL     1     -12.577  11.684  70.691  1.00  0.00    -0.230 A  
HETATM   18  N   UNL     1     -12.275  10.392  70.884  1.00  0.00    -0.349 NA 
HETATM   19  C   UNL     1     -11.513   9.921  69.890  1.00  0.00    -0.179 A  
HETATM   20  C   UNL     1     -11.042  10.622  68.791  1.00  0.00    -0.316 A  
HETATM   21  C   UNL     1     -10.322   9.678  67.996  1.00  0.00    -0.262 A  
HETATM   22  C   UNL     1     -10.339   8.464  68.650  1.00  0.00    -0.197 A  
HETATM   23  N   UNL     1     -11.062   8.630  69.803  1.00  0.00    -0.425 NA 
HETATM   24  H   UNL     1     -11.239   7.902  70.494  1.00  0.00     0.000 HD 
ENDBRANCH  13  15
ENDBRANCH   9  13
TORSDOF 3
ENDMDL
MODEL       46
REMARK 921   NORMALIZED FREE ENERGY PREDICTED BY IDOCK:   -5.44 KCAL/MOL
REMARK 922        TOTAL FREE ENERGY PREDICTED BY IDOCK:   -6.71 KCAL/MOL
REMARK 923 INTER-LIGAND FREE ENERGY PREDICTED BY IDOCK:   -6.86 KCAL/MOL
REMARK 924 INTRA-LIGAND FREE ENERGY PREDICTED BY IDOCK:    0.15 KCAL/MOL
REMARK 927      BINDING AFFINITY PREDICTED BY RF-SCORE:    0.00 PKD
ROOT
HETATM    1  C   UNL     1      -9.850  19.613  66.662  1.00  0.00    -0.518 C  
HETATM    2  C   UNL     1      -8.454  19.924  66.105  1.00  0.00    -0.350 C  
HETATM    3  C   UNL     1     -10.869  19.368  65.551  1.00  0.00    -0.204 C  
HETATM    4  C   UNL     1      -7.451  20.204  67.228  1.00  0.00    -0.286 C  
HETATM    5  N   UNL     1      -7.471  19.184  68.284  1.00  0.00    -0.287 N  
HETATM    6  C   UNL     1      -8.800  18.862  68.828  1.00  0.00    -0.296 C  
HETATM    7  C   UNL     1      -6.279  18.565  68.660  1.00  0.00    -0.211 C  
HETATM    8  O   UNL     1      -5.224  18.806  68.070  1.00  0.00    -0.173 OA 
HETATM    9  C   UNL     1      -9.817  18.483  67.723  1.00  0.00    -0.312 C  
ENDROOT
BRANCH   7  10
HETATM   10  C   UNL     1      -6.334  17.580  69.814  1.00  0.00    -0.134 C  
HETATM   11  C   UNL     1      -6.897  16.284  69.418  1.00  0.00    -0.213 C  
HETATM   12  N   UNL     1      -7.347  15.242  69.170  1.00  0.00    -0.156 NA 
ENDBRANCH   7  10
BRANCH   9  13
HETATM   13  N   UNL     1      -9.572  17.152  67.136  1.00  0.00    -0.249 NA 
HETATM   14  C   UNL     1      -8.384  16.775  66.387  1.00  0.00    -0.309 C  
BRANCH  13  15
HETATM   15  C   UNL     1     -10.449  16.114  67.431  1.00  0.00    -0.310 A  
HETATM   16  N   UNL     1     -10.826  15.906  68.721  1.00  0.00    -0.266 NA 
HETATM   17  C   UNL     1     -11.603  14.841  69.014  1.00  0.00    -0.297 A  
HETATM   18  N   UNL     1     -12.095  13.914  68.179  1.00  0.00    -0.342 NA 
HETATM   19  C   UNL     1     -11.743  14.170  66.913  1.00  0.00    -0.414 A  
HETATM   20  C   UNL     1     -10.959  15.217  66.457  1.00  0.00    -0.295 A  
HETATM   21  C   UNL     1     -10.912  15.089  65.035  1.00  0.00    -0.436 A  
HETATM   22  C   UNL     1     -11.619  13.958  64.682  1.00  0.00    -0.385 A  
HETATM   23  N   UNL     1     -12.113  13.408  65.836  1.00  0.00    -0.415 NA 
HETATM   24  H   UNL     1     -12.674  12.558  65.886  1.00  0.00     0.000 HD 
ENDBRANCH  13  15
ENDBRANCH   9  13
TORSDOF 3
ENDMDL
MODEL       47
REMARK 921   NORMALIZED FREE ENERGY PREDICTED BY IDOCK:   -5.43 KCAL/MOL
REMARK 922        TOTAL FREE ENERGY PREDICTED BY IDOCK:   -6.70 KCAL/MOL
REMARK 923 INTER-LIGAND FREE ENERGY PREDICTED BY IDOCK:   -6.43 KCAL/MOL
REMARK 924 INTRA-LIGAND FREE ENERGY PREDICTED BY IDOCK:   -0.27 KCAL/MOL
REMARK 927      BINDING AFFINITY PREDICTED BY RF-SCORE:    0.00 PKD
ROOT
HETATM    1  C   UNL     1      -9.332  10.334  67.566  1.00  0.00    -0.164 C  
HETATM    2  C   UNL     1      -8.914  10.689  68.999  1.00  0.00    -0.165 C  
HETATM    3  C   UNL     1     -10.638   9.542  67.530  1.00  0.00    -0.338 C  
HETATM    4  C   UNL     1      -7.585  11.451  69.023  1.00  0.00    -0.084 C  
HETATM    5  N   UNL     1      -7.551  12.578  68.083  1.00  0.00    -0.117 N  
HETATM    6  C   UNL     1      -7.958  12.265  66.703  1.00  0.00     0.101 C  
HETATM    7  C   UNL     1      -7.199  13.846  68.547  1.00  0.00    -0.107 C  
HETATM    8  O   UNL     1      -6.989  14.049  69.744  1.00  0.00    -0.042 OA 
HETATM    9  C   UNL     1      -9.343  11.575  66.636  1.00  0.00    -0.189 C  
ENDROOT
BRANCH   7  10
HETATM   10  C   UNL     1      -7.095  14.962  67.523  1.00  0.00    -0.215 C  
HETATM   11  C   UNL     1      -7.625  16.236  68.026  1.00  0.00    -0.136 C  
HETATM   12  N   UNL     1      -8.042  17.266  68.361  1.00  0.00    -0.249 NA 
ENDBRANCH   7  10
BRANCH   9  13
HETATM   13  N   UNL     1     -10.465  12.492  66.915  1.00  0.00    -0.228 NA 
HETATM   14  C   UNL     1     -10.731  13.119  68.199  1.00  0.00    -0.242 C  
BRANCH  13  15
HETATM   15  C   UNL     1     -11.257  12.928  65.859  1.00  0.00    -0.293 A  
HETATM   16  N   UNL     1     -12.053  12.037  65.211  1.00  0.00    -0.392 NA 
HETATM   17  C   UNL     1     -12.749  12.446  64.127  1.00  0.00    -0.347 A  
HETATM   18  N   UNL     1     -12.783  13.665  63.570  1.00  0.00    -0.638 NA 
HETATM   19  C   UNL     1     -12.023  14.529  64.254  1.00  0.00    -0.397 A  
HETATM   20  C   UNL     1     -11.259  14.263  65.380  1.00  0.00    -0.329 A  
HETATM   21  C   UNL     1     -10.676  15.509  65.767  1.00  0.00    -0.362 A  
HETATM   22  C   UNL     1     -11.061  16.467  64.853  1.00  0.00    -0.239 A  
HETATM   23  N   UNL     1     -11.875  15.853  63.936  1.00  0.00    -1.258 NA 
HETATM   24  H   UNL     1     -12.307  16.314  63.135  1.00  0.00     0.000 HD 
ENDBRANCH  13  15
ENDBRANCH   9  13
TORSDOF 3
ENDMDL
MODEL       48
REMARK 921   NORMALIZED FREE ENERGY PREDICTED BY IDOCK:   -5.41 KCAL/MOL
REMARK 922        TOTAL FREE ENERGY PREDICTED BY IDOCK:   -6.68 KCAL/MOL
REMARK 923 INTER-LIGAND FREE ENERGY PREDICTED BY IDOCK:   -6.45 KCAL/MOL
REMARK 924 INTRA-LIGAND FREE ENERGY PREDICTED BY IDOCK:   -0.23 KCAL/MOL
REMARK 927      BINDING AFFINITY PREDICTED BY RF-SCORE:    0.00 PKD
ROOT
HETATM    1  C   UNL     1      -6.711  15.153  68.166  1.00  0.00    -0.139 C  
HETATM    2  C   UNL     1      -7.130  13.852  67.470  1.00  0.00    -0.175 C  
HETATM    3  C   UNL     1      -5.601  15.878  67.407  1.00  0.00    -0.063 C  
HETATM    4  C   UNL     1      -8.217  13.116  68.261  1.00  0.00    -0.154 C  
HETATM    5  N   UNL     1      -9.334  13.986  68.647  1.00  0.00    -0.172 N  
HETATM    6  C   UNL     1      -8.957  15.246  69.309  1.00  0.00    -0.241 C  
HETATM    7  C   UNL     1     -10.639  13.606  68.330  1.00  0.00    -0.253 C  
HETATM    8  O   UNL     1     -10.861  12.592  67.665  1.00  0.00    -0.215 OA 
HETATM    9  C   UNL     1      -7.926  16.060  68.489  1.00  0.00    -0.159 C  
ENDROOT
BRANCH   7  10
HETATM   10  C   UNL     1     -11.767  14.493  68.824  1.00  0.00    -0.362 C  
HETATM   11  C   UNL     1     -12.187  14.157  70.190  1.00  0.00    -0.351 C  
HETATM   12  N   UNL     1     -12.574  13.930  71.261  1.00  0.00    -0.358 NA 
ENDBRANCH   7  10
BRANCH   9  13
HETATM   13  N   UNL     1      -8.505  16.693  67.289  1.00  0.00    -0.189 NA 
HETATM   14  C   UNL     1      -8.841  15.997  66.057  1.00  0.00    -0.279 C  
BRANCH  13  15
HETATM   15  C   UNL     1      -8.913  18.021  67.357  1.00  0.00    -0.246 A  
HETATM   16  N   UNL     1     -10.239  18.306  67.455  1.00  0.00    -0.353 NA 
HETATM   17  C   UNL     1     -10.637  19.597  67.427  1.00  0.00    -0.460 A  
HETATM   18  N   UNL     1      -9.880  20.699  67.324  1.00  0.00    -0.460 NA 
HETATM   19  C   UNL     1      -8.579  20.388  67.273  1.00  0.00    -0.329 A  
HETATM   20  C   UNL     1      -8.019  19.120  67.295  1.00  0.00    -0.277 A  
HETATM   21  C   UNL     1      -6.603  19.310  67.270  1.00  0.00    -0.204 A  
HETATM   22  C   UNL     1      -6.353  20.664  67.188  1.00  0.00    -0.251 A  
HETATM   23  N   UNL     1      -7.565  21.305  67.185  1.00  0.00    -0.755 NA 
HETATM   24  H   UNL     1      -7.693  22.315  67.126  1.00  0.00     0.000 HD 
ENDBRANCH  13  15
ENDBRANCH   9  13
TORSDOF 3
ENDMDL
MODEL       49
REMARK 921   NORMALIZED FREE ENERGY PREDICTED BY IDOCK:   -5.41 KCAL/MOL
REMARK 922        TOTAL FREE ENERGY PREDICTED BY IDOCK:   -6.68 KCAL/MOL
REMARK 923 INTER-LIGAND FREE ENERGY PREDICTED BY IDOCK:   -6.33 KCAL/MOL
REMARK 924 INTRA-LIGAND FREE ENERGY PREDICTED BY IDOCK:   -0.34 KCAL/MOL
REMARK 927      BINDING AFFINITY PREDICTED BY RF-SCORE:    0.00 PKD
ROOT
HETATM    1  C   UNL     1      -7.426  10.116  67.255  1.00  0.00    -0.091 C  
HETATM    2  C   UNL     1      -7.591   8.868  68.132  1.00  0.00    -0.093 C  
HETATM    3  C   UNL     1      -6.927   9.769  65.854  1.00  0.00    -0.101 C  
HETATM    4  C   UNL     1      -8.056   9.232  69.546  1.00  0.00    -0.111 C  
HETATM    5  N   UNL     1      -9.211  10.138  69.556  1.00  0.00    -0.214 N  
HETATM    6  C   UNL     1      -9.080  11.339  68.714  1.00  0.00    -0.116 C  
HETATM    7  C   UNL     1     -10.344   9.796  70.294  1.00  0.00    -0.291 C  
HETATM    8  O   UNL     1     -10.419   8.711  70.876  1.00  0.00    -0.198 OA 
HETATM    9  C   UNL     1      -8.700  10.999  67.252  1.00  0.00    -0.129 C  
ENDROOT
BRANCH   7  10
HETATM   10  C   UNL     1     -11.479  10.803  70.343  1.00  0.00    -0.397 C  
HETATM   11  C   UNL     1     -12.535  10.411  71.284  1.00  0.00    -0.415 C  
HETATM   12  N   UNL     1     -13.409  10.150  72.002  1.00  0.00    -0.434 NA 
ENDBRANCH   7  10
BRANCH   9  13
HETATM   13  N   UNL     1      -9.810  10.402  66.484  1.00  0.00    -0.197 NA 
HETATM   14  C   UNL     1     -10.491   9.165  66.827  1.00  0.00    -0.196 C  
BRANCH  13  15
HETATM   15  C   UNL     1     -10.372  11.126  65.438  1.00  0.00    -0.271 A  
HETATM   16  N   UNL     1     -10.064  10.792  64.156  1.00  0.00    -0.338 NA 
HETATM   17  C   UNL     1     -10.537  11.556  63.147  1.00  0.00    -0.255 A  
HETATM   18  N   UNL     1     -11.315  12.646  63.222  1.00  0.00    -0.388 NA 
HETATM   19  C   UNL     1     -11.635  12.924  64.492  1.00  0.00    -0.350 A  
HETATM   20  C   UNL     1     -11.234  12.237  65.626  1.00  0.00    -0.375 A  
HETATM   21  C   UNL     1     -11.873  12.883  66.729  1.00  0.00    -0.452 A  
HETATM   22  C   UNL     1     -12.593  13.953  66.242  1.00  0.00    -0.330 A  
HETATM   23  N   UNL     1     -12.433  13.967  64.880  1.00  0.00    -0.588 NA 
HETATM   24  H   UNL     1     -12.847  14.653  64.249  1.00  0.00     0.000 HD 
ENDBRANCH  13  15
ENDBRANCH   9  13
TORSDOF 3
ENDMDL
MODEL       50
REMARK 921   NORMALIZED FREE ENERGY PREDICTED BY IDOCK:   -5.40 KCAL/MOL
REMARK 922        TOTAL FREE ENERGY PREDICTED BY IDOCK:   -6.66 KCAL/MOL
REMARK 923 INTER-LIGAND FREE ENERGY PREDICTED BY IDOCK:   -6.50 KCAL/MOL
REMARK 924 INTRA-LIGAND FREE ENERGY PREDICTED BY IDOCK:   -0.16 KCAL/MOL
REMARK 927      BINDING AFFINITY PREDICTED BY RF-SCORE:    0.00 PKD
ROOT
HETATM    1  C   UNL     1     -10.919  14.175  68.374  1.00  0.00    -0.270 C  
HETATM    2  C   UNL     1     -11.762  14.324  67.100  1.00  0.00    -0.430 C  
HETATM    3  C   UNL     1     -11.755  14.357  69.639  1.00  0.00    -0.362 C  
HETATM    4  C   UNL     1     -10.905  14.177  65.839  1.00  0.00    -0.294 C  
HETATM    5  N   UNL     1     -10.046  12.987  65.864  1.00  0.00    -0.286 N  
HETATM    6  C   UNL     1      -9.234  12.817  67.080  1.00  0.00    -0.221 C  
HETATM    7  C   UNL     1     -10.086  12.091  64.795  1.00  0.00    -0.257 C  
HETATM    8  O   UNL     1     -10.884  12.244  63.868  1.00  0.00    -0.339 OA 
HETATM    9  C   UNL     1     -10.085  12.868  68.372  1.00  0.00    -0.227 C  
ENDROOT
BRANCH   7  10
HETATM   10  C   UNL     1      -9.119  10.921  64.824  1.00  0.00    -0.197 C  
HETATM   11  C   UNL     1      -9.658   9.767  65.554  1.00  0.00    -0.282 C  
HETATM   12  N   UNL     1     -10.022   8.827  66.129  1.00  0.00    -0.249 NA 
ENDBRANCH   7  10
BRANCH   9  13
HETATM   13  N   UNL     1     -10.909  11.661  68.577  1.00  0.00    -0.207 NA 
HETATM   14  C   UNL     1     -12.015  11.252  67.726  1.00  0.00     0.067 C  
BRANCH  13  15
HETATM   15  C   UNL     1     -10.534  10.747  69.555  1.00  0.00    -0.170 A  
HETATM   16  N   UNL     1      -9.261  10.268  69.565  1.00  0.00    -0.199 NA 
HETATM   17  C   UNL     1      -8.927   9.311  70.458  1.00  0.00    -0.250 A  
HETATM   18  N   UNL     1      -9.700   8.739  71.393  1.00  0.00    -0.253 NA 
HETATM   19  C   UNL     1     -10.932   9.261  71.386  1.00  0.00    -0.359 A  
HETATM   20  C   UNL     1     -11.421  10.244  70.540  1.00  0.00    -0.427 A  
HETATM   21  C   UNL     1     -12.764  10.495  70.957  1.00  0.00    -0.504 A  
HETATM   22  C   UNL     1     -13.060   9.638  71.996  1.00  0.00    -0.445 A  
HETATM   23  N   UNL     1     -11.937   8.890  72.241  1.00  0.00    -0.341 NA 
HETATM   24  H   UNL     1     -11.860   8.165  72.954  1.00  0.00     0.000 HD 
ENDBRANCH  13  15
ENDBRANCH   9  13
TORSDOF 3
ENDMDL
MODEL       51
REMARK 921   NORMALIZED FREE ENERGY PREDICTED BY IDOCK:   -5.40 KCAL/MOL
REMARK 922        TOTAL FREE ENERGY PREDICTED BY IDOCK:   -6.66 KCAL/MOL
REMARK 923 INTER-LIGAND FREE ENERGY PREDICTED BY IDOCK:   -6.44 KCAL/MOL
REMARK 924 INTRA-LIGAND FREE ENERGY PREDICTED BY IDOCK:   -0.22 KCAL/MOL
REMARK 927      BINDING AFFINITY PREDICTED BY RF-SCORE:    0.00 PKD
ROOT
HETATM    1  C   UNL     1      -9.819  19.702  66.851  1.00  0.00    -0.497 C  
HETATM    2  C   UNL     1      -8.412  20.253  66.583  1.00  0.00    -0.295 C  
HETATM    3  C   UNL     1     -10.730  19.841  65.633  1.00  0.00    -0.418 C  
HETATM    4  C   UNL     1      -7.519  20.141  67.823  1.00  0.00    -0.292 C  
HETATM    5  N   UNL     1      -7.543  18.805  68.430  1.00  0.00    -0.291 N  
HETATM    6  C   UNL     1      -8.882  18.250  68.688  1.00  0.00    -0.275 C  
HETATM    7  C   UNL     1      -6.340  18.140  68.670  1.00  0.00    -0.209 C  
HETATM    8  O   UNL     1      -5.264  18.625  68.313  1.00  0.00    -0.174 OA 
HETATM    9  C   UNL     1      -9.782  18.263  67.428  1.00  0.00    -0.296 C  
ENDROOT
BRANCH   7  10
HETATM   10  C   UNL     1      -6.410  16.798  69.377  1.00  0.00    -0.222 C  
HETATM   11  C   UNL     1      -5.776  16.828  70.701  1.00  0.00     0.049 C  
HETATM   12  N   UNL     1      -5.278  16.785  71.749  1.00  0.00    -0.151 NA 
ENDBRANCH   7  10
BRANCH   9  13
HETATM   13  N   UNL     1      -9.396  17.252  66.425  1.00  0.00    -0.308 NA 
HETATM   14  C   UNL     1      -8.077  17.131  65.827  1.00  0.00     0.273 C  
BRANCH  13  15
HETATM   15  C   UNL     1     -10.289  16.231  66.120  1.00  0.00    -0.341 A  
HETATM   16  N   UNL     1     -10.773  16.126  64.854  1.00  0.00    -0.659 NA 
HETATM   17  C   UNL     1     -11.711  15.190  64.585  1.00  0.00    -0.348 A  
HETATM   18  N   UNL     1     -12.258  14.296  65.421  1.00  0.00    -0.406 NA 
HETATM   19  C   UNL     1     -11.731  14.396  66.647  1.00  0.00    -0.394 A  
HETATM   20  C   UNL     1     -10.766  15.295  67.073  1.00  0.00    -0.313 A  
HETATM   21  C   UNL     1     -10.499  14.974  68.440  1.00  0.00    -0.238 A  
HETATM   22  C   UNL     1     -11.331  13.938  68.808  1.00  0.00    -0.277 A  
HETATM   23  N   UNL     1     -12.077  13.602  67.708  1.00  0.00    -0.361 NA 
HETATM   24  H   UNL     1     -12.786  12.869  67.683  1.00  0.00     0.000 HD 
ENDBRANCH  13  15
ENDBRANCH   9  13
TORSDOF 3
ENDMDL
MODEL       52
REMARK 921   NORMALIZED FREE ENERGY PREDICTED BY IDOCK:   -5.35 KCAL/MOL
REMARK 922        TOTAL FREE ENERGY PREDICTED BY IDOCK:   -6.61 KCAL/MOL
REMARK 923 INTER-LIGAND FREE ENERGY PREDICTED BY IDOCK:   -7.09 KCAL/MOL
REMARK 924 INTRA-LIGAND FREE ENERGY PREDICTED BY IDOCK:    0.48 KCAL/MOL
REMARK 927      BINDING AFFINITY PREDICTED BY RF-SCORE:    0.00 PKD
ROOT
HETATM    1  C   UNL     1      -9.376  10.464  67.104  1.00  0.00    -0.177 C  
HETATM    2  C   UNL     1     -10.623   9.645  67.461  1.00  0.00    -0.339 C  
HETATM    3  C   UNL     1      -8.999  10.321  65.630  1.00  0.00    -0.198 C  
HETATM    4  C   UNL     1     -10.968   9.768  68.949  1.00  0.00    -0.150 C  
HETATM    5  N   UNL     1     -10.998  11.158  69.419  1.00  0.00    -0.248 N  
HETATM    6  C   UNL     1      -9.817  11.968  69.080  1.00  0.00     0.179 C  
HETATM    7  C   UNL     1     -12.127  11.629  70.091  1.00  0.00    -0.333 C  
HETATM    8  O   UNL     1     -13.126  10.920  70.228  1.00  0.00    -0.143 OA 
HETATM    9  C   UNL     1      -9.494  11.940  67.565  1.00  0.00    -0.176 C  
ENDROOT
BRANCH   7  10
HETATM   10  C   UNL     1     -12.080  13.046  70.633  1.00  0.00    -0.333 C  
HETATM   11  C   UNL     1     -13.128  13.301  71.629  1.00  0.00    -0.363 C  
HETATM   12  N   UNL     1     -13.942  13.568  72.412  1.00  0.00    -0.703 NA 
ENDBRANCH   7  10
BRANCH   9  13
HETATM   13  N   UNL     1     -10.446  12.721  66.752  1.00  0.00    -0.240 NA 
HETATM   14  C   UNL     1     -11.819  12.334  66.472  1.00  0.00    -0.306 C  
BRANCH  13  15
HETATM   15  C   UNL     1     -10.085  13.997  66.334  1.00  0.00    -0.294 A  
HETATM   16  N   UNL     1      -8.955  14.567  66.832  1.00  0.00    -0.239 NA 
HETATM   17  C   UNL     1      -8.659  15.841  66.495  1.00  0.00    -0.308 A  
HETATM   18  N   UNL     1      -9.342  16.670  65.692  1.00  0.00    -0.476 NA 
HETATM   19  C   UNL     1     -10.424  16.068  65.185  1.00  0.00    -0.303 A  
HETATM   20  C   UNL     1     -10.855  14.774  65.431  1.00  0.00    -0.372 A  
HETATM   21  C   UNL     1     -12.019  14.583  64.625  1.00  0.00    -0.478 A  
HETATM   22  C   UNL     1     -12.281  15.763  63.961  1.00  0.00     0.275 A  
HETATM   23  N   UNL     1     -11.305  16.657  64.317  1.00  0.00    -1.364 NA 
HETATM   24  H   UNL     1     -11.243  17.620  63.985  1.00  0.00     0.000 HD 
ENDBRANCH  13  15
ENDBRANCH   9  13
TORSDOF 3
ENDMDL
MODEL       53
REMARK 921   NORMALIZED FREE ENERGY PREDICTED BY IDOCK:   -5.33 KCAL/MOL
REMARK 922        TOTAL FREE ENERGY PREDICTED BY IDOCK:   -6.58 KCAL/MOL
REMARK 923 INTER-LIGAND FREE ENERGY PREDICTED BY IDOCK:   -6.24 KCAL/MOL
REMARK 924 INTRA-LIGAND FREE ENERGY PREDICTED BY IDOCK:   -0.34 KCAL/MOL
REMARK 927      BINDING AFFINITY PREDICTED BY RF-SCORE:    0.00 PKD
ROOT
HETATM    1  C   UNL     1      -9.407  10.298  67.730  1.00  0.00    -0.156 C  
HETATM    2  C   UNL     1      -8.906  10.396  69.176  1.00  0.00    -0.180 C  
HETATM    3  C   UNL     1     -10.869   9.861  67.658  1.00  0.00    -0.318 C  
HETATM    4  C   UNL     1      -7.428  10.799  69.233  1.00  0.00    -0.135 C  
HETATM    5  N   UNL     1      -7.120  11.970  68.403  1.00  0.00    -0.078 N  
HETATM    6  C   UNL     1      -7.600  11.904  67.013  1.00  0.00    -0.134 C  
HETATM    7  C   UNL     1      -6.460  13.059  68.973  1.00  0.00    -0.103 C  
HETATM    8  O   UNL     1      -6.200  13.084  70.178  1.00  0.00    -0.124 OA 
HETATM    9  C   UNL     1      -9.113  11.589  66.922  1.00  0.00    -0.179 C  
ENDROOT
BRANCH   7  10
HETATM   10  C   UNL     1      -6.087  14.210  68.057  1.00  0.00    -0.149 C  
HETATM   11  C   UNL     1      -6.921  15.397  68.279  1.00  0.00    -0.116 C  
HETATM   12  N   UNL     1      -7.556  16.362  68.398  1.00  0.00    -0.170 NA 
ENDBRANCH   7  10
BRANCH   9  13
HETATM   13  N   UNL     1      -9.970  12.722  67.319  1.00  0.00    -0.217 NA 
HETATM   14  C   UNL     1     -10.323  13.062  68.687  1.00  0.00    -0.191 C  
BRANCH  13  15
HETATM   15  C   UNL     1     -10.361  13.642  66.352  1.00  0.00    -0.286 A  
HETATM   16  N   UNL     1      -9.961  14.936  66.463  1.00  0.00    -0.255 NA 
HETATM   17  C   UNL     1     -10.420  15.844  65.573  1.00  0.00    -0.404 A  
HETATM   18  N   UNL     1     -11.246  15.648  64.536  1.00  0.00    -0.387 NA 
HETATM   19  C   UNL     1     -11.589  14.359  64.428  1.00  0.00    -0.334 A  
HETATM   20  C   UNL     1     -11.199  13.317  65.254  1.00  0.00    -0.315 A  
HETATM   21  C   UNL     1     -11.779  12.134  64.702  1.00  0.00    -0.400 A  
HETATM   22  C   UNL     1     -12.529  12.495  63.603  1.00  0.00    -0.470 A  
HETATM   23  N   UNL     1     -12.407  13.853  63.453  1.00  0.00    -1.139 NA 
HETATM   24  H   UNL     1     -12.858  14.405  62.724  1.00  0.00     0.000 HD 
ENDBRANCH  13  15
ENDBRANCH   9  13
TORSDOF 3
ENDMDL
MODEL       54
REMARK 921   NORMALIZED FREE ENERGY PREDICTED BY IDOCK:   -5.32 KCAL/MOL
REMARK 922        TOTAL FREE ENERGY PREDICTED BY IDOCK:   -6.57 KCAL/MOL
REMARK 923 INTER-LIGAND FREE ENERGY PREDICTED BY IDOCK:   -6.46 KCAL/MOL
REMARK 924 INTRA-LIGAND FREE ENERGY PREDICTED BY IDOCK:   -0.11 KCAL/MOL
REMARK 927      BINDING AFFINITY PREDICTED BY RF-SCORE:    0.00 PKD
ROOT
HETATM    1  C   UNL     1      -9.638  11.217  66.646  1.00  0.00    -0.215 C  
HETATM    2  C   UNL     1     -10.689  10.186  67.079  1.00  0.00    -0.264 C  
HETATM    3  C   UNL     1      -9.486  11.276  65.127  1.00  0.00    -0.242 C  
HETATM    4  C   UNL     1     -10.806  10.109  68.605  1.00  0.00    -0.235 C  
HETATM    5  N   UNL     1     -10.950  11.426  69.237  1.00  0.00    -0.238 N  
HETATM    6  C   UNL     1      -9.959  12.436  68.830  1.00  0.00    -0.026 C  
HETATM    7  C   UNL     1     -12.010  11.651  70.115  1.00  0.00    -0.359 C  
HETATM    8  O   UNL     1     -12.869  10.788  70.309  1.00  0.00    -0.299 OA 
HETATM    9  C   UNL     1      -9.882  12.605  67.293  1.00  0.00    -0.206 C  
ENDROOT
BRANCH   7  10
HETATM   10  C   UNL     1     -12.070  13.000  70.809  1.00  0.00    -0.268 C  
HETATM   11  C   UNL     1     -13.237  13.124  71.692  1.00  0.00    -0.346 C  
HETATM   12  N   UNL     1     -14.147  13.289  72.394  1.00  0.00    -0.649 NA 
ENDBRANCH   7  10
BRANCH   9  13
HETATM   13  N   UNL     1     -11.048  13.307  66.723  1.00  0.00    -0.287 NA 
HETATM   14  C   UNL     1     -12.381  12.742  66.595  1.00  0.00     0.113 C  
BRANCH  13  15
HETATM   15  C   UNL     1     -10.937  14.659  66.418  1.00  0.00    -0.325 A  
HETATM   16  N   UNL     1     -11.011  15.056  65.120  1.00  0.00    -0.380 NA 
HETATM   17  C   UNL     1     -10.810  16.358  64.819  1.00  0.00    -0.178 A  
HETATM   18  N   UNL     1     -10.544  17.374  65.654  1.00  0.00    -0.546 NA 
HETATM   19  C   UNL     1     -10.519  16.959  66.926  1.00  0.00    -0.271 A  
HETATM   20  C   UNL     1     -10.710  15.667  67.389  1.00  0.00    -0.309 A  
HETATM   21  C   UNL     1     -10.641  15.741  68.815  1.00  0.00    -0.239 A  
HETATM   22  C   UNL     1     -10.368  17.047  69.164  1.00  0.00    -0.313 A  
HETATM   23  N   UNL     1     -10.292  17.773  68.004  1.00  0.00    -0.375 NA 
HETATM   24  H   UNL     1     -10.095  18.773  67.950  1.00  0.00     0.000 HD 
ENDBRANCH  13  15
ENDBRANCH   9  13
TORSDOF 3
ENDMDL
MODEL       55
REMARK 921   NORMALIZED FREE ENERGY PREDICTED BY IDOCK:   -5.30 KCAL/MOL
REMARK 922        TOTAL FREE ENERGY PREDICTED BY IDOCK:   -6.54 KCAL/MOL
REMARK 923 INTER-LIGAND FREE ENERGY PREDICTED BY IDOCK:   -6.25 KCAL/MOL
REMARK 924 INTRA-LIGAND FREE ENERGY PREDICTED BY IDOCK:   -0.29 KCAL/MOL
REMARK 927      BINDING AFFINITY PREDICTED BY RF-SCORE:    0.00 PKD
ROOT
HETATM    1  C   UNL     1      -9.975  10.305  66.257  1.00  0.00    -0.295 C  
HETATM    2  C   UNL     1      -9.059  11.532  66.160  1.00  0.00    -0.217 C  
HETATM    3  C   UNL     1      -9.193   8.997  66.156  1.00  0.00    -0.272 C  
HETATM    4  C   UNL     1      -9.858  12.838  66.225  1.00  0.00    -0.267 C  
HETATM    5  N   UNL     1     -10.808  12.875  67.344  1.00  0.00    -0.247 N  
HETATM    6  C   UNL     1     -11.692  11.703  67.463  1.00  0.00    -0.214 C  
HETATM    7  C   UNL     1     -10.783  13.954  68.227  1.00  0.00    -0.251 C  
HETATM    8  O   UNL     1      -9.929  14.837  68.127  1.00  0.00    -0.214 OA 
HETATM    9  C   UNL     1     -10.907  10.369  67.494  1.00  0.00    -0.301 C  
ENDROOT
BRANCH   7  10
HETATM   10  C   UNL     1     -11.839  13.992  69.318  1.00  0.00    -0.389 C  
HETATM   11  C   UNL     1     -11.474  14.889  70.421  1.00  0.00    -0.266 C  
HETATM   12  N   UNL     1     -11.236  15.572  71.329  1.00  0.00    -0.367 NA 
ENDBRANCH   7  10
BRANCH   9  13
HETATM   13  N   UNL     1     -10.192  10.142  68.765  1.00  0.00    -0.177 NA 
HETATM   14  C   UNL     1      -8.885  10.688  69.095  1.00  0.00    -0.122 C  
BRANCH  13  15
HETATM   15  C   UNL     1     -10.850   9.490  69.801  1.00  0.00    -0.243 A  
HETATM   16  N   UNL     1     -11.483  10.224  70.754  1.00  0.00    -0.340 NA 
HETATM   17  C   UNL     1     -12.040   9.590  71.809  1.00  0.00    -0.384 A  
HETATM   18  N   UNL     1     -12.075   8.274  72.066  1.00  0.00    -0.326 NA 
HETATM   19  C   UNL     1     -11.482   7.576  71.090  1.00  0.00    -0.273 A  
HETATM   20  C   UNL     1     -10.873   8.080  69.952  1.00  0.00    -0.217 A  
HETATM   21  C   UNL     1     -10.438   6.946  69.199  1.00  0.00    -0.224 A  
HETATM   22  C   UNL     1     -10.750   5.809  69.915  1.00  0.00    -0.342 A  
HETATM   23  N   UNL     1     -11.380   6.211  71.065  1.00  0.00    -0.303 NA 
HETATM   24  H   UNL     1     -11.721   5.585  71.794  1.00  0.00     0.000 HD 
ENDBRANCH  13  15
ENDBRANCH   9  13
TORSDOF 3
ENDMDL
MODEL       56
REMARK 921   NORMALIZED FREE ENERGY PREDICTED BY IDOCK:   -5.30 KCAL/MOL
REMARK 922        TOTAL FREE ENERGY PREDICTED BY IDOCK:   -6.54 KCAL/MOL
REMARK 923 INTER-LIGAND FREE ENERGY PREDICTED BY IDOCK:   -6.68 KCAL/MOL
REMARK 924 INTRA-LIGAND FREE ENERGY PREDICTED BY IDOCK:    0.14 KCAL/MOL
REMARK 927      BINDING AFFINITY PREDICTED BY RF-SCORE:    0.00 PKD
ROOT
HETATM    1  C   UNL     1     -10.658  18.053  68.008  1.00  0.00    -0.361 C  
HETATM    2  C   UNL     1     -10.895  16.792  68.850  1.00  0.00    -0.301 C  
HETATM    3  C   UNL     1     -10.022  19.176  68.824  1.00  0.00    -0.493 C  
HETATM    4  C   UNL     1     -11.568  15.687  68.029  1.00  0.00    -0.239 C  
HETATM    5  N   UNL     1     -10.905  15.442  66.742  1.00  0.00    -0.312 N  
HETATM    6  C   UNL     1     -10.658  16.638  65.920  1.00  0.00    -0.249 C  
HETATM    7  C   UNL     1     -10.515  14.145  66.408  1.00  0.00    -0.283 C  
HETATM    8  O   UNL     1     -10.650  13.216  67.207  1.00  0.00    -0.244 OA 
HETATM    9  C   UNL     1      -9.896  17.742  66.694  1.00  0.00    -0.322 C  
ENDROOT
BRANCH   7  10
HETATM   10  C   UNL     1      -9.912  13.927  65.032  1.00  0.00    -0.213 C  
HETATM   11  C   UNL     1     -10.657  12.938  64.244  1.00  0.00    -0.408 C  
HETATM   12  N   UNL     1     -11.195  12.155  63.576  1.00  0.00    -0.448 NA 
ENDBRANCH   7  10
BRANCH   9  13
HETATM   13  N   UNL     1      -8.473  17.422  66.917  1.00  0.00    -0.231 NA 
HETATM   14  C   UNL     1      -7.965  16.124  67.328  1.00  0.00    -0.174 C  
BRANCH  13  15
HETATM   15  C   UNL     1      -7.509  18.362  66.572  1.00  0.00    -0.237 A  
HETATM   16  N   UNL     1      -7.198  18.547  65.261  1.00  0.00    -0.428 NA 
HETATM   17  C   UNL     1      -6.196  19.394  64.937  1.00  0.00    -0.276 A  
HETATM   18  N   UNL     1      -5.428  20.126  65.756  1.00  0.00    -0.165 NA 
HETATM   19  C   UNL     1      -5.785  19.955  67.034  1.00  0.00    -0.172 A  
HETATM   20  C   UNL     1      -6.787  19.131  67.521  1.00  0.00    -0.224 A  
HETATM   21  C   UNL     1      -6.816  19.332  68.935  1.00  0.00    -0.366 A  
HETATM   22  C   UNL     1      -5.815  20.222  69.263  1.00  0.00    -0.321 A  
HETATM   23  N   UNL     1      -5.194  20.587  68.097  1.00  0.00    -0.213 NA 
HETATM   24  H   UNL     1      -4.408  21.234  68.029  1.00  0.00     0.000 HD 
ENDBRANCH  13  15
ENDBRANCH   9  13
TORSDOF 3
ENDMDL
MODEL       57
REMARK 921   NORMALIZED FREE ENERGY PREDICTED BY IDOCK:   -5.29 KCAL/MOL
REMARK 922        TOTAL FREE ENERGY PREDICTED BY IDOCK:   -6.54 KCAL/MOL
REMARK 923 INTER-LIGAND FREE ENERGY PREDICTED BY IDOCK:   -6.29 KCAL/MOL
REMARK 924 INTRA-LIGAND FREE ENERGY PREDICTED BY IDOCK:   -0.25 KCAL/MOL
REMARK 927      BINDING AFFINITY PREDICTED BY RF-SCORE:    0.00 PKD
ROOT
HETATM    1  C   UNL     1      -8.255  10.803  68.505  1.00  0.00    -0.136 C  
HETATM    2  C   UNL     1      -8.242  10.087  67.149  1.00  0.00    -0.117 C  
HETATM    3  C   UNL     1      -8.253  12.323  68.350  1.00  0.00    -0.146 C  
HETATM    4  C   UNL     1      -8.207   8.564  67.318  1.00  0.00    -0.108 C  
HETATM    5  N   UNL     1      -9.218   8.067  68.259  1.00  0.00    -0.135 N  
HETATM    6  C   UNL     1      -9.257   8.746  69.565  1.00  0.00    -0.149 C  
HETATM    7  C   UNL     1     -10.087   7.052  67.857  1.00  0.00    -0.169 C  
HETATM    8  O   UNL     1     -10.068   6.620  66.702  1.00  0.00    -0.180 OA 
HETATM    9  C   UNL     1      -9.386  10.283  69.430  1.00  0.00    -0.199 C  
ENDROOT
BRANCH   7  10
HETATM   10  C   UNL     1     -11.059   6.511  68.890  1.00  0.00    -0.371 C  
HETATM   11  C   UNL     1     -10.468   5.448  69.713  1.00  0.00    -0.307 C  
HETATM   12  N   UNL     1     -10.063   4.594  70.386  1.00  0.00    -0.232 NA 
ENDBRANCH   7  10
BRANCH   9  13
HETATM   13  N   UNL     1     -10.727  10.720  68.998  1.00  0.00    -0.213 NA 
HETATM   14  C   UNL     1     -11.282  10.522  67.669  1.00  0.00    -0.265 C  
BRANCH  13  15
HETATM   15  C   UNL     1     -11.609  11.225  69.947  1.00  0.00    -0.334 A  
HETATM   16  N   UNL     1     -11.798  12.568  70.033  1.00  0.00    -0.323 NA 
HETATM   17  C   UNL     1     -12.583  13.060  71.017  1.00  0.00    -0.299 A  
HETATM   18  N   UNL     1     -13.248  12.385  71.966  1.00  0.00    -0.469 NA 
HETATM   19  C   UNL     1     -13.077  11.065  71.829  1.00  0.00    -0.449 A  
HETATM   20  C   UNL     1     -12.311  10.414  70.876  1.00  0.00    -0.480 A  
HETATM   21  C   UNL     1     -12.487   9.016  71.111  1.00  0.00    -0.285 A  
HETATM   22  C   UNL     1     -13.304   8.864  72.212  1.00  0.00    -0.449 A  
HETATM   23  N   UNL     1     -13.649  10.120  72.640  1.00  0.00    -0.470 NA 
HETATM   24  H   UNL     1     -14.245  10.322  73.443  1.00  0.00     0.000 HD 
ENDBRANCH  13  15
ENDBRANCH   9  13
TORSDOF 3
ENDMDL
MODEL       58
REMARK 921   NORMALIZED FREE ENERGY PREDICTED BY IDOCK:   -5.28 KCAL/MOL
REMARK 922        TOTAL FREE ENERGY PREDICTED BY IDOCK:   -6.53 KCAL/MOL
REMARK 923 INTER-LIGAND FREE ENERGY PREDICTED BY IDOCK:   -6.32 KCAL/MOL
REMARK 924 INTRA-LIGAND FREE ENERGY PREDICTED BY IDOCK:   -0.20 KCAL/MOL
REMARK 927      BINDING AFFINITY PREDICTED BY RF-SCORE:    0.00 PKD
ROOT
HETATM    1  C   UNL     1      -9.986  13.682  67.695  1.00  0.00    -0.239 C  
HETATM    2  C   UNL     1     -11.396  13.133  67.953  1.00  0.00    -0.321 C  
HETATM    3  C   UNL     1      -9.645  13.706  66.206  1.00  0.00    -0.254 C  
HETATM    4  C   UNL     1     -11.712  13.080  69.451  1.00  0.00    -0.326 C  
HETATM    5  N   UNL     1     -11.413  14.337  70.147  1.00  0.00    -0.230 N  
HETATM    6  C   UNL     1     -10.069  14.890  69.907  1.00  0.00     0.057 C  
HETATM    7  C   UNL     1     -12.401  14.941  70.924  1.00  0.00    -0.328 C  
HETATM    8  O   UNL     1     -13.542  14.476  70.976  1.00  0.00    -0.359 OA 
HETATM    9  C   UNL     1      -9.752  15.043  68.399  1.00  0.00    -0.216 C  
ENDROOT
BRANCH   7  10
HETATM   10  C   UNL     1     -12.020  16.194  71.693  1.00  0.00    -0.528 C  
HETATM   11  C   UNL     1     -12.389  16.115  73.112  1.00  0.00    -0.538 C  
HETATM   12  N   UNL     1     -12.668  16.119  74.238  1.00  0.00    -0.723 NA 
ENDBRANCH   7  10
BRANCH   9  13
HETATM   13  N   UNL     1     -10.483  16.155  67.759  1.00  0.00    -0.287 NA 
HETATM   14  C   UNL     1     -11.861  16.092  67.301  1.00  0.00     0.733 C  
BRANCH  13  15
HETATM   15  C   UNL     1      -9.891  17.412  67.713  1.00  0.00    -0.283 A  
HETATM   16  N   UNL     1     -10.527  18.468  68.286  1.00  0.00    -0.338 NA 
HETATM   17  C   UNL     1      -9.994  19.703  68.158  1.00  0.00    -0.437 A  
HETATM   18  N   UNL     1      -8.867  20.062  67.526  1.00  0.00    -0.337 NA 
HETATM   19  C   UNL     1      -8.243  18.996  67.010  1.00  0.00    -0.270 A  
HETATM   20  C   UNL     1      -8.659  17.676  67.062  1.00  0.00    -0.252 A  
HETATM   21  C   UNL     1      -7.638  16.911  66.418  1.00  0.00    -0.339 A  
HETATM   22  C   UNL     1      -6.672  17.783  65.962  1.00  0.00    -0.281 A  
HETATM   23  N   UNL     1      -7.058  19.047  66.325  1.00  0.00    -0.230 NA 
HETATM   24  H   UNL     1      -6.539  19.901  66.117  1.00  0.00     0.000 HD 
ENDBRANCH  13  15
ENDBRANCH   9  13
TORSDOF 3
ENDMDL
MODEL       59
REMARK 921   NORMALIZED FREE ENERGY PREDICTED BY IDOCK:   -5.26 KCAL/MOL
REMARK 922        TOTAL FREE ENERGY PREDICTED BY IDOCK:   -6.50 KCAL/MOL
REMARK 923 INTER-LIGAND FREE ENERGY PREDICTED BY IDOCK:   -6.97 KCAL/MOL
REMARK 924 INTRA-LIGAND FREE ENERGY PREDICTED BY IDOCK:    0.47 KCAL/MOL
REMARK 927      BINDING AFFINITY PREDICTED BY RF-SCORE:    0.00 PKD
ROOT
HETATM    1  C   UNL     1      -9.097  10.203  65.651  1.00  0.00    -0.216 C  
HETATM    2  C   UNL     1      -9.642   8.785  65.866  1.00  0.00    -0.255 C  
HETATM    3  C   UNL     1      -9.549  10.794  64.317  1.00  0.00    -0.333 C  
HETATM    4  C   UNL     1      -9.152   8.189  67.190  1.00  0.00    -0.140 C  
HETATM    5  N   UNL     1      -9.341   9.093  68.332  1.00  0.00    -0.135 N  
HETATM    6  C   UNL     1      -8.835  10.463  68.145  1.00  0.00    -0.132 C  
HETATM    7  C   UNL     1     -10.012   8.634  69.465  1.00  0.00    -0.196 C  
HETATM    8  O   UNL     1     -10.513   7.507  69.494  1.00  0.00    -0.218 OA 
HETATM    9  C   UNL     1      -9.385  11.129  66.860  1.00  0.00    -0.175 C  
ENDROOT
BRANCH   7  10
HETATM   10  C   UNL     1     -10.109   9.575  70.652  1.00  0.00    -0.353 C  
HETATM   11  C   UNL     1     -11.471   9.656  71.194  1.00  0.00    -0.384 C  
HETATM   12  N   UNL     1     -12.528   9.774  71.658  1.00  0.00    -0.384 NA 
ENDBRANCH   7  10
BRANCH   9  13
HETATM   13  N   UNL     1     -10.807  11.512  66.965  1.00  0.00    -0.259 NA 
HETATM   14  C   UNL     1     -11.702  11.110  68.037  1.00  0.00    -0.212 C  
BRANCH  13  15
HETATM   15  C   UNL     1     -11.320  12.446  66.072  1.00  0.00    -0.353 A  
HETATM   16  N   UNL     1     -12.409  12.125  65.325  1.00  0.00    -0.477 NA 
HETATM   17  C   UNL     1     -12.848  13.000  64.393  1.00  0.00    -0.094 A  
HETATM   18  N   UNL     1     -12.350  14.207  64.085  1.00  0.00    -0.678 NA 
HETATM   19  C   UNL     1     -11.306  14.512  64.865  1.00  0.00    -0.394 A  
HETATM   20  C   UNL     1     -10.746  13.726  65.860  1.00  0.00    -0.285 A  
HETATM   21  C   UNL     1      -9.695  14.503  66.437  1.00  0.00    -0.314 A  
HETATM   22  C   UNL     1      -9.620  15.699  65.753  1.00  0.00    -0.326 A  
HETATM   23  N   UNL     1     -10.603  15.686  64.798  1.00  0.00    -0.658 NA 
HETATM   24  H   UNL     1     -10.785  16.438  64.134  1.00  0.00     0.000 HD 
ENDBRANCH  13  15
ENDBRANCH   9  13
TORSDOF 3
ENDMDL
MODEL       60
REMARK 921   NORMALIZED FREE ENERGY PREDICTED BY IDOCK:   -5.26 KCAL/MOL
REMARK 922        TOTAL FREE ENERGY PREDICTED BY IDOCK:   -6.50 KCAL/MOL
REMARK 923 INTER-LIGAND FREE ENERGY PREDICTED BY IDOCK:   -6.95 KCAL/MOL
REMARK 924 INTRA-LIGAND FREE ENERGY PREDICTED BY IDOCK:    0.45 KCAL/MOL
REMARK 927      BINDING AFFINITY PREDICTED BY RF-SCORE:    0.00 PKD
ROOT
HETATM    1  C   UNL     1      -8.596  10.066  67.305  1.00  0.00    -0.125 C  
HETATM    2  C   UNL     1      -7.749  10.596  66.140  1.00  0.00    -0.145 C  
HETATM    3  C   UNL     1      -7.946  10.349  68.659  1.00  0.00    -0.115 C  
HETATM    4  C   UNL     1      -8.392  10.274  64.787  1.00  0.00    -0.172 C  
HETATM    5  N   UNL     1      -9.812  10.641  64.723  1.00  0.00    -0.283 N  
HETATM    6  C   UNL     1     -10.643  10.153  65.836  1.00  0.00     0.028 C  
HETATM    7  C   UNL     1     -10.265  11.447  63.678  1.00  0.00    -0.397 C  
HETATM    8  O   UNL     1      -9.479  11.915  62.851  1.00  0.00    -0.358 OA 
HETATM    9  C   UNL     1     -10.068  10.542  67.220  1.00  0.00    -0.201 C  
ENDROOT
BRANCH   7  10
HETATM   10  C   UNL     1     -11.754  11.730  63.606  1.00  0.00    -0.517 C  
HETATM   11  C   UNL     1     -12.063  13.155  63.781  1.00  0.00    -0.495 C  
HETATM   12  N   UNL     1     -12.372  14.264  63.926  1.00  0.00    -0.757 NA 
ENDBRANCH   7  10
BRANCH   9  13
HETATM   13  N   UNL     1     -10.228  11.975  67.537  1.00  0.00    -0.196 NA 
HETATM   14  C   UNL     1      -9.808  13.071  66.678  1.00  0.00    -0.252 C  
BRANCH  13  15
HETATM   15  C   UNL     1     -10.966  12.339  68.657  1.00  0.00    -0.239 A  
HETATM   16  N   UNL     1     -11.371  11.378  69.529  1.00  0.00    -0.276 NA 
HETATM   17  C   UNL     1     -12.165  11.725  70.566  1.00  0.00    -0.347 A  
HETATM   18  N   UNL     1     -12.631  12.940  70.888  1.00  0.00    -0.320 NA 
HETATM   19  C   UNL     1     -12.181  13.870  70.037  1.00  0.00    -0.344 A  
HETATM   20  C   UNL     1     -11.362  13.672  68.936  1.00  0.00    -0.332 A  
HETATM   21  C   UNL     1     -11.122  14.967  68.381  1.00  0.00    -0.282 A  
HETATM   22  C   UNL     1     -11.830  15.890  69.123  1.00  0.00    -0.330 A  
HETATM   23  N   UNL     1     -12.472  15.206  70.122  1.00  0.00    -0.495 NA 
HETATM   24  H   UNL     1     -13.078  15.628  70.825  1.00  0.00     0.000 HD 
ENDBRANCH  13  15
ENDBRANCH   9  13
TORSDOF 3
ENDMDL
MODEL       61
REMARK 921   NORMALIZED FREE ENERGY PREDICTED BY IDOCK:   -5.26 KCAL/MOL
REMARK 922        TOTAL FREE ENERGY PREDICTED BY IDOCK:   -6.49 KCAL/MOL
REMARK 923 INTER-LIGAND FREE ENERGY PREDICTED BY IDOCK:   -6.30 KCAL/MOL
REMARK 924 INTRA-LIGAND FREE ENERGY PREDICTED BY IDOCK:   -0.19 KCAL/MOL
REMARK 927      BINDING AFFINITY PREDICTED BY RF-SCORE:    0.00 PKD
ROOT
HETATM    1  C   UNL     1     -10.088  16.107  66.848  1.00  0.00    -0.273 C  
HETATM    2  C   UNL     1      -9.735  16.804  68.169  1.00  0.00    -0.247 C  
HETATM    3  C   UNL     1      -8.949  16.193  65.833  1.00  0.00    -0.241 C  
HETATM    4  C   UNL     1     -10.899  16.743  69.164  1.00  0.00    -0.287 C  
HETATM    5  N   UNL     1     -11.454  15.393  69.317  1.00  0.00    -0.309 N  
HETATM    6  C   UNL     1     -11.792  14.700  68.063  1.00  0.00    -0.311 C  
HETATM    7  C   UNL     1     -11.577  14.845  70.594  1.00  0.00    -0.291 C  
HETATM    8  O   UNL     1     -11.158  15.445  71.586  1.00  0.00    -0.363 OA 
HETATM    9  C   UNL     1     -10.605  14.663  67.069  1.00  0.00    -0.280 C  
ENDROOT
BRANCH   7  10
HETATM   10  C   UNL     1     -12.234  13.482  70.711  1.00  0.00    -0.417 C  
HETATM   11  C   UNL     1     -13.273  13.448  71.748  1.00  0.00    -0.407 C  
HETATM   12  N   UNL     1     -14.095  13.353  72.562  1.00  0.00    -0.735 NA 
ENDBRANCH   7  10
BRANCH   9  13
HETATM   13  N   UNL     1      -9.537  13.726  67.471  1.00  0.00    -0.214 NA 
HETATM   14  C   UNL     1      -8.546  13.983  68.503  1.00  0.00    -0.147 C  
BRANCH  13  15
HETATM   15  C   UNL     1      -9.542  12.436  66.952  1.00  0.00    -0.219 A  
HETATM   16  N   UNL     1      -8.944  12.197  65.755  1.00  0.00     0.060 NA 
HETATM   17  C   UNL     1      -9.033  10.963  65.212  1.00  0.00    -0.186 A  
HETATM   18  N   UNL     1      -9.646   9.878  65.706  1.00  0.00    -0.229 NA 
HETATM   19  C   UNL     1     -10.188  10.133  66.903  1.00  0.00    -0.236 A  
HETATM   20  C   UNL     1     -10.177  11.338  67.587  1.00  0.00    -0.206 A  
HETATM   21  C   UNL     1     -10.836  11.094  68.831  1.00  0.00    -0.261 A  
HETATM   22  C   UNL     1     -11.260   9.782  68.843  1.00  0.00    -0.030 A  
HETATM   23  N   UNL     1     -10.863   9.213  67.661  1.00  0.00    -0.475 NA 
HETATM   24  H   UNL     1     -11.043   8.248  67.385  1.00  0.00     0.000 HD 
ENDBRANCH  13  15
ENDBRANCH   9  13
TORSDOF 3
ENDMDL
MODEL       62
REMARK 921   NORMALIZED FREE ENERGY PREDICTED BY IDOCK:   -5.25 KCAL/MOL
REMARK 922        TOTAL FREE ENERGY PREDICTED BY IDOCK:   -6.49 KCAL/MOL
REMARK 923 INTER-LIGAND FREE ENERGY PREDICTED BY IDOCK:   -6.31 KCAL/MOL
REMARK 924 INTRA-LIGAND FREE ENERGY PREDICTED BY IDOCK:   -0.18 KCAL/MOL
REMARK 927      BINDING AFFINITY PREDICTED BY RF-SCORE:    0.00 PKD
ROOT
HETATM    1  C   UNL     1     -11.727  12.013  68.249  1.00  0.00    -0.396 C  
HETATM    2  C   UNL     1     -10.623  11.040  68.683  1.00  0.00    -0.225 C  
HETATM    3  C   UNL     1     -11.894  13.167  69.236  1.00  0.00    -0.377 C  
HETATM    4  C   UNL     1     -10.491   9.868  67.705  1.00  0.00    -0.242 C  
HETATM    5  N   UNL     1     -10.409  10.296  66.303  1.00  0.00    -0.215 N  
HETATM    6  C   UNL     1     -11.452  11.238  65.866  1.00  0.00     0.223 C  
HETATM    7  C   UNL     1      -9.354   9.842  65.510  1.00  0.00    -0.223 C  
HETATM    8  O   UNL     1      -8.452   9.150  65.988  1.00  0.00    -0.122 OA 
HETATM    9  C   UNL     1     -11.549  12.482  66.782  1.00  0.00    -0.382 C  
ENDROOT
BRANCH   7  10
HETATM   10  C   UNL     1      -9.356  10.241  64.046  1.00  0.00    -0.337 C  
HETATM   11  C   UNL     1      -8.014  10.206  63.453  1.00  0.00    -0.160 C  
HETATM   12  N   UNL     1      -6.977  10.212  62.931  1.00  0.00    -0.130 NA 
ENDBRANCH   7  10
BRANCH   9  13
HETATM   13  N   UNL     1     -10.424  13.421  66.612  1.00  0.00    -0.277 NA 
HETATM   14  C   UNL     1      -9.024  13.095  66.834  1.00  0.00    -0.209 C  
BRANCH  13  15
HETATM   15  C   UNL     1     -10.668  14.671  66.055  1.00  0.00    -0.312 A  
HETATM   16  N   UNL     1     -11.302  14.754  64.855  1.00  0.00    -0.395 NA 
HETATM   17  C   UNL     1     -11.453  15.964  64.274  1.00  0.00    -0.191 A  
HETATM   18  N   UNL     1     -11.062  17.162  64.733  1.00  0.00    -0.925 NA 
HETATM   19  C   UNL     1     -10.481  17.053  65.933  1.00  0.00    -0.274 A  
HETATM   20  C   UNL     1     -10.258  15.891  66.653  1.00  0.00    -0.293 A  
HETATM   21  C   UNL     1      -9.659  16.295  67.886  1.00  0.00    -0.227 A  
HETATM   22  C   UNL     1      -9.497  17.664  67.856  1.00  0.00    -0.276 A  
HETATM   23  N   UNL     1      -9.997  18.109  66.660  1.00  0.00    -0.342 NA 
HETATM   24  H   UNL     1     -10.007  19.082  66.354  1.00  0.00     0.000 HD 
ENDBRANCH  13  15
ENDBRANCH   9  13
TORSDOF 3
ENDMDL
MODEL       63
REMARK 921   NORMALIZED FREE ENERGY PREDICTED BY IDOCK:   -5.23 KCAL/MOL
REMARK 922        TOTAL FREE ENERGY PREDICTED BY IDOCK:   -6.46 KCAL/MOL
REMARK 923 INTER-LIGAND FREE ENERGY PREDICTED BY IDOCK:   -6.26 KCAL/MOL
REMARK 924 INTRA-LIGAND FREE ENERGY PREDICTED BY IDOCK:   -0.20 KCAL/MOL
REMARK 927      BINDING AFFINITY PREDICTED BY RF-SCORE:    0.00 PKD
ROOT
HETATM    1  C   UNL     1      -9.182  10.523  66.901  1.00  0.00    -0.173 C  
HETATM    2  C   UNL     1      -9.830   9.136  66.803  1.00  0.00    -0.291 C  
HETATM    3  C   UNL     1      -9.419  11.357  65.643  1.00  0.00    -0.253 C  
HETATM    4  C   UNL     1      -9.555   8.297  68.055  1.00  0.00    -0.153 C  
HETATM    5  N   UNL     1      -9.842   9.015  69.302  1.00  0.00    -0.175 N  
HETATM    6  C   UNL     1      -9.239  10.353  69.417  1.00  0.00    -0.159 C  
HETATM    7  C   UNL     1     -10.682   8.430  70.251  1.00  0.00    -0.234 C  
HETATM    8  O   UNL     1     -11.245   7.357  70.025  1.00  0.00    -0.251 OA 
HETATM    9  C   UNL     1      -9.576  11.260  68.208  1.00  0.00    -0.193 C  
ENDROOT
BRANCH   7  10
HETATM   10  C   UNL     1     -10.882   9.170  71.561  1.00  0.00    -0.436 C  
HETATM   11  C   UNL     1     -12.289   9.512  71.803  1.00  0.00    -0.394 C  
HETATM   12  N   UNL     1     -13.381   9.822  72.044  1.00  0.00    -0.443 NA 
ENDBRANCH   7  10
BRANCH   9  13
HETATM   13  N   UNL     1     -10.975  11.730  68.203  1.00  0.00    -0.213 NA 
HETATM   14  C   UNL     1     -12.145  10.867  68.226  1.00  0.00     0.237 C  
BRANCH  13  15
HETATM   15  C   UNL     1     -11.229  13.090  68.340  1.00  0.00    -0.269 A  
HETATM   16  N   UNL     1     -10.882  13.937  67.334  1.00  0.00    -0.282 NA 
HETATM   17  C   UNL     1     -11.045  15.266  67.510  1.00  0.00    -0.324 A  
HETATM   18  N   UNL     1     -11.534  15.911  68.580  1.00  0.00    -0.381 NA 
HETATM   19  C   UNL     1     -11.905  15.049  69.534  1.00  0.00    -0.330 A  
HETATM   20  C   UNL     1     -11.805  13.667  69.500  1.00  0.00    -0.394 A  
HETATM   21  C   UNL     1     -12.376  13.197  70.723  1.00  0.00    -0.404 A  
HETATM   22  C   UNL     1     -12.756  14.293  71.469  1.00  0.00    -0.350 A  
HETATM   23  N   UNL     1     -12.457  15.411  70.734  1.00  0.00    -0.391 NA 
HETATM   24  H   UNL     1     -12.622  16.371  71.036  1.00  0.00     0.000 HD 
ENDBRANCH  13  15
ENDBRANCH   9  13
TORSDOF 3
ENDMDL
MODEL       64
REMARK 921   NORMALIZED FREE ENERGY PREDICTED BY IDOCK:   -5.18 KCAL/MOL
REMARK 922        TOTAL FREE ENERGY PREDICTED BY IDOCK:   -6.41 KCAL/MOL
REMARK 923 INTER-LIGAND FREE ENERGY PREDICTED BY IDOCK:   -7.16 KCAL/MOL
REMARK 924 INTRA-LIGAND FREE ENERGY PREDICTED BY IDOCK:    0.75 KCAL/MOL
REMARK 927      BINDING AFFINITY PREDICTED BY RF-SCORE:    0.00 PKD
ROOT
HETATM    1  C   UNL     1     -10.511  14.231  66.283  1.00  0.00    -0.291 C  
HETATM    2  C   UNL     1     -11.978  14.065  66.701  1.00  0.00    -0.473 C  
HETATM    3  C   UNL     1     -10.378  14.787  64.867  1.00  0.00    -0.365 C  
HETATM    4  C   UNL     1     -12.098  13.471  68.108  1.00  0.00    -0.255 C  
HETATM    5  N   UNL     1     -11.260  14.161  69.096  1.00  0.00    -0.262 N  
HETATM    6  C   UNL     1      -9.849  14.342  68.714  1.00  0.00    -0.214 C  
HETATM    7  C   UNL     1     -11.838  14.635  70.274  1.00  0.00    -0.303 C  
HETATM    8  O   UNL     1     -13.054  14.550  70.463  1.00  0.00    -0.330 OA 
HETATM    9  C   UNL     1      -9.692  15.025  67.333  1.00  0.00    -0.216 C  
ENDROOT
BRANCH   7  10
HETATM   10  C   UNL     1     -10.918  15.266  71.302  1.00  0.00    -0.210 C  
HETATM   11  C   UNL     1     -11.606  15.562  72.565  1.00  0.00    -0.430 C  
HETATM   12  N   UNL     1     -12.097  15.833  73.581  1.00  0.00    -0.471 NA 
ENDBRANCH   7  10
BRANCH   9  13
HETATM   13  N   UNL     1     -10.023  16.463  67.352  1.00  0.00    -0.246 NA 
HETATM   14  C   UNL     1     -11.158  17.048  68.047  1.00  0.00    -0.149 C  
BRANCH  13  15
HETATM   15  C   UNL     1      -9.123  17.369  66.804  1.00  0.00    -0.260 A  
HETATM   16  N   UNL     1      -8.078  16.906  66.068  1.00  0.00    -0.459 NA 
HETATM   17  C   UNL     1      -7.154  17.783  65.615  1.00  0.00    -0.003 A  
HETATM   18  N   UNL     1      -7.116  19.113  65.783  1.00  0.00    -0.339 NA 
HETATM   19  C   UNL     1      -8.179  19.542  66.474  1.00  0.00    -0.318 A  
HETATM   20  C   UNL     1      -9.205  18.772  66.997  1.00  0.00    -0.305 A  
HETATM   21  C   UNL     1     -10.122  19.687  67.600  1.00  0.00    -0.544 A  
HETATM   22  C   UNL     1      -9.609  20.960  67.467  1.00  0.00    -0.218 A  
HETATM   23  N   UNL     1      -8.424  20.854  66.785  1.00  0.00    -0.501 NA 
HETATM   24  H   UNL     1      -7.815  21.635  66.544  1.00  0.00     0.000 HD 
ENDBRANCH  13  15
ENDBRANCH   9  13
TORSDOF 3
ENDMDL
MODEL       65
REMARK 921   NORMALIZED FREE ENERGY PREDICTED BY IDOCK:   -5.16 KCAL/MOL
REMARK 922        TOTAL FREE ENERGY PREDICTED BY IDOCK:   -6.38 KCAL/MOL
REMARK 923 INTER-LIGAND FREE ENERGY PREDICTED BY IDOCK:   -6.16 KCAL/MOL
REMARK 924 INTRA-LIGAND FREE ENERGY PREDICTED BY IDOCK:   -0.22 KCAL/MOL
REMARK 927      BINDING AFFINITY PREDICTED BY RF-SCORE:    0.00 PKD
ROOT
HETATM    1  C   UNL     1     -10.016   5.450  68.735  1.00  0.00    -0.235 C  
HETATM    2  C   UNL     1      -8.615   5.594  68.126  1.00  0.00    -0.104 C  
HETATM    3  C   UNL     1      -9.978   4.787  70.111  1.00  0.00    -0.321 C  
HETATM    4  C   UNL     1      -8.671   6.226  66.731  1.00  0.00    -0.117 C  
HETATM    5  N   UNL     1      -9.482   7.448  66.686  1.00  0.00    -0.181 N  
HETATM    6  C   UNL     1     -10.828   7.338  67.273  1.00  0.00    -0.284 C  
HETATM    7  C   UNL     1      -8.932   8.616  66.157  1.00  0.00    -0.180 C  
HETATM    8  O   UNL     1      -7.754   8.656  65.796  1.00  0.00    -0.087 OA 
HETATM    9  C   UNL     1     -10.800   6.788  68.720  1.00  0.00    -0.231 C  
ENDROOT
BRANCH   7  10
HETATM   10  C   UNL     1      -9.835   9.831  66.052  1.00  0.00    -0.342 C  
HETATM   11  C   UNL     1      -9.801  10.442  64.717  1.00  0.00    -0.340 C  
HETATM   12  N   UNL     1      -9.807  10.978  63.688  1.00  0.00    -0.315 NA 
ENDBRANCH   7  10
BRANCH   9  13
HETATM   13  N   UNL     1     -10.291   7.762  69.705  1.00  0.00    -0.216 NA 
HETATM   14  C   UNL     1      -8.927   8.263  69.754  1.00  0.00    -0.146 C  
BRANCH  13  15
HETATM   15  C   UNL     1     -11.189   8.380  70.567  1.00  0.00    -0.238 A  
HETATM   16  N   UNL     1     -11.789   7.647  71.542  1.00  0.00    -0.284 NA 
HETATM   17  C   UNL     1     -12.731   8.230  72.317  1.00  0.00    -0.298 A  
HETATM   18  N   UNL     1     -13.178   9.493  72.274  1.00  0.00    -0.435 NA 
HETATM   19  C   UNL     1     -12.539  10.200  71.334  1.00  0.00    -0.422 A  
HETATM   20  C   UNL     1     -11.555   9.747  70.470  1.00  0.00    -0.365 A  
HETATM   21  C   UNL     1     -11.153  10.880  69.697  1.00  0.00    -0.328 A  
HETATM   22  C   UNL     1     -11.926  11.957  70.077  1.00  0.00    -0.332 A  
HETATM   23  N   UNL     1     -12.767  11.525  71.070  1.00  0.00    -0.361 NA 
HETATM   24  H   UNL     1     -13.462  12.104  71.543  1.00  0.00     0.000 HD 
ENDBRANCH  13  15
ENDBRANCH   9  13
TORSDOF 3
ENDMDL
MODEL       66
REMARK 921   NORMALIZED FREE ENERGY PREDICTED BY IDOCK:   -5.14 KCAL/MOL
REMARK 922        TOTAL FREE ENERGY PREDICTED BY IDOCK:   -6.36 KCAL/MOL
REMARK 923 INTER-LIGAND FREE ENERGY PREDICTED BY IDOCK:   -6.46 KCAL/MOL
REMARK 924 INTRA-LIGAND FREE ENERGY PREDICTED BY IDOCK:    0.10 KCAL/MOL
REMARK 927      BINDING AFFINITY PREDICTED BY RF-SCORE:    0.00 PKD
ROOT
HETATM    1  C   UNL     1      -9.449  18.934  67.681  1.00  0.00    -0.340 C  
HETATM    2  C   UNL     1      -8.437  19.128  66.543  1.00  0.00    -0.324 C  
HETATM    3  C   UNL     1     -10.871  19.284  67.248  1.00  0.00    -0.554 C  
HETATM    4  C   UNL     1      -7.010  18.809  67.001  1.00  0.00    -0.203 C  
HETATM    5  N   UNL     1      -6.904  17.520  67.696  1.00  0.00    -0.160 N  
HETATM    6  C   UNL     1      -7.871  17.306  68.785  1.00  0.00    -0.254 C  
HETATM    7  C   UNL     1      -5.961  16.586  67.266  1.00  0.00    -0.166 C  
HETATM    8  O   UNL     1      -5.270  16.795  66.266  1.00  0.00    -0.342 OA 
HETATM    9  C   UNL     1      -9.334  17.531  68.331  1.00  0.00    -0.287 C  
ENDROOT
BRANCH   7  10
HETATM   10  C   UNL     1      -5.829  15.304  68.067  1.00  0.00    -0.152 C  
HETATM   11  C   UNL     1      -6.776  14.270  67.631  1.00  0.00    -0.169 C  
HETATM   12  N   UNL     1      -7.510  13.418  67.342  1.00  0.00    -0.154 NA 
ENDBRANCH   7  10
BRANCH   9  13
HETATM   13  N   UNL     1      -9.848  16.452  67.465  1.00  0.00    -0.236 NA 
HETATM   14  C   UNL     1      -9.551  16.306  66.050  1.00  0.00    -0.337 C  
BRANCH  13  15
HETATM   15  C   UNL     1     -10.546  15.399  68.044  1.00  0.00    -0.263 A  
HETATM   16  N   UNL     1     -10.689  14.236  67.355  1.00  0.00    -0.279 NA 
HETATM   17  C   UNL     1     -11.447  13.249  67.882  1.00  0.00    -0.306 A  
HETATM   18  N   UNL     1     -12.105  13.239  69.050  1.00  0.00    -0.283 NA 
HETATM   19  C   UNL     1     -11.911  14.379  69.724  1.00  0.00    -0.320 A  
HETATM   20  C   UNL     1     -11.163  15.473  69.320  1.00  0.00    -0.312 A  
HETATM   21  C   UNL     1     -11.218  16.412  70.396  1.00  0.00    -0.253 A  
HETATM   22  C   UNL     1     -12.023  15.886  71.384  1.00  0.00    -0.457 A  
HETATM   23  N   UNL     1     -12.441  14.652  70.957  1.00  0.00    -0.305 NA 
HETATM   24  H   UNL     1     -13.055  14.028  71.480  1.00  0.00     0.000 HD 
ENDBRANCH  13  15
ENDBRANCH   9  13
TORSDOF 3
ENDMDL
MODEL       67
REMARK 921   NORMALIZED FREE ENERGY PREDICTED BY IDOCK:   -5.13 KCAL/MOL
REMARK 922        TOTAL FREE ENERGY PREDICTED BY IDOCK:   -6.35 KCAL/MOL
REMARK 923 INTER-LIGAND FREE ENERGY PREDICTED BY IDOCK:   -6.65 KCAL/MOL
REMARK 924 INTRA-LIGAND FREE ENERGY PREDICTED BY IDOCK:    0.30 KCAL/MOL
REMARK 927      BINDING AFFINITY PREDICTED BY RF-SCORE:    0.00 PKD
ROOT
HETATM    1  C   UNL     1     -10.801  14.999  68.352  1.00  0.00    -0.256 C  
HETATM    2  C   UNL     1     -11.182  16.465  68.595  1.00  0.00    -0.332 C  
HETATM    3  C   UNL     1     -12.028  14.091  68.290  1.00  0.00    -0.384 C  
HETATM    4  C   UNL     1      -9.942  17.360  68.692  1.00  0.00    -0.340 C  
HETATM    5  N   UNL     1      -8.997  17.153  67.589  1.00  0.00    -0.224 N  
HETATM    6  C   UNL     1      -8.623  15.753  67.329  1.00  0.00    -0.188 C  
HETATM    7  C   UNL     1      -8.564  18.250  66.843  1.00  0.00    -0.263 C  
HETATM    8  O   UNL     1      -9.020  19.377  67.049  1.00  0.00    -0.286 OA 
HETATM    9  C   UNL     1      -9.856  14.837  67.133  1.00  0.00    -0.232 C  
ENDROOT
BRANCH   7  10
HETATM   10  C   UNL     1      -7.522  18.000  65.768  1.00  0.00    -0.118 C  
HETATM   11  C   UNL     1      -6.441  18.993  65.793  1.00  0.00    -0.245 C  
HETATM   12  N   UNL     1      -5.566  19.755  65.752  1.00  0.00    -0.159 NA 
ENDBRANCH   7  10
BRANCH   9  13
HETATM   13  N   UNL     1     -10.541  15.047  65.843  1.00  0.00    -0.312 NA 
HETATM   14  C   UNL     1     -10.755  16.340  65.213  1.00  0.00    -0.332 C  
BRANCH  13  15
HETATM   15  C   UNL     1     -10.884  13.941  65.074  1.00  0.00    -0.382 A  
HETATM   16  N   UNL     1     -11.821  14.072  64.098  1.00  0.00    -0.397 NA 
HETATM   17  C   UNL     1     -12.218  12.975  63.417  1.00  0.00    -0.472 A  
HETATM   18  N   UNL     1     -11.797  11.710  63.559  1.00  0.00    -0.370 NA 
HETATM   19  C   UNL     1     -10.846  11.619  64.496  1.00  0.00    -0.324 A  
HETATM   20  C   UNL     1     -10.334  12.648  65.271  1.00  0.00    -0.309 A  
HETATM   21  C   UNL     1      -9.313  12.064  66.082  1.00  0.00    -0.217 A  
HETATM   22  C   UNL     1      -9.270  10.712  65.812  1.00  0.00    -0.189 A  
HETATM   23  N   UNL     1     -10.212  10.458  64.849  1.00  0.00    -0.319 NA 
HETATM   24  H   UNL     1     -10.413   9.539  64.454  1.00  0.00     0.000 HD 
ENDBRANCH  13  15
ENDBRANCH   9  13
TORSDOF 3
ENDMDL
MODEL       68
REMARK 921   NORMALIZED FREE ENERGY PREDICTED BY IDOCK:   -5.10 KCAL/MOL
REMARK 922        TOTAL FREE ENERGY PREDICTED BY IDOCK:   -6.31 KCAL/MOL
REMARK 923 INTER-LIGAND FREE ENERGY PREDICTED BY IDOCK:   -6.05 KCAL/MOL
REMARK 924 INTRA-LIGAND FREE ENERGY PREDICTED BY IDOCK:   -0.27 KCAL/MOL
REMARK 927      BINDING AFFINITY PREDICTED BY RF-SCORE:    0.00 PKD
ROOT
HETATM    1  C   UNL     1     -11.159  10.043  69.228  1.00  0.00    -0.248 C  
HETATM    2  C   UNL     1      -9.921   9.807  70.105  1.00  0.00    -0.315 C  
HETATM    3  C   UNL     1     -11.723  11.452  69.402  1.00  0.00    -0.406 C  
HETATM    4  C   UNL     1      -9.387   8.379  69.949  1.00  0.00    -0.155 C  
HETATM    5  N   UNL     1      -9.225   7.976  68.547  1.00  0.00    -0.136 N  
HETATM    6  C   UNL     1     -10.395   8.202  67.684  1.00  0.00    -0.247 C  
HETATM    7  C   UNL     1      -7.998   7.469  68.119  1.00  0.00    -0.123 C  
HETATM    8  O   UNL     1      -7.028   7.425  68.879  1.00  0.00    -0.072 OA 
HETATM    9  C   UNL     1     -10.906   9.662  67.747  1.00  0.00    -0.217 C  
ENDROOT
BRANCH   7  10
HETATM   10  C   UNL     1      -7.903   6.985  66.683  1.00  0.00    -0.106 C  
HETATM   11  C   UNL     1      -7.376   8.015  65.778  1.00  0.00    -0.079 C  
HETATM   12  N   UNL     1      -6.979   8.790  65.011  1.00  0.00    -0.076 NA 
ENDBRANCH   7  10
BRANCH   9  13
HETATM   13  N   UNL     1     -10.024  10.619  67.050  1.00  0.00    -0.195 NA 
HETATM   14  C   UNL     1      -8.669  10.954  67.458  1.00  0.00    -0.130 C  
BRANCH  13  15
HETATM   15  C   UNL     1     -10.429  11.141  65.828  1.00  0.00    -0.246 A  
HETATM   16  N   UNL     1      -9.939  10.605  64.679  1.00  0.00    -0.313 NA 
HETATM   17  C   UNL     1     -10.262  11.176  63.497  1.00  0.00    -0.390 A  
HETATM   18  N   UNL     1     -11.045  12.241  63.274  1.00  0.00    -0.395 NA 
HETATM   19  C   UNL     1     -11.546  12.720  64.419  1.00  0.00    -0.361 A  
HETATM   20  C   UNL     1     -11.312  12.245  65.700  1.00  0.00    -0.394 A  
HETATM   21  C   UNL     1     -12.105  13.049  66.574  1.00  0.00    -0.410 A  
HETATM   22  C   UNL     1     -12.749  14.003  65.814  1.00  0.00    -0.450 A  
HETATM   23  N   UNL     1     -12.394  13.792  64.507  1.00  0.00    -0.579 NA 
HETATM   24  H   UNL     1     -12.714  14.351  63.716  1.00  0.00     0.000 HD 
ENDBRANCH  13  15
ENDBRANCH   9  13
TORSDOF 3
ENDMDL
MODEL       69
REMARK 921   NORMALIZED FREE ENERGY PREDICTED BY IDOCK:   -5.10 KCAL/MOL
REMARK 922        TOTAL FREE ENERGY PREDICTED BY IDOCK:   -6.31 KCAL/MOL
REMARK 923 INTER-LIGAND FREE ENERGY PREDICTED BY IDOCK:   -6.23 KCAL/MOL
REMARK 924 INTRA-LIGAND FREE ENERGY PREDICTED BY IDOCK:   -0.08 KCAL/MOL
REMARK 927      BINDING AFFINITY PREDICTED BY RF-SCORE:    0.00 PKD
ROOT
HETATM    1  C   UNL     1      -9.507   8.994  66.617  1.00  0.00    -0.251 C  
HETATM    2  C   UNL     1     -10.607   7.970  66.928  1.00  0.00    -0.324 C  
HETATM    3  C   UNL     1      -9.771   9.741  65.311  1.00  0.00    -0.371 C  
HETATM    4  C   UNL     1     -10.311   7.202  68.220  1.00  0.00    -0.195 C  
HETATM    5  N   UNL     1      -9.964   8.081  69.344  1.00  0.00    -0.186 N  
HETATM    6  C   UNL     1      -8.917   9.079  69.068  1.00  0.00    -0.140 C  
HETATM    7  C   UNL     1     -10.657   7.958  70.548  1.00  0.00    -0.223 C  
HETATM    8  O   UNL     1     -11.605   7.177  70.659  1.00  0.00    -0.301 OA 
HETATM    9  C   UNL     1      -9.231   9.936  67.817  1.00  0.00    -0.130 C  
ENDROOT
BRANCH   7  10
HETATM   10  C   UNL     1     -10.207   8.828  71.708  1.00  0.00    -0.408 C  
HETATM   11  C   UNL     1      -9.831   8.039  72.887  1.00  0.00    -0.287 C  
HETATM   12  N   UNL     1      -9.533   7.473  73.856  1.00  0.00    -0.270 NA 
ENDBRANCH   7  10
BRANCH   9  13
HETATM   13  N   UNL     1     -10.312  10.916  68.038  1.00  0.00    -0.178 NA 
HETATM   14  C   UNL     1     -11.526  10.662  68.797  1.00  0.00    -0.262 C  
BRANCH  13  15
HETATM   15  C   UNL     1     -10.120  12.233  67.635  1.00  0.00    -0.200 A  
HETATM   16  N   UNL     1      -9.125  12.965  68.202  1.00  0.00    -0.205 NA 
HETATM   17  C   UNL     1      -9.002  14.270  67.875  1.00  0.00    -0.186 A  
HETATM   18  N   UNL     1      -9.747  14.989  67.023  1.00  0.00    -0.231 NA 
HETATM   19  C   UNL     1     -10.690  14.231  66.450  1.00  0.00    -0.297 A  
HETATM   20  C   UNL     1     -10.937  12.887  66.677  1.00  0.00    -0.302 A  
HETATM   21  C   UNL     1     -12.003  12.524  65.798  1.00  0.00    -0.482 A  
HETATM   22  C   UNL     1     -12.395  13.653  65.109  1.00  0.00    -0.452 A  
HETATM   23  N   UNL     1     -11.591  14.683  65.522  1.00  0.00    -0.346 NA 
HETATM   24  H   UNL     1     -11.652  15.645  65.187  1.00  0.00     0.000 HD 
ENDBRANCH  13  15
ENDBRANCH   9  13
TORSDOF 3
ENDMDL
MODEL       70
REMARK 921   NORMALIZED FREE ENERGY PREDICTED BY IDOCK:   -5.09 KCAL/MOL
REMARK 922        TOTAL FREE ENERGY PREDICTED BY IDOCK:   -6.30 KCAL/MOL
REMARK 923 INTER-LIGAND FREE ENERGY PREDICTED BY IDOCK:   -5.92 KCAL/MOL
REMARK 924 INTRA-LIGAND FREE ENERGY PREDICTED BY IDOCK:   -0.38 KCAL/MOL
REMARK 927      BINDING AFFINITY PREDICTED BY RF-SCORE:    0.00 PKD
ROOT
HETATM    1  C   UNL     1      -7.400   8.080  67.701  1.00  0.00    -0.093 C  
HETATM    2  C   UNL     1      -7.948   6.931  68.558  1.00  0.00    -0.120 C  
HETATM    3  C   UNL     1      -6.950   7.602  66.322  1.00  0.00    -0.066 C  
HETATM    4  C   UNL     1      -8.361   7.417  69.951  1.00  0.00    -0.134 C  
HETATM    5  N   UNL     1      -9.217   8.609  69.914  1.00  0.00    -0.152 N  
HETATM    6  C   UNL     1      -8.717   9.722  69.090  1.00  0.00    -0.155 C  
HETATM    7  C   UNL     1     -10.435   8.599  70.594  1.00  0.00    -0.204 C  
HETATM    8  O   UNL     1     -10.837   7.581  71.162  1.00  0.00    -0.234 OA 
HETATM    9  C   UNL     1      -8.376   9.283  67.645  1.00  0.00    -0.116 C  
ENDROOT
BRANCH   7  10
HETATM   10  C   UNL     1     -11.245   9.882  70.598  1.00  0.00    -0.416 C  
HETATM   11  C   UNL     1     -12.395   9.816  71.509  1.00  0.00    -0.405 C  
HETATM   12  N   UNL     1     -13.327   9.820  72.200  1.00  0.00    -0.451 NA 
ENDBRANCH   7  10
BRANCH   9  13
HETATM   13  N   UNL     1      -9.570   9.015  66.819  1.00  0.00    -0.183 NA 
HETATM   14  C   UNL     1     -10.540   7.963  67.073  1.00  0.00    -0.311 C  
BRANCH  13  15
HETATM   15  C   UNL     1      -9.904   9.909  65.808  1.00  0.00    -0.287 A  
HETATM   16  N   UNL     1      -9.500   9.656  64.535  1.00  0.00    -0.201 NA 
HETATM   17  C   UNL     1      -9.746  10.572  63.573  1.00  0.00    -0.319 A  
HETATM   18  N   UNL     1     -10.371  11.753  63.689  1.00  0.00    -0.389 NA 
HETATM   19  C   UNL     1     -10.794  11.954  64.943  1.00  0.00    -0.305 A  
HETATM   20  C   UNL     1     -10.622  11.112  66.030  1.00  0.00    -0.298 A  
HETATM   21  C   UNL     1     -11.290  11.738  67.127  1.00  0.00    -0.387 A  
HETATM   22  C   UNL     1     -11.797  12.944  66.690  1.00  0.00    -0.395 A  
HETATM   23  N   UNL     1     -11.482  13.062  65.361  1.00  0.00    -0.304 NA 
HETATM   24  H   UNL     1     -11.724  13.858  64.771  1.00  0.00     0.000 HD 
ENDBRANCH  13  15
ENDBRANCH   9  13
TORSDOF 3
ENDMDL
MODEL       71
REMARK 921   NORMALIZED FREE ENERGY PREDICTED BY IDOCK:   -5.09 KCAL/MOL
REMARK 922        TOTAL FREE ENERGY PREDICTED BY IDOCK:   -6.30 KCAL/MOL
REMARK 923 INTER-LIGAND FREE ENERGY PREDICTED BY IDOCK:   -5.98 KCAL/MOL
REMARK 924 INTRA-LIGAND FREE ENERGY PREDICTED BY IDOCK:   -0.32 KCAL/MOL
REMARK 927      BINDING AFFINITY PREDICTED BY RF-SCORE:    0.00 PKD
ROOT
HETATM    1  C   UNL     1      -9.570   6.433  69.049  1.00  0.00    -0.136 C  
HETATM    2  C   UNL     1      -8.232   6.463  68.297  1.00  0.00    -0.116 C  
HETATM    3  C   UNL     1      -9.380   6.198  70.546  1.00  0.00    -0.173 C  
HETATM    4  C   UNL     1      -8.439   6.662  66.792  1.00  0.00    -0.117 C  
HETATM    5  N   UNL     1      -9.338   7.779  66.477  1.00  0.00    -0.182 N  
HETATM    6  C   UNL     1     -10.624   7.777  67.194  1.00  0.00    -0.331 C  
HETATM    7  C   UNL     1      -8.916   8.769  65.590  1.00  0.00    -0.200 C  
HETATM    8  O   UNL     1      -7.774   8.760  65.125  1.00  0.00    -0.096 OA 
HETATM    9  C   UNL     1     -10.447   7.670  68.729  1.00  0.00    -0.189 C  
ENDROOT
BRANCH   7  10
HETATM   10  C   UNL     1      -9.910   9.857  65.229  1.00  0.00    -0.373 C  
HETATM   11  C   UNL     1      -9.590  11.142  65.864  1.00  0.00    -0.218 C  
HETATM   12  N   UNL     1      -9.398  12.179  66.348  1.00  0.00    -0.224 NA 
ENDBRANCH   7  10
BRANCH   9  13
HETATM   13  N   UNL     1      -9.938   8.911  69.345  1.00  0.00    -0.187 NA 
HETATM   14  C   UNL     1      -8.537   9.291  69.419  1.00  0.00    -0.142 C  
BRANCH  13  15
HETATM   15  C   UNL     1     -10.845   9.879  69.759  1.00  0.00    -0.269 A  
HETATM   16  N   UNL     1     -10.848  11.094  69.148  1.00  0.00    -0.227 NA 
HETATM   17  C   UNL     1     -11.667  12.062  69.616  1.00  0.00    -0.335 A  
HETATM   18  N   UNL     1     -12.531  11.998  70.639  1.00  0.00    -0.290 NA 
HETATM   19  C   UNL     1     -12.536  10.780  71.192  1.00  0.00    -0.428 A  
HETATM   20  C   UNL     1     -11.763   9.690  70.824  1.00  0.00    -0.390 A  
HETATM   21  C   UNL     1     -12.164   8.613  71.673  1.00  0.00    -0.388 A  
HETATM   22  C   UNL     1     -13.121   9.088  72.547  1.00  0.00    -0.385 A  
HETATM   23  N   UNL     1     -13.331  10.408  72.244  1.00  0.00    -0.586 NA 
HETATM   24  H   UNL     1     -13.983  11.024  72.730  1.00  0.00     0.000 HD 
ENDBRANCH  13  15
ENDBRANCH   9  13
TORSDOF 3
ENDMDL
MODEL       72
REMARK 921   NORMALIZED FREE ENERGY PREDICTED BY IDOCK:   -5.09 KCAL/MOL
REMARK 922        TOTAL FREE ENERGY PREDICTED BY IDOCK:   -6.30 KCAL/MOL
REMARK 923 INTER-LIGAND FREE ENERGY PREDICTED BY IDOCK:   -6.11 KCAL/MOL
REMARK 924 INTRA-LIGAND FREE ENERGY PREDICTED BY IDOCK:   -0.19 KCAL/MOL
REMARK 927      BINDING AFFINITY PREDICTED BY RF-SCORE:    0.00 PKD
ROOT
HETATM    1  C   UNL     1      -6.837  14.364  68.310  1.00  0.00    -0.111 C  
HETATM    2  C   UNL     1      -6.709  15.342  69.485  1.00  0.00    -0.174 C  
HETATM    3  C   UNL     1      -7.145  12.943  68.779  1.00  0.00    -0.096 C  
HETATM    4  C   UNL     1      -6.363  16.755  69.003  1.00  0.00    -0.187 C  
HETATM    5  N   UNL     1      -7.232  17.221  67.916  1.00  0.00    -0.175 N  
HETATM    6  C   UNL     1      -7.379  16.294  66.782  1.00  0.00    -0.208 C  
HETATM    7  C   UNL     1      -7.887  18.447  68.040  1.00  0.00    -0.274 C  
HETATM    8  O   UNL     1      -7.806  19.108  69.078  1.00  0.00    -0.331 OA 
HETATM    9  C   UNL     1      -7.819  14.878  67.226  1.00  0.00    -0.206 C  
ENDROOT
BRANCH   7  10
HETATM   10  C   UNL     1      -8.707  18.926  66.856  1.00  0.00    -0.308 C  
HETATM   11  C   UNL     1      -9.995  19.501  67.262  1.00  0.00    -0.379 C  
HETATM   12  N   UNL     1     -11.033  19.953  67.519  1.00  0.00    -0.215 NA 
ENDBRANCH   7  10
BRANCH   9  13
HETATM   13  N   UNL     1      -9.230  14.812  67.652  1.00  0.00    -0.188 NA 
HETATM   14  C   UNL     1      -9.868  15.738  68.574  1.00  0.00    -0.209 C  
BRANCH  13  15
HETATM   15  C   UNL     1     -10.080  13.904  67.030  1.00  0.00    -0.256 A  
HETATM   16  N   UNL     1     -10.455  14.117  65.741  1.00  0.00    -0.299 NA 
HETATM   17  C   UNL     1     -11.353  13.284  65.172  1.00  0.00    -0.297 A  
HETATM   18  N   UNL     1     -11.954  12.214  65.712  1.00  0.00    -0.550 NA 
HETATM   19  C   UNL     1     -11.533  12.005  66.965  1.00  0.00    -0.338 A  
HETATM   20  C   UNL     1     -10.620  12.764  67.679  1.00  0.00    -0.230 A  
HETATM   21  C   UNL     1     -10.463  12.114  68.942  1.00  0.00    -0.142 A  
HETATM   22  C   UNL     1     -11.308  11.023  68.972  1.00  0.00    -0.277 A  
HETATM   23  N   UNL     1     -11.955  10.975  67.764  1.00  0.00    -0.660 NA 
HETATM   24  H   UNL     1     -12.648  10.275  67.499  1.00  0.00     0.000 HD 
ENDBRANCH  13  15
ENDBRANCH   9  13
TORSDOF 3
ENDMDL
MODEL       73
REMARK 921   NORMALIZED FREE ENERGY PREDICTED BY IDOCK:   -5.08 KCAL/MOL
REMARK 922        TOTAL FREE ENERGY PREDICTED BY IDOCK:   -6.29 KCAL/MOL
REMARK 923 INTER-LIGAND FREE ENERGY PREDICTED BY IDOCK:   -5.79 KCAL/MOL
REMARK 924 INTRA-LIGAND FREE ENERGY PREDICTED BY IDOCK:   -0.50 KCAL/MOL
REMARK 927      BINDING AFFINITY PREDICTED BY RF-SCORE:    0.00 PKD
ROOT
HETATM    1  C   UNL     1     -12.241   8.360  71.676  1.00  0.00    -0.358 C  
HETATM    2  C   UNL     1     -11.303   7.851  72.778  1.00  0.00    -0.453 C  
HETATM    3  C   UNL     1     -12.542   9.851  71.823  1.00  0.00    -0.506 C  
HETATM    4  C   UNL     1     -11.040   6.348  72.641  1.00  0.00    -0.261 C  
HETATM    5  N   UNL     1     -10.650   5.954  71.281  1.00  0.00    -0.242 N  
HETATM    6  C   UNL     1     -11.530   6.439  70.205  1.00  0.00    -0.417 C  
HETATM    7  C   UNL     1      -9.483   5.214  71.090  1.00  0.00    -0.153 C  
HETATM    8  O   UNL     1      -8.736   4.951  72.035  1.00  0.00    -0.125 OA 
HETATM    9  C   UNL     1     -11.744   7.972  70.260  1.00  0.00     0.089 C  
ENDROOT
BRANCH   7  10
HETATM   10  C   UNL     1      -9.166   4.757  69.678  1.00  0.00    -0.180 C  
HETATM   11  C   UNL     1      -8.130   5.580  69.041  1.00  0.00    -0.095 C  
HETATM   12  N   UNL     1      -7.326   6.201  68.479  1.00  0.00    -0.084 NA 
ENDBRANCH   7  10
BRANCH   9  13
HETATM   13  N   UNL     1     -10.558   8.742  69.837  1.00  0.00    -0.222 NA 
HETATM   14  C   UNL     1      -9.350   8.915  70.628  1.00  0.00    -0.212 C  
BRANCH  13  15
HETATM   15  C   UNL     1     -10.496   9.222  68.534  1.00  0.00    -0.206 A  
HETATM   16  N   UNL     1      -9.938   8.448  67.564  1.00  0.00    -0.184 NA 
HETATM   17  C   UNL     1      -9.796   8.956  66.320  1.00  0.00    -0.285 A  
HETATM   18  N   UNL     1     -10.150  10.168  65.870  1.00  0.00    -0.265 NA 
HETATM   19  C   UNL     1     -10.733  10.890  66.835  1.00  0.00    -0.264 A  
HETATM   20  C   UNL     1     -10.953  10.508  68.149  1.00  0.00    -0.330 A  
HETATM   21  C   UNL     1     -11.647  11.594  68.767  1.00  0.00    -0.374 A  
HETATM   22  C   UNL     1     -11.784  12.602  67.836  1.00  0.00    -0.358 A  
HETATM   23  N   UNL     1     -11.218  12.160  66.669  1.00  0.00    -0.306 NA 
HETATM   24  H   UNL     1     -11.165  12.697  65.803  1.00  0.00     0.000 HD 
ENDBRANCH  13  15
ENDBRANCH   9  13
TORSDOF 3
ENDMDL
MODEL       74
REMARK 921   NORMALIZED FREE ENERGY PREDICTED BY IDOCK:   -5.05 KCAL/MOL
REMARK 922        TOTAL FREE ENERGY PREDICTED BY IDOCK:   -6.26 KCAL/MOL
REMARK 923 INTER-LIGAND FREE ENERGY PREDICTED BY IDOCK:   -5.96 KCAL/MOL
REMARK 924 INTRA-LIGAND FREE ENERGY PREDICTED BY IDOCK:   -0.29 KCAL/MOL
REMARK 927      BINDING AFFINITY PREDICTED BY RF-SCORE:    0.00 PKD
ROOT
HETATM    1  C   UNL     1      -8.039   9.396  65.386  1.00  0.00    -0.118 C  
HETATM    2  C   UNL     1      -8.159   7.951  65.887  1.00  0.00    -0.119 C  
HETATM    3  C   UNL     1      -8.674   9.579  64.008  1.00  0.00    -0.239 C  
HETATM    4  C   UNL     1      -7.486   7.773  67.253  1.00  0.00    -0.093 C  
HETATM    5  N   UNL     1      -7.890   8.792  68.229  1.00  0.00    -0.101 N  
HETATM    6  C   UNL     1      -7.794  10.186  67.768  1.00  0.00    -0.098 C  
HETATM    7  C   UNL     1      -8.374   8.391  69.475  1.00  0.00    -0.120 C  
HETATM    8  O   UNL     1      -8.538   7.198  69.739  1.00  0.00    -0.139 OA 
HETATM    9  C   UNL     1      -8.543  10.422  66.433  1.00  0.00    -0.132 C  
ENDROOT
BRANCH   7  10
HETATM   10  C   UNL     1      -8.699   9.479  70.483  1.00  0.00    -0.247 C  
HETATM   11  C   UNL     1     -10.033   9.315  71.074  1.00  0.00    -0.293 C  
HETATM   12  N   UNL     1     -11.082   9.248  71.566  1.00  0.00    -0.354 NA 
ENDBRANCH   7  10
BRANCH   9  13
HETATM   13  N   UNL     1     -10.012  10.418  66.581  1.00  0.00    -0.202 NA 
HETATM   14  C   UNL     1     -10.809   9.263  66.959  1.00  0.00    -0.007 C  
BRANCH  13  15
HETATM   15  C   UNL     1     -10.699  11.624  66.509  1.00  0.00    -0.272 A  
HETATM   16  N   UNL     1     -10.840  12.379  67.631  1.00  0.00    -0.218 NA 
HETATM   17  C   UNL     1     -11.587  13.503  67.577  1.00  0.00    -0.350 A  
HETATM   18  N   UNL     1     -12.238  14.020  66.525  1.00  0.00    -0.459 NA 
HETATM   19  C   UNL     1     -12.045  13.280  65.427  1.00  0.00    -0.422 A  
HETATM   20  C   UNL     1     -11.307  12.111  65.324  1.00  0.00    -0.386 A  
HETATM   21  C   UNL     1     -11.361  11.728  63.948  1.00  0.00    -0.494 A  
HETATM   22  C   UNL     1     -12.156  12.635  63.279  1.00  0.00    -0.433 A  
HETATM   23  N   UNL     1     -12.568  13.569  64.194  1.00  0.00    -0.669 NA 
HETATM   24  H   UNL     1     -13.176  14.362  63.989  1.00  0.00     0.000 HD 
ENDBRANCH  13  15
ENDBRANCH   9  13
TORSDOF 3
ENDMDL
MODEL       75
REMARK 921   NORMALIZED FREE ENERGY PREDICTED BY IDOCK:   -5.05 KCAL/MOL
REMARK 922        TOTAL FREE ENERGY PREDICTED BY IDOCK:   -6.25 KCAL/MOL
REMARK 923 INTER-LIGAND FREE ENERGY PREDICTED BY IDOCK:   -6.49 KCAL/MOL
REMARK 924 INTRA-LIGAND FREE ENERGY PREDICTED BY IDOCK:    0.24 KCAL/MOL
REMARK 927      BINDING AFFINITY PREDICTED BY RF-SCORE:    0.00 PKD
ROOT
HETATM    1  C   UNL     1     -10.316  10.201  67.722  1.00  0.00    -0.253 C  
HETATM    2  C   UNL     1      -9.436  10.327  66.471  1.00  0.00    -0.212 C  
HETATM    3  C   UNL     1      -9.518   9.740  68.940  1.00  0.00    -0.161 C  
HETATM    4  C   UNL     1     -10.255  10.755  65.248  1.00  0.00    -0.285 C  
HETATM    5  N   UNL     1     -11.111  11.918  65.509  1.00  0.00    -0.309 N  
HETATM    6  C   UNL     1     -11.958  11.825  66.709  1.00  0.00     0.220 C  
HETATM    7  C   UNL     1     -11.037  13.026  64.664  1.00  0.00    -0.332 C  
HETATM    8  O   UNL     1     -10.212  13.072  63.749  1.00  0.00    -0.360 OA 
HETATM    9  C   UNL     1     -11.146  11.484  67.983  1.00  0.00    -0.254 C  
ENDROOT
BRANCH   7  10
HETATM   10  C   UNL     1     -12.001  14.169  64.921  1.00  0.00    -0.424 C  
HETATM   11  C   UNL     1     -11.367  15.484  64.762  1.00  0.00    -0.357 C  
HETATM   12  N   UNL     1     -10.920  16.551  64.666  1.00  0.00    -0.795 NA 
ENDBRANCH   7  10
BRANCH   9  13
HETATM   13  N   UNL     1     -10.325  12.610  68.470  1.00  0.00    -0.235 NA 
HETATM   14  C   UNL     1      -8.898  12.764  68.238  1.00  0.00    -0.168 C  
BRANCH  13  15
HETATM   15  C   UNL     1     -10.957  13.695  69.067  1.00  0.00    -0.234 A  
HETATM   16  N   UNL     1     -11.922  13.475  69.998  1.00  0.00    -0.334 NA 
HETATM   17  C   UNL     1     -12.597  14.529  70.507  1.00  0.00    -0.351 A  
HETATM   18  N   UNL     1     -12.443  15.831  70.224  1.00  0.00    -0.348 NA 
HETATM   19  C   UNL     1     -11.459  16.019  69.337  1.00  0.00    -0.336 A  
HETATM   20  C   UNL     1     -10.679  15.046  68.733  1.00  0.00    -0.241 A  
HETATM   21  C   UNL     1      -9.740  15.742  67.910  1.00  0.00    -0.216 A  
HETATM   22  C   UNL     1     -10.006  17.092  68.003  1.00  0.00    -0.295 A  
HETATM   23  N   UNL     1     -11.058  17.243  68.870  1.00  0.00    -0.207 NA 
HETATM   24  H   UNL     1     -11.480  18.134  69.130  1.00  0.00     0.000 HD 
ENDBRANCH  13  15
ENDBRANCH   9  13
TORSDOF 3
ENDMDL
MODEL       76
REMARK 921   NORMALIZED FREE ENERGY PREDICTED BY IDOCK:   -5.05 KCAL/MOL
REMARK 922        TOTAL FREE ENERGY PREDICTED BY IDOCK:   -6.25 KCAL/MOL
REMARK 923 INTER-LIGAND FREE ENERGY PREDICTED BY IDOCK:   -6.17 KCAL/MOL
REMARK 924 INTRA-LIGAND FREE ENERGY PREDICTED BY IDOCK:   -0.08 KCAL/MOL
REMARK 927      BINDING AFFINITY PREDICTED BY RF-SCORE:    0.00 PKD
ROOT
HETATM    1  C   UNL     1      -7.851  10.569  68.582  1.00  0.00    -0.116 C  
HETATM    2  C   UNL     1      -8.181  12.067  68.527  1.00  0.00    -0.113 C  
HETATM    3  C   UNL     1      -7.783  10.050  70.017  1.00  0.00    -0.181 C  
HETATM    4  C   UNL     1      -8.210  12.583  67.085  1.00  0.00    -0.168 C  
HETATM    5  N   UNL     1      -9.023  11.749  66.192  1.00  0.00    -0.182 N  
HETATM    6  C   UNL     1      -8.732  10.306  66.234  1.00  0.00    -0.146 C  
HETATM    7  C   UNL     1     -10.023  12.343  65.422  1.00  0.00    -0.236 C  
HETATM    8  O   UNL     1     -10.284  13.542  65.536  1.00  0.00    -0.291 OA 
HETATM    9  C   UNL     1      -8.785   9.732  67.671  1.00  0.00    -0.125 C  
ENDROOT
BRANCH   7  10
HETATM   10  C   UNL     1     -10.780  11.455  64.451  1.00  0.00    -0.405 C  
HETATM   11  C   UNL     1     -11.978  12.109  63.911  1.00  0.00    -0.486 C  
HETATM   12  N   UNL     1     -12.945  12.566  63.459  1.00  0.00    -0.680 NA 
ENDBRANCH   7  10
BRANCH   9  13
HETATM   13  N   UNL     1     -10.157   9.620  68.203  1.00  0.00    -0.167 NA 
HETATM   14  C   UNL     1     -11.218  10.590  67.988  1.00  0.00    -0.294 C  
BRANCH  13  15
HETATM   15  C   UNL     1     -10.541   8.441  68.832  1.00  0.00    -0.140 A  
HETATM   16  N   UNL     1     -10.451   7.265  68.155  1.00  0.00    -0.201 NA 
HETATM   17  C   UNL     1     -10.912   6.135  68.737  1.00  0.00    -0.348 A  
HETATM   18  N   UNL     1     -11.466   5.990  69.949  1.00  0.00    -0.309 NA 
HETATM   19  C   UNL     1     -11.502   7.155  70.606  1.00  0.00    -0.308 A  
HETATM   20  C   UNL     1     -11.067   8.389  70.148  1.00  0.00    -0.183 A  
HETATM   21  C   UNL     1     -11.269   9.306  71.225  1.00  0.00    -0.425 A  
HETATM   22  C   UNL     1     -11.854   8.622  72.270  1.00  0.00    -0.366 A  
HETATM   23  N   UNL     1     -11.994   7.316  71.875  1.00  0.00    -0.296 NA 
HETATM   24  H   UNL     1     -12.404   6.574  72.441  1.00  0.00     0.000 HD 
ENDBRANCH  13  15
ENDBRANCH   9  13
TORSDOF 3
ENDMDL
MODEL       77
REMARK 921   NORMALIZED FREE ENERGY PREDICTED BY IDOCK:   -5.05 KCAL/MOL
REMARK 922        TOTAL FREE ENERGY PREDICTED BY IDOCK:   -6.25 KCAL/MOL
REMARK 923 INTER-LIGAND FREE ENERGY PREDICTED BY IDOCK:   -6.27 KCAL/MOL
REMARK 924 INTRA-LIGAND FREE ENERGY PREDICTED BY IDOCK:    0.02 KCAL/MOL
REMARK 927      BINDING AFFINITY PREDICTED BY RF-SCORE:    0.00 PKD
ROOT
HETATM    1  C   UNL     1     -10.873  14.989  66.369  1.00  0.00    -0.326 C  
HETATM    2  C   UNL     1     -10.870  15.482  67.822  1.00  0.00    -0.309 C  
HETATM    3  C   UNL     1      -9.781  15.656  65.535  1.00  0.00    -0.286 C  
HETATM    4  C   UNL     1     -11.993  14.833  68.638  1.00  0.00    -0.257 C  
HETATM    5  N   UNL     1     -12.040  13.373  68.492  1.00  0.00    -0.318 N  
HETATM    6  C   UNL     1     -12.034  12.875  67.106  1.00  0.00    -0.310 C  
HETATM    7  C   UNL     1     -12.035  12.570  69.632  1.00  0.00    -0.272 C  
HETATM    8  O   UNL     1     -11.916  13.064  70.756  1.00  0.00    -0.267 OA 
HETATM    9  C   UNL     1     -10.855  13.441  66.278  1.00  0.00    -0.289 C  
ENDROOT
BRANCH   7  10
HETATM   10  C   UNL     1     -12.171  11.072  69.435  1.00  0.00    -0.329 C  
HETATM   11  C   UNL     1     -12.314  10.349  70.705  1.00  0.00    -0.346 C  
HETATM   12  N   UNL     1     -12.417   9.721  71.675  1.00  0.00    -0.384 NA 
ENDBRANCH   7  10
BRANCH   9  13
HETATM   13  N   UNL     1      -9.550  12.860  66.647  1.00  0.00    -0.252 NA 
HETATM   14  C   UNL     1      -8.562  13.501  67.499  1.00  0.00    -0.193 C  
BRANCH  13  15
HETATM   15  C   UNL     1      -9.277  11.542  66.298  1.00  0.00    -0.211 A  
HETATM   16  N   UNL     1      -8.879  10.667  67.259  1.00  0.00    -0.136 NA 
HETATM   17  C   UNL     1      -8.525   9.413  66.900  1.00  0.00    -0.127 A  
HETATM   18  N   UNL     1      -8.516   8.870  65.674  1.00  0.00    -0.147 NA 
HETATM   19  C   UNL     1      -8.953   9.741  64.757  1.00  0.00    -0.225 A  
HETATM   20  C   UNL     1      -9.353  11.051  64.969  1.00  0.00    -0.250 A  
HETATM   21  C   UNL     1      -9.777  11.548  63.699  1.00  0.00    -0.329 A  
HETATM   22  C   UNL     1      -9.580  10.556  62.761  1.00  0.00    -0.289 A  
HETATM   23  N   UNL     1      -9.074   9.466  63.420  1.00  0.00    -0.418 NA 
HETATM   24  H   UNL     1      -8.823   8.580  62.981  1.00  0.00     0.000 HD 
ENDBRANCH  13  15
ENDBRANCH   9  13
TORSDOF 3
ENDMDL
MODEL       78
REMARK 921   NORMALIZED FREE ENERGY PREDICTED BY IDOCK:   -5.04 KCAL/MOL
REMARK 922        TOTAL FREE ENERGY PREDICTED BY IDOCK:   -6.25 KCAL/MOL
REMARK 923 INTER-LIGAND FREE ENERGY PREDICTED BY IDOCK:   -6.18 KCAL/MOL
REMARK 924 INTRA-LIGAND FREE ENERGY PREDICTED BY IDOCK:   -0.07 KCAL/MOL
REMARK 927      BINDING AFFINITY PREDICTED BY RF-SCORE:    0.00 PKD
ROOT
HETATM    1  C   UNL     1      -9.216  16.783  68.576  1.00  0.00    -0.243 C  
HETATM    2  C   UNL     1      -9.238  16.314  67.115  1.00  0.00    -0.226 C  
HETATM    3  C   UNL     1      -9.940  18.115  68.761  1.00  0.00    -0.389 C  
HETATM    4  C   UNL     1      -8.476  14.997  66.936  1.00  0.00    -0.236 C  
HETATM    5  N   UNL     1      -8.868  13.970  67.909  1.00  0.00    -0.175 N  
HETATM    6  C   UNL     1      -8.865  14.399  69.318  1.00  0.00     0.200 C  
HETATM    7  C   UNL     1      -9.257  12.710  67.456  1.00  0.00    -0.190 C  
HETATM    8  O   UNL     1      -9.349  12.469  66.250  1.00  0.00    -0.232 OA 
HETATM    9  C   UNL     1      -9.704  15.679  69.550  1.00  0.00    -0.287 C  
ENDROOT
BRANCH   7  10
HETATM   10  C   UNL     1      -9.572  11.655  68.501  1.00  0.00    -0.181 C  
HETATM   11  C   UNL     1     -10.570  10.684  68.036  1.00  0.00    -0.211 C  
HETATM   12  N   UNL     1     -11.365   9.895  67.732  1.00  0.00    -0.097 NA 
ENDBRANCH   7  10
BRANCH   9  13
HETATM   13  N   UNL     1     -11.159  15.446  69.471  1.00  0.00    -0.263 NA 
HETATM   14  C   UNL     1     -12.014  15.873  68.376  1.00  0.00     0.035 C  
BRANCH  13  15
HETATM   15  C   UNL     1     -11.762  14.631  70.422  1.00  0.00    -0.295 A  
HETATM   16  N   UNL     1     -12.119  13.364  70.083  1.00  0.00    -0.350 NA 
HETATM   17  C   UNL     1     -12.788  12.607  70.980  1.00  0.00    -0.166 A  
HETATM   18  N   UNL     1     -13.166  12.932  72.225  1.00  0.00    -0.464 NA 
HETATM   19  C   UNL     1     -12.765  14.168  72.544  1.00  0.00    -0.262 A  
HETATM   20  C   UNL     1     -12.070  15.057  71.739  1.00  0.00    -0.428 A  
HETATM   21  C   UNL     1     -11.832  16.216  72.540  1.00  0.00    -0.630 A  
HETATM   22  C   UNL     1     -12.420  16.016  73.772  1.00  0.00    -0.605 A  
HETATM   23  N   UNL     1     -12.987  14.768  73.756  1.00  0.00    -0.484 NA 
HETATM   24  H   UNL     1     -13.500  14.348  74.531  1.00  0.00     0.000 HD 
ENDBRANCH  13  15
ENDBRANCH   9  13
TORSDOF 3
ENDMDL
MODEL       79
REMARK 921   NORMALIZED FREE ENERGY PREDICTED BY IDOCK:   -5.01 KCAL/MOL
REMARK 922        TOTAL FREE ENERGY PREDICTED BY IDOCK:   -6.21 KCAL/MOL
REMARK 923 INTER-LIGAND FREE ENERGY PREDICTED BY IDOCK:   -6.34 KCAL/MOL
REMARK 924 INTRA-LIGAND FREE ENERGY PREDICTED BY IDOCK:    0.13 KCAL/MOL
REMARK 927      BINDING AFFINITY PREDICTED BY RF-SCORE:    0.00 PKD
ROOT
HETATM    1  C   UNL     1     -10.740   6.170  72.308  1.00  0.00    -0.268 C  
HETATM    2  C   UNL     1      -9.486   5.510  71.719  1.00  0.00    -0.175 C  
HETATM    3  C   UNL     1     -10.450   6.866  73.637  1.00  0.00    -0.400 C  
HETATM    4  C   UNL     1      -9.797   4.784  70.406  1.00  0.00    -0.239 C  
HETATM    5  N   UNL     1     -10.552   5.612  69.457  1.00  0.00    -0.301 N  
HETATM    6  C   UNL     1     -11.754   6.264  70.001  1.00  0.00    -0.178 C  
HETATM    7  C   UNL     1     -10.074   5.769  68.155  1.00  0.00    -0.165 C  
HETATM    8  O   UNL     1      -8.993   5.287  67.813  1.00  0.00    -0.109 OA 
HETATM    9  C   UNL     1     -11.456   7.084  71.280  1.00  0.00    -0.286 C  
ENDROOT
BRANCH   7  10
HETATM   10  C   UNL     1     -10.931   6.562  67.186  1.00  0.00    -0.480 C  
HETATM   11  C   UNL     1     -10.260   7.779  66.711  1.00  0.00    -0.276 C  
HETATM   12  N   UNL     1      -9.790   8.762  66.310  1.00  0.00    -0.281 NA 
ENDBRANCH   7  10
BRANCH   9  13
HETATM   13  N   UNL     1     -10.720   8.335  71.013  1.00  0.00    -0.214 NA 
HETATM   14  C   UNL     1      -9.346   8.410  70.545  1.00  0.00    -0.162 C  
BRANCH  13  15
HETATM   15  C   UNL     1     -11.407   9.542  71.056  1.00  0.00    -0.352 A  
HETATM   16  N   UNL     1     -12.338   9.746  72.026  1.00  0.00    -0.322 NA 
HETATM   17  C   UNL     1     -13.069  10.882  72.007  1.00  0.00    -0.356 A  
HETATM   18  N   UNL     1     -13.003  11.899  71.136  1.00  0.00    -0.250 NA 
HETATM   19  C   UNL     1     -12.050  11.690  70.220  1.00  0.00    -0.358 A  
HETATM   20  C   UNL     1     -11.222  10.584  70.111  1.00  0.00    -0.389 A  
HETATM   21  C   UNL     1     -10.346  10.850  69.013  1.00  0.00    -0.230 A  
HETATM   22  C   UNL     1     -10.696  12.069  68.470  1.00  0.00    -0.234 A  
HETATM   23  N   UNL     1     -11.737  12.563  69.212  1.00  0.00    -0.309 NA 
HETATM   24  H   UNL     1     -12.210  13.450  69.040  1.00  0.00     0.000 HD 
ENDBRANCH  13  15
ENDBRANCH   9  13
TORSDOF 3
ENDMDL
MODEL       80
REMARK 921   NORMALIZED FREE ENERGY PREDICTED BY IDOCK:   -5.01 KCAL/MOL
REMARK 922        TOTAL FREE ENERGY PREDICTED BY IDOCK:   -6.20 KCAL/MOL
REMARK 923 INTER-LIGAND FREE ENERGY PREDICTED BY IDOCK:   -5.86 KCAL/MOL
REMARK 924 INTRA-LIGAND FREE ENERGY PREDICTED BY IDOCK:   -0.34 KCAL/MOL
REMARK 927      BINDING AFFINITY PREDICTED BY RF-SCORE:    0.00 PKD
ROOT
HETATM    1  C   UNL     1     -10.635   9.265  69.276  1.00  0.00    -0.234 C  
HETATM    2  C   UNL     1      -9.185   8.880  69.597  1.00  0.00    -0.152 C  
HETATM    3  C   UNL     1     -11.161  10.349  70.216  1.00  0.00    -0.395 C  
HETATM    4  C   UNL     1      -8.682   7.767  68.672  1.00  0.00    -0.128 C  
HETATM    5  N   UNL     1      -8.939   8.039  67.253  1.00  0.00    -0.136 N  
HETATM    6  C   UNL     1     -10.322   8.420  66.921  1.00  0.00    -0.307 C  
HETATM    7  C   UNL     1      -7.885   7.974  66.341  1.00  0.00    -0.097 C  
HETATM    8  O   UNL     1      -6.730   7.766  66.719  1.00  0.00    -0.063 OA 
HETATM    9  C   UNL     1     -10.831   9.606  67.777  1.00  0.00    -0.217 C  
ENDROOT
BRANCH   7  10
HETATM   10  C   UNL     1      -8.214   8.178  64.873  1.00  0.00    -0.150 C  
HETATM   11  C   UNL     1      -7.460   9.288  64.279  1.00  0.00    -0.107 C  
HETATM   12  N   UNL     1      -6.904  10.162  63.755  1.00  0.00    -0.128 NA 
ENDBRANCH   7  10
BRANCH   9  13
HETATM   13  N   UNL     1     -10.229  10.899  67.398  1.00  0.00    -0.194 NA 
HETATM   14  C   UNL     1      -8.801  11.165  67.325  1.00  0.00    -0.144 C  
BRANCH  13  15
HETATM   15  C   UNL     1     -11.053  11.914  66.925  1.00  0.00    -0.305 A  
HETATM   16  N   UNL     1     -11.671  11.764  65.723  1.00  0.00    -0.349 NA 
HETATM   17  C   UNL     1     -12.396  12.790  65.225  1.00  0.00    -0.488 A  
HETATM   18  N   UNL     1     -12.618  13.994  65.772  1.00  0.00    -0.503 NA 
HETATM   19  C   UNL     1     -12.033  14.095  66.971  1.00  0.00    -0.439 A  
HETATM   20  C   UNL     1     -11.267  13.136  67.613  1.00  0.00    -0.313 A  
HETATM   21  C   UNL     1     -10.912  13.692  68.880  1.00  0.00    -0.281 A  
HETATM   22  C   UNL     1     -11.428  14.970  68.948  1.00  0.00    -0.314 A  
HETATM   23  N   UNL     1     -12.102  15.201  67.777  1.00  0.00    -0.412 NA 
HETATM   24  H   UNL     1     -12.583  16.069  67.540  1.00  0.00     0.000 HD 
ENDBRANCH  13  15
ENDBRANCH   9  13
TORSDOF 3
ENDMDL
MODEL       81
REMARK 921   NORMALIZED FREE ENERGY PREDICTED BY IDOCK:   -5.00 KCAL/MOL
REMARK 922        TOTAL FREE ENERGY PREDICTED BY IDOCK:   -6.19 KCAL/MOL
REMARK 923 INTER-LIGAND FREE ENERGY PREDICTED BY IDOCK:   -5.88 KCAL/MOL
REMARK 924 INTRA-LIGAND FREE ENERGY PREDICTED BY IDOCK:   -0.31 KCAL/MOL
REMARK 927      BINDING AFFINITY PREDICTED BY RF-SCORE:    0.00 PKD
ROOT
HETATM    1  C   UNL     1      -9.297   6.620  71.656  1.00  0.00    -0.149 C  
HETATM    2  C   UNL     1     -10.600   6.328  72.413  1.00  0.00    -0.241 C  
HETATM    3  C   UNL     1      -8.692   5.355  71.050  1.00  0.00    -0.141 C  
HETATM    4  C   UNL     1     -11.178   7.598  73.047  1.00  0.00    -0.333 C  
HETATM    5  N   UNL     1     -11.259   8.724  72.108  1.00  0.00    -0.362 N  
HETATM    6  C   UNL     1     -10.023   9.017  71.363  1.00  0.00    -0.318 C  
HETATM    7  C   UNL     1     -12.472   9.393  71.944  1.00  0.00    -0.390 C  
HETATM    8  O   UNL     1     -13.493   9.006  72.518  1.00  0.00    -0.454 OA 
HETATM    9  C   UNL     1      -9.462   7.772  70.632  1.00  0.00    -0.162 C  
ENDROOT
BRANCH   7  10
HETATM   10  C   UNL     1     -12.487  10.603  71.028  1.00  0.00    -0.515 C  
HETATM   11  C   UNL     1     -12.957  11.816  71.709  1.00  0.00    -0.361 C  
HETATM   12  N   UNL     1     -13.333  12.804  72.186  1.00  0.00    -0.528 NA 
ENDBRANCH   7  10
BRANCH   9  13
HETATM   13  N   UNL     1     -10.256   7.382  69.451  1.00  0.00    -0.196 NA 
HETATM   14  C   UNL     1     -11.502   6.634  69.494  1.00  0.00    -0.263 C  
BRANCH  13  15
HETATM   15  C   UNL     1      -9.896   7.878  68.204  1.00  0.00    -0.169 A  
HETATM   16  N   UNL     1     -10.453   9.038  67.762  1.00  0.00    -0.248 NA 
HETATM   17  C   UNL     1     -10.172   9.467  66.512  1.00  0.00    -0.237 A  
HETATM   18  N   UNL     1      -9.375   8.898  65.596  1.00  0.00    -0.220 NA 
HETATM   19  C   UNL     1      -8.810   7.783  66.074  1.00  0.00    -0.157 A  
HETATM   20  C   UNL     1      -8.995   7.221  67.328  1.00  0.00    -0.126 A  
HETATM   21  C   UNL     1      -8.142   6.076  67.380  1.00  0.00    -0.106 A  
HETATM   22  C   UNL     1      -7.512   5.953  66.159  1.00  0.00    -0.085 A  
HETATM   23  N   UNL     1      -7.933   6.996  65.375  1.00  0.00    -0.122 NA 
HETATM   24  H   UNL     1      -7.638   7.162  64.413  1.00  0.00     0.000 HD 
ENDBRANCH  13  15
ENDBRANCH   9  13
TORSDOF 3
ENDMDL
MODEL       82
REMARK 921   NORMALIZED FREE ENERGY PREDICTED BY IDOCK:   -4.92 KCAL/MOL
REMARK 922        TOTAL FREE ENERGY PREDICTED BY IDOCK:   -6.10 KCAL/MOL
REMARK 923 INTER-LIGAND FREE ENERGY PREDICTED BY IDOCK:   -6.05 KCAL/MOL
REMARK 924 INTRA-LIGAND FREE ENERGY PREDICTED BY IDOCK:   -0.05 KCAL/MOL
REMARK 927      BINDING AFFINITY PREDICTED BY RF-SCORE:    0.00 PKD
ROOT
HETATM    1  C   UNL     1      -8.729  12.311  67.418  1.00  0.00    -0.180 C  
HETATM    2  C   UNL     1      -8.927  11.421  66.184  1.00  0.00    -0.207 C  
HETATM    3  C   UNL     1      -9.050  13.775  67.126  1.00  0.00    -0.243 C  
HETATM    4  C   UNL     1      -8.567   9.961  66.480  1.00  0.00    -0.124 C  
HETATM    5  N   UNL     1      -9.196   9.451  67.704  1.00  0.00    -0.128 N  
HETATM    6  C   UNL     1      -9.028  10.293  68.901  1.00  0.00    -0.164 C  
HETATM    7  C   UNL     1      -9.934   8.268  67.654  1.00  0.00    -0.190 C  
HETATM    8  O   UNL     1     -10.128   7.686  66.584  1.00  0.00    -0.244 OA 
HETATM    9  C   UNL     1      -9.471  11.757  68.662  1.00  0.00    -0.100 C  
ENDROOT
BRANCH   7  10
HETATM   10  C   UNL     1     -10.493   7.735  68.960  1.00  0.00    -0.215 C  
HETATM   11  C   UNL     1     -10.412   6.271  69.048  1.00  0.00    -0.237 C  
HETATM   12  N   UNL     1     -10.390   5.117  69.172  1.00  0.00    -0.195 NA 
ENDBRANCH   7  10
BRANCH   9  13
HETATM   13  N   UNL     1     -10.935  11.917  68.576  1.00  0.00    -0.221 NA 
HETATM   14  C   UNL     1     -11.701  11.935  67.340  1.00  0.00    -0.256 C  
BRANCH  13  15
HETATM   15  C   UNL     1     -11.685  11.900  69.746  1.00  0.00    -0.331 A  
HETATM   16  N   UNL     1     -12.049  10.707  70.287  1.00  0.00    -0.312 NA 
HETATM   17  C   UNL     1     -12.855  10.695  71.371  1.00  0.00    -0.451 A  
HETATM   18  N   UNL     1     -13.369  11.740  72.037  1.00  0.00    -0.438 NA 
HETATM   19  C   UNL     1     -12.960  12.899  71.507  1.00  0.00    -0.294 A  
HETATM   20  C   UNL     1     -12.135  13.072  70.407  1.00  0.00    -0.391 A  
HETATM   21  C   UNL     1     -11.949  14.481  70.267  1.00  0.00    -0.379 A  
HETATM   22  C   UNL     1     -12.693  15.112  71.243  1.00  0.00    -0.369 A  
HETATM   23  N   UNL     1     -13.305  14.135  71.985  1.00  0.00    -0.380 NA 
HETATM   24  H   UNL     1     -13.926  14.303  72.776  1.00  0.00     0.000 HD 
ENDBRANCH  13  15
ENDBRANCH   9  13
TORSDOF 3
ENDMDL
MODEL       83
REMARK 921   NORMALIZED FREE ENERGY PREDICTED BY IDOCK:   -4.88 KCAL/MOL
REMARK 922        TOTAL FREE ENERGY PREDICTED BY IDOCK:   -6.05 KCAL/MOL
REMARK 923 INTER-LIGAND FREE ENERGY PREDICTED BY IDOCK:   -6.16 KCAL/MOL
REMARK 924 INTRA-LIGAND FREE ENERGY PREDICTED BY IDOCK:    0.11 KCAL/MOL
REMARK 927      BINDING AFFINITY PREDICTED BY RF-SCORE:    0.00 PKD
ROOT
HETATM    1  C   UNL     1     -12.517  13.156  64.580  1.00  0.00    -0.406 C  
HETATM    2  C   UNL     1     -11.415  14.065  64.020  1.00  0.00    -0.119 C  
HETATM    3  C   UNL     1     -12.826  11.988  63.644  1.00  0.00    -0.472 C  
HETATM    4  C   UNL     1     -11.140  15.252  64.949  1.00  0.00    -0.424 C  
HETATM    5  N   UNL     1     -10.948  14.854  66.349  1.00  0.00    -0.332 N  
HETATM    6  C   UNL     1     -11.988  13.973  66.906  1.00  0.00    -0.447 C  
HETATM    7  C   UNL     1      -9.805  15.275  67.030  1.00  0.00    -0.229 C  
HETATM    8  O   UNL     1      -8.921  15.912  66.453  1.00  0.00    -0.266 OA 
HETATM    9  C   UNL     1     -12.225  12.714  66.037  1.00  0.00    -0.260 C  
ENDROOT
BRANCH   7  10
HETATM   10  C   UNL     1      -9.690  14.911  68.499  1.00  0.00    -0.215 C  
HETATM   11  C   UNL     1      -8.346  15.156  69.034  1.00  0.00    -0.209 C  
HETATM   12  N   UNL     1      -7.300  15.315  69.512  1.00  0.00    -0.204 NA 
ENDBRANCH   7  10
BRANCH   9  13
HETATM   13  N   UNL     1     -11.132  11.726  66.129  1.00  0.00    -0.310 NA 
HETATM   14  C   UNL     1     -10.285  11.313  65.022  1.00  0.00    -0.284 C  
BRANCH  13  15
HETATM   15  C   UNL     1     -10.759  11.250  67.381  1.00  0.00    -0.242 A  
HETATM   16  N   UNL     1     -11.707  10.732  68.207  1.00  0.00    -0.494 NA 
HETATM   17  C   UNL     1     -11.356  10.357  69.456  1.00  0.00    -0.265 A  
HETATM   18  N   UNL     1     -10.146  10.411  70.032  1.00  0.00    -0.126 NA 
HETATM   19  C   UNL     1      -9.227  10.884  69.182  1.00  0.00    -0.060 A  
HETATM   20  C   UNL     1      -9.431  11.303  67.877  1.00  0.00    -0.179 A  
HETATM   21  C   UNL     1      -8.146  11.670  67.371  1.00  0.00    -0.153 A  
HETATM   22  C   UNL     1      -7.224  11.508  68.384  1.00  0.00    -0.089 A  
HETATM   23  N   UNL     1      -7.899  11.035  69.480  1.00  0.00    -0.374 NA 
HETATM   24  H   UNL     1      -7.475  10.826  70.384  1.00  0.00     0.000 HD 
ENDBRANCH  13  15
ENDBRANCH   9  13
TORSDOF 3
ENDMDL
MODEL       84
REMARK 921   NORMALIZED FREE ENERGY PREDICTED BY IDOCK:   -4.86 KCAL/MOL
REMARK 922        TOTAL FREE ENERGY PREDICTED BY IDOCK:   -6.03 KCAL/MOL
REMARK 923 INTER-LIGAND FREE ENERGY PREDICTED BY IDOCK:   -5.66 KCAL/MOL
REMARK 924 INTRA-LIGAND FREE ENERGY PREDICTED BY IDOCK:   -0.37 KCAL/MOL
REMARK 927      BINDING AFFINITY PREDICTED BY RF-SCORE:    0.00 PKD
ROOT
HETATM    1  C   UNL     1      -7.860   9.346  68.582  1.00  0.00    -0.088 C  
HETATM    2  C   UNL     1      -8.091   8.063  67.772  1.00  0.00    -0.128 C  
HETATM    3  C   UNL     1      -7.400  10.505  67.699  1.00  0.00    -0.087 C  
HETATM    4  C   UNL     1      -8.515   6.899  68.674  1.00  0.00    -0.121 C  
HETATM    5  N   UNL     1      -9.611   7.248  69.586  1.00  0.00    -0.156 N  
HETATM    6  C   UNL     1      -9.417   8.481  70.367  1.00  0.00    -0.165 C  
HETATM    7  C   UNL     1     -10.754   6.449  69.620  1.00  0.00    -0.282 C  
HETATM    8  O   UNL     1     -10.889   5.500  68.844  1.00  0.00    -0.211 OA 
HETATM    9  C   UNL     1      -9.076   9.700  69.475  1.00  0.00    -0.199 C  
ENDROOT
BRANCH   7  10
HETATM   10  C   UNL     1     -11.824   6.800  70.638  1.00  0.00    -0.442 C  
HETATM   11  C   UNL     1     -11.686   6.032  71.883  1.00  0.00    -0.226 C  
HETATM   12  N   UNL     1     -11.639   5.447  72.884  1.00  0.00    -0.289 NA 
ENDBRANCH   7  10
BRANCH   9  13
HETATM   13  N   UNL     1     -10.231  10.197  68.701  1.00  0.00    -0.168 NA 
HETATM   14  C   UNL     1     -10.900   9.466  67.638  1.00  0.00    -0.154 C  
BRANCH  13  15
HETATM   15  C   UNL     1     -10.843  11.382  69.092  1.00  0.00    -0.213 A  
HETATM   16  N   UNL     1     -10.515  12.542  68.463  1.00  0.00    -0.235 NA 
HETATM   17  C   UNL     1     -11.043  13.703  68.908  1.00  0.00    -0.256 A  
HETATM   18  N   UNL     1     -11.895  13.894  69.925  1.00  0.00    -0.312 NA 
HETATM   19  C   UNL     1     -12.232  12.732  70.497  1.00  0.00    -0.307 A  
HETATM   20  C   UNL     1     -11.781  11.468  70.153  1.00  0.00    -0.395 A  
HETATM   21  C   UNL     1     -12.462  10.555  71.016  1.00  0.00    -0.501 A  
HETATM   22  C   UNL     1     -13.257  11.285  71.874  1.00  0.00    -0.386 A  
HETATM   23  N   UNL     1     -13.101  12.608  71.549  1.00  0.00    -0.342 NA 
HETATM   24  H   UNL     1     -13.564  13.385  72.020  1.00  0.00     0.000 HD 
ENDBRANCH  13  15
ENDBRANCH   9  13
TORSDOF 3
ENDMDL
MODEL       85
REMARK 921   NORMALIZED FREE ENERGY PREDICTED BY IDOCK:   -4.86 KCAL/MOL
REMARK 922        TOTAL FREE ENERGY PREDICTED BY IDOCK:   -6.03 KCAL/MOL
REMARK 923 INTER-LIGAND FREE ENERGY PREDICTED BY IDOCK:   -6.22 KCAL/MOL
REMARK 924 INTRA-LIGAND FREE ENERGY PREDICTED BY IDOCK:    0.19 KCAL/MOL
REMARK 927      BINDING AFFINITY PREDICTED BY RF-SCORE:    0.00 PKD
ROOT
HETATM    1  C   UNL     1     -12.652  12.846  64.417  1.00  0.00    -0.392 C  
HETATM    2  C   UNL     1     -11.862  13.957  63.711  1.00  0.00    -0.234 C  
HETATM    3  C   UNL     1     -12.836  11.620  63.525  1.00  0.00    -0.189 C  
HETATM    4  C   UNL     1     -11.715  15.195  64.603  1.00  0.00    -0.348 C  
HETATM    5  N   UNL     1     -11.242  14.876  65.955  1.00  0.00    -0.336 N  
HETATM    6  C   UNL     1     -11.978  13.807  66.649  1.00  0.00    -0.431 C  
HETATM    7  C   UNL     1     -10.129  15.545  66.466  1.00  0.00    -0.279 C  
HETATM    8  O   UNL     1      -9.494  16.343  65.772  1.00  0.00    -0.464 OA 
HETATM    9  C   UNL     1     -12.064  12.507  65.811  1.00  0.00    -0.378 C  
ENDROOT
BRANCH   7  10
HETATM   10  C   UNL     1      -9.727  15.245  67.898  1.00  0.00    -0.211 C  
HETATM   11  C   UNL     1      -8.289  15.431  68.129  1.00  0.00    -0.145 C  
HETATM   12  N   UNL     1      -7.160  15.546  68.370  1.00  0.00    -0.108 NA 
ENDBRANCH   7  10
BRANCH   9  13
HETATM   13  N   UNL     1     -10.785  11.777  65.733  1.00  0.00    -0.273 NA 
HETATM   14  C   UNL     1      -9.613  12.222  64.996  1.00  0.00     0.038 C  
BRANCH  13  15
HETATM   15  C   UNL     1     -10.600  10.655  66.533  1.00  0.00    -0.193 A  
HETATM   16  N   UNL     1     -10.080   9.525  65.985  1.00  0.00    -0.283 NA 
HETATM   17  C   UNL     1      -9.989   8.409  66.743  1.00  0.00    -0.284 A  
HETATM   18  N   UNL     1     -10.343   8.243  68.025  1.00  0.00    -0.217 NA 
HETATM   19  C   UNL     1     -10.811   9.383  68.548  1.00  0.00    -0.105 A  
HETATM   20  C   UNL     1     -10.960  10.601  67.904  1.00  0.00    -0.351 A  
HETATM   21  C   UNL     1     -11.445  11.515  68.889  1.00  0.00    -0.352 A  
HETATM   22  C   UNL     1     -11.617  10.823  70.070  1.00  0.00    -0.334 A  
HETATM   23  N   UNL     1     -11.232   9.527  69.843  1.00  0.00    -0.353 NA 
HETATM   24  H   UNL     1     -11.256   8.780  70.537  1.00  0.00     0.000 HD 
ENDBRANCH  13  15
ENDBRANCH   9  13
TORSDOF 3
ENDMDL
MODEL       86
REMARK 921   NORMALIZED FREE ENERGY PREDICTED BY IDOCK:   -4.84 KCAL/MOL
REMARK 922        TOTAL FREE ENERGY PREDICTED BY IDOCK:   -6.01 KCAL/MOL
REMARK 923 INTER-LIGAND FREE ENERGY PREDICTED BY IDOCK:   -5.99 KCAL/MOL
REMARK 924 INTRA-LIGAND FREE ENERGY PREDICTED BY IDOCK:   -0.02 KCAL/MOL
REMARK 927      BINDING AFFINITY PREDICTED BY RF-SCORE:    0.00 PKD
ROOT
HETATM    1  C   UNL     1     -12.758  14.328  70.180  1.00  0.00    -0.246 C  
HETATM    2  C   UNL     1     -12.012  13.407  71.154  1.00  0.00     0.093 C  
HETATM    3  C   UNL     1     -12.769  15.779  70.657  1.00  0.00    -0.336 C  
HETATM    4  C   UNL     1     -12.040  11.949  70.683  1.00  0.00    -0.294 C  
HETATM    5  N   UNL     1     -11.649  11.792  69.277  1.00  0.00    -0.289 N  
HETATM    6  C   UNL     1     -12.345  12.672  68.324  1.00  0.00     0.377 C  
HETATM    7  C   UNL     1     -10.640  10.888  68.944  1.00  0.00    -0.210 C  
HETATM    8  O   UNL     1     -10.022  10.276  69.818  1.00  0.00    -0.230 OA 
HETATM    9  C   UNL     1     -12.256  14.166  68.722  1.00  0.00    -0.199 C  
ENDROOT
BRANCH   7  10
HETATM   10  C   UNL     1     -10.329  10.697  67.471  1.00  0.00    -0.254 C  
HETATM   11  C   UNL     1      -9.372  11.689  66.966  1.00  0.00    -0.181 C  
HETATM   12  N   UNL     1      -8.631  12.454  66.505  1.00  0.00    -0.073 NA 
ENDBRANCH   7  10
BRANCH   9  13
HETATM   13  N   UNL     1     -10.917  14.748  68.508  1.00  0.00    -0.249 NA 
HETATM   14  C   UNL     1      -9.702  14.316  69.179  1.00  0.00     0.054 C  
BRANCH  13  15
HETATM   15  C   UNL     1     -10.742  15.676  67.487  1.00  0.00    -0.303 A  
HETATM   16  N   UNL     1     -10.167  16.875  67.768  1.00  0.00    -0.296 NA 
HETATM   17  C   UNL     1     -10.083  17.808  66.794  1.00  0.00    -0.349 A  
HETATM   18  N   UNL     1     -10.495  17.720  65.521  1.00  0.00    -0.636 NA 
HETATM   19  C   UNL     1     -11.017  16.515  65.264  1.00  0.00    -0.162 A  
HETATM   20  C   UNL     1     -11.167  15.461  66.151  1.00  0.00    -0.161 A  
HETATM   21  C   UNL     1     -11.723  14.383  65.396  1.00  0.00    -0.362 A  
HETATM   22  C   UNL     1     -11.933  14.824  64.106  1.00  0.00    -0.259 A  
HETATM   23  N   UNL     1     -11.504  16.124  64.045  1.00  0.00    -1.425 NA 
HETATM   24  H   UNL     1     -11.541  16.715  63.214  1.00  0.00     0.000 HD 
ENDBRANCH  13  15
ENDBRANCH   9  13
TORSDOF 3
ENDMDL
MODEL       87
REMARK 921   NORMALIZED FREE ENERGY PREDICTED BY IDOCK:   -4.79 KCAL/MOL
REMARK 922        TOTAL FREE ENERGY PREDICTED BY IDOCK:   -5.95 KCAL/MOL
REMARK 923 INTER-LIGAND FREE ENERGY PREDICTED BY IDOCK:   -5.63 KCAL/MOL
REMARK 924 INTRA-LIGAND FREE ENERGY PREDICTED BY IDOCK:   -0.32 KCAL/MOL
REMARK 927      BINDING AFFINITY PREDICTED BY RF-SCORE:    0.00 PKD
ROOT
HETATM    1  C   UNL     1      -8.633   9.813  66.391  1.00  0.00    -0.132 C  
HETATM    2  C   UNL     1      -8.317   9.212  67.767  1.00  0.00    -0.117 C  
HETATM    3  C   UNL     1      -9.902   9.218  65.784  1.00  0.00    -0.302 C  
HETATM    4  C   UNL     1      -7.022   9.790  68.348  1.00  0.00    -0.068 C  
HETATM    5  N   UNL     1      -6.974  11.256  68.299  1.00  0.00    -0.068 N  
HETATM    6  C   UNL     1      -7.283  11.857  66.991  1.00  0.00    -0.118 C  
HETATM    7  C   UNL     1      -6.700  11.972  69.465  1.00  0.00    -0.035 C  
HETATM    8  O   UNL     1      -6.572  11.397  70.548  1.00  0.00    -0.197 OA 
HETATM    9  C   UNL     1      -8.634  11.363  66.416  1.00  0.00    -0.174 C  
ENDROOT
BRANCH   7  10
HETATM   10  C   UNL     1      -6.576  13.480  69.348  1.00  0.00    -0.082 C  
HETATM   11  C   UNL     1      -5.870  14.075  70.490  1.00  0.00    -0.178 C  
HETATM   12  N   UNL     1      -5.332  14.605  71.371  1.00  0.00    -0.142 NA 
ENDBRANCH   7  10
BRANCH   9  13
HETATM   13  N   UNL     1      -9.806  11.925  67.115  1.00  0.00    -0.193 NA 
HETATM   14  C   UNL     1     -10.063  11.806  68.541  1.00  0.00    -0.207 C  
BRANCH  13  15
HETATM   15  C   UNL     1     -10.667  12.764  66.418  1.00  0.00    -0.262 A  
HETATM   16  N   UNL     1     -11.842  12.269  65.946  1.00  0.00    -0.546 NA 
HETATM   17  C   UNL     1     -12.632  13.062  65.190  1.00  0.00    -0.469 A  
HETATM   18  N   UNL     1     -12.427  14.336  64.823  1.00  0.00    -0.608 NA 
HETATM   19  C   UNL     1     -11.284  14.807  65.338  1.00  0.00    -0.347 A  
HETATM   20  C   UNL     1     -10.377  14.122  66.129  1.00  0.00    -0.304 A  
HETATM   21  C   UNL     1      -9.354  15.062  66.466  1.00  0.00    -0.309 A  
HETATM   22  C   UNL     1      -9.644  16.256  65.839  1.00  0.00    -0.301 A  
HETATM   23  N   UNL     1     -10.818  16.082  65.153  1.00  0.00    -0.469 NA 
HETATM   24  H   UNL     1     -11.277  16.796  64.588  1.00  0.00     0.000 HD 
ENDBRANCH  13  15
ENDBRANCH   9  13
TORSDOF 3
ENDMDL
MODEL       88
REMARK 921   NORMALIZED FREE ENERGY PREDICTED BY IDOCK:   -4.78 KCAL/MOL
REMARK 922        TOTAL FREE ENERGY PREDICTED BY IDOCK:   -5.94 KCAL/MOL
REMARK 923 INTER-LIGAND FREE ENERGY PREDICTED BY IDOCK:   -5.85 KCAL/MOL
REMARK 924 INTRA-LIGAND FREE ENERGY PREDICTED BY IDOCK:   -0.09 KCAL/MOL
REMARK 927      BINDING AFFINITY PREDICTED BY RF-SCORE:    0.00 PKD
ROOT
HETATM    1  C   UNL     1      -9.992  11.496  68.600  1.00  0.00    -0.207 C  
HETATM    2  C   UNL     1     -11.519  11.512  68.456  1.00  0.00    -0.354 C  
HETATM    3  C   UNL     1      -9.481  10.160  69.137  1.00  0.00    -0.215 C  
HETATM    4  C   UNL     1     -12.022  12.869  67.951  1.00  0.00    -0.282 C  
HETATM    5  N   UNL     1     -11.294  13.348  66.770  1.00  0.00    -0.314 N  
HETATM    6  C   UNL     1      -9.826  13.333  66.881  1.00  0.00    -0.247 C  
HETATM    7  C   UNL     1     -12.009  13.727  65.633  1.00  0.00    -0.388 C  
HETATM    8  O   UNL     1     -13.233  13.594  65.579  1.00  0.00    -0.608 OA 
HETATM    9  C   UNL     1      -9.278  11.947  67.300  1.00  0.00    -0.179 C  
ENDROOT
BRANCH   7  10
HETATM   10  C   UNL     1     -11.220  14.296  64.467  1.00  0.00    -0.331 C  
HETATM   11  C   UNL     1     -11.305  15.760  64.395  1.00  0.00    -0.265 C  
HETATM   12  N   UNL     1     -11.344  16.914  64.276  1.00  0.00    -1.103 NA 
ENDBRANCH   7  10
BRANCH   9  13
HETATM   13  N   UNL     1      -9.353  10.940  66.224  1.00  0.00    -0.174 NA 
HETATM   14  C   UNL     1     -10.465  10.789  65.299  1.00  0.00    -0.212 C  
BRANCH  13  15
HETATM   15  C   UNL     1      -8.234  10.163  65.949  1.00  0.00    -0.138 A  
HETATM   16  N   UNL     1      -7.062  10.773  65.629  1.00  0.00    -0.073 NA 
HETATM   17  C   UNL     1      -6.002  10.014  65.271  1.00  0.00    -0.097 A  
HETATM   18  N   UNL     1      -5.925   8.677  65.191  1.00  0.00    -0.048 NA 
HETATM   19  C   UNL     1      -7.080   8.105  65.553  1.00  0.00    -0.067 A  
HETATM   20  C   UNL     1      -8.245   8.744  65.945  1.00  0.00    -0.118 A  
HETATM   21  C   UNL     1      -9.173   7.710  66.277  1.00  0.00    -0.204 A  
HETATM   22  C   UNL     1      -8.568   6.495  66.035  1.00  0.00    -0.148 A  
HETATM   23  N   UNL     1      -7.297   6.753  65.590  1.00  0.00    -0.076 NA 
HETATM   24  H   UNL     1      -6.614   6.043  65.325  1.00  0.00     0.000 HD 
ENDBRANCH  13  15
ENDBRANCH   9  13
TORSDOF 3
ENDMDL
MODEL       89
REMARK 921   NORMALIZED FREE ENERGY PREDICTED BY IDOCK:   -4.77 KCAL/MOL
REMARK 922        TOTAL FREE ENERGY PREDICTED BY IDOCK:   -5.92 KCAL/MOL
REMARK 923 INTER-LIGAND FREE ENERGY PREDICTED BY IDOCK:   -5.56 KCAL/MOL
REMARK 924 INTRA-LIGAND FREE ENERGY PREDICTED BY IDOCK:   -0.36 KCAL/MOL
REMARK 927      BINDING AFFINITY PREDICTED BY RF-SCORE:    0.00 PKD
ROOT
HETATM    1  C   UNL     1     -12.479   8.133  71.883  1.00  0.00    -0.368 C  
HETATM    2  C   UNL     1     -11.515   7.505  72.898  1.00  0.00    -0.311 C  
HETATM    3  C   UNL     1     -12.949   9.519  72.321  1.00  0.00    -0.466 C  
HETATM    4  C   UNL     1     -11.080   6.101  72.466  1.00  0.00    -0.274 C  
HETATM    5  N   UNL     1     -10.618   6.046  71.074  1.00  0.00    -0.235 N  
HETATM    6  C   UNL     1     -11.521   6.651  70.082  1.00  0.00    -0.385 C  
HETATM    7  C   UNL     1      -9.370   5.490  70.789  1.00  0.00    -0.163 C  
HETATM    8  O   UNL     1      -8.621   5.114  71.693  1.00  0.00    -0.125 OA 
HETATM    9  C   UNL     1     -11.907   8.107  70.442  1.00  0.00     0.096 C  
ENDROOT
BRANCH   7  10
HETATM   10  C   UNL     1      -8.971   5.377  69.329  1.00  0.00    -0.122 C  
HETATM   11  C   UNL     1      -9.154   4.019  68.801  1.00  0.00    -0.134 C  
HETATM   12  N   UNL     1      -9.263   2.964  68.330  1.00  0.00    -0.176 NA 
ENDBRANCH   7  10
BRANCH   9  13
HETATM   13  N   UNL     1     -10.806   9.069  70.243  1.00  0.00    -0.232 NA 
HETATM   14  C   UNL     1      -9.536   9.040  70.949  1.00  0.00    -0.267 C  
BRANCH  13  15
HETATM   15  C   UNL     1     -10.895   9.990  69.206  1.00  0.00    -0.230 A  
HETATM   16  N   UNL     1     -11.516  11.180  69.423  1.00  0.00    -0.269 NA 
HETATM   17  C   UNL     1     -11.683  12.032  68.388  1.00  0.00    -0.332 A  
HETATM   18  N   UNL     1     -11.299  11.878  67.113  1.00  0.00    -0.329 NA 
HETATM   19  C   UNL     1     -10.654  10.718  66.940  1.00  0.00    -0.258 A  
HETATM   20  C   UNL     1     -10.403   9.749  67.898  1.00  0.00    -0.258 A  
HETATM   21  C   UNL     1      -9.646   8.729  67.242  1.00  0.00    -0.214 A  
HETATM   22  C   UNL     1      -9.503   9.084  65.917  1.00  0.00    -0.249 A  
HETATM   23  N   UNL     1     -10.127  10.293  65.749  1.00  0.00    -0.263 NA 
HETATM   24  H   UNL     1     -10.190  10.802  64.867  1.00  0.00     0.000 HD 
ENDBRANCH  13  15
ENDBRANCH   9  13
TORSDOF 3
ENDMDL
MODEL       90
REMARK 921   NORMALIZED FREE ENERGY PREDICTED BY IDOCK:   -4.75 KCAL/MOL
REMARK 922        TOTAL FREE ENERGY PREDICTED BY IDOCK:   -5.90 KCAL/MOL
REMARK 923 INTER-LIGAND FREE ENERGY PREDICTED BY IDOCK:   -5.84 KCAL/MOL
REMARK 924 INTRA-LIGAND FREE ENERGY PREDICTED BY IDOCK:   -0.06 KCAL/MOL
REMARK 927      BINDING AFFINITY PREDICTED BY RF-SCORE:    0.00 PKD
ROOT
HETATM    1  C   UNL     1     -10.275  11.183  69.288  1.00  0.00    -0.110 C  
HETATM    2  C   UNL     1     -11.760  11.525  69.113  1.00  0.00    -0.395 C  
HETATM    3  C   UNL     1     -10.071   9.757  69.797  1.00  0.00    -0.268 C  
HETATM    4  C   UNL     1     -11.952  12.969  68.638  1.00  0.00    -0.263 C  
HETATM    5  N   UNL     1     -11.111  13.312  67.485  1.00  0.00    -0.263 N  
HETATM    6  C   UNL     1      -9.682  12.984  67.625  1.00  0.00    -0.212 C  
HETATM    7  C   UNL     1     -11.700  13.860  66.346  1.00  0.00    -0.383 C  
HETATM    8  O   UNL     1     -12.923  13.991  66.264  1.00  0.00    -0.217 OA 
HETATM    9  C   UNL     1      -9.449  11.504  68.015  1.00  0.00    -0.181 C  
ENDROOT
BRANCH   7  10
HETATM   10  C   UNL     1     -10.780  14.277  65.213  1.00  0.00    -0.377 C  
HETATM   11  C   UNL     1     -11.179  15.553  64.608  1.00  0.00    -0.371 C  
HETATM   12  N   UNL     1     -11.451  16.550  64.079  1.00  0.00    -1.122 NA 
ENDBRANCH   7  10
BRANCH   9  13
HETATM   13  N   UNL     1      -9.708  10.561  66.910  1.00  0.00    -0.175 NA 
HETATM   14  C   UNL     1     -11.011  10.015  66.567  1.00  0.00     0.180 C  
BRANCH  13  15
HETATM   15  C   UNL     1      -8.682  10.271  66.017  1.00  0.00    -0.150 A  
HETATM   16  N   UNL     1      -7.545   9.685  66.477  1.00  0.00    -0.097 NA 
HETATM   17  C   UNL     1      -6.515   9.491  65.624  1.00  0.00    -0.071 A  
HETATM   18  N   UNL     1      -6.446   9.795  64.320  1.00  0.00    -0.111 NA 
HETATM   19  C   UNL     1      -7.594  10.331  63.888  1.00  0.00    -0.084 A  
HETATM   20  C   UNL     1      -8.732  10.588  64.635  1.00  0.00    -0.193 A  
HETATM   21  C   UNL     1      -9.698  11.111  63.722  1.00  0.00    -0.338 A  
HETATM   22  C   UNL     1      -9.110  11.198  62.477  1.00  0.00    -0.303 A  
HETATM   23  N   UNL     1      -7.829  10.725  62.597  1.00  0.00    -0.330 NA 
HETATM   24  H   UNL     1      -7.150  10.674  61.838  1.00  0.00     0.000 HD 
ENDBRANCH  13  15
ENDBRANCH   9  13
TORSDOF 3
ENDMDL
MODEL       91
REMARK 921   NORMALIZED FREE ENERGY PREDICTED BY IDOCK:   -4.75 KCAL/MOL
REMARK 922        TOTAL FREE ENERGY PREDICTED BY IDOCK:   -5.89 KCAL/MOL
REMARK 923 INTER-LIGAND FREE ENERGY PREDICTED BY IDOCK:   -5.44 KCAL/MOL
REMARK 924 INTRA-LIGAND FREE ENERGY PREDICTED BY IDOCK:   -0.45 KCAL/MOL
REMARK 927      BINDING AFFINITY PREDICTED BY RF-SCORE:    0.00 PKD
ROOT
HETATM    1  C   UNL     1     -10.308  11.994  68.105  1.00  0.00    -0.207 C  
HETATM    2  C   UNL     1     -10.325  11.637  66.612  1.00  0.00    -0.257 C  
HETATM    3  C   UNL     1     -11.706  12.304  68.636  1.00  0.00    -0.377 C  
HETATM    4  C   UNL     1      -8.913  11.366  66.083  1.00  0.00    -0.201 C  
HETATM    5  N   UNL     1      -8.155  10.431  66.923  1.00  0.00    -0.116 N  
HETATM    6  C   UNL     1      -8.132  10.746  68.361  1.00  0.00    -0.127 C  
HETATM    7  C   UNL     1      -7.566   9.309  66.339  1.00  0.00    -0.093 C  
HETATM    8  O   UNL     1      -7.735   9.052  65.145  1.00  0.00    -0.096 OA 
HETATM    9  C   UNL     1      -9.551  10.937  68.949  1.00  0.00    -0.181 C  
ENDROOT
BRANCH   7  10
HETATM   10  C   UNL     1      -6.721   8.417  67.231  1.00  0.00    -0.063 C  
HETATM   11  C   UNL     1      -7.475   7.271  67.754  1.00  0.00    -0.102 C  
HETATM   12  N   UNL     1      -8.020   6.354  68.211  1.00  0.00    -0.105 NA 
ENDBRANCH   7  10
BRANCH   9  13
HETATM   13  N   UNL     1     -10.299   9.672  69.090  1.00  0.00    -0.198 NA 
HETATM   14  C   UNL     1     -10.755   8.845  67.984  1.00  0.00    -0.108 C  
BRANCH  13  15
HETATM   15  C   UNL     1     -10.464   9.125  70.357  1.00  0.00    -0.223 A  
HETATM   16  N   UNL     1      -9.463   8.381  70.897  1.00  0.00    -0.161 NA 
HETATM   17  C   UNL     1      -9.664   7.774  72.087  1.00  0.00    -0.185 A  
HETATM   18  N   UNL     1     -10.757   7.805  72.863  1.00  0.00    -0.358 NA 
HETATM   19  C   UNL     1     -11.708   8.578  72.326  1.00  0.00    -0.373 A  
HETATM   20  C   UNL     1     -11.650   9.264  71.123  1.00  0.00    -0.397 A  
HETATM   21  C   UNL     1     -12.881   9.981  71.014  1.00  0.00    -0.455 A  
HETATM   22  C   UNL     1     -13.655   9.675  72.114  1.00  0.00    -0.389 A  
HETATM   23  N   UNL     1     -12.930   8.817  72.898  1.00  0.00    -0.671 NA 
HETATM   24  H   UNL     1     -13.251   8.415  73.779  1.00  0.00     0.000 HD 
ENDBRANCH  13  15
ENDBRANCH   9  13
TORSDOF 3
ENDMDL
MODEL       92
REMARK 921   NORMALIZED FREE ENERGY PREDICTED BY IDOCK:   -4.74 KCAL/MOL
REMARK 922        TOTAL FREE ENERGY PREDICTED BY IDOCK:   -5.89 KCAL/MOL
REMARK 923 INTER-LIGAND FREE ENERGY PREDICTED BY IDOCK:   -5.47 KCAL/MOL
REMARK 924 INTRA-LIGAND FREE ENERGY PREDICTED BY IDOCK:   -0.42 KCAL/MOL
REMARK 927      BINDING AFFINITY PREDICTED BY RF-SCORE:    0.00 PKD
ROOT
HETATM    1  C   UNL     1      -7.713   7.324  68.199  1.00  0.00    -0.117 C  
HETATM    2  C   UNL     1      -7.069   8.535  67.512  1.00  0.00    -0.080 C  
HETATM    3  C   UNL     1      -6.741   6.615  69.140  1.00  0.00    -0.052 C  
HETATM    4  C   UNL     1      -8.042   9.215  66.543  1.00  0.00    -0.107 C  
HETATM    5  N   UNL     1      -9.355   9.483  67.142  1.00  0.00    -0.140 N  
HETATM    6  C   UNL     1      -9.990   8.338  67.816  1.00  0.00    -0.186 C  
HETATM    7  C   UNL     1      -9.883  10.773  67.085  1.00  0.00    -0.185 C  
HETATM    8  O   UNL     1      -9.232  11.705  66.608  1.00  0.00    -0.180 OA 
HETATM    9  C   UNL     1      -9.064   7.684  68.870  1.00  0.00    -0.140 C  
ENDROOT
BRANCH   7  10
HETATM   10  C   UNL     1     -11.280  10.984  67.641  1.00  0.00    -0.373 C  
HETATM   11  C   UNL     1     -11.431  12.288  68.298  1.00  0.00    -0.315 C  
HETATM   12  N   UNL     1     -11.609  13.298  68.843  1.00  0.00    -0.292 NA 
ENDBRANCH   7  10
BRANCH   9  13
HETATM   13  N   UNL     1      -8.900   8.498  70.089  1.00  0.00    -0.135 NA 
HETATM   14  C   UNL     1      -8.239   9.792  70.146  1.00  0.00    -0.179 C  
BRANCH  13  15
HETATM   15  C   UNL     1      -9.546   8.103  71.255  1.00  0.00    -0.162 A  
HETATM   16  N   UNL     1      -8.926   7.235  72.098  1.00  0.00    -0.131 NA 
HETATM   17  C   UNL     1      -9.594   6.781  73.182  1.00  0.00    -0.155 A  
HETATM   18  N   UNL     1     -10.839   7.082  73.578  1.00  0.00    -0.323 NA 
HETATM   19  C   UNL     1     -11.407   7.970  72.753  1.00  0.00    -0.374 A  
HETATM   20  C   UNL     1     -10.852   8.527  71.612  1.00  0.00    -0.356 A  
HETATM   21  C   UNL     1     -11.820   9.448  71.107  1.00  0.00    -0.413 A  
HETATM   22  C   UNL     1     -12.934   9.389  71.919  1.00  0.00    -0.417 A  
HETATM   23  N   UNL     1     -12.668   8.481  72.911  1.00  0.00    -0.658 NA 
HETATM   24  H   UNL     1     -13.313   8.223  73.658  1.00  0.00     0.000 HD 
ENDBRANCH  13  15
ENDBRANCH   9  13
TORSDOF 3
ENDMDL
MODEL       93
REMARK 921   NORMALIZED FREE ENERGY PREDICTED BY IDOCK:   -4.74 KCAL/MOL
REMARK 922        TOTAL FREE ENERGY PREDICTED BY IDOCK:   -5.88 KCAL/MOL
REMARK 923 INTER-LIGAND FREE ENERGY PREDICTED BY IDOCK:   -5.89 KCAL/MOL
REMARK 924 INTRA-LIGAND FREE ENERGY PREDICTED BY IDOCK:    0.01 KCAL/MOL
REMARK 927      BINDING AFFINITY PREDICTED BY RF-SCORE:    0.00 PKD
ROOT
HETATM    1  C   UNL     1      -9.358  17.128  67.673  1.00  0.00    -0.239 C  
HETATM    2  C   UNL     1      -8.341  16.719  66.599  1.00  0.00    -0.296 C  
HETATM    3  C   UNL     1     -10.649  17.668  67.061  1.00  0.00    -0.254 C  
HETATM    4  C   UNL     1      -7.036  16.213  67.225  1.00  0.00    -0.196 C  
HETATM    5  N   UNL     1      -7.253  15.207  68.272  1.00  0.00    -0.105 N  
HETATM    6  C   UNL     1      -8.233  15.573  69.308  1.00  0.00    -0.255 C  
HETATM    7  C   UNL     1      -6.582  13.987  68.197  1.00  0.00    -0.124 C  
HETATM    8  O   UNL     1      -5.870  13.711  67.230  1.00  0.00    -0.336 OA 
HETATM    9  C   UNL     1      -9.596  16.001  68.711  1.00  0.00    -0.221 C  
ENDROOT
BRANCH   7  10
HETATM   10  C   UNL     1      -6.772  13.012  69.345  1.00  0.00    -0.018 C  
HETATM   11  C   UNL     1      -7.494  11.800  68.939  1.00  0.00    -0.080 C  
HETATM   12  N   UNL     1      -8.072  10.826  68.683  1.00  0.00    -0.128 NA 
ENDBRANCH   7  10
BRANCH   9  13
HETATM   13  N   UNL     1     -10.375  14.873  68.165  1.00  0.00    -0.234 NA 
HETATM   14  C   UNL     1     -10.425  14.495  66.762  1.00  0.00    -0.270 C  
BRANCH  13  15
HETATM   15  C   UNL     1     -10.995  13.994  69.046  1.00  0.00    -0.259 A  
HETATM   16  N   UNL     1     -10.880  12.655  68.843  1.00  0.00    -0.226 NA 
HETATM   17  C   UNL     1     -11.561  11.808  69.646  1.00  0.00    -0.323 A  
HETATM   18  N   UNL     1     -12.367  12.104  70.675  1.00  0.00    -0.342 NA 
HETATM   19  C   UNL     1     -12.426  13.426  70.877  1.00  0.00    -0.359 A  
HETATM   20  C   UNL     1     -11.787  14.414  70.145  1.00  0.00    -0.380 A  
HETATM   21  C   UNL     1     -12.119  15.653  70.775  1.00  0.00    -0.454 A  
HETATM   22  C   UNL     1     -12.974  15.386  71.825  1.00  0.00    -0.429 A  
HETATM   23  N   UNL     1     -13.155  14.028  71.869  1.00  0.00    -0.362 NA 
HETATM   24  H   UNL     1     -13.744  13.537  72.541  1.00  0.00     0.000 HD 
ENDBRANCH  13  15
ENDBRANCH   9  13
TORSDOF 3
ENDMDL
MODEL       94
REMARK 921   NORMALIZED FREE ENERGY PREDICTED BY IDOCK:   -4.73 KCAL/MOL
REMARK 922        TOTAL FREE ENERGY PREDICTED BY IDOCK:   -5.87 KCAL/MOL
REMARK 923 INTER-LIGAND FREE ENERGY PREDICTED BY IDOCK:   -5.99 KCAL/MOL
REMARK 924 INTRA-LIGAND FREE ENERGY PREDICTED BY IDOCK:    0.11 KCAL/MOL
REMARK 927      BINDING AFFINITY PREDICTED BY RF-SCORE:    0.00 PKD
ROOT
HETATM    1  C   UNL     1      -8.203  11.461  68.022  1.00  0.00    -0.140 C  
HETATM    2  C   UNL     1      -8.385  12.963  68.282  1.00  0.00    -0.157 C  
HETATM    3  C   UNL     1      -7.618  10.738  69.233  1.00  0.00    -0.129 C  
HETATM    4  C   UNL     1      -8.938  13.683  67.048  1.00  0.00    -0.236 C  
HETATM    5  N   UNL     1     -10.115  13.019  66.473  1.00  0.00    -0.264 N  
HETATM    6  C   UNL     1      -9.968  11.575  66.224  1.00  0.00    -0.220 C  
HETATM    7  C   UNL     1     -11.278  13.756  66.254  1.00  0.00    -0.306 C  
HETATM    8  O   UNL     1     -11.358  14.936  66.603  1.00  0.00    -0.349 OA 
HETATM    9  C   UNL     1      -9.498  10.802  67.481  1.00  0.00    -0.154 C  
ENDROOT
BRANCH   7  10
HETATM   10  C   UNL     1     -12.440  13.048  65.580  1.00  0.00    -0.496 C  
HETATM   11  C   UNL     1     -12.483  13.295  64.133  1.00  0.00    -0.260 C  
HETATM   12  N   UNL     1     -12.580  13.463  62.989  1.00  0.00    -0.574 NA 
ENDBRANCH   7  10
BRANCH   9  13
HETATM   13  N   UNL     1     -10.547  10.667  68.509  1.00  0.00    -0.187 NA 
HETATM   14  C   UNL     1     -11.498  11.705  68.873  1.00  0.00    -0.287 C  
BRANCH  13  15
HETATM   15  C   UNL     1     -10.770   9.421  69.085  1.00  0.00    -0.197 A  
HETATM   16  N   UNL     1     -10.998   9.336  70.422  1.00  0.00    -0.242 NA 
HETATM   17  C   UNL     1     -11.120   8.117  70.992  1.00  0.00    -0.253 A  
HETATM   18  N   UNL     1     -11.059   6.913  70.403  1.00  0.00    -0.279 NA 
HETATM   19  C   UNL     1     -10.876   7.031  69.083  1.00  0.00    -0.195 A  
HETATM   20  C   UNL     1     -10.737   8.203  68.357  1.00  0.00    -0.066 A  
HETATM   21  C   UNL     1     -10.617   7.812  66.988  1.00  0.00    -0.396 A  
HETATM   22  C   UNL     1     -10.640   6.434  66.931  1.00  0.00    -0.309 A  
HETATM   23  N   UNL     1     -10.792   5.975  68.214  1.00  0.00    -0.290 NA 
HETATM   24  H   UNL     1     -10.837   4.992  68.482  1.00  0.00     0.000 HD 
ENDBRANCH  13  15
ENDBRANCH   9  13
TORSDOF 3
ENDMDL
MODEL       95
REMARK 921   NORMALIZED FREE ENERGY PREDICTED BY IDOCK:   -4.72 KCAL/MOL
REMARK 922        TOTAL FREE ENERGY PREDICTED BY IDOCK:   -5.87 KCAL/MOL
REMARK 923 INTER-LIGAND FREE ENERGY PREDICTED BY IDOCK:   -5.95 KCAL/MOL
REMARK 924 INTRA-LIGAND FREE ENERGY PREDICTED BY IDOCK:    0.09 KCAL/MOL
REMARK 927      BINDING AFFINITY PREDICTED BY RF-SCORE:    0.00 PKD
ROOT
HETATM    1  C   UNL     1     -10.598  17.944  67.073  1.00  0.00    -0.287 C  
HETATM    2  C   UNL     1     -10.978  17.150  68.330  1.00  0.00    -0.229 C  
HETATM    3  C   UNL     1     -10.444  19.436  67.362  1.00  0.00    -0.581 C  
HETATM    4  C   UNL     1     -11.165  15.662  68.019  1.00  0.00    -0.339 C  
HETATM    5  N   UNL     1     -10.051  15.090  67.253  1.00  0.00    -0.235 N  
HETATM    6  C   UNL     1      -9.661  15.840  66.047  1.00  0.00    -0.353 C  
HETATM    7  C   UNL     1      -9.415  13.941  67.723  1.00  0.00    -0.214 C  
HETATM    8  O   UNL     1      -9.725  13.442  68.807  1.00  0.00    -0.130 OA 
HETATM    9  C   UNL     1      -9.374  17.332  66.344  1.00  0.00    -0.258 C  
ENDROOT
BRANCH   7  10
HETATM   10  C   UNL     1      -8.326  13.338  66.855  1.00  0.00    -0.018 C  
HETATM   11  C   UNL     1      -7.101  13.050  67.611  1.00  0.00    -0.156 C  
HETATM   12  N   UNL     1      -6.100  12.813  68.150  1.00  0.00    -0.075 NA 
ENDBRANCH   7  10
BRANCH   9  13
HETATM   13  N   UNL     1      -8.106  17.550  67.067  1.00  0.00    -0.209 NA 
HETATM   14  C   UNL     1      -7.503  16.607  67.996  1.00  0.00    -0.164 C  
BRANCH  13  15
HETATM   15  C   UNL     1      -7.330  18.658  66.747  1.00  0.00    -0.217 A  
HETATM   16  N   UNL     1      -7.096  18.953  65.441  1.00  0.00    -0.503 NA 
HETATM   17  C   UNL     1      -6.266  19.974  65.137  1.00  0.00    -0.256 A  
HETATM   18  N   UNL     1      -5.610  20.791  65.974  1.00  0.00    -0.195 NA 
HETATM   19  C   UNL     1      -5.893  20.503  67.250  1.00  0.00    -0.184 A  
HETATM   20  C   UNL     1      -6.723  19.497  67.717  1.00  0.00    -0.259 A  
HETATM   21  C   UNL     1      -6.742  19.625  69.140  1.00  0.00    -0.383 A  
HETATM   22  C   UNL     1      -5.900  20.660  69.489  1.00  0.00    -0.336 A  
HETATM   23  N   UNL     1      -5.388  21.180  68.328  1.00  0.00    -0.370 NA 
HETATM   24  H   UNL     1      -4.727  21.955  68.275  1.00  0.00     0.000 HD 
ENDBRANCH  13  15
ENDBRANCH   9  13
TORSDOF 3
ENDMDL
MODEL       96
REMARK 921   NORMALIZED FREE ENERGY PREDICTED BY IDOCK:   -4.71 KCAL/MOL
REMARK 922        TOTAL FREE ENERGY PREDICTED BY IDOCK:   -5.85 KCAL/MOL
REMARK 923 INTER-LIGAND FREE ENERGY PREDICTED BY IDOCK:   -5.54 KCAL/MOL
REMARK 924 INTRA-LIGAND FREE ENERGY PREDICTED BY IDOCK:   -0.31 KCAL/MOL
REMARK 927      BINDING AFFINITY PREDICTED BY RF-SCORE:    0.00 PKD
ROOT
HETATM    1  C   UNL     1     -10.712   5.495  70.521  1.00  0.00    -0.310 C  
HETATM    2  C   UNL     1      -9.278   5.056  70.197  1.00  0.00    -0.186 C  
HETATM    3  C   UNL     1     -10.982   5.505  72.025  1.00  0.00    -0.276 C  
HETATM    4  C   UNL     1      -9.031   5.015  68.685  1.00  0.00    -0.106 C  
HETATM    5  N   UNL     1      -9.463   6.239  67.999  1.00  0.00    -0.117 N  
HETATM    6  C   UNL     1     -10.832   6.686  68.302  1.00  0.00    -0.254 C  
HETATM    7  C   UNL     1      -8.564   6.913  67.171  1.00  0.00    -0.121 C  
HETATM    8  O   UNL     1      -7.394   6.538  67.066  1.00  0.00    -0.076 OA 
HETATM    9  C   UNL     1     -11.087   6.827  69.823  1.00  0.00    -0.316 C  
ENDROOT
BRANCH   7  10
HETATM   10  C   UNL     1      -9.080   8.124  66.416  1.00  0.00    -0.226 C  
HETATM   11  C   UNL     1      -8.405   8.311  65.126  1.00  0.00    -0.157 C  
HETATM   12  N   UNL     1      -7.899   8.519  64.102  1.00  0.00    -0.136 NA 
ENDBRANCH   7  10
BRANCH   9  13
HETATM   13  N   UNL     1     -10.416   7.998  70.420  1.00  0.00    -0.214 NA 
HETATM   14  C   UNL     1      -8.979   8.142  70.585  1.00  0.00    -0.149 C  
BRANCH  13  15
HETATM   15  C   UNL     1     -11.171   9.127  70.720  1.00  0.00    -0.277 A  
HETATM   16  N   UNL     1     -11.948   9.132  71.835  1.00  0.00    -0.370 NA 
HETATM   17  C   UNL     1     -12.750  10.193  72.071  1.00  0.00    -0.327 A  
HETATM   18  N   UNL     1     -12.895  11.307  71.338  1.00  0.00    -0.424 NA 
HETATM   19  C   UNL     1     -12.086  11.291  70.272  1.00  0.00    -0.373 A  
HETATM   20  C   UNL     1     -11.210  10.284  69.900  1.00  0.00    -0.360 A  
HETATM   21  C   UNL     1     -10.539  10.753  68.729  1.00  0.00    -0.229 A  
HETATM   22  C   UNL     1     -11.054  11.990  68.405  1.00  0.00    -0.245 A  
HETATM   23  N   UNL     1     -11.997  12.300  69.350  1.00  0.00    -0.286 NA 
HETATM   24  H   UNL     1     -12.552  13.156  69.365  1.00  0.00     0.000 HD 
ENDBRANCH  13  15
ENDBRANCH   9  13
TORSDOF 3
ENDMDL
MODEL       97
REMARK 921   NORMALIZED FREE ENERGY PREDICTED BY IDOCK:   -4.71 KCAL/MOL
REMARK 922        TOTAL FREE ENERGY PREDICTED BY IDOCK:   -5.85 KCAL/MOL
REMARK 923 INTER-LIGAND FREE ENERGY PREDICTED BY IDOCK:   -5.88 KCAL/MOL
REMARK 924 INTRA-LIGAND FREE ENERGY PREDICTED BY IDOCK:    0.03 KCAL/MOL
REMARK 927      BINDING AFFINITY PREDICTED BY RF-SCORE:    0.00 PKD
ROOT
HETATM    1  C   UNL     1     -10.479   8.675  71.842  1.00  0.00    -0.410 C  
HETATM    2  C   UNL     1     -11.556   9.686  71.427  1.00  0.00    -0.472 C  
HETATM    3  C   UNL     1     -10.958   7.755  72.963  1.00  0.00    -0.442 C  
HETATM    4  C   UNL     1     -11.051  10.627  70.328  1.00  0.00    -0.233 C  
HETATM    5  N   UNL     1     -10.420   9.917  69.209  1.00  0.00    -0.208 N  
HETATM    6  C   UNL     1      -9.389   8.934  69.582  1.00  0.00    -0.163 C  
HETATM    7  C   UNL     1     -10.855  10.167  67.907  1.00  0.00    -0.284 C  
HETATM    8  O   UNL     1     -11.809  10.917  67.690  1.00  0.00    -0.572 OA 
HETATM    9  C   UNL     1      -9.898   7.909  70.626  1.00  0.00    -0.185 C  
ENDROOT
BRANCH   7  10
HETATM   10  C   UNL     1     -10.117   9.474  66.776  1.00  0.00    -0.312 C  
HETATM   11  C   UNL     1     -10.142  10.252  65.531  1.00  0.00    -0.281 C  
HETATM   12  N   UNL     1     -10.139  10.811  64.514  1.00  0.00    -0.328 NA 
ENDBRANCH   7  10
BRANCH   9  13
HETATM   13  N   UNL     1     -10.842   6.924  70.063  1.00  0.00    -0.249 NA 
HETATM   14  C   UNL     1     -12.254   6.837  70.398  1.00  0.00    -0.120 C  
BRANCH  13  15
HETATM   15  C   UNL     1     -10.419   6.103  69.024  1.00  0.00    -0.248 A  
HETATM   16  N   UNL     1     -10.947   6.275  67.783  1.00  0.00    -0.334 NA 
HETATM   17  C   UNL     1     -10.603   5.416  66.798  1.00  0.00    -0.271 A  
HETATM   18  N   UNL     1      -9.767   4.369  66.861  1.00  0.00    -0.199 NA 
HETATM   19  C   UNL     1      -9.232   4.252  68.082  1.00  0.00    -0.142 A  
HETATM   20  C   UNL     1      -9.481   5.052  69.186  1.00  0.00    -0.196 A  
HETATM   21  C   UNL     1      -8.639   4.561  70.231  1.00  0.00    -0.104 A  
HETATM   22  C   UNL     1      -7.951   3.466  69.750  1.00  0.00    -0.049 A  
HETATM   23  N   UNL     1      -8.328   3.289  68.444  1.00  0.00    -0.076 NA 
HETATM   24  H   UNL     1      -7.985   2.549  67.831  1.00  0.00     0.000 HD 
ENDBRANCH  13  15
ENDBRANCH   9  13
TORSDOF 3
ENDMDL
MODEL       98
REMARK 921   NORMALIZED FREE ENERGY PREDICTED BY IDOCK:   -4.68 KCAL/MOL
REMARK 922        TOTAL FREE ENERGY PREDICTED BY IDOCK:   -5.81 KCAL/MOL
REMARK 923 INTER-LIGAND FREE ENERGY PREDICTED BY IDOCK:   -5.50 KCAL/MOL
REMARK 924 INTRA-LIGAND FREE ENERGY PREDICTED BY IDOCK:   -0.32 KCAL/MOL
REMARK 927      BINDING AFFINITY PREDICTED BY RF-SCORE:    0.00 PKD
ROOT
HETATM    1  C   UNL     1      -7.604   7.716  67.198  1.00  0.00    -0.104 C  
HETATM    2  C   UNL     1      -7.981   6.236  67.348  1.00  0.00    -0.109 C  
HETATM    3  C   UNL     1      -7.415   8.113  65.735  1.00  0.00    -0.080 C  
HETATM    4  C   UNL     1      -8.132   5.841  68.821  1.00  0.00    -0.102 C  
HETATM    5  N   UNL     1      -8.983   6.766  69.579  1.00  0.00    -0.139 N  
HETATM    6  C   UNL     1      -8.647   8.193  69.443  1.00  0.00    -0.135 C  
HETATM    7  C   UNL     1     -10.055   6.261  70.316  1.00  0.00    -0.184 C  
HETATM    8  O   UNL     1     -10.342   5.063  70.280  1.00  0.00    -0.266 OA 
HETATM    9  C   UNL     1      -8.578   8.647  67.965  1.00  0.00    -0.137 C  
ENDROOT
BRANCH   7  10
HETATM   10  C   UNL     1     -10.855   7.244  71.152  1.00  0.00    -0.260 C  
HETATM   11  C   UNL     1     -10.596   7.099  72.589  1.00  0.00    -0.256 C  
HETATM   12  N   UNL     1     -10.444   7.024  73.738  1.00  0.00    -0.380 NA 
ENDBRANCH   7  10
BRANCH   9  13
HETATM   13  N   UNL     1      -9.902   8.747  67.322  1.00  0.00    -0.185 NA 
HETATM   14  C   UNL     1     -10.723   7.616  66.921  1.00  0.00    -0.201 C  
BRANCH  13  15
HETATM   15  C   UNL     1     -10.507   9.995  67.216  1.00  0.00    -0.254 A  
HETATM   16  N   UNL     1     -11.122  10.531  68.302  1.00  0.00    -0.269 NA 
HETATM   17  C   UNL     1     -11.788  11.700  68.170  1.00  0.00    -0.244 A  
HETATM   18  N   UNL     1     -11.932  12.456  67.072  1.00  0.00    -0.565 NA 
HETATM   19  C   UNL     1     -11.281  11.923  66.031  1.00  0.00    -0.324 A  
HETATM   20  C   UNL     1     -10.556  10.742  66.011  1.00  0.00    -0.224 A  
HETATM   21  C   UNL     1     -10.013  10.631  64.694  1.00  0.00    -0.401 A  
HETATM   22  C   UNL     1     -10.456  11.707  63.954  1.00  0.00    -0.382 A  
HETATM   23  N   UNL     1     -11.231  12.480  64.780  1.00  0.00    -0.296 NA 
HETATM   24  H   UNL     1     -11.701  13.342  64.504  1.00  0.00     0.000 HD 
ENDBRANCH  13  15
ENDBRANCH   9  13
TORSDOF 3
ENDMDL
MODEL       99
REMARK 921   NORMALIZED FREE ENERGY PREDICTED BY IDOCK:   -4.61 KCAL/MOL
REMARK 922        TOTAL FREE ENERGY PREDICTED BY IDOCK:   -5.73 KCAL/MOL
REMARK 923 INTER-LIGAND FREE ENERGY PREDICTED BY IDOCK:   -6.15 KCAL/MOL
REMARK 924 INTRA-LIGAND FREE ENERGY PREDICTED BY IDOCK:    0.42 KCAL/MOL
REMARK 927      BINDING AFFINITY PREDICTED BY RF-SCORE:    0.00 PKD
ROOT
HETATM    1  C   UNL     1     -10.530  17.803  68.052  1.00  0.00    -0.399 C  
HETATM    2  C   UNL     1     -11.034  16.612  68.879  1.00  0.00    -0.294 C  
HETATM    3  C   UNL     1      -9.909  18.887  68.930  1.00  0.00    -0.447 C  
HETATM    4  C   UNL     1     -11.688  15.549  67.990  1.00  0.00    -0.186 C  
HETATM    5  N   UNL     1     -10.862  15.179  66.834  1.00  0.00    -0.313 N  
HETATM    6  C   UNL     1     -10.358  16.305  66.031  1.00  0.00    -0.349 C  
HETATM    7  C   UNL     1     -10.571  13.835  66.602  1.00  0.00    -0.274 C  
HETATM    8  O   UNL     1     -10.933  12.961  67.393  1.00  0.00    -0.249 OA 
HETATM    9  C   UNL     1      -9.610  17.356  66.887  1.00  0.00    -0.277 C  
ENDROOT
BRANCH   7  10
HETATM   10  C   UNL     1      -9.787  13.494  65.348  1.00  0.00    -0.141 C  
HETATM   11  C   UNL     1     -10.620  12.856  64.321  1.00  0.00    -0.408 C  
HETATM   12  N   UNL     1     -11.223  12.336  63.476  1.00  0.00    -0.451 NA 
ENDBRANCH   7  10
BRANCH   9  13
HETATM   13  N   UNL     1      -8.284  16.898  67.345  1.00  0.00    -0.179 NA 
HETATM   14  C   UNL     1      -7.807  15.526  67.281  1.00  0.00    -0.204 C  
BRANCH  13  15
HETATM   15  C   UNL     1      -7.341  17.844  67.731  1.00  0.00    -0.208 A  
HETATM   16  N   UNL     1      -6.803  17.778  68.978  1.00  0.00    -0.246 NA 
HETATM   17  C   UNL     1      -5.958  18.752  69.381  1.00  0.00    -0.251 A  
HETATM   18  N   UNL     1      -5.539  19.826  68.697  1.00  0.00    -0.206 NA 
HETATM   19  C   UNL     1      -6.051  19.841  67.460  1.00  0.00    -0.189 A  
HETATM   20  C   UNL     1      -6.922  18.917  66.904  1.00  0.00    -0.210 A  
HETATM   21  C   UNL     1      -7.138  19.337  65.555  1.00  0.00    -0.216 A  
HETATM   22  C   UNL     1      -6.439  20.509  65.353  1.00  0.00    -0.258 A  
HETATM   23  N   UNL     1      -5.789  20.804  66.523  1.00  0.00    -0.192 NA 
HETATM   24  H   UNL     1      -5.196  21.621  66.674  1.00  0.00     0.000 HD 
ENDBRANCH  13  15
ENDBRANCH   9  13
TORSDOF 3
ENDMDL
MODEL      100
REMARK 921   NORMALIZED FREE ENERGY PREDICTED BY IDOCK:   -4.60 KCAL/MOL
REMARK 922        TOTAL FREE ENERGY PREDICTED BY IDOCK:   -5.72 KCAL/MOL
REMARK 923 INTER-LIGAND FREE ENERGY PREDICTED BY IDOCK:   -6.30 KCAL/MOL
REMARK 924 INTRA-LIGAND FREE ENERGY PREDICTED BY IDOCK:    0.58 KCAL/MOL
REMARK 927      BINDING AFFINITY PREDICTED BY RF-SCORE:    0.00 PKD
ROOT
HETATM    1  C   UNL     1     -11.318  12.155  65.307  1.00  0.00    -0.386 C  
HETATM    2  C   UNL     1     -10.911  13.615  65.067  1.00  0.00    -0.358 C  
HETATM    3  C   UNL     1     -10.587  11.195  64.370  1.00  0.00    -0.411 C  
HETATM    4  C   UNL     1     -11.678  14.570  65.987  1.00  0.00    -0.345 C  
HETATM    5  N   UNL     1     -11.653  14.156  67.395  1.00  0.00    -0.351 N  
HETATM    6  C   UNL     1     -12.031  12.756  67.650  1.00  0.00    -0.273 C  
HETATM    7  C   UNL     1     -11.238  15.064  68.369  1.00  0.00    -0.293 C  
HETATM    8  O   UNL     1     -10.822  16.182  68.058  1.00  0.00    -0.312 OA 
HETATM    9  C   UNL     1     -11.207  11.756  66.801  1.00  0.00    -0.328 C  
ENDROOT
BRANCH   7  10
HETATM   10  C   UNL     1     -11.311  14.620  69.818  1.00  0.00    -0.315 C  
HETATM   11  C   UNL     1     -12.455  15.206  70.528  1.00  0.00    -0.379 C  
HETATM   12  N   UNL     1     -13.331  15.648  71.147  1.00  0.00    -0.565 NA 
ENDBRANCH   7  10
BRANCH   9  13
HETATM   13  N   UNL     1      -9.811  11.616  67.257  1.00  0.00    -0.187 NA 
HETATM   14  C   UNL     1      -8.716  12.492  66.872  1.00  0.00    -0.182 C  
BRANCH  13  15
HETATM   15  C   UNL     1      -9.515  10.683  68.244  1.00  0.00    -0.159 A  
HETATM   16  N   UNL     1     -10.422   9.715  68.539  1.00  0.00    -0.205 NA 
HETATM   17  C   UNL     1     -10.170   8.868  69.562  1.00  0.00    -0.204 A  
HETATM   18  N   UNL     1      -9.097   8.830  70.366  1.00  0.00    -0.164 NA 
HETATM   19  C   UNL     1      -8.204   9.767  70.024  1.00  0.00    -0.191 A  
HETATM   20  C   UNL     1      -8.317  10.699  69.004  1.00  0.00    -0.153 A  
HETATM   21  C   UNL     1      -7.094  11.438  69.004  1.00  0.00    -0.117 A  
HETATM   22  C   UNL     1      -6.309  10.970  70.037  1.00  0.00    -0.146 A  
HETATM   23  N   UNL     1      -7.001   9.958  70.650  1.00  0.00    -0.278 NA 
HETATM   24  H   UNL     1      -6.670   9.425  71.455  1.00  0.00     0.000 HD 
ENDBRANCH  13  15
ENDBRANCH   9  13
TORSDOF 3
ENDMDL
MODEL      101
REMARK 921   NORMALIZED FREE ENERGY PREDICTED BY IDOCK:   -4.59 KCAL/MOL
REMARK 922        TOTAL FREE ENERGY PREDICTED BY IDOCK:   -5.71 KCAL/MOL
REMARK 923 INTER-LIGAND FREE ENERGY PREDICTED BY IDOCK:   -5.66 KCAL/MOL
REMARK 924 INTRA-LIGAND FREE ENERGY PREDICTED BY IDOCK:   -0.05 KCAL/MOL
REMARK 927      BINDING AFFINITY PREDICTED BY RF-SCORE:    0.00 PKD
ROOT
HETATM    1  C   UNL     1     -10.555   6.481  72.185  1.00  0.00    -0.240 C  
HETATM    2  C   UNL     1     -12.029   6.907  72.196  1.00  0.00    -0.302 C  
HETATM    3  C   UNL     1     -10.397   4.969  72.042  1.00  0.00    -0.276 C  
HETATM    4  C   UNL     1     -12.175   8.422  72.377  1.00  0.00    -0.367 C  
HETATM    5  N   UNL     1     -11.326   9.194  71.463  1.00  0.00    -0.342 N  
HETATM    6  C   UNL     1      -9.908   8.798  71.428  1.00  0.00    -0.283 C  
HETATM    7  C   UNL     1     -11.900  10.189  70.671  1.00  0.00    -0.342 C  
HETATM    8  O   UNL     1     -13.118  10.377  70.671  1.00  0.00    -0.369 OA 
HETATM    9  C   UNL     1      -9.723   7.285  71.154  1.00  0.00    -0.171 C  
ENDROOT
BRANCH   7  10
HETATM   10  C   UNL     1     -10.970  11.019  69.804  1.00  0.00    -0.258 C  
HETATM   11  C   UNL     1     -11.653  11.592  68.638  1.00  0.00    -0.312 C  
HETATM   12  N   UNL     1     -12.132  12.062  67.691  1.00  0.00    -0.509 NA 
ENDBRANCH   7  10
BRANCH   9  13
HETATM   13  N   UNL     1     -10.015   6.905  69.758  1.00  0.00    -0.177 NA 
HETATM   14  C   UNL     1     -11.314   6.476  69.265  1.00  0.00    -0.294 C  
BRANCH  13  15
HETATM   15  C   UNL     1      -9.041   7.105  68.787  1.00  0.00    -0.134 A  
HETATM   16  N   UNL     1      -7.818   6.532  68.943  1.00  0.00    -0.109 NA 
HETATM   17  C   UNL     1      -6.845   6.805  68.045  1.00  0.00    -0.078 A  
HETATM   18  N   UNL     1      -6.912   7.589  66.959  1.00  0.00    -0.080 NA 
HETATM   19  C   UNL     1      -8.138   8.104  66.810  1.00  0.00    -0.103 A  
HETATM   20  C   UNL     1      -9.232   7.915  67.639  1.00  0.00    -0.147 A  
HETATM   21  C   UNL     1     -10.316   8.625  67.034  1.00  0.00    -0.368 A  
HETATM   22  C   UNL     1      -9.841   9.250  65.901  1.00  0.00    -0.265 A  
HETATM   23  N   UNL     1      -8.514   8.928  65.782  1.00  0.00    -0.136 NA 
HETATM   24  H   UNL     1      -7.896   9.254  65.038  1.00  0.00     0.000 HD 
ENDBRANCH  13  15
ENDBRANCH   9  13
TORSDOF 3
ENDMDL
MODEL      102
REMARK 921   NORMALIZED FREE ENERGY PREDICTED BY IDOCK:   -4.58 KCAL/MOL
REMARK 922        TOTAL FREE ENERGY PREDICTED BY IDOCK:   -5.70 KCAL/MOL
REMARK 923 INTER-LIGAND FREE ENERGY PREDICTED BY IDOCK:   -5.60 KCAL/MOL
REMARK 924 INTRA-LIGAND FREE ENERGY PREDICTED BY IDOCK:   -0.10 KCAL/MOL
REMARK 927      BINDING AFFINITY PREDICTED BY RF-SCORE:    0.00 PKD
ROOT
HETATM    1  C   UNL     1      -9.437  10.978  65.988  1.00  0.00    -0.235 C  
HETATM    2  C   UNL     1     -10.215   9.656  66.015  1.00  0.00    -0.255 C  
HETATM    3  C   UNL     1      -9.925  11.908  64.878  1.00  0.00    -0.269 C  
HETATM    4  C   UNL     1      -9.692   8.719  67.108  1.00  0.00    -0.191 C  
HETATM    5  N   UNL     1      -9.562   9.375  68.414  1.00  0.00    -0.145 N  
HETATM    6  C   UNL     1      -8.827  10.650  68.412  1.00  0.00    -0.145 C  
HETATM    7  C   UNL     1     -10.166   8.799  69.532  1.00  0.00    -0.208 C  
HETATM    8  O   UNL     1     -10.867   7.791  69.427  1.00  0.00    -0.207 OA 
HETATM    9  C   UNL     1      -9.391  11.658  67.381  1.00  0.00    -0.168 C  
ENDROOT
BRANCH   7  10
HETATM   10  C   UNL     1      -9.934   9.466  70.876  1.00  0.00    -0.353 C  
HETATM   11  C   UNL     1     -10.288   8.595  72.003  1.00  0.00    -0.346 C  
HETATM   12  N   UNL     1     -10.564   7.960  72.935  1.00  0.00    -0.354 NA 
ENDBRANCH   7  10
BRANCH   9  13
HETATM   13  N   UNL     1     -10.688  12.237  67.779  1.00  0.00    -0.211 NA 
HETATM   14  C   UNL     1     -11.937  11.499  67.879  1.00  0.00    -0.073 C  
BRANCH  13  15
HETATM   15  C   UNL     1     -10.726  13.546  68.248  1.00  0.00    -0.258 A  
HETATM   16  N   UNL     1     -10.918  13.773  69.574  1.00  0.00    -0.104 NA 
HETATM   17  C   UNL     1     -11.047  15.046  70.010  1.00  0.00    -0.263 A  
HETATM   18  N   UNL     1     -11.002  16.179  69.295  1.00  0.00    -0.292 NA 
HETATM   19  C   UNL     1     -10.770  15.925  68.002  1.00  0.00    -0.301 A  
HETATM   20  C   UNL     1     -10.612  14.683  67.408  1.00  0.00    -0.265 A  
HETATM   21  C   UNL     1     -10.336  14.934  66.028  1.00  0.00    -0.313 A  
HETATM   22  C   UNL     1     -10.381  16.298  65.822  1.00  0.00    -0.374 A  
HETATM   23  N   UNL     1     -10.652  16.884  67.031  1.00  0.00    -0.276 NA 
HETATM   24  H   UNL     1     -10.750  17.888  67.186  1.00  0.00     0.000 HD 
ENDBRANCH  13  15
ENDBRANCH   9  13
TORSDOF 3
ENDMDL
MODEL      103
REMARK 921   NORMALIZED FREE ENERGY PREDICTED BY IDOCK:   -4.58 KCAL/MOL
REMARK 922        TOTAL FREE ENERGY PREDICTED BY IDOCK:   -5.69 KCAL/MOL
REMARK 923 INTER-LIGAND FREE ENERGY PREDICTED BY IDOCK:   -5.25 KCAL/MOL
REMARK 924 INTRA-LIGAND FREE ENERGY PREDICTED BY IDOCK:   -0.44 KCAL/MOL
REMARK 927      BINDING AFFINITY PREDICTED BY RF-SCORE:    0.00 PKD
ROOT
HETATM    1  C   UNL     1      -9.827   5.753  72.022  1.00  0.00    -0.183 C  
HETATM    2  C   UNL     1     -11.054   6.419  72.657  1.00  0.00    -0.294 C  
HETATM    3  C   UNL     1     -10.009   4.244  71.867  1.00  0.00    -0.255 C  
HETATM    4  C   UNL     1     -10.844   7.926  72.841  1.00  0.00    -0.386 C  
HETATM    5  N   UNL     1     -10.352   8.589  71.627  1.00  0.00    -0.238 N  
HETATM    6  C   UNL     1      -9.180   7.963  70.993  1.00  0.00    -0.151 C  
HETATM    7  C   UNL     1     -11.030   9.704  71.134  1.00  0.00    -0.360 C  
HETATM    8  O   UNL     1     -12.076  10.093  71.657  1.00  0.00    -0.375 OA 
HETATM    9  C   UNL     1      -9.395   6.456  70.709  1.00  0.00    -0.158 C  
ENDROOT
BRANCH   7  10
HETATM   10  C   UNL     1     -10.436  10.408  69.927  1.00  0.00    -0.266 C  
HETATM   11  C   UNL     1     -11.458  10.801  68.949  1.00  0.00    -0.293 C  
HETATM   12  N   UNL     1     -12.216  11.125  68.131  1.00  0.00    -0.465 NA 
ENDBRANCH   7  10
BRANCH   9  13
HETATM   13  N   UNL     1     -10.321   6.200  69.589  1.00  0.00    -0.199 NA 
HETATM   14  C   UNL     1     -11.747   6.483  69.604  1.00  0.00    -0.164 C  
BRANCH  13  15
HETATM   15  C   UNL     1      -9.802   5.801  68.363  1.00  0.00    -0.140 A  
HETATM   16  N   UNL     1      -9.610   4.478  68.119  1.00  0.00    -0.151 NA 
HETATM   17  C   UNL     1      -9.018   4.101  66.964  1.00  0.00    -0.127 A  
HETATM   18  N   UNL     1      -8.578   4.878  65.963  1.00  0.00    -0.117 NA 
HETATM   19  C   UNL     1      -8.819   6.170  66.213  1.00  0.00    -0.146 A  
HETATM   20  C   UNL     1      -9.416   6.708  67.342  1.00  0.00    -0.143 A  
HETATM   21  C   UNL     1      -9.494   8.117  67.118  1.00  0.00    -0.207 A  
HETATM   22  C   UNL     1      -8.909   8.391  65.899  1.00  0.00    -0.175 A  
HETATM   23  N   UNL     1      -8.499   7.198  65.365  1.00  0.00    -0.258 NA 
HETATM   24  H   UNL     1      -8.025   7.089  64.468  1.00  0.00     0.000 HD 
ENDBRANCH  13  15
ENDBRANCH   9  13
TORSDOF 3
ENDMDL
MODEL      104
REMARK 921   NORMALIZED FREE ENERGY PREDICTED BY IDOCK:   -4.52 KCAL/MOL
REMARK 922        TOTAL FREE ENERGY PREDICTED BY IDOCK:   -5.63 KCAL/MOL
REMARK 923 INTER-LIGAND FREE ENERGY PREDICTED BY IDOCK:   -5.36 KCAL/MOL
REMARK 924 INTRA-LIGAND FREE ENERGY PREDICTED BY IDOCK:   -0.27 KCAL/MOL
REMARK 927      BINDING AFFINITY PREDICTED BY RF-SCORE:    0.00 PKD
ROOT
HETATM    1  C   UNL     1      -9.747  11.693  67.502  1.00  0.00    -0.185 C  
HETATM    2  C   UNL     1      -9.069  11.034  66.293  1.00  0.00    -0.196 C  
HETATM    3  C   UNL     1     -11.166  12.156  67.180  1.00  0.00    -0.372 C  
HETATM    4  C   UNL     1      -7.633  10.607  66.618  1.00  0.00    -0.129 C  
HETATM    5  N   UNL     1      -7.530   9.841  67.865  1.00  0.00    -0.086 N  
HETATM    6  C   UNL     1      -8.181  10.448  69.037  1.00  0.00    -0.141 C  
HETATM    7  C   UNL     1      -6.889   8.602  67.856  1.00  0.00    -0.067 C  
HETATM    8  O   UNL     1      -6.475   8.108  66.805  1.00  0.00    -0.054 OA 
HETATM    9  C   UNL     1      -9.664  10.807  68.772  1.00  0.00    -0.192 C  
ENDROOT
BRANCH   7  10
HETATM   10  C   UNL     1      -6.730   7.885  69.185  1.00  0.00    -0.048 C  
HETATM   11  C   UNL     1      -7.731   6.828  69.374  1.00  0.00    -0.105 C  
HETATM   12  N   UNL     1      -8.503   5.988  69.589  1.00  0.00    -0.124 NA 
ENDBRANCH   7  10
BRANCH   9  13
HETATM   13  N   UNL     1     -10.548   9.628  68.708  1.00  0.00    -0.215 NA 
HETATM   14  C   UNL     1     -10.661   8.730  67.570  1.00  0.00    -0.228 C  
BRANCH  13  15
HETATM   15  C   UNL     1     -11.222   9.228  69.857  1.00  0.00    -0.126 A  
HETATM   16  N   UNL     1     -11.180   7.923  70.234  1.00  0.00    -0.241 NA 
HETATM   17  C   UNL     1     -11.913   7.523  71.297  1.00  0.00    -0.307 A  
HETATM   18  N   UNL     1     -12.708   8.261  72.084  1.00  0.00    -0.337 NA 
HETATM   19  C   UNL     1     -12.695   9.547  71.715  1.00  0.00    -0.404 A  
HETATM   20  C   UNL     1     -11.997  10.107  70.657  1.00  0.00    -0.423 A  
HETATM   21  C   UNL     1     -12.264  11.510  70.703  1.00  0.00    -0.473 A  
HETATM   22  C   UNL     1     -13.139  11.747  71.742  1.00  0.00    -0.375 A  
HETATM   23  N   UNL     1     -13.395  10.542  72.343  1.00  0.00    -0.532 NA 
HETATM   24  H   UNL     1     -14.016  10.406  73.141  1.00  0.00     0.000 HD 
ENDBRANCH  13  15
ENDBRANCH   9  13
TORSDOF 3
ENDMDL
MODEL      105
REMARK 921   NORMALIZED FREE ENERGY PREDICTED BY IDOCK:   -4.50 KCAL/MOL
REMARK 922        TOTAL FREE ENERGY PREDICTED BY IDOCK:   -5.61 KCAL/MOL
REMARK 923 INTER-LIGAND FREE ENERGY PREDICTED BY IDOCK:   -5.97 KCAL/MOL
REMARK 924 INTRA-LIGAND FREE ENERGY PREDICTED BY IDOCK:    0.37 KCAL/MOL
REMARK 927      BINDING AFFINITY PREDICTED BY RF-SCORE:    0.00 PKD
ROOT
HETATM    1  C   UNL     1      -9.414  11.479  64.759  1.00  0.00    -0.129 C  
HETATM    2  C   UNL     1      -9.840  10.005  64.763  1.00  0.00    -0.325 C  
HETATM    3  C   UNL     1     -10.358  12.345  63.925  1.00  0.00    -0.450 C  
HETATM    4  C   UNL     1      -8.865   9.142  65.572  1.00  0.00    -0.191 C  
HETATM    5  N   UNL     1      -8.574   9.695  66.900  1.00  0.00    -0.127 N  
HETATM    6  C   UNL     1      -8.174  11.111  66.923  1.00  0.00    -0.149 C  
HETATM    7  C   UNL     1      -8.739   8.890  68.028  1.00  0.00    -0.133 C  
HETATM    8  O   UNL     1      -9.196   7.749  67.932  1.00  0.00    -0.137 OA 
HETATM    9  C   UNL     1      -9.187  12.025  66.191  1.00  0.00    -0.179 C  
ENDROOT
BRANCH   7  10
HETATM   10  C   UNL     1      -8.345   9.477  69.371  1.00  0.00    -0.140 C  
HETATM   11  C   UNL     1      -9.453   9.467  70.334  1.00  0.00    -0.268 C  
HETATM   12  N   UNL     1     -10.292   9.499  71.135  1.00  0.00    -0.299 NA 
ENDBRANCH   7  10
BRANCH   9  13
HETATM   13  N   UNL     1     -10.445  12.218  66.939  1.00  0.00    -0.216 NA 
HETATM   14  C   UNL     1     -11.272  11.146  67.470  1.00  0.00    -0.301 C  
BRANCH  13  15
HETATM   15  C   UNL     1     -10.816  13.504  67.313  1.00  0.00    -0.276 A  
HETATM   16  N   UNL     1     -10.539  14.545  66.483  1.00  0.00    -0.292 NA 
HETATM   17  C   UNL     1     -10.818  15.802  66.892  1.00  0.00    -0.265 A  
HETATM   18  N   UNL     1     -11.366  16.199  68.049  1.00  0.00    -0.289 NA 
HETATM   19  C   UNL     1     -11.667  15.151  68.825  1.00  0.00    -0.342 A  
HETATM   20  C   UNL     1     -11.447  13.812  68.545  1.00  0.00    -0.342 A  
HETATM   21  C   UNL     1     -11.982  13.082  69.651  1.00  0.00    -0.367 A  
HETATM   22  C   UNL     1     -12.459  13.988  70.574  1.00  0.00    -0.359 A  
HETATM   23  N   UNL     1     -12.255  15.242  70.059  1.00  0.00    -0.398 NA 
HETATM   24  H   UNL     1     -12.504  16.115  70.525  1.00  0.00     0.000 HD 
ENDBRANCH  13  15
ENDBRANCH   9  13
TORSDOF 3
ENDMDL
MODEL      106
REMARK 921   NORMALIZED FREE ENERGY PREDICTED BY IDOCK:   -4.50 KCAL/MOL
REMARK 922        TOTAL FREE ENERGY PREDICTED BY IDOCK:   -5.61 KCAL/MOL
REMARK 923 INTER-LIGAND FREE ENERGY PREDICTED BY IDOCK:   -5.15 KCAL/MOL
REMARK 924 INTRA-LIGAND FREE ENERGY PREDICTED BY IDOCK:   -0.45 KCAL/MOL
REMARK 927      BINDING AFFINITY PREDICTED BY RF-SCORE:    0.00 PKD
ROOT
HETATM    1  C   UNL     1      -9.660   4.657  67.662  1.00  0.00    -0.200 C  
HETATM    2  C   UNL     1      -8.485   5.121  66.791  1.00  0.00    -0.106 C  
HETATM    3  C   UNL     1      -9.236   3.592  68.673  1.00  0.00    -0.221 C  
HETATM    4  C   UNL     1      -8.930   6.161  65.757  1.00  0.00    -0.086 C  
HETATM    5  N   UNL     1      -9.722   7.250  66.341  1.00  0.00    -0.129 N  
HETATM    6  C   UNL     1     -10.848   6.830  67.191  1.00  0.00    -0.392 C  
HETATM    7  C   UNL     1      -9.343   8.573  66.110  1.00  0.00    -0.214 C  
HETATM    8  O   UNL     1      -8.313   8.838  65.486  1.00  0.00    -0.129 OA 
HETATM    9  C   UNL     1     -10.415   5.847  68.306  1.00  0.00    -0.236 C  
ENDROOT
BRANCH   7  10
HETATM   10  C   UNL     1     -10.239   9.666  66.663  1.00  0.00    -0.302 C  
HETATM   11  C   UNL     1      -9.630  10.369  67.799  1.00  0.00    -0.152 C  
HETATM   12  N   UNL     1      -9.210  10.952  68.710  1.00  0.00    -0.186 NA 
ENDBRANCH   7  10
BRANCH   9  13
HETATM   13  N   UNL     1      -9.650   6.495  69.389  1.00  0.00    -0.144 NA 
HETATM   14  C   UNL     1      -8.266   6.929  69.289  1.00  0.00    -0.125 C  
BRANCH  13  15
HETATM   15  C   UNL     1     -10.314   6.871  70.552  1.00  0.00    -0.204 A  
HETATM   16  N   UNL     1     -10.784   8.141  70.669  1.00  0.00    -0.220 NA 
HETATM   17  C   UNL     1     -11.345   8.528  71.836  1.00  0.00    -0.329 A  
HETATM   18  N   UNL     1     -11.529   7.807  72.951  1.00  0.00    -0.363 NA 
HETATM   19  C   UNL     1     -11.095   6.551  72.790  1.00  0.00    -0.245 A  
HETATM   20  C   UNL     1     -10.505   6.007  71.660  1.00  0.00    -0.276 A  
HETATM   21  C   UNL     1     -10.268   4.630  71.959  1.00  0.00    -0.258 A  
HETATM   22  C   UNL     1     -10.672   4.396  73.257  1.00  0.00    -0.231 A  
HETATM   23  N   UNL     1     -11.167   5.576  73.750  1.00  0.00    -0.401 NA 
HETATM   24  H   UNL     1     -11.536   5.709  74.691  1.00  0.00     0.000 HD 
ENDBRANCH  13  15
ENDBRANCH   9  13
TORSDOF 3
ENDMDL
MODEL      107
REMARK 921   NORMALIZED FREE ENERGY PREDICTED BY IDOCK:   -4.49 KCAL/MOL
REMARK 922        TOTAL FREE ENERGY PREDICTED BY IDOCK:   -5.59 KCAL/MOL
REMARK 923 INTER-LIGAND FREE ENERGY PREDICTED BY IDOCK:   -5.28 KCAL/MOL
REMARK 924 INTRA-LIGAND FREE ENERGY PREDICTED BY IDOCK:   -0.31 KCAL/MOL
REMARK 927      BINDING AFFINITY PREDICTED BY RF-SCORE:    0.00 PKD
ROOT
HETATM    1  C   UNL     1      -9.594  10.501  64.927  1.00  0.00    -0.334 C  
HETATM    2  C   UNL     1     -10.277   9.435  65.794  1.00  0.00    -0.024 C  
HETATM    3  C   UNL     1     -10.562  11.135  63.930  1.00  0.00    -0.431 C  
HETATM    4  C   UNL     1      -9.288   8.781  66.764  1.00  0.00    -0.179 C  
HETATM    5  N   UNL     1      -8.489   9.757  67.516  1.00  0.00    -0.121 N  
HETATM    6  C   UNL     1      -7.831  10.795  66.706  1.00  0.00    -0.135 C  
HETATM    7  C   UNL     1      -8.445   9.677  68.908  1.00  0.00    -0.125 C  
HETATM    8  O   UNL     1      -9.124   8.849  69.519  1.00  0.00    -0.142 OA 
HETATM    9  C   UNL     1      -8.823  11.541  65.780  1.00  0.00    -0.058 C  
ENDROOT
BRANCH   7  10
HETATM   10  C   UNL     1      -7.539  10.653  69.637  1.00  0.00    -0.100 C  
HETATM   11  C   UNL     1      -6.886  10.048  70.804  1.00  0.00     0.027 C  
HETATM   12  N   UNL     1      -6.351   9.631  71.747  1.00  0.00    -0.302 NA 
ENDBRANCH   7  10
BRANCH   9  13
HETATM   13  N   UNL     1      -9.716  12.465  66.504  1.00  0.00    -0.235 NA 
HETATM   14  C   UNL     1     -10.797  12.060  67.388  1.00  0.00    -0.242 C  
BRANCH  13  15
HETATM   15  C   UNL     1      -9.437  13.827  66.483  1.00  0.00    -0.269 A  
HETATM   16  N   UNL     1      -8.393  14.305  67.210  1.00  0.00    -0.202 NA 
HETATM   17  C   UNL     1      -8.183  15.639  67.260  1.00  0.00    -0.191 A  
HETATM   18  N   UNL     1      -8.880  16.614  66.660  1.00  0.00    -0.227 NA 
HETATM   19  C   UNL     1      -9.874  16.111  65.919  1.00  0.00    -0.353 A  
HETATM   20  C   UNL     1     -10.211  14.775  65.765  1.00  0.00    -0.359 A  
HETATM   21  C   UNL     1     -11.302  14.744  64.843  1.00  0.00    -0.411 A  
HETATM   22  C   UNL     1     -11.619  16.044  64.507  1.00  0.00    -0.205 A  
HETATM   23  N   UNL     1     -10.745  16.862  65.175  1.00  0.00    -0.666 NA 
HETATM   24  H   UNL     1     -10.742  17.881  65.125  1.00  0.00     0.000 HD 
ENDBRANCH  13  15
ENDBRANCH   9  13
TORSDOF 3
ENDMDL
MODEL      108
REMARK 921   NORMALIZED FREE ENERGY PREDICTED BY IDOCK:   -4.46 KCAL/MOL
REMARK 922        TOTAL FREE ENERGY PREDICTED BY IDOCK:   -5.56 KCAL/MOL
REMARK 923 INTER-LIGAND FREE ENERGY PREDICTED BY IDOCK:   -5.27 KCAL/MOL
REMARK 924 INTRA-LIGAND FREE ENERGY PREDICTED BY IDOCK:   -0.29 KCAL/MOL
REMARK 927      BINDING AFFINITY PREDICTED BY RF-SCORE:    0.00 PKD
ROOT
HETATM    1  C   UNL     1      -9.609   9.613  67.281  1.00  0.00    -0.203 C  
HETATM    2  C   UNL     1      -9.750   9.200  65.810  1.00  0.00    -0.299 C  
HETATM    3  C   UNL     1     -10.841  10.362  67.786  1.00  0.00    -0.351 C  
HETATM    4  C   UNL     1      -8.493   8.483  65.305  1.00  0.00    -0.174 C  
HETATM    5  N   UNL     1      -8.047   7.408  66.198  1.00  0.00    -0.111 N  
HETATM    6  C   UNL     1      -7.913   7.778  67.617  1.00  0.00    -0.124 C  
HETATM    7  C   UNL     1      -7.833   6.131  65.680  1.00  0.00    -0.104 C  
HETATM    8  O   UNL     1      -8.085   5.874  64.500  1.00  0.00    -0.128 OA 
HETATM    9  C   UNL     1      -9.201   8.423  68.185  1.00  0.00    -0.137 C  
ENDROOT
BRANCH   7  10
HETATM   10  C   UNL     1      -7.290   5.073  66.623  1.00  0.00    -0.086 C  
HETATM   11  C   UNL     1      -8.320   4.115  67.044  1.00  0.00    -0.100 C  
HETATM   12  N   UNL     1      -9.091   3.336  67.425  1.00  0.00    -0.157 NA 
ENDBRANCH   7  10
BRANCH   9  13
HETATM   13  N   UNL     1     -10.296   7.455  68.390  1.00  0.00    -0.191 NA 
HETATM   14  C   UNL     1     -11.016   6.773  67.327  1.00  0.00    -0.363 C  
BRANCH  13  15
HETATM   15  C   UNL     1     -10.584   7.026  69.681  1.00  0.00    -0.234 A  
HETATM   16  N   UNL     1     -10.239   5.766  70.057  1.00  0.00    -0.217 NA 
HETATM   17  C   UNL     1     -10.604   5.323  71.280  1.00  0.00    -0.172 A  
HETATM   18  N   UNL     1     -11.282   5.977  72.234  1.00  0.00    -0.278 NA 
HETATM   19  C   UNL     1     -11.570   7.227  71.851  1.00  0.00    -0.277 A  
HETATM   20  C   UNL     1     -11.262   7.823  70.639  1.00  0.00    -0.278 A  
HETATM   21  C   UNL     1     -11.730   9.170  70.728  1.00  0.00    -0.308 A  
HETATM   22  C   UNL     1     -12.340   9.333  71.954  1.00  0.00    -0.382 A  
HETATM   23  N   UNL     1     -12.239   8.140  72.622  1.00  0.00    -0.599 NA 
HETATM   24  H   UNL     1     -12.607   7.959  73.556  1.00  0.00     0.000 HD 
ENDBRANCH  13  15
ENDBRANCH   9  13
TORSDOF 3
ENDMDL
MODEL      109
REMARK 921   NORMALIZED FREE ENERGY PREDICTED BY IDOCK:   -4.46 KCAL/MOL
REMARK 922        TOTAL FREE ENERGY PREDICTED BY IDOCK:   -5.56 KCAL/MOL
REMARK 923 INTER-LIGAND FREE ENERGY PREDICTED BY IDOCK:   -5.75 KCAL/MOL
REMARK 924 INTRA-LIGAND FREE ENERGY PREDICTED BY IDOCK:    0.19 KCAL/MOL
REMARK 927      BINDING AFFINITY PREDICTED BY RF-SCORE:    0.00 PKD
ROOT
HETATM    1  C   UNL     1      -9.428  11.048  66.378  1.00  0.00    -0.218 C  
HETATM    2  C   UNL     1     -10.131   9.687  66.290  1.00  0.00    -0.322 C  
HETATM    3  C   UNL     1      -9.830  11.976  65.232  1.00  0.00    -0.236 C  
HETATM    4  C   UNL     1      -9.691   8.754  67.423  1.00  0.00    -0.174 C  
HETATM    5  N   UNL     1      -9.754   9.386  68.746  1.00  0.00    -0.154 N  
HETATM    6  C   UNL     1      -9.095  10.698  68.853  1.00  0.00    -0.176 C  
HETATM    7  C   UNL     1     -10.455   8.755  69.774  1.00  0.00    -0.219 C  
HETATM    8  O   UNL     1     -11.083   7.714  69.568  1.00  0.00    -0.155 OA 
HETATM    9  C   UNL     1      -9.586  11.697  67.777  1.00  0.00    -0.178 C  
ENDROOT
BRANCH   7  10
HETATM   10  C   UNL     1     -10.421   9.403  71.146  1.00  0.00    -0.392 C  
HETATM   11  C   UNL     1      -9.867   8.512  72.173  1.00  0.00    -0.318 C  
HETATM   12  N   UNL     1      -9.451   7.851  73.032  1.00  0.00    -0.244 NA 
ENDBRANCH   7  10
BRANCH   9  13
HETATM   13  N   UNL     1     -10.951  12.200  68.026  1.00  0.00    -0.216 NA 
HETATM   14  C   UNL     1     -12.094  11.371  68.371  1.00  0.00    -0.048 C  
BRANCH  13  15
HETATM   15  C   UNL     1     -11.162  13.572  68.093  1.00  0.00    -0.272 A  
HETATM   16  N   UNL     1     -11.077  14.315  66.958  1.00  0.00    -0.304 NA 
HETATM   17  C   UNL     1     -11.190  15.659  67.043  1.00  0.00    -0.127 A  
HETATM   18  N   UNL     1     -11.396  16.410  68.135  1.00  0.00    -0.281 NA 
HETATM   19  C   UNL     1     -11.517  15.648  69.229  1.00  0.00    -0.362 A  
HETATM   20  C   UNL     1     -11.429  14.266  69.301  1.00  0.00    -0.330 A  
HETATM   21  C   UNL     1     -11.676  13.923  70.666  1.00  0.00    -0.194 A  
HETATM   22  C   UNL     1     -11.857  15.091  71.377  1.00  0.00    -0.358 A  
HETATM   23  N   UNL     1     -11.751  16.130  70.489  1.00  0.00    -0.470 NA 
HETATM   24  H   UNL     1     -11.835  17.118  70.731  1.00  0.00     0.000 HD 
ENDBRANCH  13  15
ENDBRANCH   9  13
TORSDOF 3
ENDMDL
MODEL      110
REMARK 921   NORMALIZED FREE ENERGY PREDICTED BY IDOCK:   -4.44 KCAL/MOL
REMARK 922        TOTAL FREE ENERGY PREDICTED BY IDOCK:   -5.53 KCAL/MOL
REMARK 923 INTER-LIGAND FREE ENERGY PREDICTED BY IDOCK:   -5.40 KCAL/MOL
REMARK 924 INTRA-LIGAND FREE ENERGY PREDICTED BY IDOCK:   -0.13 KCAL/MOL
REMARK 927      BINDING AFFINITY PREDICTED BY RF-SCORE:    0.00 PKD
ROOT
HETATM    1  C   UNL     1      -8.819   7.110  69.912  1.00  0.00    -0.142 C  
HETATM    2  C   UNL     1     -10.037   6.514  70.632  1.00  0.00    -0.212 C  
HETATM    3  C   UNL     1      -8.235   6.147  68.881  1.00  0.00    -0.112 C  
HETATM    4  C   UNL     1     -10.591   7.476  71.689  1.00  0.00    -0.205 C  
HETATM    5  N   UNL     1     -10.793   8.837  71.178  1.00  0.00    -0.249 N  
HETATM    6  C   UNL     1      -9.642   9.427  70.475  1.00  0.00    -0.271 C  
HETATM    7  C   UNL     1     -12.036   9.450  71.336  1.00  0.00    -0.371 C  
HETATM    8  O   UNL     1     -12.986   8.840  71.831  1.00  0.00    -0.331 OA 
HETATM    9  C   UNL     1      -9.114   8.519  69.337  1.00  0.00    -0.150 C  
ENDROOT
BRANCH   7  10
HETATM   10  C   UNL     1     -12.172  10.888  70.869  1.00  0.00    -0.485 C  
HETATM   11  C   UNL     1     -13.039  11.683  71.748  1.00  0.00    -0.382 C  
HETATM   12  N   UNL     1     -13.724  12.360  72.396  1.00  0.00    -0.290 NA 
ENDBRANCH   7  10
BRANCH   9  13
HETATM   13  N   UNL     1     -10.002   8.484  68.159  1.00  0.00    -0.174 NA 
HETATM   14  C   UNL     1     -10.986   7.450  67.887  1.00  0.00     0.005 C  
BRANCH  13  15
HETATM   15  C   UNL     1     -10.033   9.582  67.305  1.00  0.00    -0.189 A  
HETATM   16  N   UNL     1     -11.021  10.505  67.444  1.00  0.00    -0.301 NA 
HETATM   17  C   UNL     1     -11.101  11.519  66.554  1.00  0.00    -0.282 A  
HETATM   18  N   UNL     1     -10.304  11.771  65.506  1.00  0.00    -0.252 NA 
HETATM   19  C   UNL     1      -9.318  10.871  65.421  1.00  0.00    -0.208 A  
HETATM   20  C   UNL     1      -9.102   9.785  66.254  1.00  0.00    -0.192 A  
HETATM   21  C   UNL     1      -7.905   9.159  65.790  1.00  0.00    -0.098 A  
HETATM   22  C   UNL     1      -7.464   9.846  64.678  1.00  0.00    -0.140 A  
HETATM   23  N   UNL     1      -8.338  10.881  64.464  1.00  0.00    -0.374 NA 
HETATM   24  H   UNL     1      -8.269  11.558  63.705  1.00  0.00     0.000 HD 
ENDBRANCH  13  15
ENDBRANCH   9  13
TORSDOF 3
ENDMDL
MODEL      111
REMARK 921   NORMALIZED FREE ENERGY PREDICTED BY IDOCK:   -4.43 KCAL/MOL
REMARK 922        TOTAL FREE ENERGY PREDICTED BY IDOCK:   -5.53 KCAL/MOL
REMARK 923 INTER-LIGAND FREE ENERGY PREDICTED BY IDOCK:   -5.19 KCAL/MOL
REMARK 924 INTRA-LIGAND FREE ENERGY PREDICTED BY IDOCK:   -0.34 KCAL/MOL
REMARK 927      BINDING AFFINITY PREDICTED BY RF-SCORE:    0.00 PKD
ROOT
HETATM    1  C   UNL     1      -9.551   5.774  72.088  1.00  0.00    -0.167 C  
HETATM    2  C   UNL     1     -10.802   6.426  72.693  1.00  0.00    -0.270 C  
HETATM    3  C   UNL     1      -9.684   4.254  72.000  1.00  0.00    -0.227 C  
HETATM    4  C   UNL     1     -10.641   7.945  72.810  1.00  0.00    -0.353 C  
HETATM    5  N   UNL     1     -10.169   8.571  71.570  1.00  0.00    -0.226 N  
HETATM    6  C   UNL     1      -8.975   7.956  70.965  1.00  0.00    -0.142 C  
HETATM    7  C   UNL     1     -10.882   9.640  71.027  1.00  0.00    -0.342 C  
HETATM    8  O   UNL     1     -11.942  10.017  71.531  1.00  0.00    -0.377 OA 
HETATM    9  C   UNL     1      -9.140   6.432  70.747  1.00  0.00    -0.151 C  
ENDROOT
BRANCH   7  10
HETATM   10  C   UNL     1     -10.309  10.310  69.791  1.00  0.00    -0.287 C  
HETATM   11  C   UNL     1     -11.354  10.767  68.866  1.00  0.00    -0.284 C  
HETATM   12  N   UNL     1     -12.131  11.139  68.089  1.00  0.00    -0.610 NA 
ENDBRANCH   7  10
BRANCH   9  13
HETATM   13  N   UNL     1     -10.054   6.097  69.638  1.00  0.00    -0.170 NA 
HETATM   14  C   UNL     1     -11.497   6.276  69.663  1.00  0.00    -0.355 C  
BRANCH  13  15
HETATM   15  C   UNL     1      -9.517   5.723  68.411  1.00  0.00    -0.122 A  
HETATM   16  N   UNL     1      -9.125   6.685  67.535  1.00  0.00    -0.116 NA 
HETATM   17  C   UNL     1      -8.691   6.320  66.309  1.00  0.00    -0.142 A  
HETATM   18  N   UNL     1      -8.573   5.083  65.802  1.00  0.00    -0.127 NA 
HETATM   19  C   UNL     1      -8.926   4.158  66.702  1.00  0.00    -0.125 A  
HETATM   20  C   UNL     1      -9.384   4.375  67.992  1.00  0.00    -0.191 A  
HETATM   21  C   UNL     1      -9.577   3.082  68.568  1.00  0.00    -0.105 A  
HETATM   22  C   UNL     1      -9.280   2.135  67.610  1.00  0.00    -0.158 A  
HETATM   23  N   UNL     1      -8.891   2.806  66.479  1.00  0.00    -0.139 NA 
HETATM   24  H   UNL     1      -8.616   2.365  65.602  1.00  0.00     0.000 HD 
ENDBRANCH  13  15
ENDBRANCH   9  13
TORSDOF 3
ENDMDL
MODEL      112
REMARK 921   NORMALIZED FREE ENERGY PREDICTED BY IDOCK:   -4.43 KCAL/MOL
REMARK 922        TOTAL FREE ENERGY PREDICTED BY IDOCK:   -5.52 KCAL/MOL
REMARK 923 INTER-LIGAND FREE ENERGY PREDICTED BY IDOCK:   -6.40 KCAL/MOL
REMARK 924 INTRA-LIGAND FREE ENERGY PREDICTED BY IDOCK:    0.88 KCAL/MOL
REMARK 927      BINDING AFFINITY PREDICTED BY RF-SCORE:    0.00 PKD
ROOT
HETATM    1  C   UNL     1     -10.637  12.548  65.438  1.00  0.00    -0.310 C  
HETATM    2  C   UNL     1     -12.018  12.578  66.105  1.00  0.00    -0.432 C  
HETATM    3  C   UNL     1     -10.736  12.613  63.915  1.00  0.00    -0.465 C  
HETATM    4  C   UNL     1     -11.907  12.474  67.630  1.00  0.00    -0.317 C  
HETATM    5  N   UNL     1     -10.936  13.414  68.201  1.00  0.00    -0.246 N  
HETATM    6  C   UNL     1      -9.605  13.411  67.570  1.00  0.00    -0.221 C  
HETATM    7  C   UNL     1     -11.330  14.263  69.236  1.00  0.00    -0.283 C  
HETATM    8  O   UNL     1     -12.499  14.287  69.626  1.00  0.00    -0.308 OA 
HETATM    9  C   UNL     1      -9.676  13.607  66.036  1.00  0.00    -0.222 C  
ENDROOT
BRANCH   7  10
HETATM   10  C   UNL     1     -10.270  15.157  69.852  1.00  0.00    -0.178 C  
HETATM   11  C   UNL     1     -10.438  16.566  69.477  1.00  0.00    -0.298 C  
HETATM   12  N   UNL     1     -10.509  17.693  69.205  1.00  0.00    -0.186 NA 
ENDBRANCH   7  10
BRANCH   9  13
HETATM   13  N   UNL     1     -10.022  14.985  65.639  1.00  0.00    -0.340 NA 
HETATM   14  C   UNL     1     -11.283  15.389  65.039  1.00  0.00    -0.387 C  
BRANCH  13  15
HETATM   15  C   UNL     1      -9.165  16.023  65.989  1.00  0.00    -0.340 A  
HETATM   16  N   UNL     1      -7.882  15.738  66.335  1.00  0.00    -0.070 NA 
HETATM   17  C   UNL     1      -7.080  16.738  66.764  1.00  0.00    -0.235 A  
HETATM   18  N   UNL     1      -7.372  18.040  66.897  1.00  0.00    -0.197 NA 
HETATM   19  C   UNL     1      -8.627  18.295  66.510  1.00  0.00    -0.266 A  
HETATM   20  C   UNL     1      -9.562  17.383  66.046  1.00  0.00    -0.141 A  
HETATM   21  C   UNL     1     -10.727  18.142  65.714  1.00  0.00    -0.102 A  
HETATM   22  C   UNL     1     -10.482  19.463  66.026  1.00  0.00    -0.505 A  
HETATM   23  N   UNL     1      -9.203  19.538  66.514  1.00  0.00    -0.348 NA 
HETATM   24  H   UNL     1      -8.747  20.392  66.833  1.00  0.00     0.000 HD 
ENDBRANCH  13  15
ENDBRANCH   9  13
TORSDOF 3
ENDMDL
MODEL      113
REMARK 921   NORMALIZED FREE ENERGY PREDICTED BY IDOCK:   -4.42 KCAL/MOL
REMARK 922        TOTAL FREE ENERGY PREDICTED BY IDOCK:   -5.51 KCAL/MOL
REMARK 923 INTER-LIGAND FREE ENERGY PREDICTED BY IDOCK:   -5.16 KCAL/MOL
REMARK 924 INTRA-LIGAND FREE ENERGY PREDICTED BY IDOCK:   -0.34 KCAL/MOL
REMARK 927      BINDING AFFINITY PREDICTED BY RF-SCORE:    0.00 PKD
ROOT
HETATM    1  C   UNL     1      -7.693  10.069  67.321  1.00  0.00    -0.095 C  
HETATM    2  C   UNL     1      -7.963   8.563  67.217  1.00  0.00    -0.102 C  
HETATM    3  C   UNL     1      -7.822  10.769  65.969  1.00  0.00    -0.149 C  
HETATM    4  C   UNL     1      -7.795   7.867  68.572  1.00  0.00    -0.119 C  
HETATM    5  N   UNL     1      -8.517   8.541  69.658  1.00  0.00    -0.127 N  
HETATM    6  C   UNL     1      -8.282   9.990  69.772  1.00  0.00    -0.178 C  
HETATM    7  C   UNL     1      -9.393   7.806  70.457  1.00  0.00    -0.163 C  
HETATM    8  O   UNL     1      -9.627   6.619  70.218  1.00  0.00    -0.162 OA 
HETATM    9  C   UNL     1      -8.533  10.737  68.440  1.00  0.00    -0.137 C  
ENDROOT
BRANCH   7  10
HETATM   10  C   UNL     1     -10.052   8.525  71.620  1.00  0.00    -0.338 C  
HETATM   11  C   UNL     1     -11.518   8.489  71.543  1.00  0.00    -0.287 C  
HETATM   12  N   UNL     1     -12.679   8.508  71.532  1.00  0.00    -0.317 NA 
ENDBRANCH   7  10
BRANCH   9  13
HETATM   13  N   UNL     1      -9.964  10.849  68.094  1.00  0.00    -0.169 NA 
HETATM   14  C   UNL     1     -10.722   9.857  67.349  1.00  0.00    -0.260 C  
BRANCH  13  15
HETATM   15  C   UNL     1     -10.708  11.892  68.634  1.00  0.00    -0.235 A  
HETATM   16  N   UNL     1     -11.462  11.667  69.743  1.00  0.00    -0.282 NA 
HETATM   17  C   UNL     1     -12.255  12.657  70.209  1.00  0.00    -0.271 A  
HETATM   18  N   UNL     1     -12.411  13.897  69.723  1.00  0.00    -0.316 NA 
HETATM   19  C   UNL     1     -11.625  14.101  68.660  1.00  0.00    -0.317 A  
HETATM   20  C   UNL     1     -10.761  13.192  68.070  1.00  0.00    -0.248 A  
HETATM   21  C   UNL     1     -10.113  13.892  67.006  1.00  0.00    -0.256 A  
HETATM   22  C   UNL     1     -10.630  15.169  66.954  1.00  0.00    -0.297 A  
HETATM   23  N   UNL     1     -11.552  15.278  67.962  1.00  0.00    -0.339 NA 
HETATM   24  H   UNL     1     -12.104  16.112  68.165  1.00  0.00     0.000 HD 
ENDBRANCH  13  15
ENDBRANCH   9  13
TORSDOF 3
ENDMDL
MODEL      114
REMARK 921   NORMALIZED FREE ENERGY PREDICTED BY IDOCK:   -4.41 KCAL/MOL
REMARK 922        TOTAL FREE ENERGY PREDICTED BY IDOCK:   -5.50 KCAL/MOL
REMARK 923 INTER-LIGAND FREE ENERGY PREDICTED BY IDOCK:   -5.26 KCAL/MOL
REMARK 924 INTRA-LIGAND FREE ENERGY PREDICTED BY IDOCK:   -0.24 KCAL/MOL
REMARK 927      BINDING AFFINITY PREDICTED BY RF-SCORE:    0.00 PKD
ROOT
HETATM    1  C   UNL     1     -10.269  13.505  66.199  1.00  0.00    -0.303 C  
HETATM    2  C   UNL     1     -11.776  13.598  66.469  1.00  0.00    -0.414 C  
HETATM    3  C   UNL     1      -9.927  13.814  64.742  1.00  0.00    -0.129 C  
HETATM    4  C   UNL     1     -12.109  13.249  67.923  1.00  0.00    -0.228 C  
HETATM    5  N   UNL     1     -11.273  13.968  68.892  1.00  0.00    -0.259 N  
HETATM    6  C   UNL     1      -9.822  13.902  68.649  1.00  0.00    -0.175 C  
HETATM    7  C   UNL     1     -11.881  14.689  69.920  1.00  0.00    -0.319 C  
HETATM    8  O   UNL     1     -13.108  14.794  69.982  1.00  0.00    -0.079 OA 
HETATM    9  C   UNL     1      -9.442  14.337  67.212  1.00  0.00    -0.220 C  
ENDROOT
BRANCH   7  10
HETATM   10  C   UNL     1     -10.976  15.345  70.947  1.00  0.00    -0.330 C  
HETATM   11  C   UNL     1     -11.697  15.729  72.166  1.00  0.00    -0.475 C  
HETATM   12  N   UNL     1     -12.214  16.068  73.149  1.00  0.00    -0.489 NA 
ENDBRANCH   7  10
BRANCH   9  13
HETATM   13  N   UNL     1      -9.560  15.792  66.993  1.00  0.00    -0.223 NA 
HETATM   14  C   UNL     1     -10.810  16.534  66.977  1.00  0.00    -0.113 C  
BRANCH  13  15
HETATM   15  C   UNL     1      -8.404  16.562  66.946  1.00  0.00    -0.212 A  
HETATM   16  N   UNL     1      -8.030  17.131  65.769  1.00  0.00    -0.399 NA 
HETATM   17  C   UNL     1      -6.858  17.801  65.707  1.00  0.00    -0.176 A  
HETATM   18  N   UNL     1      -5.965  18.009  66.686  1.00  0.00    -0.150 NA 
HETATM   19  C   UNL     1      -6.381  17.474  67.840  1.00  0.00    -0.165 A  
HETATM   20  C   UNL     1      -7.552  16.767  68.062  1.00  0.00    -0.173 A  
HETATM   21  C   UNL     1      -7.568  16.451  69.455  1.00  0.00    -0.098 A  
HETATM   22  C   UNL     1      -6.402  16.927  70.017  1.00  0.00     0.044 A  
HETATM   23  N   UNL     1      -5.689  17.542  69.021  1.00  0.00    -0.178 NA 
HETATM   24  H   UNL     1      -4.778  17.985  69.140  1.00  0.00     0.000 HD 
ENDBRANCH  13  15
ENDBRANCH   9  13
TORSDOF 3
ENDMDL
MODEL      115
REMARK 921   NORMALIZED FREE ENERGY PREDICTED BY IDOCK:   -4.41 KCAL/MOL
REMARK 922        TOTAL FREE ENERGY PREDICTED BY IDOCK:   -5.50 KCAL/MOL
REMARK 923 INTER-LIGAND FREE ENERGY PREDICTED BY IDOCK:   -5.88 KCAL/MOL
REMARK 924 INTRA-LIGAND FREE ENERGY PREDICTED BY IDOCK:    0.37 KCAL/MOL
REMARK 927      BINDING AFFINITY PREDICTED BY RF-SCORE:    0.00 PKD
ROOT
HETATM    1  C   UNL     1      -7.860  14.693  68.271  1.00  0.00    -0.128 C  
HETATM    2  C   UNL     1      -7.933  15.589  69.515  1.00  0.00    -0.192 C  
HETATM    3  C   UNL     1      -7.776  13.212  68.636  1.00  0.00    -0.073 C  
HETATM    4  C   UNL     1      -7.979  17.073  69.136  1.00  0.00    -0.066 C  
HETATM    5  N   UNL     1      -8.986  17.373  68.111  1.00  0.00    -0.253 N  
HETATM    6  C   UNL     1      -8.943  16.520  66.912  1.00  0.00    -0.219 C  
HETATM    7  C   UNL     1      -9.924  18.378  68.346  1.00  0.00    -0.379 C  
HETATM    8  O   UNL     1      -9.968  18.965  69.430  1.00  0.00    -0.227 OA 
HETATM    9  C   UNL     1      -8.987  15.011  67.256  1.00  0.00    -0.199 C  
ENDROOT
BRANCH   7  10
HETATM   10  C   UNL     1     -10.891  18.711  67.224  1.00  0.00    -0.369 C  
HETATM   11  C   UNL     1     -10.351  19.713  66.298  1.00  0.00    -0.518 C  
HETATM   12  N   UNL     1      -9.986  20.512  65.539  1.00  0.00     0.110 NA 
ENDBRANCH   7  10
BRANCH   9  13
HETATM   13  N   UNL     1     -10.315  14.555  67.711  1.00  0.00    -0.236 NA 
HETATM   14  C   UNL     1     -11.373  15.425  68.200  1.00  0.00    -0.348 C  
BRANCH  13  15
HETATM   15  C   UNL     1     -10.669  13.223  67.531  1.00  0.00    -0.250 A  
HETATM   16  N   UNL     1     -10.438  12.629  66.330  1.00  0.00    -0.248 NA 
HETATM   17  C   UNL     1     -10.868  11.364  66.130  1.00  0.00    -0.255 A  
HETATM   18  N   UNL     1     -11.512  10.558  66.986  1.00  0.00    -0.155 NA 
HETATM   19  C   UNL     1     -11.686  11.155  68.172  1.00  0.00    -0.232 A  
HETATM   20  C   UNL     1     -11.301  12.437  68.528  1.00  0.00    -0.336 A  
HETATM   21  C   UNL     1     -11.659  12.592  69.903  1.00  0.00    -0.242 A  
HETATM   22  C   UNL     1     -12.283  11.434  70.318  1.00  0.00    -0.349 A  
HETATM   23  N   UNL     1     -12.296  10.572  69.251  1.00  0.00    -0.711 NA 
HETATM   24  H   UNL     1     -12.700   9.636  69.260  1.00  0.00     0.000 HD 
ENDBRANCH  13  15
ENDBRANCH   9  13
TORSDOF 3
ENDMDL
MODEL      116
REMARK 921   NORMALIZED FREE ENERGY PREDICTED BY IDOCK:   -4.40 KCAL/MOL
REMARK 922        TOTAL FREE ENERGY PREDICTED BY IDOCK:   -5.49 KCAL/MOL
REMARK 923 INTER-LIGAND FREE ENERGY PREDICTED BY IDOCK:   -5.77 KCAL/MOL
REMARK 924 INTRA-LIGAND FREE ENERGY PREDICTED BY IDOCK:    0.28 KCAL/MOL
REMARK 927      BINDING AFFINITY PREDICTED BY RF-SCORE:    0.00 PKD
ROOT
HETATM    1  C   UNL     1     -11.212  13.779  68.631  1.00  0.00    -0.308 C  
HETATM    2  C   UNL     1     -11.662  15.218  68.914  1.00  0.00    -0.362 C  
HETATM    3  C   UNL     1     -12.267  12.989  67.858  1.00  0.00    -0.072 C  
HETATM    4  C   UNL     1     -10.611  15.987  69.721  1.00  0.00    -0.323 C  
HETATM    5  N   UNL     1      -9.259  15.872  69.161  1.00  0.00    -0.240 N  
HETATM    6  C   UNL     1      -8.808  14.501  68.872  1.00  0.00    -0.103 C  
HETATM    7  C   UNL     1      -8.527  17.030  68.896  1.00  0.00    -0.193 C  
HETATM    8  O   UNL     1      -9.025  18.146  69.054  1.00  0.00    -0.177 OA 
HETATM    9  C   UNL     1      -9.806  13.724  67.979  1.00  0.00    -0.239 C  
ENDROOT
BRANCH   7  10
HETATM   10  C   UNL     1      -7.103  16.860  68.398  1.00  0.00    -0.187 C  
HETATM   11  C   UNL     1      -6.125  16.837  69.493  1.00  0.00    -0.218 C  
HETATM   12  N   UNL     1      -5.303  16.826  70.313  1.00  0.00    -0.196 NA 
ENDBRANCH   7  10
BRANCH   9  13
HETATM   13  N   UNL     1      -9.807  14.177  66.574  1.00  0.00    -0.280 NA 
HETATM   14  C   UNL     1      -9.385  15.492  66.122  1.00  0.00    -0.345 C  
BRANCH  13  15
HETATM   15  C   UNL     1     -10.080  13.255  65.570  1.00  0.00    -0.263 A  
HETATM   16  N   UNL     1     -10.955  13.586  64.583  1.00  0.00    -0.366 NA 
HETATM   17  C   UNL     1     -11.288  12.654  63.662  1.00  0.00    -0.481 A  
HETATM   18  N   UNL     1     -10.855  11.389  63.563  1.00  0.00    -0.390 NA 
HETATM   19  C   UNL     1      -9.965  11.108  64.522  1.00  0.00    -0.296 A  
HETATM   20  C   UNL     1      -9.522  11.952  65.528  1.00  0.00    -0.152 A  
HETATM   21  C   UNL     1      -8.544  11.215  66.264  1.00  0.00    -0.180 A  
HETATM   22  C   UNL     1      -8.460   9.950  65.720  1.00  0.00    -0.135 A  
HETATM   23  N   UNL     1      -9.334   9.900  64.665  1.00  0.00    -0.267 NA 
HETATM   24  H   UNL     1      -9.492   9.084  64.073  1.00  0.00     0.000 HD 
ENDBRANCH  13  15
ENDBRANCH   9  13
TORSDOF 3
ENDMDL
MODEL      117
REMARK 921   NORMALIZED FREE ENERGY PREDICTED BY IDOCK:   -4.40 KCAL/MOL
REMARK 922        TOTAL FREE ENERGY PREDICTED BY IDOCK:   -5.48 KCAL/MOL
REMARK 923 INTER-LIGAND FREE ENERGY PREDICTED BY IDOCK:   -5.15 KCAL/MOL
REMARK 924 INTRA-LIGAND FREE ENERGY PREDICTED BY IDOCK:   -0.33 KCAL/MOL
REMARK 927      BINDING AFFINITY PREDICTED BY RF-SCORE:    0.00 PKD
ROOT
HETATM    1  C   UNL     1     -10.911   6.225  67.354  1.00  0.00    -0.448 C  
HETATM    2  C   UNL     1     -10.087   7.470  66.999  1.00  0.00    -0.332 C  
HETATM    3  C   UNL     1     -10.510   5.014  66.514  1.00  0.00    -0.325 C  
HETATM    4  C   UNL     1     -10.523   8.686  67.822  1.00  0.00    -0.224 C  
HETATM    5  N   UNL     1     -10.611   8.405  69.260  1.00  0.00    -0.212 N  
HETATM    6  C   UNL     1     -11.389   7.210  69.626  1.00  0.00    -0.072 C  
HETATM    7  C   UNL     1      -9.934   9.227  70.161  1.00  0.00    -0.215 C  
HETATM    8  O   UNL     1      -9.204  10.138  69.765  1.00  0.00    -0.208 OA 
HETATM    9  C   UNL     1     -10.911   5.941  68.878  1.00  0.00    -0.303 C  
ENDROOT
BRANCH   7  10
HETATM   10  C   UNL     1     -10.123   8.950  71.642  1.00  0.00    -0.411 C  
HETATM   11  C   UNL     1      -8.860   8.630  72.318  1.00  0.00    -0.148 C  
HETATM   12  N   UNL     1      -7.897   8.357  72.906  1.00  0.00    -0.319 NA 
ENDBRANCH   7  10
BRANCH   9  13
HETATM   13  N   UNL     1      -9.616   5.428  69.367  1.00  0.00    -0.138 NA 
HETATM   14  C   UNL     1      -8.333   6.084  69.175  1.00  0.00    -0.114 C  
BRANCH  13  15
HETATM   15  C   UNL     1      -9.604   4.320  70.206  1.00  0.00    -0.199 A  
HETATM   16  N   UNL     1      -9.117   3.138  69.742  1.00  0.00    -0.116 NA 
HETATM   17  C   UNL     1      -9.193   2.042  70.529  1.00  0.00    -0.109 A  
HETATM   18  N   UNL     1      -9.694   1.941  71.768  1.00  0.00    -0.127 NA 
HETATM   19  C   UNL     1     -10.127   3.126  72.213  1.00  0.00    -0.146 A  
HETATM   20  C   UNL     1     -10.113   4.332  71.530  1.00  0.00    -0.205 A  
HETATM   21  C   UNL     1     -10.630   5.308  72.437  1.00  0.00    -0.280 A  
HETATM   22  C   UNL     1     -10.980   4.666  73.606  1.00  0.00    -0.316 A  
HETATM   23  N   UNL     1     -10.673   3.339  73.451  1.00  0.00    -0.187 NA 
HETATM   24  H   UNL     1     -10.828   2.616  74.154  1.00  0.00     0.000 HD 
ENDBRANCH  13  15
ENDBRANCH   9  13
TORSDOF 3
ENDMDL
MODEL      118
REMARK 921   NORMALIZED FREE ENERGY PREDICTED BY IDOCK:   -4.40 KCAL/MOL
REMARK 922        TOTAL FREE ENERGY PREDICTED BY IDOCK:   -5.48 KCAL/MOL
REMARK 923 INTER-LIGAND FREE ENERGY PREDICTED BY IDOCK:   -5.01 KCAL/MOL
REMARK 924 INTRA-LIGAND FREE ENERGY PREDICTED BY IDOCK:   -0.47 KCAL/MOL
REMARK 927      BINDING AFFINITY PREDICTED BY RF-SCORE:    0.00 PKD
ROOT
HETATM    1  C   UNL     1      -7.285   8.298  72.229  1.00  0.00    -0.121 C  
HETATM    2  C   UNL     1      -6.663   6.935  71.899  1.00  0.00    -0.057 C  
HETATM    3  C   UNL     1      -7.174   9.278  71.062  1.00  0.00    -0.089 C  
HETATM    4  C   UNL     1      -6.748   5.975  73.090  1.00  0.00    -0.074 C  
HETATM    5  N   UNL     1      -8.092   5.904  73.675  1.00  0.00    -0.110 N  
HETATM    6  C   UNL     1      -8.715   7.200  73.992  1.00  0.00    -0.186 C  
HETATM    7  C   UNL     1      -8.701   4.660  73.843  1.00  0.00    -0.105 C  
HETATM    8  O   UNL     1      -8.160   3.629  73.438  1.00  0.00    -0.077 OA 
HETATM    9  C   UNL     1      -8.728   8.163  72.780  1.00  0.00    -0.217 C  
ENDROOT
BRANCH   7  10
HETATM   10  C   UNL     1     -10.054   4.629  74.530  1.00  0.00    -0.266 C  
HETATM   11  C   UNL     1     -11.169   4.721  73.579  1.00  0.00    -0.311 C  
HETATM   12  N   UNL     1     -12.091   4.804  72.879  1.00  0.00     0.077 NA 
ENDBRANCH   7  10
BRANCH   9  13
HETATM   13  N   UNL     1      -9.706   7.782  71.743  1.00  0.00    -0.160 NA 
HETATM   14  C   UNL     1      -9.587   6.626  70.869  1.00  0.00    -0.175 C  
BRANCH  13  15
HETATM   15  C   UNL     1     -10.913   8.468  71.670  1.00  0.00    -0.292 A  
HETATM   16  N   UNL     1     -11.858   8.256  72.623  1.00  0.00    -0.381 NA 
HETATM   17  C   UNL     1     -13.064   8.853  72.497  1.00  0.00    -0.364 A  
HETATM   18  N   UNL     1     -13.487   9.676  71.527  1.00  0.00    -0.371 NA 
HETATM   19  C   UNL     1     -12.522   9.899  70.628  1.00  0.00    -0.187 A  
HETATM   20  C   UNL     1     -11.242   9.366  70.623  1.00  0.00    -0.345 A  
HETATM   21  C   UNL     1     -10.577   9.940  69.496  1.00  0.00    -0.264 A  
HETATM   22  C   UNL     1     -11.474  10.754  68.835  1.00  0.00    -0.293 A  
HETATM   23  N   UNL     1     -12.653  10.713  69.534  1.00  0.00    -0.643 NA 
HETATM   24  H   UNL     1     -13.503  11.215  69.277  1.00  0.00     0.000 HD 
ENDBRANCH  13  15
ENDBRANCH   9  13
TORSDOF 3
ENDMDL
MODEL      119
REMARK 921   NORMALIZED FREE ENERGY PREDICTED BY IDOCK:   -4.40 KCAL/MOL
REMARK 922        TOTAL FREE ENERGY PREDICTED BY IDOCK:   -5.48 KCAL/MOL
REMARK 923 INTER-LIGAND FREE ENERGY PREDICTED BY IDOCK:   -5.23 KCAL/MOL
REMARK 924 INTRA-LIGAND FREE ENERGY PREDICTED BY IDOCK:   -0.25 KCAL/MOL
REMARK 927      BINDING AFFINITY PREDICTED BY RF-SCORE:    0.00 PKD
ROOT
HETATM    1  C   UNL     1     -10.498   8.311  72.161  1.00  0.00    -0.371 C  
HETATM    2  C   UNL     1     -11.625   9.312  71.871  1.00  0.00    -0.405 C  
HETATM    3  C   UNL     1     -10.896   7.295  73.230  1.00  0.00    -0.404 C  
HETATM    4  C   UNL     1     -11.200  10.347  70.824  1.00  0.00    -0.212 C  
HETATM    5  N   UNL     1     -10.602   9.742  69.628  1.00  0.00    -0.224 N  
HETATM    6  C   UNL     1      -9.525   8.770  69.880  1.00  0.00    -0.169 C  
HETATM    7  C   UNL     1     -11.105  10.072  68.369  1.00  0.00    -0.182 C  
HETATM    8  O   UNL     1     -12.090  10.804  68.251  1.00  0.00    -0.496 OA 
HETATM    9  C   UNL     1      -9.953   7.655  70.866  1.00  0.00    -0.180 C  
ENDROOT
BRANCH   7  10
HETATM   10  C   UNL     1     -10.400   9.489  67.158  1.00  0.00    -0.320 C  
HETATM   11  C   UNL     1      -9.929  10.526  66.230  1.00  0.00    -0.221 C  
HETATM   12  N   UNL     1      -9.546  11.296  65.451  1.00  0.00    -0.223 NA 
ENDBRANCH   7  10
BRANCH   9  13
HETATM   13  N   UNL     1     -10.892   6.682  70.275  1.00  0.00    -0.251 NA 
HETATM   14  C   UNL     1     -12.302   6.931  70.023  1.00  0.00     0.334 C  
BRANCH  13  15
HETATM   15  C   UNL     1     -10.394   5.486  69.770  1.00  0.00    -0.296 A  
HETATM   16  N   UNL     1     -10.015   4.506  70.632  1.00  0.00    -0.218 NA 
HETATM   17  C   UNL     1      -9.446   3.383  70.141  1.00  0.00    -0.173 A  
HETATM   18  N   UNL     1      -9.193   3.069  68.862  1.00  0.00    -0.151 NA 
HETATM   19  C   UNL     1      -9.615   4.034  68.036  1.00  0.00    -0.136 A  
HETATM   20  C   UNL     1     -10.217   5.232  68.386  1.00  0.00    -0.206 A  
HETATM   21  C   UNL     1     -10.526   5.895  67.158  1.00  0.00    -0.335 A  
HETATM   22  C   UNL     1     -10.067   5.112  66.120  1.00  0.00    -0.207 A  
HETATM   23  N   UNL     1      -9.511   3.987  66.671  1.00  0.00    -0.185 NA 
HETATM   24  H   UNL     1      -9.082   3.226  66.143  1.00  0.00     0.000 HD 
ENDBRANCH  13  15
ENDBRANCH   9  13
TORSDOF 3
ENDMDL
MODEL      120
REMARK 921   NORMALIZED FREE ENERGY PREDICTED BY IDOCK:   -4.37 KCAL/MOL
REMARK 922        TOTAL FREE ENERGY PREDICTED BY IDOCK:   -5.45 KCAL/MOL
REMARK 923 INTER-LIGAND FREE ENERGY PREDICTED BY IDOCK:   -5.77 KCAL/MOL
REMARK 924 INTRA-LIGAND FREE ENERGY PREDICTED BY IDOCK:    0.32 KCAL/MOL
REMARK 927      BINDING AFFINITY PREDICTED BY RF-SCORE:    0.00 PKD
ROOT
HETATM    1  C   UNL     1     -10.812  12.451  64.979  1.00  0.00    -0.331 C  
HETATM    2  C   UNL     1     -10.404  13.926  65.089  1.00  0.00    -0.403 C  
HETATM    3  C   UNL     1      -9.876  11.665  64.062  1.00  0.00    -0.283 C  
HETATM    4  C   UNL     1     -11.372  14.711  65.981  1.00  0.00    -0.344 C  
HETATM    5  N   UNL     1     -11.630  14.053  67.268  1.00  0.00    -0.348 N  
HETATM    6  C   UNL     1     -12.014  12.634  67.188  1.00  0.00    -0.256 C  
HETATM    7  C   UNL     1     -11.452  14.770  68.451  1.00  0.00    -0.314 C  
HETATM    8  O   UNL     1     -11.011  15.921  68.436  1.00  0.00    -0.297 OA 
HETATM    9  C   UNL     1     -11.004  11.792  66.369  1.00  0.00    -0.294 C  
ENDROOT
BRANCH   7  10
HETATM   10  C   UNL     1     -11.813  14.076  69.752  1.00  0.00    -0.385 C  
HETATM   11  C   UNL     1     -12.951  14.710  70.429  1.00  0.00    -0.200 C  
HETATM   12  N   UNL     1     -13.836  15.174  71.019  1.00  0.00    -0.397 NA 
ENDBRANCH   7  10
BRANCH   9  13
HETATM   13  N   UNL     1      -9.730  11.559  67.075  1.00  0.00    -0.183 NA 
HETATM   14  C   UNL     1      -9.241  12.347  68.195  1.00  0.00    -0.205 C  
BRANCH  13  15
HETATM   15  C   UNL     1      -8.991  10.421  66.774  1.00  0.00    -0.140 A  
HETATM   16  N   UNL     1      -7.715  10.554  66.324  1.00  0.00    -0.130 NA 
HETATM   17  C   UNL     1      -7.034   9.451  65.944  1.00  0.00    -0.090 A  
HETATM   18  N   UNL     1      -7.444   8.174  65.955  1.00  0.00    -0.079 NA 
HETATM   19  C   UNL     1      -8.686   8.071  66.442  1.00  0.00    -0.151 A  
HETATM   20  C   UNL     1      -9.506   9.102  66.873  1.00  0.00    -0.222 A  
HETATM   21  C   UNL     1     -10.705   8.486  67.347  1.00  0.00    -0.215 A  
HETATM   22  C   UNL     1     -10.596   7.126  67.149  1.00  0.00    -0.347 A  
HETATM   23  N   UNL     1      -9.365   6.891  66.593  1.00  0.00    -0.159 NA 
HETATM   24  H   UNL     1      -9.007   5.973  66.329  1.00  0.00     0.000 HD 
ENDBRANCH  13  15
ENDBRANCH   9  13
TORSDOF 3
ENDMDL
MODEL      121
REMARK 921   NORMALIZED FREE ENERGY PREDICTED BY IDOCK:   -4.35 KCAL/MOL
REMARK 922        TOTAL FREE ENERGY PREDICTED BY IDOCK:   -5.43 KCAL/MOL
REMARK 923 INTER-LIGAND FREE ENERGY PREDICTED BY IDOCK:   -5.18 KCAL/MOL
REMARK 924 INTRA-LIGAND FREE ENERGY PREDICTED BY IDOCK:   -0.25 KCAL/MOL
REMARK 927      BINDING AFFINITY PREDICTED BY RF-SCORE:    0.00 PKD
ROOT
HETATM    1  C   UNL     1      -8.229  11.252  67.971  1.00  0.00    -0.134 C  
HETATM    2  C   UNL     1      -8.254  10.967  66.463  1.00  0.00    -0.157 C  
HETATM    3  C   UNL     1      -8.929  12.565  68.317  1.00  0.00    -0.178 C  
HETATM    4  C   UNL     1      -7.517   9.667  66.125  1.00  0.00    -0.098 C  
HETATM    5  N   UNL     1      -7.932   8.536  66.965  1.00  0.00    -0.099 N  
HETATM    6  C   UNL     1      -7.926   8.789  68.415  1.00  0.00    -0.109 C  
HETATM    7  C   UNL     1      -8.343   7.349  66.360  1.00  0.00    -0.127 C  
HETATM    8  O   UNL     1      -8.435   7.259  65.133  1.00  0.00    -0.115 OA 
HETATM    9  C   UNL     1      -8.741  10.047  68.801  1.00  0.00    -0.136 C  
ENDROOT
BRANCH   7  10
HETATM   10  C   UNL     1      -8.681   6.180  67.267  1.00  0.00    -0.108 C  
HETATM   11  C   UNL     1      -9.783   5.363  66.743  1.00  0.00    -0.157 C  
HETATM   12  N   UNL     1     -10.658   4.687  66.389  1.00  0.00    -0.184 NA 
ENDBRANCH   7  10
BRANCH   9  13
HETATM   13  N   UNL     1     -10.200   9.854  68.693  1.00  0.00    -0.170 NA 
HETATM   14  C   UNL     1     -10.956   9.887  67.451  1.00  0.00    -0.145 C  
BRANCH  13  15
HETATM   15  C   UNL     1     -10.913   9.459  69.819  1.00  0.00    -0.215 A  
HETATM   16  N   UNL     1     -10.842   8.165  70.232  1.00  0.00    -0.243 NA 
HETATM   17  C   UNL     1     -11.609   7.765  71.270  1.00  0.00    -0.277 A  
HETATM   18  N   UNL     1     -12.466   8.492  72.001  1.00  0.00    -0.340 NA 
HETATM   19  C   UNL     1     -12.482   9.768  71.599  1.00  0.00    -0.410 A  
HETATM   20  C   UNL     1     -11.755  10.328  70.560  1.00  0.00    -0.418 A  
HETATM   21  C   UNL     1     -12.073  11.720  70.556  1.00  0.00    -0.439 A  
HETATM   22  C   UNL     1     -13.004  11.951  71.547  1.00  0.00    -0.323 A  
HETATM   23  N   UNL     1     -13.245  10.753  72.168  1.00  0.00    -0.591 NA 
HETATM   24  H   UNL     1     -13.898  10.613  72.940  1.00  0.00     0.000 HD 
ENDBRANCH  13  15
ENDBRANCH   9  13
TORSDOF 3
ENDMDL
MODEL      122
REMARK 921   NORMALIZED FREE ENERGY PREDICTED BY IDOCK:   -4.31 KCAL/MOL
REMARK 922        TOTAL FREE ENERGY PREDICTED BY IDOCK:   -5.38 KCAL/MOL
REMARK 923 INTER-LIGAND FREE ENERGY PREDICTED BY IDOCK:   -4.88 KCAL/MOL
REMARK 924 INTRA-LIGAND FREE ENERGY PREDICTED BY IDOCK:   -0.50 KCAL/MOL
REMARK 927      BINDING AFFINITY PREDICTED BY RF-SCORE:    0.00 PKD
ROOT
HETATM    1  C   UNL     1     -10.197  11.062  68.945  1.00  0.00    -0.218 C  
HETATM    2  C   UNL     1     -11.686  11.116  68.578  1.00  0.00    -0.368 C  
HETATM    3  C   UNL     1      -9.865   9.851  69.814  1.00  0.00    -0.268 C  
HETATM    4  C   UNL     1     -12.013  12.355  67.738  1.00  0.00    -0.186 C  
HETATM    5  N   UNL     1     -11.101  12.536  66.602  1.00  0.00    -0.270 N  
HETATM    6  C   UNL     1      -9.666  12.478  66.927  1.00  0.00    -0.232 C  
HETATM    7  C   UNL     1     -11.627  12.694  65.320  1.00  0.00    -0.351 C  
HETATM    8  O   UNL     1     -12.840  12.609  65.116  1.00  0.00    -0.721 OA 
HETATM    9  C   UNL     1      -9.284  11.191  67.698  1.00  0.00    -0.151 C  
ENDROOT
BRANCH   7  10
HETATM   10  C   UNL     1     -10.650  12.963  64.190  1.00  0.00    -0.442 C  
HETATM   11  C   UNL     1     -10.266  11.739  63.477  1.00  0.00    -0.450 C  
HETATM   12  N   UNL     1      -9.913  10.806  62.883  1.00  0.00    -0.263 NA 
ENDBRANCH   7  10
BRANCH   9  13
HETATM   13  N   UNL     1      -9.292   9.981  66.854  1.00  0.00    -0.156 NA 
HETATM   14  C   UNL     1     -10.486   9.319  66.354  1.00  0.00    -0.087 C  
BRANCH  13  15
HETATM   15  C   UNL     1      -8.086   9.500  66.355  1.00  0.00    -0.111 A  
HETATM   16  N   UNL     1      -7.503  10.131  65.301  1.00  0.00    -0.141 NA 
HETATM   17  C   UNL     1      -6.381   9.606  64.761  1.00  0.00    -0.089 A  
HETATM   18  N   UNL     1      -5.714   8.504  65.134  1.00  0.00    -0.047 NA 
HETATM   19  C   UNL     1      -6.288   7.930  66.198  1.00  0.00    -0.046 A  
HETATM   20  C   UNL     1      -7.431   8.349  66.862  1.00  0.00    -0.087 A  
HETATM   21  C   UNL     1      -7.610   7.446  67.954  1.00  0.00    -0.114 A  
HETATM   22  C   UNL     1      -6.613   6.494  67.893  1.00  0.00    -0.065 A  
HETATM   23  N   UNL     1      -5.822   6.800  66.817  1.00  0.00    -0.021 NA 
HETATM   24  H   UNL     1      -5.006   6.266  66.519  1.00  0.00     0.000 HD 
ENDBRANCH  13  15
ENDBRANCH   9  13
TORSDOF 3
ENDMDL
MODEL      123
REMARK 921   NORMALIZED FREE ENERGY PREDICTED BY IDOCK:   -4.30 KCAL/MOL
REMARK 922        TOTAL FREE ENERGY PREDICTED BY IDOCK:   -5.37 KCAL/MOL
REMARK 923 INTER-LIGAND FREE ENERGY PREDICTED BY IDOCK:   -5.50 KCAL/MOL
REMARK 924 INTRA-LIGAND FREE ENERGY PREDICTED BY IDOCK:    0.14 KCAL/MOL
REMARK 927      BINDING AFFINITY PREDICTED BY RF-SCORE:    0.00 PKD
ROOT
HETATM    1  C   UNL     1      -7.313  11.462  67.929  1.00  0.00    -0.093 C  
HETATM    2  C   UNL     1      -6.615  10.273  67.255  1.00  0.00    -0.068 C  
HETATM    3  C   UNL     1      -6.866  12.799  67.339  1.00  0.00    -0.137 C  
HETATM    4  C   UNL     1      -7.044   8.942  67.881  1.00  0.00    -0.079 C  
HETATM    5  N   UNL     1      -8.501   8.805  67.999  1.00  0.00    -0.125 N  
HETATM    6  C   UNL     1      -9.194   9.938  68.633  1.00  0.00    -0.139 C  
HETATM    7  C   UNL     1      -9.127   7.674  67.474  1.00  0.00    -0.125 C  
HETATM    8  O   UNL     1      -8.486   6.826  66.849  1.00  0.00    -0.112 OA 
HETATM    9  C   UNL     1      -8.853  11.292  67.964  1.00  0.00    -0.148 C  
ENDROOT
BRANCH   7  10
HETATM   10  C   UNL     1     -10.622   7.535  67.694  1.00  0.00    -0.303 C  
HETATM   11  C   UNL     1     -10.943   6.699  68.858  1.00  0.00    -0.267 C  
HETATM   12  N   UNL     1     -11.260   6.036  69.756  1.00  0.00    -0.411 NA 
ENDBRANCH   7  10
BRANCH   9  13
HETATM   13  N   UNL     1      -9.480  11.462  66.638  1.00  0.00    -0.185 NA 
HETATM   14  C   UNL     1      -9.545  10.437  65.609  1.00  0.00    -0.226 C  
BRANCH  13  15
HETATM   15  C   UNL     1     -10.203  12.620  66.378  1.00  0.00    -0.251 A  
HETATM   16  N   UNL     1     -10.179  13.154  65.128  1.00  0.00    -0.301 NA 
HETATM   17  C   UNL     1     -10.806  14.330  64.903  1.00  0.00    -0.416 A  
HETATM   18  N   UNL     1     -11.495  15.085  65.772  1.00  0.00    -0.289 NA 
HETATM   19  C   UNL     1     -11.536  14.513  66.981  1.00  0.00    -0.386 A  
HETATM   20  C   UNL     1     -10.950  13.317  67.363  1.00  0.00    -0.287 A  
HETATM   21  C   UNL     1     -11.318  13.111  68.728  1.00  0.00    -0.333 A  
HETATM   22  C   UNL     1     -12.065  14.195  69.140  1.00  0.00    -0.325 A  
HETATM   23  N   UNL     1     -12.184  15.040  68.067  1.00  0.00    -0.498 NA 
HETATM   24  H   UNL     1     -12.681  15.931  68.075  1.00  0.00     0.000 HD 
ENDBRANCH  13  15
ENDBRANCH   9  13
TORSDOF 3
ENDMDL
MODEL      124
REMARK 921   NORMALIZED FREE ENERGY PREDICTED BY IDOCK:   -4.29 KCAL/MOL
REMARK 922        TOTAL FREE ENERGY PREDICTED BY IDOCK:   -5.36 KCAL/MOL
REMARK 923 INTER-LIGAND FREE ENERGY PREDICTED BY IDOCK:   -5.39 KCAL/MOL
REMARK 924 INTRA-LIGAND FREE ENERGY PREDICTED BY IDOCK:    0.03 KCAL/MOL
REMARK 927      BINDING AFFINITY PREDICTED BY RF-SCORE:    0.00 PKD
ROOT
HETATM    1  C   UNL     1     -10.654  15.707  66.629  1.00  0.00    -0.307 C  
HETATM    2  C   UNL     1      -9.377  15.711  65.779  1.00  0.00    -0.303 C  
HETATM    3  C   UNL     1     -11.661  14.665  66.144  1.00  0.00    -0.316 C  
HETATM    4  C   UNL     1      -8.391  16.785  66.253  1.00  0.00    -0.318 C  
HETATM    5  N   UNL     1      -8.158  16.752  67.702  1.00  0.00    -0.174 N  
HETATM    6  C   UNL     1      -9.369  16.737  68.538  1.00  0.00    -0.246 C  
HETATM    7  C   UNL     1      -6.850  16.686  68.183  1.00  0.00    -0.144 C  
HETATM    8  O   UNL     1      -5.894  16.580  67.411  1.00  0.00    -0.133 OA 
HETATM    9  C   UNL     1     -10.347  15.603  68.145  1.00  0.00    -0.246 C  
ENDROOT
BRANCH   7  10
HETATM   10  C   UNL     1      -6.653  16.741  69.687  1.00  0.00    -0.148 C  
HETATM   11  C   UNL     1      -6.000  17.981  70.122  1.00  0.00    -0.117 C  
HETATM   12  N   UNL     1      -5.474  18.933  70.528  1.00  0.00    -0.225 NA 
ENDBRANCH   7  10
BRANCH   9  13
HETATM   13  N   UNL     1      -9.877  14.262  68.545  1.00  0.00    -0.228 NA 
HETATM   14  C   UNL     1      -8.483  13.852  68.609  1.00  0.00    -0.082 C  
BRANCH  13  15
HETATM   15  C   UNL     1     -10.795  13.349  69.050  1.00  0.00    -0.183 A  
HETATM   16  N   UNL     1     -11.563  13.696  70.117  1.00  0.00    -0.195 NA 
HETATM   17  C   UNL     1     -12.387  12.774  70.661  1.00  0.00    -0.297 A  
HETATM   18  N   UNL     1     -12.580  11.502  70.281  1.00  0.00    -0.167 NA 
HETATM   19  C   UNL     1     -11.843  11.204  69.204  1.00  0.00    -0.350 A  
HETATM   20  C   UNL     1     -10.961  12.037  68.535  1.00  0.00    -0.280 A  
HETATM   21  C   UNL     1     -10.461  11.282  67.430  1.00  0.00    -0.247 A  
HETATM   22  C   UNL     1     -11.011  10.019  67.489  1.00  0.00    -0.212 A  
HETATM   23  N   UNL     1     -11.844   9.986  68.577  1.00  0.00    -0.471 NA 
HETATM   24  H   UNL     1     -12.386   9.175  68.875  1.00  0.00     0.000 HD 
ENDBRANCH  13  15
ENDBRANCH   9  13
TORSDOF 3
ENDMDL
MODEL      125
REMARK 921   NORMALIZED FREE ENERGY PREDICTED BY IDOCK:   -4.28 KCAL/MOL
REMARK 922        TOTAL FREE ENERGY PREDICTED BY IDOCK:   -5.35 KCAL/MOL
REMARK 923 INTER-LIGAND FREE ENERGY PREDICTED BY IDOCK:   -5.15 KCAL/MOL
REMARK 924 INTRA-LIGAND FREE ENERGY PREDICTED BY IDOCK:   -0.20 KCAL/MOL
REMARK 927      BINDING AFFINITY PREDICTED BY RF-SCORE:    0.00 PKD
ROOT
HETATM    1  C   UNL     1      -6.980  12.153  68.233  1.00  0.00    -0.080 C  
HETATM    2  C   UNL     1      -6.517  11.452  66.949  1.00  0.00    -0.138 C  
HETATM    3  C   UNL     1      -6.570  13.624  68.262  1.00  0.00    -0.108 C  
HETATM    4  C   UNL     1      -6.901   9.969  66.949  1.00  0.00    -0.087 C  
HETATM    5  N   UNL     1      -8.310   9.741  67.291  1.00  0.00    -0.121 N  
HETATM    6  C   UNL     1      -8.782  10.412  68.514  1.00  0.00    -0.135 C  
HETATM    7  C   UNL     1      -9.106   8.973  66.440  1.00  0.00    -0.170 C  
HETATM    8  O   UNL     1      -8.665   8.546  65.371  1.00  0.00    -0.175 OA 
HETATM    9  C   UNL     1      -8.490  11.932  68.506  1.00  0.00    -0.113 C  
ENDROOT
BRANCH   7  10
HETATM   10  C   UNL     1     -10.532   8.693  66.878  1.00  0.00    -0.329 C  
HETATM   11  C   UNL     1     -10.710   7.319  67.365  1.00  0.00    -0.288 C  
HETATM   12  N   UNL     1     -10.917   6.243  67.749  1.00  0.00    -0.334 NA 
ENDBRANCH   7  10
BRANCH   9  13
HETATM   13  N   UNL     1      -9.358  12.688  67.581  1.00  0.00    -0.184 NA 
HETATM   14  C   UNL     1      -9.612  12.329  66.195  1.00  0.00    -0.240 C  
BRANCH  13  15
HETATM   15  C   UNL     1     -10.122  13.737  68.080  1.00  0.00    -0.245 A  
HETATM   16  N   UNL     1     -11.114  13.473  68.971  1.00  0.00    -0.257 NA 
HETATM   17  C   UNL     1     -11.914  14.482  69.381  1.00  0.00    -0.322 A  
HETATM   18  N   UNL     1     -11.867  15.776  69.032  1.00  0.00    -0.392 NA 
HETATM   19  C   UNL     1     -10.855  16.011  68.188  1.00  0.00    -0.322 A  
HETATM   20  C   UNL     1      -9.953  15.088  67.683  1.00  0.00    -0.225 A  
HETATM   21  C   UNL     1      -9.038  15.828  66.872  1.00  0.00    -0.259 A  
HETATM   22  C   UNL     1      -9.435  17.149  66.872  1.00  0.00    -0.259 A  
HETATM   23  N   UNL     1     -10.544  17.242  67.673  1.00  0.00    -0.364 NA 
HETATM   24  H   UNL     1     -11.062  18.101  67.858  1.00  0.00     0.000 HD 
ENDBRANCH  13  15
ENDBRANCH   9  13
TORSDOF 3
ENDMDL
MODEL      126
REMARK 921   NORMALIZED FREE ENERGY PREDICTED BY IDOCK:   -4.28 KCAL/MOL
REMARK 922        TOTAL FREE ENERGY PREDICTED BY IDOCK:   -5.35 KCAL/MOL
REMARK 923 INTER-LIGAND FREE ENERGY PREDICTED BY IDOCK:   -5.40 KCAL/MOL
REMARK 924 INTRA-LIGAND FREE ENERGY PREDICTED BY IDOCK:    0.05 KCAL/MOL
REMARK 927      BINDING AFFINITY PREDICTED BY RF-SCORE:    0.00 PKD
ROOT
HETATM    1  C   UNL     1     -11.016   5.628  70.149  1.00  0.00    -0.303 C  
HETATM    2  C   UNL     1      -9.629   4.990  69.998  1.00  0.00    -0.258 C  
HETATM    3  C   UNL     1     -11.405   5.813  71.615  1.00  0.00    -0.216 C  
HETATM    4  C   UNL     1      -9.266   4.776  68.525  1.00  0.00    -0.124 C  
HETATM    5  N   UNL     1      -9.477   5.972  67.702  1.00  0.00    -0.112 N  
HETATM    6  C   UNL     1     -10.798   6.609  67.836  1.00  0.00    -0.277 C  
HETATM    7  C   UNL     1      -8.434   6.450  66.908  1.00  0.00    -0.110 C  
HETATM    8  O   UNL     1      -7.318   5.928  66.944  1.00  0.00    -0.077 OA 
HETATM    9  C   UNL     1     -11.157   6.924  69.309  1.00  0.00    -0.184 C  
ENDROOT
BRANCH   7  10
HETATM   10  C   UNL     1      -8.725   7.638  66.009  1.00  0.00    -0.178 C  
HETATM   11  C   UNL     1      -8.017   7.556  64.725  1.00  0.00    -0.132 C  
HETATM   12  N   UNL     1      -7.475   7.556  63.699  1.00  0.00    -0.097 NA 
ENDBRANCH   7  10
BRANCH   9  13
HETATM   13  N   UNL     1     -10.392   8.056  69.867  1.00  0.00    -0.216 NA 
HETATM   14  C   UNL     1      -8.954   8.066  70.082  1.00  0.00    -0.150 C  
BRANCH  13  15
HETATM   15  C   UNL     1     -11.037   9.270  70.070  1.00  0.00    -0.205 A  
HETATM   16  N   UNL     1     -10.614  10.371  69.395  1.00  0.00    -0.224 NA 
HETATM   17  C   UNL     1     -11.183  11.567  69.665  1.00  0.00    -0.204 A  
HETATM   18  N   UNL     1     -12.162  11.844  70.538  1.00  0.00    -0.363 NA 
HETATM   19  C   UNL     1     -12.587  10.735  71.156  1.00  0.00    -0.428 A  
HETATM   20  C   UNL     1     -12.108   9.445  70.984  1.00  0.00    -0.373 A  
HETATM   21  C   UNL     1     -12.910   8.609  71.820  1.00  0.00    -0.397 A  
HETATM   22  C   UNL     1     -13.805   9.411  72.498  1.00  0.00    -0.314 A  
HETATM   23  N   UNL     1     -13.591  10.701  72.087  1.00  0.00    -0.453 NA 
HETATM   24  H   UNL     1     -14.103  11.516  72.423  1.00  0.00     0.000 HD 
ENDBRANCH  13  15
ENDBRANCH   9  13
TORSDOF 3
ENDMDL
MODEL      127
REMARK 921   NORMALIZED FREE ENERGY PREDICTED BY IDOCK:   -4.27 KCAL/MOL
REMARK 922        TOTAL FREE ENERGY PREDICTED BY IDOCK:   -5.34 KCAL/MOL
REMARK 923 INTER-LIGAND FREE ENERGY PREDICTED BY IDOCK:   -5.00 KCAL/MOL
REMARK 924 INTRA-LIGAND FREE ENERGY PREDICTED BY IDOCK:   -0.34 KCAL/MOL
REMARK 927      BINDING AFFINITY PREDICTED BY RF-SCORE:    0.00 PKD
ROOT
HETATM    1  C   UNL     1      -8.738   7.481  71.091  1.00  0.00    -0.136 C  
HETATM    2  C   UNL     1      -9.799   8.585  71.193  1.00  0.00    -0.263 C  
HETATM    3  C   UNL     1      -8.875   6.451  72.211  1.00  0.00    -0.135 C  
HETATM    4  C   UNL     1      -9.628   9.632  70.087  1.00  0.00    -0.254 C  
HETATM    5  N   UNL     1      -9.492   9.040  68.751  1.00  0.00    -0.147 N  
HETATM    6  C   UNL     1      -8.487   7.971  68.631  1.00  0.00    -0.128 C  
HETATM    7  C   UNL     1     -10.330   9.472  67.722  1.00  0.00    -0.239 C  
HETATM    8  O   UNL     1     -11.230  10.287  67.936  1.00  0.00    -0.301 OA 
HETATM    9  C   UNL     1      -8.688   6.848  69.677  1.00  0.00    -0.141 C  
ENDROOT
BRANCH   7  10
HETATM   10  C   UNL     1     -10.097   8.893  66.339  1.00  0.00    -0.333 C  
HETATM   11  C   UNL     1     -10.027   9.930  65.301  1.00  0.00    -0.249 C  
HETATM   12  N   UNL     1      -9.976  10.701  64.435  1.00  0.00    -0.330 NA 
ENDBRANCH   7  10
BRANCH   9  13
HETATM   13  N   UNL     1      -9.852   5.986  69.393  1.00  0.00    -0.157 NA 
HETATM   14  C   UNL     1     -11.241   6.409  69.466  1.00  0.00    -0.412 C  
BRANCH  13  15
HETATM   15  C   UNL     1      -9.638   4.717  68.867  1.00  0.00    -0.162 A  
HETATM   16  N   UNL     1      -9.294   3.700  69.700  1.00  0.00    -0.160 NA 
HETATM   17  C   UNL     1      -8.996   2.491  69.174  1.00  0.00    -0.112 A  
HETATM   18  N   UNL     1      -8.999   2.121  67.885  1.00  0.00    -0.137 NA 
HETATM   19  C   UNL     1      -9.382   3.131  67.094  1.00  0.00    -0.165 A  
HETATM   20  C   UNL     1      -9.721   4.417  67.483  1.00  0.00    -0.211 A  
HETATM   21  C   UNL     1     -10.105   5.104  66.290  1.00  0.00    -0.259 A  
HETATM   22  C   UNL     1      -9.945   4.241  65.226  1.00  0.00    -0.219 A  
HETATM   23  N   UNL     1      -9.499   3.048  65.732  1.00  0.00    -0.347 NA 
HETATM   24  H   UNL     1      -9.286   2.219  65.176  1.00  0.00     0.000 HD 
ENDBRANCH  13  15
ENDBRANCH   9  13
TORSDOF 3
ENDMDL
MODEL      128
REMARK 921   NORMALIZED FREE ENERGY PREDICTED BY IDOCK:   -4.26 KCAL/MOL
REMARK 922        TOTAL FREE ENERGY PREDICTED BY IDOCK:   -5.32 KCAL/MOL
REMARK 923 INTER-LIGAND FREE ENERGY PREDICTED BY IDOCK:   -5.12 KCAL/MOL
REMARK 924 INTRA-LIGAND FREE ENERGY PREDICTED BY IDOCK:   -0.20 KCAL/MOL
REMARK 927      BINDING AFFINITY PREDICTED BY RF-SCORE:    0.00 PKD
ROOT
HETATM    1  C   UNL     1     -11.540   9.397  70.687  1.00  0.00    -0.330 C  
HETATM    2  C   UNL     1     -10.448   8.954  71.671  1.00  0.00    -0.408 C  
HETATM    3  C   UNL     1     -12.150  10.743  71.077  1.00  0.00    -0.452 C  
HETATM    4  C   UNL     1      -9.871   7.587  71.290  1.00  0.00    -0.179 C  
HETATM    5  N   UNL     1      -9.487   7.499  69.876  1.00  0.00    -0.161 N  
HETATM    6  C   UNL     1     -10.515   7.928  68.913  1.00  0.00    -0.190 C  
HETATM    7  C   UNL     1      -8.200   7.079  69.540  1.00  0.00    -0.132 C  
HETATM    8  O   UNL     1      -7.358   6.853  70.412  1.00  0.00    -0.077 OA 
HETATM    9  C   UNL     1     -11.055   9.347  69.216  1.00  0.00    -0.045 C  
ENDROOT
BRANCH   7  10
HETATM   10  C   UNL     1      -7.876   6.921  68.066  1.00  0.00    -0.114 C  
HETATM   11  C   UNL     1      -7.354   5.587  67.746  1.00  0.00    -0.076 C  
HETATM   12  N   UNL     1      -6.924   4.555  67.432  1.00  0.00    -0.059 NA 
ENDBRANCH   7  10
BRANCH   9  13
HETATM   13  N   UNL     1     -10.094  10.419  68.891  1.00  0.00    -0.191 NA 
HETATM   14  C   UNL     1      -8.704  10.450  69.315  1.00  0.00    -0.150 C  
BRANCH  13  15
HETATM   15  C   UNL     1     -10.469  11.410  67.991  1.00  0.00    -0.188 A  
HETATM   16  N   UNL     1     -10.892  12.613  68.462  1.00  0.00    -0.244 NA 
HETATM   17  C   UNL     1     -11.343  13.539  67.588  1.00  0.00    -0.296 A  
HETATM   18  N   UNL     1     -11.432  13.450  66.253  1.00  0.00    -0.314 NA 
HETATM   19  C   UNL     1     -10.969  12.273  65.816  1.00  0.00    -0.301 A  
HETATM   20  C   UNL     1     -10.473  11.231  66.584  1.00  0.00    -0.292 A  
HETATM   21  C   UNL     1     -10.061  10.219  65.662  1.00  0.00    -0.341 A  
HETATM   22  C   UNL     1     -10.357  10.653  64.387  1.00  0.00    -0.276 A  
HETATM   23  N   UNL     1     -10.914  11.901  64.499  1.00  0.00    -0.307 NA 
HETATM   24  H   UNL     1     -11.240  12.469  63.717  1.00  0.00     0.000 HD 
ENDBRANCH  13  15
ENDBRANCH   9  13
TORSDOF 3
ENDMDL
MODEL      129
REMARK 921   NORMALIZED FREE ENERGY PREDICTED BY IDOCK:   -4.26 KCAL/MOL
REMARK 922        TOTAL FREE ENERGY PREDICTED BY IDOCK:   -5.32 KCAL/MOL
REMARK 923 INTER-LIGAND FREE ENERGY PREDICTED BY IDOCK:   -5.15 KCAL/MOL
REMARK 924 INTRA-LIGAND FREE ENERGY PREDICTED BY IDOCK:   -0.17 KCAL/MOL
REMARK 927      BINDING AFFINITY PREDICTED BY RF-SCORE:    0.00 PKD
ROOT
HETATM    1  C   UNL     1     -10.556  16.936  67.431  1.00  0.00    -0.294 C  
HETATM    2  C   UNL     1     -10.292  18.092  66.458  1.00  0.00    -0.397 C  
HETATM    3  C   UNL     1     -11.208  15.741  66.738  1.00  0.00    -0.021 C  
HETATM    4  C   UNL     1      -9.672  19.297  67.173  1.00  0.00    -0.330 C  
HETATM    5  N   UNL     1      -8.525  18.938  68.015  1.00  0.00    -0.286 N  
HETATM    6  C   UNL     1      -8.751  17.824  68.951  1.00  0.00    -0.114 C  
HETATM    7  C   UNL     1      -7.316  19.614  67.850  1.00  0.00    -0.280 C  
HETATM    8  O   UNL     1      -7.174  20.454  66.959  1.00  0.00    -0.267 OA 
HETATM    9  C   UNL     1      -9.292  16.557  68.244  1.00  0.00    -0.217 C  
ENDROOT
BRANCH   7  10
HETATM   10  C   UNL     1      -6.184  19.268  68.800  1.00  0.00    -0.270 C  
HETATM   11  C   UNL     1      -6.312  19.946  70.096  1.00  0.00    -0.325 C  
HETATM   12  N   UNL     1      -6.351  20.463  71.134  1.00  0.00    -0.527 NA 
ENDBRANCH   7  10
BRANCH   9  13
HETATM   13  N   UNL     1      -8.274  15.862  67.432  1.00  0.00    -0.157 NA 
HETATM   14  C   UNL     1      -7.472  16.482  66.390  1.00  0.00    -0.170 C  
BRANCH  13  15
HETATM   15  C   UNL     1      -7.922  14.559  67.765  1.00  0.00    -0.159 A  
HETATM   16  N   UNL     1      -8.326  13.536  66.966  1.00  0.00    -0.135 NA 
HETATM   17  C   UNL     1      -8.062  12.265  67.342  1.00  0.00    -0.175 A  
HETATM   18  N   UNL     1      -7.418  11.838  68.438  1.00  0.00    -0.098 NA 
HETATM   19  C   UNL     1      -6.996  12.868  69.181  1.00  0.00    -0.015 A  
HETATM   20  C   UNL     1      -7.185  14.217  68.927  1.00  0.00    -0.118 A  
HETATM   21  C   UNL     1      -6.511  14.917  69.975  1.00  0.00    -0.167 A  
HETATM   22  C   UNL     1      -5.983  13.985  70.844  1.00  0.00    -0.184 A  
HETATM   23  N   UNL     1      -6.292  12.744  70.350  1.00  0.00    -0.446 NA 
HETATM   24  H   UNL     1      -6.035  11.859  70.787  1.00  0.00     0.000 HD 
ENDBRANCH  13  15
ENDBRANCH   9  13
TORSDOF 3
ENDMDL
MODEL      130
REMARK 921   NORMALIZED FREE ENERGY PREDICTED BY IDOCK:   -4.24 KCAL/MOL
REMARK 922        TOTAL FREE ENERGY PREDICTED BY IDOCK:   -5.30 KCAL/MOL
REMARK 923 INTER-LIGAND FREE ENERGY PREDICTED BY IDOCK:   -5.51 KCAL/MOL
REMARK 924 INTRA-LIGAND FREE ENERGY PREDICTED BY IDOCK:    0.21 KCAL/MOL
REMARK 927      BINDING AFFINITY PREDICTED BY RF-SCORE:    0.00 PKD
ROOT
HETATM    1  C   UNL     1      -8.677   7.946  67.953  1.00  0.00    -0.124 C  
HETATM    2  C   UNL     1      -7.805   9.190  67.741  1.00  0.00    -0.100 C  
HETATM    3  C   UNL     1      -8.136   7.049  69.065  1.00  0.00    -0.121 C  
HETATM    4  C   UNL     1      -8.338  10.062  66.600  1.00  0.00    -0.125 C  
HETATM    5  N   UNL     1      -9.776  10.339  66.710  1.00  0.00    -0.179 N  
HETATM    6  C   UNL     1     -10.633   9.161  66.923  1.00  0.00    -0.167 C  
HETATM    7  C   UNL     1     -10.225  11.659  66.661  1.00  0.00    -0.216 C  
HETATM    8  O   UNL     1      -9.429  12.598  66.602  1.00  0.00    -0.233 OA 
HETATM    9  C   UNL     1     -10.175   8.306  68.130  1.00  0.00    -0.210 C  
ENDROOT
BRANCH   7  10
HETATM   10  C   UNL     1     -11.724  11.890  66.694  1.00  0.00    -0.264 C  
HETATM   11  C   UNL     1     -12.223  12.509  65.459  1.00  0.00    -0.377 C  
HETATM   12  N   UNL     1     -12.676  13.010  64.515  1.00  0.00    -0.701 NA 
ENDBRANCH   7  10
BRANCH   9  13
HETATM   13  N   UNL     1     -10.464   8.934  69.434  1.00  0.00    -0.221 NA 
HETATM   14  C   UNL     1     -10.638  10.361  69.652  1.00  0.00    -0.253 C  
BRANCH  13  15
HETATM   15  C   UNL     1     -10.747   8.121  70.526  1.00  0.00    -0.225 A  
HETATM   16  N   UNL     1     -11.839   7.312  70.488  1.00  0.00    -0.243 NA 
HETATM   17  C   UNL     1     -12.163   6.594  71.586  1.00  0.00    -0.352 A  
HETATM   18  N   UNL     1     -11.530   6.549  72.767  1.00  0.00    -0.185 NA 
HETATM   19  C   UNL     1     -10.437   7.322  72.759  1.00  0.00    -0.260 A  
HETATM   20  C   UNL     1      -9.975   8.108  71.715  1.00  0.00    -0.264 A  
HETATM   21  C   UNL     1      -8.756   8.698  72.171  1.00  0.00    -0.217 A  
HETATM   22  C   UNL     1      -8.544   8.294  73.473  1.00  0.00    -0.198 A  
HETATM   23  N   UNL     1      -9.578   7.462  73.817  1.00  0.00    -0.277 NA 
HETATM   24  H   UNL     1      -9.692   7.014  74.726  1.00  0.00     0.000 HD 
ENDBRANCH  13  15
ENDBRANCH   9  13
TORSDOF 3
ENDMDL
MODEL      131
REMARK 921   NORMALIZED FREE ENERGY PREDICTED BY IDOCK:   -4.24 KCAL/MOL
REMARK 922        TOTAL FREE ENERGY PREDICTED BY IDOCK:   -5.30 KCAL/MOL
REMARK 923 INTER-LIGAND FREE ENERGY PREDICTED BY IDOCK:   -5.37 KCAL/MOL
REMARK 924 INTRA-LIGAND FREE ENERGY PREDICTED BY IDOCK:    0.07 KCAL/MOL
REMARK 927      BINDING AFFINITY PREDICTED BY RF-SCORE:    0.00 PKD
ROOT
HETATM    1  C   UNL     1      -8.292  17.662  67.862  1.00  0.00    -0.235 C  
HETATM    2  C   UNL     1      -7.386  17.133  66.742  1.00  0.00    -0.262 C  
HETATM    3  C   UNL     1      -9.514  18.394  67.311  1.00  0.00    -0.279 C  
HETATM    4  C   UNL     1      -6.144  16.434  67.307  1.00  0.00    -0.166 C  
HETATM    5  N   UNL     1      -6.463  15.449  68.348  1.00  0.00    -0.106 N  
HETATM    6  C   UNL     1      -7.340  15.931  69.429  1.00  0.00    -0.217 C  
HETATM    7  C   UNL     1      -5.978  14.147  68.230  1.00  0.00    -0.119 C  
HETATM    8  O   UNL     1      -5.350  13.791  67.231  1.00  0.00    -0.320 OA 
HETATM    9  C   UNL     1      -8.649  16.562  68.893  1.00  0.00    -0.241 C  
ENDROOT
BRANCH   7  10
HETATM   10  C   UNL     1      -6.261  13.187  69.372  1.00  0.00    -0.111 C  
HETATM   11  C   UNL     1      -6.999  11.996  68.933  1.00  0.00    -0.104 C  
HETATM   12  N   UNL     1      -7.593  11.039  68.651  1.00  0.00    -0.115 NA 
ENDBRANCH   7  10
BRANCH   9  13
HETATM   13  N   UNL     1      -9.602  15.567  68.365  1.00  0.00    -0.197 NA 
HETATM   14  C   UNL     1      -9.412  14.793  67.149  1.00  0.00    -0.227 C  
BRANCH  13  15
HETATM   15  C   UNL     1     -10.700  15.208  69.139  1.00  0.00    -0.253 A  
HETATM   16  N   UNL     1     -11.404  16.175  69.785  1.00  0.00    -0.335 NA 
HETATM   17  C   UNL     1     -12.411  15.814  70.610  1.00  0.00    -0.354 A  
HETATM   18  N   UNL     1     -12.853  14.580  70.894  1.00  0.00    -0.347 NA 
HETATM   19  C   UNL     1     -12.169  13.654  70.211  1.00  0.00    -0.353 A  
HETATM   20  C   UNL     1     -11.120  13.867  69.331  1.00  0.00    -0.226 A  
HETATM   21  C   UNL     1     -10.761  12.581  68.823  1.00  0.00    -0.235 A  
HETATM   22  C   UNL     1     -11.559  11.638  69.435  1.00  0.00    -0.327 A  
HETATM   23  N   UNL     1     -12.406  12.307  70.280  1.00  0.00    -0.239 NA 
HETATM   24  H   UNL     1     -13.109  11.867  70.874  1.00  0.00     0.000 HD 
ENDBRANCH  13  15
ENDBRANCH   9  13
TORSDOF 3
ENDMDL
MODEL      132
REMARK 921   NORMALIZED FREE ENERGY PREDICTED BY IDOCK:   -4.24 KCAL/MOL
REMARK 922        TOTAL FREE ENERGY PREDICTED BY IDOCK:   -5.29 KCAL/MOL
REMARK 923 INTER-LIGAND FREE ENERGY PREDICTED BY IDOCK:   -5.43 KCAL/MOL
REMARK 924 INTRA-LIGAND FREE ENERGY PREDICTED BY IDOCK:    0.14 KCAL/MOL
REMARK 927      BINDING AFFINITY PREDICTED BY RF-SCORE:    0.00 PKD
ROOT
HETATM    1  C   UNL     1      -7.223  17.274  68.371  1.00  0.00    -0.220 C  
HETATM    2  C   UNL     1      -6.295  16.655  67.317  1.00  0.00    -0.216 C  
HETATM    3  C   UNL     1      -7.835  18.590  67.894  1.00  0.00    -0.268 C  
HETATM    4  C   UNL     1      -5.659  15.356  67.821  1.00  0.00    -0.109 C  
HETATM    5  N   UNL     1      -6.637  14.422  68.393  1.00  0.00    -0.095 N  
HETATM    6  C   UNL     1      -7.545  14.994  69.400  1.00  0.00    -0.195 C  
HETATM    7  C   UNL     1      -6.681  13.107  67.928  1.00  0.00    -0.138 C  
HETATM    8  O   UNL     1      -5.965  12.739  66.995  1.00  0.00    -0.307 OA 
HETATM    9  C   UNL     1      -8.276  16.260  68.888  1.00  0.00    -0.231 C  
ENDROOT
BRANCH   7  10
HETATM   10  C   UNL     1      -7.649  12.156  68.608  1.00  0.00    -0.097 C  
HETATM   11  C   UNL     1      -8.027  11.029  67.746  1.00  0.00    -0.115 C  
HETATM   12  N   UNL     1      -8.375  10.124  67.109  1.00  0.00    -0.124 NA 
ENDBRANCH   7  10
BRANCH   9  13
HETATM   13  N   UNL     1      -9.326  15.966  67.895  1.00  0.00    -0.207 NA 
HETATM   14  C   UNL     1      -9.331  16.439  66.520  1.00  0.00    -0.273 C  
BRANCH  13  15
HETATM   15  C   UNL     1     -10.320  15.049  68.217  1.00  0.00    -0.236 A  
HETATM   16  N   UNL     1     -10.974  15.164  69.404  1.00  0.00    -0.251 NA 
HETATM   17  C   UNL     1     -11.873  14.218  69.753  1.00  0.00    -0.324 A  
HETATM   18  N   UNL     1     -12.245  13.129  69.065  1.00  0.00    -0.176 NA 
HETATM   19  C   UNL     1     -11.616  13.065  67.885  1.00  0.00    -0.342 A  
HETATM   20  C   UNL     1     -10.678  13.955  67.387  1.00  0.00    -0.275 A  
HETATM   21  C   UNL     1     -10.342  13.488  66.079  1.00  0.00    -0.303 A  
HETATM   22  C   UNL     1     -11.041  12.322  65.847  1.00  0.00    -0.322 A  
HETATM   23  N   UNL     1     -11.806  12.076  66.957  1.00  0.00    -0.611 NA 
HETATM   24  H   UNL     1     -12.426  11.275  67.075  1.00  0.00     0.000 HD 
ENDBRANCH  13  15
ENDBRANCH   9  13
TORSDOF 3
ENDMDL
MODEL      133
REMARK 921   NORMALIZED FREE ENERGY PREDICTED BY IDOCK:   -4.17 KCAL/MOL
REMARK 922        TOTAL FREE ENERGY PREDICTED BY IDOCK:   -5.22 KCAL/MOL
REMARK 923 INTER-LIGAND FREE ENERGY PREDICTED BY IDOCK:   -5.01 KCAL/MOL
REMARK 924 INTRA-LIGAND FREE ENERGY PREDICTED BY IDOCK:   -0.20 KCAL/MOL
REMARK 927      BINDING AFFINITY PREDICTED BY RF-SCORE:    0.00 PKD
ROOT
HETATM    1  C   UNL     1     -11.606  12.665  68.416  1.00  0.00    -0.370 C  
HETATM    2  C   UNL     1     -12.278  13.228  67.156  1.00  0.00    -0.281 C  
HETATM    3  C   UNL     1     -11.948  11.193  68.638  1.00  0.00    -0.289 C  
HETATM    4  C   UNL     1     -11.957  14.714  66.965  1.00  0.00    -0.276 C  
HETATM    5  N   UNL     1     -10.524  15.011  67.074  1.00  0.00    -0.273 N  
HETATM    6  C   UNL     1      -9.855  14.473  68.269  1.00  0.00    -0.229 C  
HETATM    7  C   UNL     1      -9.891  15.715  66.049  1.00  0.00    -0.333 C  
HETATM    8  O   UNL     1     -10.499  16.026  65.022  1.00  0.00    -0.558 OA 
HETATM    9  C   UNL     1     -10.083  12.951  68.442  1.00  0.00    -0.227 C  
ENDROOT
BRANCH   7  10
HETATM   10  C   UNL     1      -8.429  16.074  66.245  1.00  0.00    -0.337 C  
HETATM   11  C   UNL     1      -8.240  17.488  66.593  1.00  0.00    -0.256 C  
HETATM   12  N   UNL     1      -8.025  18.597  66.857  1.00  0.00    -0.235 NA 
ENDBRANCH   7  10
BRANCH   9  13
HETATM   13  N   UNL     1      -9.328  12.134  67.472  1.00  0.00    -0.177 NA 
HETATM   14  C   UNL     1      -9.295  12.361  66.036  1.00  0.00    -0.114 C  
BRANCH  13  15
HETATM   15  C   UNL     1      -8.453  11.163  67.946  1.00  0.00    -0.131 A  
HETATM   16  N   UNL     1      -7.415  11.533  68.742  1.00  0.00    -0.116 NA 
HETATM   17  C   UNL     1      -6.515  10.600  69.123  1.00  0.00    -0.056 A  
HETATM   18  N   UNL     1      -6.496   9.292  68.828  1.00  0.00    -0.048 NA 
HETATM   19  C   UNL     1      -7.552   8.951  68.079  1.00  0.00    -0.093 A  
HETATM   20  C   UNL     1      -8.555   9.787  67.615  1.00  0.00    -0.125 A  
HETATM   21  C   UNL     1      -9.475   8.952  66.910  1.00  0.00    -0.230 A  
HETATM   22  C   UNL     1      -8.985   7.662  66.928  1.00  0.00    -0.138 A  
HETATM   23  N   UNL     1      -7.813   7.681  67.638  1.00  0.00    -0.121 NA 
HETATM   24  H   UNL     1      -7.221   6.868  67.812  1.00  0.00     0.000 HD 
ENDBRANCH  13  15
ENDBRANCH   9  13
TORSDOF 3
ENDMDL
MODEL      134
REMARK 921   NORMALIZED FREE ENERGY PREDICTED BY IDOCK:   -4.16 KCAL/MOL
REMARK 922        TOTAL FREE ENERGY PREDICTED BY IDOCK:   -5.20 KCAL/MOL
REMARK 923 INTER-LIGAND FREE ENERGY PREDICTED BY IDOCK:   -4.72 KCAL/MOL
REMARK 924 INTRA-LIGAND FREE ENERGY PREDICTED BY IDOCK:   -0.48 KCAL/MOL
REMARK 927      BINDING AFFINITY PREDICTED BY RF-SCORE:    0.00 PKD
ROOT
HETATM    1  C   UNL     1     -10.444  10.532  69.705  1.00  0.00    -0.257 C  
HETATM    2  C   UNL     1     -11.872  10.785  69.206  1.00  0.00    -0.359 C  
HETATM    3  C   UNL     1     -10.318   9.194  70.430  1.00  0.00    -0.269 C  
HETATM    4  C   UNL     1     -11.993  12.146  68.513  1.00  0.00    -0.217 C  
HETATM    5  N   UNL     1     -10.949  12.374  67.507  1.00  0.00    -0.242 N  
HETATM    6  C   UNL     1      -9.570  12.128  67.959  1.00  0.00    -0.204 C  
HETATM    7  C   UNL     1     -11.314  12.745  66.213  1.00  0.00    -0.320 C  
HETATM    8  O   UNL     1     -12.500  12.811  65.882  1.00  0.00    -0.560 OA 
HETATM    9  C   UNL     1      -9.391  10.722  68.582  1.00  0.00    -0.184 C  
ENDROOT
BRANCH   7  10
HETATM   10  C   UNL     1     -10.199  13.052  65.231  1.00  0.00    -0.294 C  
HETATM   11  C   UNL     1     -10.208  12.152  64.071  1.00  0.00    -0.370 C  
HETATM   12  N   UNL     1     -10.154  11.463  63.138  1.00  0.00    -0.361 NA 
ENDBRANCH   7  10
BRANCH   9  13
HETATM   13  N   UNL     1      -9.413   9.635  67.585  1.00  0.00    -0.133 NA 
HETATM   14  C   UNL     1     -10.535   9.324  66.714  1.00  0.00    -0.193 C  
BRANCH  13  15
HETATM   15  C   UNL     1      -8.240   8.935  67.325  1.00  0.00    -0.104 A  
HETATM   16  N   UNL     1      -7.937   7.843  68.075  1.00  0.00    -0.126 NA 
HETATM   17  C   UNL     1      -6.752   7.222  67.882  1.00  0.00    -0.061 A  
HETATM   18  N   UNL     1      -5.783   7.531  67.007  1.00  0.00    -0.030 NA 
HETATM   19  C   UNL     1      -6.129   8.583  66.256  1.00  0.00    -0.052 A  
HETATM   20  C   UNL     1      -7.302   9.318  66.333  1.00  0.00    -0.092 A  
HETATM   21  C   UNL     1      -7.224  10.299  65.297  1.00  0.00    -0.134 A  
HETATM   22  C   UNL     1      -6.006  10.162  64.665  1.00  0.00    -0.125 A  
HETATM   23  N   UNL     1      -5.350   9.118  65.264  1.00  0.00    -0.037 NA 
HETATM   24  H   UNL     1      -4.419   8.787  65.010  1.00  0.00     0.000 HD 
ENDBRANCH  13  15
ENDBRANCH   9  13
TORSDOF 3
ENDMDL
MODEL      135
REMARK 921   NORMALIZED FREE ENERGY PREDICTED BY IDOCK:   -4.14 KCAL/MOL
REMARK 922        TOTAL FREE ENERGY PREDICTED BY IDOCK:   -5.18 KCAL/MOL
REMARK 923 INTER-LIGAND FREE ENERGY PREDICTED BY IDOCK:   -5.13 KCAL/MOL
REMARK 924 INTRA-LIGAND FREE ENERGY PREDICTED BY IDOCK:   -0.05 KCAL/MOL
REMARK 927      BINDING AFFINITY PREDICTED BY RF-SCORE:    0.00 PKD
ROOT
HETATM    1  C   UNL     1     -10.818  11.615  64.638  1.00  0.00    -0.373 C  
HETATM    2  C   UNL     1     -10.031  12.866  64.225  1.00  0.00    -0.135 C  
HETATM    3  C   UNL     1     -10.157  10.331  64.138  1.00  0.00    -0.132 C  
HETATM    4  C   UNL     1     -10.723  14.147  64.701  1.00  0.00    -0.389 C  
HETATM    5  N   UNL     1     -11.097  14.106  66.119  1.00  0.00    -0.308 N  
HETATM    6  C   UNL     1     -11.845  12.910  66.542  1.00  0.00    -0.407 C  
HETATM    7  C   UNL     1     -10.692  15.139  66.965  1.00  0.00    -0.307 C  
HETATM    8  O   UNL     1      -9.963  16.045  66.556  1.00  0.00    -0.254 OA 
HETATM    9  C   UNL     1     -11.125  11.594  66.157  1.00  0.00    -0.280 C  
ENDROOT
BRANCH   7  10
HETATM   10  C   UNL     1     -11.175  15.096  68.404  1.00  0.00    -0.307 C  
HETATM   11  C   UNL     1     -10.079  15.259  69.367  1.00  0.00    -0.264 C  
HETATM   12  N   UNL     1      -9.256  15.369  70.178  1.00  0.00     0.182 NA 
ENDBRANCH   7  10
BRANCH   9  13
HETATM   13  N   UNL     1      -9.932  11.319  66.981  1.00  0.00    -0.195 NA 
HETATM   14  C   UNL     1      -8.706  12.101  66.961  1.00  0.00    -0.190 C  
BRANCH  13  15
HETATM   15  C   UNL     1     -10.005  10.343  67.968  1.00  0.00    -0.155 A  
HETATM   16  N   UNL     1      -9.717  10.673  69.255  1.00  0.00    -0.194 NA 
HETATM   17  C   UNL     1      -9.698   9.702  70.194  1.00  0.00    -0.254 A  
HETATM   18  N   UNL     1      -9.946   8.393  70.043  1.00  0.00    -0.186 NA 
HETATM   19  C   UNL     1     -10.268   8.106  68.776  1.00  0.00    -0.207 A  
HETATM   20  C   UNL     1     -10.334   8.987  67.708  1.00  0.00    -0.304 A  
HETATM   21  C   UNL     1     -10.767   8.219  66.584  1.00  0.00     0.099 A  
HETATM   22  C   UNL     1     -10.904   6.907  66.987  1.00  0.00    -0.366 A  
HETATM   23  N   UNL     1     -10.591   6.855  68.321  1.00  0.00    -0.208 NA 
HETATM   24  H   UNL     1     -10.598   6.009  68.892  1.00  0.00     0.000 HD 
ENDBRANCH  13  15
ENDBRANCH   9  13
TORSDOF 3
ENDMDL
MODEL      136
REMARK 921   NORMALIZED FREE ENERGY PREDICTED BY IDOCK:   -4.13 KCAL/MOL
REMARK 922        TOTAL FREE ENERGY PREDICTED BY IDOCK:   -5.17 KCAL/MOL
REMARK 923 INTER-LIGAND FREE ENERGY PREDICTED BY IDOCK:   -5.50 KCAL/MOL
REMARK 924 INTRA-LIGAND FREE ENERGY PREDICTED BY IDOCK:    0.33 KCAL/MOL
REMARK 927      BINDING AFFINITY PREDICTED BY RF-SCORE:    0.00 PKD
ROOT
HETATM    1  C   UNL     1      -7.370  18.209  68.587  1.00  0.00    -0.295 C  
HETATM    2  C   UNL     1      -6.165  17.769  67.746  1.00  0.00    -0.172 C  
HETATM    3  C   UNL     1      -8.061  19.439  67.999  1.00  0.00    -0.345 C  
HETATM    4  C   UNL     1      -5.459  16.559  68.366  1.00  0.00    -0.117 C  
HETATM    5  N   UNL     1      -6.382  15.474  68.719  1.00  0.00    -0.101 N  
HETATM    6  C   UNL     1      -7.552  15.873  69.518  1.00  0.00    -0.143 C  
HETATM    7  C   UNL     1      -6.134  14.184  68.250  1.00  0.00    -0.118 C  
HETATM    8  O   UNL     1      -5.195  13.956  67.484  1.00  0.00    -0.327 OA 
HETATM    9  C   UNL     1      -8.343  17.036  68.871  1.00  0.00    -0.196 C  
ENDROOT
BRANCH   7  10
HETATM   10  C   UNL     1      -7.067  13.079  68.711  1.00  0.00    -0.097 C  
HETATM   11  C   UNL     1      -6.419  11.762  68.711  1.00  0.00    -0.066 C  
HETATM   12  N   UNL     1      -5.968  10.692  68.720  1.00  0.00    -0.040 NA 
ENDBRANCH   7  10
BRANCH   9  13
HETATM   13  N   UNL     1      -9.112  16.627  67.680  1.00  0.00    -0.206 NA 
HETATM   14  C   UNL     1      -8.882  17.116  66.330  1.00  0.00    -0.231 C  
BRANCH  13  15
HETATM   15  C   UNL     1     -10.029  15.589  67.794  1.00  0.00    -0.222 A  
HETATM   16  N   UNL     1     -10.094  14.647  66.816  1.00  0.00    -0.260 NA 
HETATM   17  C   UNL     1     -11.049  13.693  66.885  1.00  0.00    -0.304 A  
HETATM   18  N   UNL     1     -11.986  13.520  67.829  1.00  0.00    -0.354 NA 
HETATM   19  C   UNL     1     -11.869  14.435  68.798  1.00  0.00    -0.325 A  
HETATM   20  C   UNL     1     -10.946  15.466  68.870  1.00  0.00    -0.261 A  
HETATM   21  C   UNL     1     -11.192  16.135  70.108  1.00  0.00    -0.374 A  
HETATM   22  C   UNL     1     -12.270  15.528  70.717  1.00  0.00    -0.403 A  
HETATM   23  N   UNL     1     -12.673  14.500  69.905  1.00  0.00    -0.547 NA 
HETATM   24  H   UNL     1     -13.457  13.875  70.096  1.00  0.00     0.000 HD 
ENDBRANCH  13  15
ENDBRANCH   9  13
TORSDOF 3
ENDMDL
MODEL      137
REMARK 921   NORMALIZED FREE ENERGY PREDICTED BY IDOCK:   -4.08 KCAL/MOL
REMARK 922        TOTAL FREE ENERGY PREDICTED BY IDOCK:   -5.11 KCAL/MOL
REMARK 923 INTER-LIGAND FREE ENERGY PREDICTED BY IDOCK:   -5.21 KCAL/MOL
REMARK 924 INTRA-LIGAND FREE ENERGY PREDICTED BY IDOCK:    0.10 KCAL/MOL
REMARK 927      BINDING AFFINITY PREDICTED BY RF-SCORE:    0.00 PKD
ROOT
HETATM    1  C   UNL     1      -6.359  17.415  68.472  1.00  0.00    -0.176 C  
HETATM    2  C   UNL     1      -7.626  18.217  68.796  1.00  0.00    -0.294 C  
HETATM    3  C   UNL     1      -5.542  17.104  69.724  1.00  0.00    -0.213 C  
HETATM    4  C   UNL     1      -8.417  18.555  67.528  1.00  0.00    -0.261 C  
HETATM    5  N   UNL     1      -8.640  17.390  66.663  1.00  0.00    -0.242 N  
HETATM    6  C   UNL     1      -7.440  16.598  66.345  1.00  0.00    -0.225 C  
HETATM    7  C   UNL     1      -9.936  17.082  66.249  1.00  0.00    -0.310 C  
HETATM    8  O   UNL     1     -10.903  17.727  66.660  1.00  0.00    -0.180 OA 
HETATM    9  C   UNL     1      -6.666  16.161  67.613  1.00  0.00    -0.152 C  
ENDROOT
BRANCH   7  10
HETATM   10  C   UNL     1     -10.108  15.921  65.287  1.00  0.00    -0.206 C  
HETATM   11  C   UNL     1     -11.371  15.991  64.543  1.00  0.00    -0.295 C  
HETATM   12  N   UNL     1     -12.359  15.984  63.934  1.00  0.00    -0.730 NA 
ENDBRANCH   7  10
BRANCH   9  13
HETATM   13  N   UNL     1      -7.346  15.096  68.374  1.00  0.00    -0.110 NA 
HETATM   14  C   UNL     1      -8.159  15.308  69.561  1.00  0.00    -0.196 C  
BRANCH  13  15
HETATM   15  C   UNL     1      -7.358  13.804  67.861  1.00  0.00    -0.153 A  
HETATM   16  N   UNL     1      -6.181  13.205  67.537  1.00  0.00    -0.242 NA 
HETATM   17  C   UNL     1      -6.204  11.987  66.952  1.00  0.00    -0.073 A  
HETATM   18  N   UNL     1      -7.268  11.234  66.637  1.00  0.00    -0.141 NA 
HETATM   19  C   UNL     1      -8.407  11.831  67.007  1.00  0.00    -0.172 A  
HETATM   20  C   UNL     1      -8.546  13.068  67.616  1.00  0.00    -0.190 A  
HETATM   21  C   UNL     1      -9.944  13.239  67.856  1.00  0.00    -0.233 A  
HETATM   22  C   UNL     1     -10.604  12.138  67.351  1.00  0.00    -0.226 A  
HETATM   23  N   UNL     1      -9.656  11.295  66.834  1.00  0.00    -0.188 NA 
HETATM   24  H   UNL     1      -9.850  10.399  66.385  1.00  0.00     0.000 HD 
ENDBRANCH  13  15
ENDBRANCH   9  13
TORSDOF 3
ENDMDL
MODEL      138
REMARK 921   NORMALIZED FREE ENERGY PREDICTED BY IDOCK:   -4.07 KCAL/MOL
REMARK 922        TOTAL FREE ENERGY PREDICTED BY IDOCK:   -5.10 KCAL/MOL
REMARK 923 INTER-LIGAND FREE ENERGY PREDICTED BY IDOCK:   -4.67 KCAL/MOL
REMARK 924 INTRA-LIGAND FREE ENERGY PREDICTED BY IDOCK:   -0.43 KCAL/MOL
REMARK 927      BINDING AFFINITY PREDICTED BY RF-SCORE:    0.00 PKD
ROOT
HETATM    1  C   UNL     1     -11.712   9.563  71.565  1.00  0.00    -0.472 C  
HETATM    2  C   UNL     1     -12.016  10.016  70.130  1.00  0.00    -0.204 C  
HETATM    3  C   UNL     1     -12.960   9.047  72.279  1.00  0.00    -0.490 C  
HETATM    4  C   UNL     1     -10.765  10.566  69.438  1.00  0.00    -0.241 C  
HETATM    5  N   UNL     1      -9.602   9.679  69.562  1.00  0.00    -0.185 N  
HETATM    6  C   UNL     1      -9.296   9.223  70.928  1.00  0.00    -0.245 C  
HETATM    7  C   UNL     1      -8.911   9.291  68.414  1.00  0.00    -0.129 C  
HETATM    8  O   UNL     1      -9.306   9.620  67.293  1.00  0.00    -0.136 OA 
HETATM    9  C   UNL     1     -10.518   8.576  71.625  1.00  0.00    -0.275 C  
ENDROOT
BRANCH   7  10
HETATM   10  C   UNL     1      -7.666   8.443  68.598  1.00  0.00    -0.107 C  
HETATM   11  C   UNL     1      -7.891   7.033  68.257  1.00  0.00    -0.118 C  
HETATM   12  N   UNL     1      -8.011   5.904  68.016  1.00  0.00    -0.104 NA 
ENDBRANCH   7  10
BRANCH   9  13
HETATM   13  N   UNL     1     -10.851   7.239  71.096  1.00  0.00    -0.240 NA 
HETATM   14  C   UNL     1     -11.274   6.963  69.733  1.00  0.00    -0.267 C  
BRANCH  13  15
HETATM   15  C   UNL     1     -10.607   6.122  71.888  1.00  0.00    -0.220 A  
HETATM   16  N   UNL     1     -11.636   5.550  72.567  1.00  0.00    -0.260 NA 
HETATM   17  C   UNL     1     -11.378   4.523  73.407  1.00  0.00    -0.286 A  
HETATM   18  N   UNL     1     -10.198   3.946  73.677  1.00  0.00    -0.137 NA 
HETATM   19  C   UNL     1      -9.213   4.502  72.962  1.00  0.00    -0.119 A  
HETATM   20  C   UNL     1      -9.321   5.552  72.064  1.00  0.00    -0.164 A  
HETATM   21  C   UNL     1      -8.013   5.747  71.523  1.00  0.00    -0.113 A  
HETATM   22  C   UNL     1      -7.157   4.855  72.135  1.00  0.00    -0.074 A  
HETATM   23  N   UNL     1      -7.902   4.110  73.011  1.00  0.00    -0.084 NA 
HETATM   24  H   UNL     1      -7.535   3.371  73.612  1.00  0.00     0.000 HD 
ENDBRANCH  13  15
ENDBRANCH   9  13
TORSDOF 3
ENDMDL
MODEL      139
REMARK 921   NORMALIZED FREE ENERGY PREDICTED BY IDOCK:   -4.07 KCAL/MOL
REMARK 922        TOTAL FREE ENERGY PREDICTED BY IDOCK:   -5.10 KCAL/MOL
REMARK 923 INTER-LIGAND FREE ENERGY PREDICTED BY IDOCK:   -5.33 KCAL/MOL
REMARK 924 INTRA-LIGAND FREE ENERGY PREDICTED BY IDOCK:    0.23 KCAL/MOL
REMARK 927      BINDING AFFINITY PREDICTED BY RF-SCORE:    0.00 PKD
ROOT
HETATM    1  C   UNL     1      -9.353   8.143  66.866  1.00  0.00    -0.219 C  
HETATM    2  C   UNL     1     -10.696   7.438  67.096  1.00  0.00    -0.400 C  
HETATM    3  C   UNL     1      -9.315   8.879  65.527  1.00  0.00    -0.214 C  
HETATM    4  C   UNL     1     -10.709   6.674  68.425  1.00  0.00    -0.258 C  
HETATM    5  N   UNL     1     -10.244   7.484  69.558  1.00  0.00    -0.201 N  
HETATM    6  C   UNL     1      -8.962   8.178  69.356  1.00  0.00    -0.147 C  
HETATM    7  C   UNL     1     -11.041   7.586  70.698  1.00  0.00    -0.265 C  
HETATM    8  O   UNL     1     -12.160   7.070  70.739  1.00  0.00    -0.355 OA 
HETATM    9  C   UNL     1      -8.948   9.036  68.067  1.00  0.00    -0.132 C  
ENDROOT
BRANCH   7  10
HETATM   10  C   UNL     1     -10.483   8.363  71.876  1.00  0.00    -0.366 C  
HETATM   11  C   UNL     1     -10.385   7.546  73.092  1.00  0.00    -0.347 C  
HETATM   12  N   UNL     1     -10.297   6.956  74.088  1.00  0.00    -0.344 NA 
ENDBRANCH   7  10
BRANCH   9  13
HETATM   13  N   UNL     1      -9.763  10.261  68.172  1.00  0.00    -0.142 NA 
HETATM   14  C   UNL     1     -11.158  10.303  68.583  1.00  0.00    -0.239 C  
BRANCH  13  15
HETATM   15  C   UNL     1      -9.144  11.497  68.023  1.00  0.00    -0.174 A  
HETATM   16  N   UNL     1      -9.862  12.632  68.235  1.00  0.00    -0.228 NA 
HETATM   17  C   UNL     1      -9.282  13.829  67.998  1.00  0.00    -0.195 A  
HETATM   18  N   UNL     1      -8.036  14.081  67.573  1.00  0.00    -0.176 NA 
HETATM   19  C   UNL     1      -7.342  12.948  67.414  1.00  0.00    -0.128 A  
HETATM   20  C   UNL     1      -7.793  11.654  67.620  1.00  0.00    -0.135 A  
HETATM   21  C   UNL     1      -6.676  10.799  67.369  1.00  0.00    -0.076 A  
HETATM   22  C   UNL     1      -5.611  11.585  66.981  1.00  0.00    -0.117 A  
HETATM   23  N   UNL     1      -6.035  12.888  67.008  1.00  0.00    -0.468 NA 
HETATM   24  H   UNL     1      -5.462  13.696  66.763  1.00  0.00     0.000 HD 
ENDBRANCH  13  15
ENDBRANCH   9  13
TORSDOF 3
ENDMDL
MODEL      140
REMARK 921   NORMALIZED FREE ENERGY PREDICTED BY IDOCK:   -4.06 KCAL/MOL
REMARK 922        TOTAL FREE ENERGY PREDICTED BY IDOCK:   -5.08 KCAL/MOL
REMARK 923 INTER-LIGAND FREE ENERGY PREDICTED BY IDOCK:   -4.81 KCAL/MOL
REMARK 924 INTRA-LIGAND FREE ENERGY PREDICTED BY IDOCK:   -0.27 KCAL/MOL
REMARK 927      BINDING AFFINITY PREDICTED BY RF-SCORE:    0.00 PKD
ROOT
HETATM    1  C   UNL     1      -8.637   7.898  69.257  1.00  0.00    -0.138 C  
HETATM    2  C   UNL     1      -9.950   8.169  70.004  1.00  0.00    -0.192 C  
HETATM    3  C   UNL     1      -8.440   6.412  68.965  1.00  0.00    -0.124 C  
HETATM    4  C   UNL     1     -10.117   9.658  70.323  1.00  0.00    -0.275 C  
HETATM    5  N   UNL     1      -9.889  10.525  69.161  1.00  0.00    -0.215 N  
HETATM    6  C   UNL     1      -8.640  10.278  68.422  1.00  0.00    -0.125 C  
HETATM    7  C   UNL     1     -10.859  11.463  68.805  1.00  0.00    -0.208 C  
HETATM    8  O   UNL     1     -11.934  11.524  69.406  1.00  0.00    -0.311 OA 
HETATM    9  C   UNL     1      -8.483   8.795  68.002  1.00  0.00    -0.126 C  
ENDROOT
BRANCH   7  10
HETATM   10  C   UNL     1     -10.542  12.394  67.649  1.00  0.00    -0.236 C  
HETATM   11  C   UNL     1     -11.570  12.358  66.602  1.00  0.00    -0.385 C  
HETATM   12  N   UNL     1     -12.341  12.363  65.734  1.00  0.00    -0.603 NA 
ENDBRANCH   7  10
BRANCH   9  13
HETATM   13  N   UNL     1      -9.384   8.402  66.901  1.00  0.00    -0.163 NA 
HETATM   14  C   UNL     1     -10.697   7.802  67.072  1.00  0.00    -0.246 C  
BRANCH  13  15
HETATM   15  C   UNL     1      -9.050   8.756  65.599  1.00  0.00    -0.191 A  
HETATM   16  N   UNL     1      -9.640   9.842  65.032  1.00  0.00    -0.290 NA 
HETATM   17  C   UNL     1      -9.383  10.127  63.736  1.00  0.00    -0.288 A  
HETATM   18  N   UNL     1      -8.583   9.472  62.883  1.00  0.00    -0.201 NA 
HETATM   19  C   UNL     1      -7.986   8.434  63.481  1.00  0.00    -0.159 A  
HETATM   20  C   UNL     1      -8.143   8.020  64.794  1.00  0.00    -0.143 A  
HETATM   21  C   UNL     1      -7.263   6.908  64.969  1.00  0.00    -0.074 A  
HETATM   22  C   UNL     1      -6.644   6.657  63.762  1.00  0.00    -0.044 A  
HETATM   23  N   UNL     1      -7.098   7.590  62.867  1.00  0.00    -0.075 NA 
HETATM   24  H   UNL     1      -6.818   7.648  61.888  1.00  0.00     0.000 HD 
ENDBRANCH  13  15
ENDBRANCH   9  13
TORSDOF 3
ENDMDL
MODEL      141
REMARK 921   NORMALIZED FREE ENERGY PREDICTED BY IDOCK:   -4.05 KCAL/MOL
REMARK 922        TOTAL FREE ENERGY PREDICTED BY IDOCK:   -5.08 KCAL/MOL
REMARK 923 INTER-LIGAND FREE ENERGY PREDICTED BY IDOCK:   -4.72 KCAL/MOL
REMARK 924 INTRA-LIGAND FREE ENERGY PREDICTED BY IDOCK:   -0.35 KCAL/MOL
REMARK 927      BINDING AFFINITY PREDICTED BY RF-SCORE:    0.00 PKD
ROOT
HETATM    1  C   UNL     1      -9.435   9.093  67.316  1.00  0.00    -0.187 C  
HETATM    2  C   UNL     1      -9.485   8.224  66.052  1.00  0.00    -0.189 C  
HETATM    3  C   UNL     1     -10.611  10.066  67.389  1.00  0.00    -0.330 C  
HETATM    4  C   UNL     1      -8.282   7.279  65.972  1.00  0.00    -0.138 C  
HETATM    5  N   UNL     1      -8.054   6.532  67.215  1.00  0.00    -0.112 N  
HETATM    6  C   UNL     1      -8.012   7.343  68.443  1.00  0.00    -0.124 C  
HETATM    7  C   UNL     1      -7.948   5.142  67.169  1.00  0.00    -0.100 C  
HETATM    8  O   UNL     1      -8.116   4.527  66.114  1.00  0.00    -0.102 OA 
HETATM    9  C   UNL     1      -9.261   8.244  68.601  1.00  0.00    -0.143 C  
ENDROOT
BRANCH   7  10
HETATM   10  C   UNL     1      -7.628   4.420  68.465  1.00  0.00    -0.064 C  
HETATM   11  C   UNL     1      -8.504   3.264  68.695  1.00  0.00    -0.079 C  
HETATM   12  N   UNL     1      -9.174   2.349  68.940  1.00  0.00    -0.141 NA 
ENDBRANCH   7  10
BRANCH   9  13
HETATM   13  N   UNL     1     -10.479   7.494  68.964  1.00  0.00    -0.212 NA 
HETATM   14  C   UNL     1     -11.118   6.488  68.132  1.00  0.00    -0.240 C  
BRANCH  13  15
HETATM   15  C   UNL     1     -10.993   7.625  70.249  1.00  0.00    -0.252 A  
HETATM   16  N   UNL     1     -11.659   8.761  70.588  1.00  0.00    -0.247 NA 
HETATM   17  C   UNL     1     -12.075   8.923  71.864  1.00  0.00    -0.373 A  
HETATM   18  N   UNL     1     -11.931   8.082  72.899  1.00  0.00    -0.212 NA 
HETATM   19  C   UNL     1     -11.311   6.956  72.524  1.00  0.00    -0.253 A  
HETATM   20  C   UNL     1     -10.833   6.644  71.261  1.00  0.00    -0.279 A  
HETATM   21  C   UNL     1     -10.302   5.321  71.353  1.00  0.00    -0.290 A  
HETATM   22  C   UNL     1     -10.431   4.896  72.659  1.00  0.00    -0.206 A  
HETATM   23  N   UNL     1     -11.041   5.904  73.359  1.00  0.00    -0.451 NA 
HETATM   24  H   UNL     1     -11.262   5.876  74.354  1.00  0.00     0.000 HD 
ENDBRANCH  13  15
ENDBRANCH   9  13
TORSDOF 3
ENDMDL
MODEL      142
REMARK 921   NORMALIZED FREE ENERGY PREDICTED BY IDOCK:   -4.02 KCAL/MOL
REMARK 922        TOTAL FREE ENERGY PREDICTED BY IDOCK:   -5.05 KCAL/MOL
REMARK 923 INTER-LIGAND FREE ENERGY PREDICTED BY IDOCK:   -4.74 KCAL/MOL
REMARK 924 INTRA-LIGAND FREE ENERGY PREDICTED BY IDOCK:   -0.31 KCAL/MOL
REMARK 927      BINDING AFFINITY PREDICTED BY RF-SCORE:    0.00 PKD
ROOT
HETATM    1  C   UNL     1     -11.145  14.046  68.588  1.00  0.00    -0.286 C  
HETATM    2  C   UNL     1     -11.897  15.180  67.879  1.00  0.00    -0.192 C  
HETATM    3  C   UNL     1     -11.442  12.683  67.964  1.00  0.00    -0.366 C  
HETATM    4  C   UNL     1     -11.620  16.535  68.537  1.00  0.00    -0.010 C  
HETATM    5  N   UNL     1     -10.189  16.791  68.746  1.00  0.00    -0.279 N  
HETATM    6  C   UNL     1      -9.444  15.713  69.415  1.00  0.00    -0.279 C  
HETATM    7  C   UNL     1      -9.629  17.976  68.267  1.00  0.00    -0.318 C  
HETATM    8  O   UNL     1     -10.299  18.774  67.608  1.00  0.00    -0.374 OA 
HETATM    9  C   UNL     1      -9.629  14.343  68.718  1.00  0.00    -0.177 C  
ENDROOT
BRANCH   7  10
HETATM   10  C   UNL     1      -8.167  18.236  68.580  1.00  0.00    -0.329 C  
HETATM   11  C   UNL     1      -7.672  19.472  67.961  1.00  0.00    -0.299 C  
HETATM   12  N   UNL     1      -7.219  20.430  67.487  1.00  0.00    -0.296 NA 
ENDBRANCH   7  10
BRANCH   9  13
HETATM   13  N   UNL     1      -8.911  14.240  67.433  1.00  0.00    -0.194 NA 
HETATM   14  C   UNL     1      -9.258  14.968  66.223  1.00  0.00    -0.289 C  
BRANCH  13  15
HETATM   15  C   UNL     1      -7.721  13.522  67.382  1.00  0.00    -0.137 A  
HETATM   16  N   UNL     1      -6.563  14.124  67.760  1.00  0.00    -0.168 NA 
HETATM   17  C   UNL     1      -5.398  13.453  67.620  1.00  0.00    -0.014 A  
HETATM   18  N   UNL     1      -5.203  12.213  67.149  1.00  0.00    -0.214 NA 
HETATM   19  C   UNL     1      -6.364  11.632  66.825  1.00  0.00    -0.114 A  
HETATM   20  C   UNL     1      -7.632  12.185  66.915  1.00  0.00    -0.029 A  
HETATM   21  C   UNL     1      -8.542  11.163  66.504  1.00  0.00    -0.169 A  
HETATM   22  C   UNL     1      -7.807  10.055  66.139  1.00  0.00    -0.114 A  
HETATM   23  N   UNL     1      -6.485  10.358  66.335  1.00  0.00    -0.089 NA 
HETATM   24  H   UNL     1      -5.705   9.730  66.144  1.00  0.00     0.000 HD 
ENDBRANCH  13  15
ENDBRANCH   9  13
TORSDOF 3
ENDMDL
MODEL      143
REMARK 921   NORMALIZED FREE ENERGY PREDICTED BY IDOCK:   -4.02 KCAL/MOL
REMARK 922        TOTAL FREE ENERGY PREDICTED BY IDOCK:   -5.04 KCAL/MOL
REMARK 923 INTER-LIGAND FREE ENERGY PREDICTED BY IDOCK:   -5.54 KCAL/MOL
REMARK 924 INTRA-LIGAND FREE ENERGY PREDICTED BY IDOCK:    0.50 KCAL/MOL
REMARK 927      BINDING AFFINITY PREDICTED BY RF-SCORE:    0.00 PKD
ROOT
HETATM    1  C   UNL     1      -7.480  12.366  68.431  1.00  0.00    -0.123 C  
HETATM    2  C   UNL     1      -6.560  11.200  68.045  1.00  0.00    -0.058 C  
HETATM    3  C   UNL     1      -7.152  13.637  67.650  1.00  0.00    -0.179 C  
HETATM    4  C   UNL     1      -6.876   9.942  68.861  1.00  0.00    -0.057 C  
HETATM    5  N   UNL     1      -8.305   9.609  68.875  1.00  0.00    -0.112 N  
HETATM    6  C   UNL     1      -9.209  10.715  69.232  1.00  0.00    -0.104 C  
HETATM    7  C   UNL     1      -8.713   8.326  68.511  1.00  0.00    -0.133 C  
HETATM    8  O   UNL     1      -7.900   7.492  68.106  1.00  0.00    -0.117 OA 
HETATM    9  C   UNL     1      -8.979  11.974  68.362  1.00  0.00    -0.153 C  
ENDROOT
BRANCH   7  10
HETATM   10  C   UNL     1     -10.192   8.002  68.622  1.00  0.00    -0.225 C  
HETATM   11  C   UNL     1     -10.485   7.098  69.740  1.00  0.00    -0.225 C  
HETATM   12  N   UNL     1     -10.779   6.374  70.599  1.00  0.00    -0.242 NA 
ENDBRANCH   7  10
BRANCH   9  13
HETATM   13  N   UNL     1      -9.470  11.825  66.978  1.00  0.00    -0.182 NA 
HETATM   14  C   UNL     1      -9.049  10.788  66.050  1.00  0.00    -0.185 C  
BRANCH  13  15
HETATM   15  C   UNL     1     -10.524  12.623  66.548  1.00  0.00    -0.247 A  
HETATM   16  N   UNL     1     -10.904  13.688  67.303  1.00  0.00    -0.282 NA 
HETATM   17  C   UNL     1     -11.987  14.405  66.929  1.00  0.00    -0.399 A  
HETATM   18  N   UNL     1     -12.780  14.221  65.863  1.00  0.00    -0.393 NA 
HETATM   19  C   UNL     1     -12.355  13.193  65.118  1.00  0.00    -0.473 A  
HETATM   20  C   UNL     1     -11.267  12.372  65.366  1.00  0.00    -0.358 A  
HETATM   21  C   UNL     1     -11.196  11.463  64.266  1.00  0.00    -0.306 A  
HETATM   22  C   UNL     1     -12.254  11.727  63.421  1.00  0.00    -0.348 A  
HETATM   23  N   UNL     1     -12.952  12.778  63.957  1.00  0.00    -0.642 NA 
HETATM   24  H   UNL     1     -13.792  13.191  63.551  1.00  0.00     0.000 HD 
ENDBRANCH  13  15
ENDBRANCH   9  13
TORSDOF 3
ENDMDL
MODEL      144
REMARK 921   NORMALIZED FREE ENERGY PREDICTED BY IDOCK:   -4.00 KCAL/MOL
REMARK 922        TOTAL FREE ENERGY PREDICTED BY IDOCK:   -5.02 KCAL/MOL
REMARK 923 INTER-LIGAND FREE ENERGY PREDICTED BY IDOCK:   -4.74 KCAL/MOL
REMARK 924 INTRA-LIGAND FREE ENERGY PREDICTED BY IDOCK:   -0.28 KCAL/MOL
REMARK 927      BINDING AFFINITY PREDICTED BY RF-SCORE:    0.00 PKD
ROOT
HETATM    1  C   UNL     1      -8.564   5.741  68.349  1.00  0.00    -0.112 C  
HETATM    2  C   UNL     1      -9.997   5.225  68.536  1.00  0.00    -0.227 C  
HETATM    3  C   UNL     1      -8.042   5.484  66.937  1.00  0.00    -0.101 C  
HETATM    4  C   UNL     1     -10.494   5.455  69.967  1.00  0.00    -0.303 C  
HETATM    5  N   UNL     1     -10.277   6.829  70.437  1.00  0.00    -0.190 N  
HETATM    6  C   UNL     1      -8.912   7.351  70.259  1.00  0.00    -0.147 C  
HETATM    7  C   UNL     1     -11.350   7.552  70.958  1.00  0.00    -0.273 C  
HETATM    8  O   UNL     1     -12.491   7.083  70.960  1.00  0.00    -0.376 OA 
HETATM    9  C   UNL     1      -8.412   7.217  68.800  1.00  0.00    -0.126 C  
ENDROOT
BRANCH   7  10
HETATM   10  C   UNL     1     -11.061   8.936  71.509  1.00  0.00    -0.397 C  
HETATM   11  C   UNL     1     -12.268   9.766  71.602  1.00  0.00    -0.404 C  
HETATM   12  N   UNL     1     -13.183  10.476  71.686  1.00  0.00    -0.405 NA 
ENDBRANCH   7  10
BRANCH   9  13
HETATM   13  N   UNL     1      -9.054   8.169  67.874  1.00  0.00    -0.133 NA 
HETATM   14  C   UNL     1     -10.401   8.037  67.342  1.00  0.00    -0.284 C  
BRANCH  13  15
HETATM   15  C   UNL     1      -8.411   9.368  67.587  1.00  0.00    -0.119 A  
HETATM   16  N   UNL     1      -8.441  10.375  68.501  1.00  0.00    -0.122 NA 
HETATM   17  C   UNL     1      -7.895  11.569  68.180  1.00  0.00    -0.128 A  
HETATM   18  N   UNL     1      -7.287  11.927  67.040  1.00  0.00    -0.139 NA 
HETATM   19  C   UNL     1      -7.236  10.904  66.179  1.00  0.00    -0.101 A  
HETATM   20  C   UNL     1      -7.743   9.627  66.363  1.00  0.00    -0.101 A  
HETATM   21  C   UNL     1      -7.398   8.889  65.190  1.00  0.00    -0.092 A  
HETATM   22  C   UNL     1      -6.742   9.740  64.324  1.00  0.00    -0.120 A  
HETATM   23  N   UNL     1      -6.657  10.962  64.938  1.00  0.00    -0.343 NA 
HETATM   24  H   UNL     1      -6.227  11.793  64.532  1.00  0.00     0.000 HD 
ENDBRANCH  13  15
ENDBRANCH   9  13
TORSDOF 3
ENDMDL
MODEL      145
REMARK 921   NORMALIZED FREE ENERGY PREDICTED BY IDOCK:   -3.99 KCAL/MOL
REMARK 922        TOTAL FREE ENERGY PREDICTED BY IDOCK:   -5.01 KCAL/MOL
REMARK 923 INTER-LIGAND FREE ENERGY PREDICTED BY IDOCK:   -5.22 KCAL/MOL
REMARK 924 INTRA-LIGAND FREE ENERGY PREDICTED BY IDOCK:    0.22 KCAL/MOL
REMARK 927      BINDING AFFINITY PREDICTED BY RF-SCORE:    0.00 PKD
ROOT
HETATM    1  C   UNL     1     -10.984  15.075  66.307  1.00  0.00    -0.338 C  
HETATM    2  C   UNL     1     -10.838  15.625  67.732  1.00  0.00    -0.307 C  
HETATM    3  C   UNL     1      -9.920  15.636  65.365  1.00  0.00    -0.311 C  
HETATM    4  C   UNL     1     -11.932  15.083  68.658  1.00  0.00    -0.246 C  
HETATM    5  N   UNL     1     -12.080  13.625  68.582  1.00  0.00    -0.349 N  
HETATM    6  C   UNL     1     -12.212  13.072  67.223  1.00  0.00    -0.120 C  
HETATM    7  C   UNL     1     -12.036  12.870  69.754  1.00  0.00    -0.296 C  
HETATM    8  O   UNL     1     -11.800  13.400  70.842  1.00  0.00    -0.166 OA 
HETATM    9  C   UNL     1     -11.068  13.527  66.285  1.00  0.00    -0.300 C  
ENDROOT
BRANCH   7  10
HETATM   10  C   UNL     1     -12.278  11.376  69.635  1.00  0.00    -0.316 C  
HETATM   11  C   UNL     1     -11.108  10.584  70.035  1.00  0.00    -0.308 C  
HETATM   12  N   UNL     1     -10.213   9.904  70.324  1.00  0.00    -0.279 NA 
ENDBRANCH   7  10
BRANCH   9  13
HETATM   13  N   UNL     1      -9.776  12.877  66.582  1.00  0.00    -0.248 NA 
HETATM   14  C   UNL     1      -8.936  13.178  67.729  1.00  0.00    -0.194 C  
BRANCH  13  15
HETATM   15  C   UNL     1      -9.377  11.789  65.814  1.00  0.00    -0.185 A  
HETATM   16  N   UNL     1      -9.730  11.734  64.502  1.00  0.00    -0.189 NA 
HETATM   17  C   UNL     1      -9.420  10.632  63.784  1.00  0.00    -0.290 A  
HETATM   18  N   UNL     1      -8.773   9.530  64.189  1.00  0.00    -0.207 NA 
HETATM   19  C   UNL     1      -8.402   9.632  65.471  1.00  0.00    -0.139 A  
HETATM   20  C   UNL     1      -8.641  10.692  66.330  1.00  0.00    -0.151 A  
HETATM   21  C   UNL     1      -8.008  10.353  67.566  1.00  0.00    -0.106 A  
HETATM   22  C   UNL     1      -7.454   9.097  67.435  1.00  0.00    -0.084 A  
HETATM   23  N   UNL     1      -7.707   8.671  66.156  1.00  0.00    -0.096 NA 
HETATM   24  H   UNL     1      -7.421   7.770  65.772  1.00  0.00     0.000 HD 
ENDBRANCH  13  15
ENDBRANCH   9  13
TORSDOF 3
ENDMDL
MODEL      146
REMARK 921   NORMALIZED FREE ENERGY PREDICTED BY IDOCK:   -3.99 KCAL/MOL
REMARK 922        TOTAL FREE ENERGY PREDICTED BY IDOCK:   -5.01 KCAL/MOL
REMARK 923 INTER-LIGAND FREE ENERGY PREDICTED BY IDOCK:   -4.53 KCAL/MOL
REMARK 924 INTRA-LIGAND FREE ENERGY PREDICTED BY IDOCK:   -0.48 KCAL/MOL
REMARK 927      BINDING AFFINITY PREDICTED BY RF-SCORE:    0.00 PKD
ROOT
HETATM    1  C   UNL     1     -11.378   9.161  71.714  1.00  0.00    -0.451 C  
HETATM    2  C   UNL     1     -12.176   9.696  70.518  1.00  0.00    -0.153 C  
HETATM    3  C   UNL     1     -12.261   8.393  72.695  1.00  0.00    -0.302 C  
HETATM    4  C   UNL     1     -11.287  10.495  69.560  1.00  0.00    -0.278 C  
HETATM    5  N   UNL     1     -10.051   9.790  69.200  1.00  0.00    -0.181 N  
HETATM    6  C   UNL     1      -9.272   9.259  70.330  1.00  0.00    -0.247 C  
HETATM    7  C   UNL     1      -9.725   9.624  67.853  1.00  0.00    -0.146 C  
HETATM    8  O   UNL     1     -10.495   9.993  66.964  1.00  0.00    -0.237 OA 
HETATM    9  C   UNL     1     -10.121   8.369  71.270  1.00  0.00    -0.202 C  
ENDROOT
BRANCH   7  10
HETATM   10  C   UNL     1      -8.397   8.965  67.530  1.00  0.00    -0.109 C  
HETATM   11  C   UNL     1      -8.557   7.584  67.058  1.00  0.00    -0.122 C  
HETATM   12  N   UNL     1      -8.616   6.484  66.692  1.00  0.00    -0.115 NA 
ENDBRANCH   7  10
BRANCH   9  13
HETATM   13  N   UNL     1     -10.449   7.053  70.688  1.00  0.00    -0.208 NA 
HETATM   14  C   UNL     1     -11.395   6.831  69.606  1.00  0.00    -0.272 C  
BRANCH  13  15
HETATM   15  C   UNL     1      -9.706   5.942  71.073  1.00  0.00    -0.172 A  
HETATM   16  N   UNL     1      -8.525   5.684  70.452  1.00  0.00    -0.125 NA 
HETATM   17  C   UNL     1      -7.853   4.553  70.765  1.00  0.00    -0.064 A  
HETATM   18  N   UNL     1      -8.188   3.603  71.649  1.00  0.00    -0.065 NA 
HETATM   19  C   UNL     1      -9.333   3.907  72.273  1.00  0.00    -0.122 A  
HETATM   20  C   UNL     1     -10.129   5.022  72.066  1.00  0.00    -0.255 A  
HETATM   21  C   UNL     1     -11.205   4.921  73.000  1.00  0.00    -0.367 A  
HETATM   22  C   UNL     1     -11.057   3.742  73.701  1.00  0.00    -0.228 A  
HETATM   23  N   UNL     1      -9.916   3.135  73.242  1.00  0.00    -0.110 NA 
HETATM   24  H   UNL     1      -9.555   2.240  73.574  1.00  0.00     0.000 HD 
ENDBRANCH  13  15
ENDBRANCH   9  13
TORSDOF 3
ENDMDL
MODEL      147
REMARK 921   NORMALIZED FREE ENERGY PREDICTED BY IDOCK:   -3.99 KCAL/MOL
REMARK 922        TOTAL FREE ENERGY PREDICTED BY IDOCK:   -5.01 KCAL/MOL
REMARK 923 INTER-LIGAND FREE ENERGY PREDICTED BY IDOCK:   -5.03 KCAL/MOL
REMARK 924 INTRA-LIGAND FREE ENERGY PREDICTED BY IDOCK:    0.02 KCAL/MOL
REMARK 927      BINDING AFFINITY PREDICTED BY RF-SCORE:    0.00 PKD
ROOT
HETATM    1  C   UNL     1      -6.590  11.256  67.640  1.00  0.00    -0.072 C  
HETATM    2  C   UNL     1      -6.018  10.342  68.732  1.00  0.00    -0.040 C  
HETATM    3  C   UNL     1      -5.698  11.296  66.401  1.00  0.00    -0.145 C  
HETATM    4  C   UNL     1      -6.903  10.339  69.983  1.00  0.00    -0.146 C  
HETATM    5  N   UNL     1      -8.322  10.114  69.683  1.00  0.00    -0.174 N  
HETATM    6  C   UNL     1      -8.891  10.973  68.631  1.00  0.00    -0.164 C  
HETATM    7  C   UNL     1      -9.010   9.100  70.350  1.00  0.00    -0.229 C  
HETATM    8  O   UNL     1      -8.428   8.344  71.130  1.00  0.00    -0.123 OA 
HETATM    9  C   UNL     1      -8.071  10.927  67.319  1.00  0.00    -0.123 C  
ENDROOT
BRANCH   7  10
HETATM   10  C   UNL     1     -10.496   8.960  70.070  1.00  0.00    -0.227 C  
HETATM   11  C   UNL     1     -10.889   7.569  69.814  1.00  0.00    -0.225 C  
HETATM   12  N   UNL     1     -11.260   6.492  69.589  1.00  0.00    -0.369 NA 
ENDBRANCH   7  10
BRANCH   9  13
HETATM   13  N   UNL     1      -8.229   9.662  66.576  1.00  0.00    -0.119 NA 
HETATM   14  C   UNL     1      -8.155   8.334  67.163  1.00  0.00    -0.108 C  
BRANCH  13  15
HETATM   15  C   UNL     1      -8.631   9.708  65.246  1.00  0.00    -0.152 A  
HETATM   16  N   UNL     1      -8.111   8.816  64.361  1.00  0.00    -0.148 NA 
HETATM   17  C   UNL     1      -8.433   8.924  63.053  1.00  0.00    -0.169 A  
HETATM   18  N   UNL     1      -9.239   9.820  62.466  1.00  0.00    -0.286 NA 
HETATM   19  C   UNL     1      -9.768  10.657  63.367  1.00  0.00    -0.339 A  
HETATM   20  C   UNL     1      -9.539  10.670  64.733  1.00  0.00    -0.334 A  
HETATM   21  C   UNL     1     -10.365  11.708  65.265  1.00  0.00    -0.316 A  
HETATM   22  C   UNL     1     -11.023  12.314  64.215  1.00  0.00    -0.343 A  
HETATM   23  N   UNL     1     -10.644  11.667  63.067  1.00  0.00    -0.677 NA 
HETATM   24  H   UNL     1     -10.967  11.901  62.129  1.00  0.00     0.000 HD 
ENDBRANCH  13  15
ENDBRANCH   9  13
TORSDOF 3
ENDMDL
MODEL      148
REMARK 921   NORMALIZED FREE ENERGY PREDICTED BY IDOCK:   -3.99 KCAL/MOL
REMARK 922        TOTAL FREE ENERGY PREDICTED BY IDOCK:   -5.01 KCAL/MOL
REMARK 923 INTER-LIGAND FREE ENERGY PREDICTED BY IDOCK:   -4.69 KCAL/MOL
REMARK 924 INTRA-LIGAND FREE ENERGY PREDICTED BY IDOCK:   -0.31 KCAL/MOL
REMARK 927      BINDING AFFINITY PREDICTED BY RF-SCORE:    0.00 PKD
ROOT
HETATM    1  C   UNL     1     -10.513   8.817  72.181  1.00  0.00    -0.384 C  
HETATM    2  C   UNL     1     -11.857   9.275  71.597  1.00  0.00    -0.453 C  
HETATM    3  C   UNL     1     -10.670   7.601  73.092  1.00  0.00    -0.445 C  
HETATM    4  C   UNL     1     -11.691  10.517  70.715  1.00  0.00    -0.356 C  
HETATM    5  N   UNL     1     -10.614  10.382  69.728  1.00  0.00    -0.260 N  
HETATM    6  C   UNL     1      -9.317   9.934  70.262  1.00  0.00    -0.087 C  
HETATM    7  C   UNL     1     -10.885  10.626  68.381  1.00  0.00    -0.237 C  
HETATM    8  O   UNL     1     -12.029  10.880  67.999  1.00  0.00    -0.586 OA 
HETATM    9  C   UNL     1      -9.435   8.627  71.084  1.00  0.00    -0.215 C  
ENDROOT
BRANCH   7  10
HETATM   10  C   UNL     1      -9.721  10.557  67.409  1.00  0.00    -0.190 C  
HETATM   11  C   UNL     1      -9.212  11.886  67.048  1.00  0.00    -0.191 C  
HETATM   12  N   UNL     1      -8.775  12.908  66.714  1.00  0.00    -0.157 NA 
ENDBRANCH   7  10
BRANCH   9  13
HETATM   13  N   UNL     1      -9.669   7.432  70.249  1.00  0.00    -0.172 NA 
HETATM   14  C   UNL     1     -10.949   7.056  69.671  1.00  0.00    -0.236 C  
BRANCH  13  15
HETATM   15  C   UNL     1      -8.579   6.672  69.840  1.00  0.00    -0.140 A  
HETATM   16  N   UNL     1      -8.086   6.837  68.584  1.00  0.00    -0.119 NA 
HETATM   17  C   UNL     1      -7.088   6.032  68.159  1.00  0.00    -0.078 A  
HETATM   18  N   UNL     1      -6.470   5.048  68.829  1.00  0.00    -0.035 NA 
HETATM   19  C   UNL     1      -6.948   4.938  70.074  1.00  0.00    -0.049 A  
HETATM   20  C   UNL     1      -7.959   5.689  70.652  1.00  0.00    -0.104 A  
HETATM   21  C   UNL     1      -8.070   5.233  72.002  1.00  0.00    -0.114 A  
HETATM   22  C   UNL     1      -7.169   4.205  72.184  1.00  0.00    -0.057 A  
HETATM   23  N   UNL     1      -6.499   4.035  71.000  1.00  0.00    -0.025 NA 
HETATM   24  H   UNL     1      -5.772   3.338  70.833  1.00  0.00     0.000 HD 
ENDBRANCH  13  15
ENDBRANCH   9  13
TORSDOF 3
ENDMDL
MODEL      149
REMARK 921   NORMALIZED FREE ENERGY PREDICTED BY IDOCK:   -3.98 KCAL/MOL
REMARK 922        TOTAL FREE ENERGY PREDICTED BY IDOCK:   -4.99 KCAL/MOL
REMARK 923 INTER-LIGAND FREE ENERGY PREDICTED BY IDOCK:   -4.50 KCAL/MOL
REMARK 924 INTRA-LIGAND FREE ENERGY PREDICTED BY IDOCK:   -0.49 KCAL/MOL
REMARK 927      BINDING AFFINITY PREDICTED BY RF-SCORE:    0.00 PKD
ROOT
HETATM    1  C   UNL     1     -11.147   7.201  72.468  1.00  0.00    -0.317 C  
HETATM    2  C   UNL     1     -12.449   7.895  72.044  1.00  0.00    -0.338 C  
HETATM    3  C   UNL     1     -11.376   5.743  72.861  1.00  0.00    -0.298 C  
HETATM    4  C   UNL     1     -12.211   9.366  71.688  1.00  0.00    -0.390 C  
HETATM    5  N   UNL     1     -11.090   9.559  70.760  1.00  0.00    -0.294 N  
HETATM    6  C   UNL     1      -9.833   8.895  71.139  1.00  0.00    -0.275 C  
HETATM    7  C   UNL     1     -11.290  10.290  69.588  1.00  0.00    -0.257 C  
HETATM    8  O   UNL     1     -12.408  10.711  69.285  1.00  0.00    -0.316 OA 
HETATM    9  C   UNL     1     -10.021   7.383  71.418  1.00  0.00    -0.186 C  
ENDROOT
BRANCH   7  10
HETATM   10  C   UNL     1     -10.082  10.535  68.702  1.00  0.00    -0.190 C  
HETATM   11  C   UNL     1     -10.182   9.840  67.413  1.00  0.00    -0.230 C  
HETATM   12  N   UNL     1     -10.196   9.305  66.383  1.00  0.00    -0.260 NA 
ENDBRANCH   7  10
BRANCH   9  13
HETATM   13  N   UNL     1     -10.242   6.588  70.194  1.00  0.00    -0.188 NA 
HETATM   14  C   UNL     1     -11.396   6.709  69.318  1.00  0.00    -0.237 C  
BRANCH  13  15
HETATM   15  C   UNL     1      -9.223   5.762  69.734  1.00  0.00    -0.140 A  
HETATM   16  N   UNL     1      -9.292   4.425  69.968  1.00  0.00    -0.139 NA 
HETATM   17  C   UNL     1      -8.256   3.639  69.601  1.00  0.00    -0.052 A  
HETATM   18  N   UNL     1      -7.112   3.997  68.999  1.00  0.00    -0.050 NA 
HETATM   19  C   UNL     1      -7.092   5.311  68.744  1.00  0.00    -0.061 A  
HETATM   20  C   UNL     1      -8.074   6.239  69.054  1.00  0.00    -0.110 A  
HETATM   21  C   UNL     1      -7.615   7.490  68.537  1.00  0.00    -0.114 A  
HETATM   22  C   UNL     1      -6.368   7.294  67.981  1.00  0.00    -0.044 A  
HETATM   23  N   UNL     1      -6.063   5.965  68.120  1.00  0.00    -0.017 NA 
HETATM   24  H   UNL     1      -5.197   5.526  67.805  1.00  0.00     0.000 HD 
ENDBRANCH  13  15
ENDBRANCH   9  13
TORSDOF 3
ENDMDL
MODEL      150
REMARK 921   NORMALIZED FREE ENERGY PREDICTED BY IDOCK:   -3.95 KCAL/MOL
REMARK 922        TOTAL FREE ENERGY PREDICTED BY IDOCK:   -4.96 KCAL/MOL
REMARK 923 INTER-LIGAND FREE ENERGY PREDICTED BY IDOCK:   -4.58 KCAL/MOL
REMARK 924 INTRA-LIGAND FREE ENERGY PREDICTED BY IDOCK:   -0.38 KCAL/MOL
REMARK 927      BINDING AFFINITY PREDICTED BY RF-SCORE:    0.00 PKD
ROOT
HETATM    1  C   UNL     1      -9.452   7.551  70.396  1.00  0.00    -0.161 C  
HETATM    2  C   UNL     1     -10.886   8.026  70.666  1.00  0.00    -0.240 C  
HETATM    3  C   UNL     1      -9.304   6.042  70.584  1.00  0.00    -0.176 C  
HETATM    4  C   UNL     1     -11.013   9.545  70.510  1.00  0.00    -0.288 C  
HETATM    5  N   UNL     1     -10.432  10.045  69.258  1.00  0.00    -0.210 N  
HETATM    6  C   UNL     1      -9.060   9.594  68.972  1.00  0.00    -0.148 C  
HETATM    7  C   UNL     1     -11.205  10.846  68.417  1.00  0.00    -0.285 C  
HETATM    8  O   UNL     1     -12.389  11.078  68.672  1.00  0.00    -0.539 OA 
HETATM    9  C   UNL     1      -8.918   8.054  69.030  1.00  0.00    -0.145 C  
ENDROOT
BRANCH   7  10
HETATM   10  C   UNL     1     -10.536  11.409  67.176  1.00  0.00    -0.279 C  
HETATM   11  C   UNL     1     -11.486  12.089  66.287  1.00  0.00    -0.345 C  
HETATM   12  N   UNL     1     -12.188  12.628  65.536  1.00  0.00    -0.564 NA 
ENDBRANCH   7  10
BRANCH   9  13
HETATM   13  N   UNL     1      -9.540   7.366  67.882  1.00  0.00    -0.139 NA 
HETATM   14  C   UNL     1     -10.965   7.344  67.595  1.00  0.00    -0.066 C  
BRANCH  13  15
HETATM   15  C   UNL     1      -8.721   6.819  66.901  1.00  0.00    -0.117 A  
HETATM   16  N   UNL     1      -8.263   5.547  67.048  1.00  0.00    -0.105 NA 
HETATM   17  C   UNL     1      -7.393   5.053  66.140  1.00  0.00    -0.078 A  
HETATM   18  N   UNL     1      -6.896   5.656  65.050  1.00  0.00    -0.050 NA 
HETATM   19  C   UNL     1      -7.397   6.889  64.909  1.00  0.00    -0.087 A  
HETATM   20  C   UNL     1      -8.294   7.529  65.749  1.00  0.00    -0.144 A  
HETATM   21  C   UNL     1      -8.562   8.799  65.151  1.00  0.00    -0.209 A  
HETATM   22  C   UNL     1      -7.796   8.906  64.009  1.00  0.00    -0.137 A  
HETATM   23  N   UNL     1      -7.089   7.739  63.880  1.00  0.00    -0.066 NA 
HETATM   24  H   UNL     1      -6.431   7.533  63.129  1.00  0.00     0.000 HD 
ENDBRANCH  13  15
ENDBRANCH   9  13
TORSDOF 3
ENDMDL
MODEL      151
REMARK 921   NORMALIZED FREE ENERGY PREDICTED BY IDOCK:   -3.93 KCAL/MOL
REMARK 922        TOTAL FREE ENERGY PREDICTED BY IDOCK:   -4.93 KCAL/MOL
REMARK 923 INTER-LIGAND FREE ENERGY PREDICTED BY IDOCK:   -4.55 KCAL/MOL
REMARK 924 INTRA-LIGAND FREE ENERGY PREDICTED BY IDOCK:   -0.38 KCAL/MOL
REMARK 927      BINDING AFFINITY PREDICTED BY RF-SCORE:    0.00 PKD
ROOT
HETATM    1  C   UNL     1      -7.953   7.967  66.244  1.00  0.00    -0.105 C  
HETATM    2  C   UNL     1      -8.199   6.453  66.281  1.00  0.00    -0.118 C  
HETATM    3  C   UNL     1      -8.270   8.565  64.874  1.00  0.00    -0.166 C  
HETATM    4  C   UNL     1      -7.842   5.860  67.648  1.00  0.00    -0.098 C  
HETATM    5  N   UNL     1      -8.436   6.600  68.768  1.00  0.00    -0.123 N  
HETATM    6  C   UNL     1      -8.222   8.056  68.749  1.00  0.00    -0.126 C  
HETATM    7  C   UNL     1      -9.186   5.912  69.722  1.00  0.00    -0.145 C  
HETATM    8  O   UNL     1      -9.419   4.707  69.599  1.00  0.00    -0.129 OA 
HETATM    9  C   UNL     1      -8.660   8.702  67.412  1.00  0.00    -0.134 C  
ENDROOT
BRANCH   7  10
HETATM   10  C   UNL     1      -9.708   6.703  70.907  1.00  0.00    -0.190 C  
HETATM   11  C   UNL     1      -9.471   6.021  72.186  1.00  0.00    -0.148 C  
HETATM   12  N   UNL     1      -9.326   5.526  73.226  1.00  0.00    -0.132 NA 
ENDBRANCH   7  10
BRANCH   9  13
HETATM   13  N   UNL     1     -10.125   8.767  67.246  1.00  0.00    -0.214 NA 
HETATM   14  C   UNL     1     -11.003   7.615  67.129  1.00  0.00    -0.028 C  
BRANCH  13  15
HETATM   15  C   UNL     1     -10.761   9.998  67.359  1.00  0.00    -0.274 A  
HETATM   16  N   UNL     1     -10.899  10.781  66.256  1.00  0.00    -0.134 NA 
HETATM   17  C   UNL     1     -11.434  12.015  66.389  1.00  0.00    -0.353 A  
HETATM   18  N   UNL     1     -11.883  12.612  67.502  1.00  0.00    -0.389 NA 
HETATM   19  C   UNL     1     -11.773  11.802  68.562  1.00  0.00    -0.330 A  
HETATM   20  C   UNL     1     -11.254  10.517  68.584  1.00  0.00    -0.328 A  
HETATM   21  C   UNL     1     -11.400  10.052  69.927  1.00  0.00    -0.306 A  
HETATM   22  C   UNL     1     -11.953  11.070  70.677  1.00  0.00    -0.365 A  
HETATM   23  N   UNL     1     -12.168  12.128  69.833  1.00  0.00    -0.217 NA 
HETATM   24  H   UNL     1     -12.564  13.027  70.109  1.00  0.00     0.000 HD 
ENDBRANCH  13  15
ENDBRANCH   9  13
TORSDOF 3
ENDMDL
MODEL      152
REMARK 921   NORMALIZED FREE ENERGY PREDICTED BY IDOCK:   -3.92 KCAL/MOL
REMARK 922        TOTAL FREE ENERGY PREDICTED BY IDOCK:   -4.92 KCAL/MOL
REMARK 923 INTER-LIGAND FREE ENERGY PREDICTED BY IDOCK:   -5.57 KCAL/MOL
REMARK 924 INTRA-LIGAND FREE ENERGY PREDICTED BY IDOCK:    0.65 KCAL/MOL
REMARK 927      BINDING AFFINITY PREDICTED BY RF-SCORE:    0.00 PKD
ROOT
HETATM    1  C   UNL     1     -11.350  13.639  68.241  1.00  0.00    -0.322 C  
HETATM    2  C   UNL     1     -11.514  14.400  66.919  1.00  0.00    -0.379 C  
HETATM    3  C   UNL     1     -11.861  12.203  68.142  1.00  0.00    -0.362 C  
HETATM    4  C   UNL     1     -11.032  15.850  67.041  1.00  0.00    -0.189 C  
HETATM    5  N   UNL     1      -9.699  15.962  67.646  1.00  0.00    -0.223 N  
HETATM    6  C   UNL     1      -9.514  15.232  68.911  1.00  0.00    -0.218 C  
HETATM    7  C   UNL     1      -8.706  16.686  66.985  1.00  0.00    -0.200 C  
HETATM    8  O   UNL     1      -8.909  17.167  65.868  1.00  0.00    -0.520 OA 
HETATM    9  C   UNL     1      -9.906  13.738  68.796  1.00  0.00    -0.088 C  
ENDROOT
BRANCH   7  10
HETATM   10  C   UNL     1      -7.371  16.847  67.688  1.00  0.00    -0.170 C  
HETATM   11  C   UNL     1      -7.258  18.131  68.390  1.00  0.00    -0.260 C  
HETATM   12  N   UNL     1      -7.103  19.135  68.953  1.00  0.00    -0.326 NA 
ENDBRANCH   7  10
BRANCH   9  13
HETATM   13  N   UNL     1      -8.936  12.939  68.022  1.00  0.00    -0.190 NA 
HETATM   14  C   UNL     1      -7.680  13.439  67.487  1.00  0.00    -0.176 C  
BRANCH  13  15
HETATM   15  C   UNL     1      -9.134  11.567  67.906  1.00  0.00    -0.167 A  
HETATM   16  N   UNL     1      -9.037  10.785  69.014  1.00  0.00    -0.170 NA 
HETATM   17  C   UNL     1      -9.137   9.444  68.881  1.00  0.00    -0.140 A  
HETATM   18  N   UNL     1      -9.340   8.731  67.764  1.00  0.00    -0.140 NA 
HETATM   19  C   UNL     1      -9.474   9.530  66.699  1.00  0.00    -0.170 A  
HETATM   20  C   UNL     1      -9.401  10.914  66.676  1.00  0.00    -0.191 A  
HETATM   21  C   UNL     1      -9.657  11.303  65.325  1.00  0.00    -0.265 A  
HETATM   22  C   UNL     1      -9.830  10.159  64.574  1.00  0.00    -0.264 A  
HETATM   23  N   UNL     1      -9.710   9.090  65.423  1.00  0.00    -0.444 NA 
HETATM   24  H   UNL     1      -9.784   8.111  65.147  1.00  0.00     0.000 HD 
ENDBRANCH  13  15
ENDBRANCH   9  13
TORSDOF 3
ENDMDL
MODEL      153
REMARK 921   NORMALIZED FREE ENERGY PREDICTED BY IDOCK:   -3.92 KCAL/MOL
REMARK 922        TOTAL FREE ENERGY PREDICTED BY IDOCK:   -4.92 KCAL/MOL
REMARK 923 INTER-LIGAND FREE ENERGY PREDICTED BY IDOCK:   -4.49 KCAL/MOL
REMARK 924 INTRA-LIGAND FREE ENERGY PREDICTED BY IDOCK:   -0.43 KCAL/MOL
REMARK 927      BINDING AFFINITY PREDICTED BY RF-SCORE:    0.00 PKD
ROOT
HETATM    1  C   UNL     1      -7.932   4.263  67.930  1.00  0.00    -0.087 C  
HETATM    2  C   UNL     1      -7.036   5.224  67.138  1.00  0.00    -0.065 C  
HETATM    3  C   UNL     1      -7.125   3.375  68.876  1.00  0.00    -0.049 C  
HETATM    4  C   UNL     1      -7.853   6.082  66.166  1.00  0.00    -0.104 C  
HETATM    5  N   UNL     1      -9.016   6.717  66.799  1.00  0.00    -0.128 N  
HETATM    6  C   UNL     1      -9.886   5.816  67.573  1.00  0.00    -0.130 C  
HETATM    7  C   UNL     1      -9.193   8.095  66.677  1.00  0.00    -0.180 C  
HETATM    8  O   UNL     1      -8.352   8.797  66.113  1.00  0.00    -0.115 OA 
HETATM    9  C   UNL     1      -9.103   4.999  68.630  1.00  0.00    -0.110 C  
ENDROOT
BRANCH   7  10
HETATM   10  C   UNL     1     -10.454   8.694  67.274  1.00  0.00    -0.360 C  
HETATM   11  C   UNL     1     -10.169   9.594  68.399  1.00  0.00    -0.188 C  
HETATM   12  N   UNL     1     -10.010  10.304  69.303  1.00  0.00    -0.217 NA 
ENDBRANCH   7  10
BRANCH   9  13
HETATM   13  N   UNL     1      -8.665   5.807  69.784  1.00  0.00    -0.125 NA 
HETATM   14  C   UNL     1      -7.665   6.861  69.734  1.00  0.00    -0.113 C  
BRANCH  13  15
HETATM   15  C   UNL     1      -9.345   5.682  70.991  1.00  0.00    -0.153 A  
HETATM   16  N   UNL     1      -8.762   5.007  72.017  1.00  0.00    -0.128 NA 
HETATM   17  C   UNL     1      -9.464   4.808  73.154  1.00  0.00    -0.127 A  
HETATM   18  N   UNL     1     -10.711   5.206  73.443  1.00  0.00    -0.251 NA 
HETATM   19  C   UNL     1     -11.242   5.903  72.432  1.00  0.00    -0.291 A  
HETATM   20  C   UNL     1     -10.650   6.193  71.212  1.00  0.00    -0.295 A  
HETATM   21  C   UNL     1     -11.587   6.998  70.496  1.00  0.00    -0.364 A  
HETATM   22  C   UNL     1     -12.720   7.132  71.272  1.00  0.00    -0.366 A  
HETATM   23  N   UNL     1     -12.495   6.456  72.443  1.00  0.00    -0.547 NA 
HETATM   24  H   UNL     1     -13.163   6.375  73.210  1.00  0.00     0.000 HD 
ENDBRANCH  13  15
ENDBRANCH   9  13
TORSDOF 3
ENDMDL
MODEL      154
REMARK 921   NORMALIZED FREE ENERGY PREDICTED BY IDOCK:   -3.91 KCAL/MOL
REMARK 922        TOTAL FREE ENERGY PREDICTED BY IDOCK:   -4.91 KCAL/MOL
REMARK 923 INTER-LIGAND FREE ENERGY PREDICTED BY IDOCK:   -4.69 KCAL/MOL
REMARK 924 INTRA-LIGAND FREE ENERGY PREDICTED BY IDOCK:   -0.22 KCAL/MOL
REMARK 927      BINDING AFFINITY PREDICTED BY RF-SCORE:    0.00 PKD
ROOT
HETATM    1  C   UNL     1      -6.910   8.623  71.474  1.00  0.00    -0.085 C  
HETATM    2  C   UNL     1      -6.385   7.266  70.987  1.00  0.00    -0.036 C  
HETATM    3  C   UNL     1      -6.512   9.761  70.536  1.00  0.00    -0.108 C  
HETATM    4  C   UNL     1      -6.759   6.138  71.955  1.00  0.00    -0.064 C  
HETATM    5  N   UNL     1      -8.181   6.144  72.321  1.00  0.00    -0.110 N  
HETATM    6  C   UNL     1      -8.710   7.438  72.782  1.00  0.00    -0.126 C  
HETATM    7  C   UNL     1      -8.932   4.979  72.168  1.00  0.00    -0.132 C  
HETATM    8  O   UNL     1      -8.441   3.969  71.659  1.00  0.00    -0.090 OA 
HETATM    9  C   UNL     1      -8.429   8.585  71.781  1.00  0.00    -0.175 C  
ENDROOT
BRANCH   7  10
HETATM   10  C   UNL     1     -10.374   5.008  72.639  1.00  0.00    -0.249 C  
HETATM   11  C   UNL     1     -10.862   3.681  73.035  1.00  0.00    -0.110 C  
HETATM   12  N   UNL     1     -11.310   2.657  73.348  1.00  0.00    -0.173 NA 
ENDBRANCH   7  10
BRANCH   9  13
HETATM   13  N   UNL     1      -9.260   8.512  70.563  1.00  0.00    -0.149 NA 
HETATM   14  C   UNL     1      -9.416   7.332  69.729  1.00  0.00    -0.149 C  
BRANCH  13  15
HETATM   15  C   UNL     1     -10.085   9.585  70.246  1.00  0.00    -0.262 A  
HETATM   16  N   UNL     1      -9.690  10.471  69.293  1.00  0.00    -0.215 NA 
HETATM   17  C   UNL     1     -10.450  11.562  69.055  1.00  0.00    -0.145 A  
HETATM   18  N   UNL     1     -11.604  11.917  69.640  1.00  0.00    -0.316 NA 
HETATM   19  C   UNL     1     -11.987  11.005  70.541  1.00  0.00    -0.379 A  
HETATM   20  C   UNL     1     -11.322   9.841  70.892  1.00  0.00    -0.439 A  
HETATM   21  C   UNL     1     -12.150   9.183  71.852  1.00  0.00    -0.448 A  
HETATM   22  C   UNL     1     -13.252   9.978  72.086  1.00  0.00    -0.390 A  
HETATM   23  N   UNL     1     -13.135  11.085  71.285  1.00  0.00    -0.344 NA 
HETATM   24  H   UNL     1     -13.804  11.854  71.248  1.00  0.00     0.000 HD 
ENDBRANCH  13  15
ENDBRANCH   9  13
TORSDOF 3
ENDMDL
MODEL      155
REMARK 921   NORMALIZED FREE ENERGY PREDICTED BY IDOCK:   -3.91 KCAL/MOL
REMARK 922        TOTAL FREE ENERGY PREDICTED BY IDOCK:   -4.91 KCAL/MOL
REMARK 923 INTER-LIGAND FREE ENERGY PREDICTED BY IDOCK:   -4.93 KCAL/MOL
REMARK 924 INTRA-LIGAND FREE ENERGY PREDICTED BY IDOCK:    0.03 KCAL/MOL
REMARK 927      BINDING AFFINITY PREDICTED BY RF-SCORE:    0.00 PKD
ROOT
HETATM    1  C   UNL     1      -9.796   6.725  70.004  1.00  0.00    -0.179 C  
HETATM    2  C   UNL     1     -11.246   7.154  70.267  1.00  0.00    -0.309 C  
HETATM    3  C   UNL     1      -9.705   5.278  69.522  1.00  0.00    -0.246 C  
HETATM    4  C   UNL     1     -11.320   8.594  70.785  1.00  0.00    -0.263 C  
HETATM    5  N   UNL     1     -10.545   9.538  69.972  1.00  0.00    -0.226 N  
HETATM    6  C   UNL     1      -9.153   9.144  69.698  1.00  0.00    -0.160 C  
HETATM    7  C   UNL     1     -11.164  10.688  69.480  1.00  0.00    -0.272 C  
HETATM    8  O   UNL     1     -12.369  10.884  69.654  1.00  0.00    -0.328 OA 
HETATM    9  C   UNL     1      -9.049   7.726  69.086  1.00  0.00    -0.145 C  
ENDROOT
BRANCH   7  10
HETATM   10  C   UNL     1     -10.301  11.676  68.717  1.00  0.00    -0.213 C  
HETATM   11  C   UNL     1     -10.898  13.017  68.664  1.00  0.00    -0.259 C  
HETATM   12  N   UNL     1     -11.325  14.093  68.574  1.00  0.00    -0.266 NA 
ENDBRANCH   7  10
BRANCH   9  13
HETATM   13  N   UNL     1      -9.497   7.662  67.682  1.00  0.00    -0.141 NA 
HETATM   14  C   UNL     1     -10.840   7.311  67.250  1.00  0.00    -0.284 C  
BRANCH  13  15
HETATM   15  C   UNL     1      -8.643   8.111  66.680  1.00  0.00    -0.135 A  
HETATM   16  N   UNL     1      -7.461   7.472  66.478  1.00  0.00    -0.083 NA 
HETATM   17  C   UNL     1      -6.594   7.968  65.568  1.00  0.00    -0.045 A  
HETATM   18  N   UNL     1      -6.736   9.048  64.785  1.00  0.00    -0.076 NA 
HETATM   19  C   UNL     1      -7.926   9.630  64.977  1.00  0.00    -0.122 A  
HETATM   20  C   UNL     1      -8.916   9.239  65.864  1.00  0.00    -0.225 A  
HETATM   21  C   UNL     1     -10.008  10.138  65.664  1.00  0.00    -0.348 A  
HETATM   22  C   UNL     1      -9.635  11.061  64.709  1.00  0.00    -0.248 A  
HETATM   23  N   UNL     1      -8.364  10.741  64.306  1.00  0.00    -0.364 NA 
HETATM   24  H   UNL     1      -7.824  11.253  63.609  1.00  0.00     0.000 HD 
ENDBRANCH  13  15
ENDBRANCH   9  13
TORSDOF 3
ENDMDL
MODEL      156
REMARK 921   NORMALIZED FREE ENERGY PREDICTED BY IDOCK:   -3.90 KCAL/MOL
REMARK 922        TOTAL FREE ENERGY PREDICTED BY IDOCK:   -4.90 KCAL/MOL
REMARK 923 INTER-LIGAND FREE ENERGY PREDICTED BY IDOCK:   -5.32 KCAL/MOL
REMARK 924 INTRA-LIGAND FREE ENERGY PREDICTED BY IDOCK:    0.42 KCAL/MOL
REMARK 927      BINDING AFFINITY PREDICTED BY RF-SCORE:    0.00 PKD
ROOT
HETATM    1  C   UNL     1     -11.334  14.839  65.834  1.00  0.00    -0.331 C  
HETATM    2  C   UNL     1      -9.972  15.247  65.257  1.00  0.00    -0.322 C  
HETATM    3  C   UNL     1     -12.370  14.595  64.739  1.00  0.00    -0.362 C  
HETATM    4  C   UNL     1      -8.952  15.526  66.367  1.00  0.00    -0.324 C  
HETATM    5  N   UNL     1      -8.891  14.458  67.372  1.00  0.00    -0.192 N  
HETATM    6  C   UNL     1     -10.187  14.041  67.933  1.00  0.00    -0.240 C  
HETATM    7  C   UNL     1      -7.660  13.884  67.687  1.00  0.00    -0.178 C  
HETATM    8  O   UNL     1      -6.635  14.207  67.082  1.00  0.00    -0.183 OA 
HETATM    9  C   UNL     1     -11.214  13.664  66.838  1.00  0.00    -0.312 C  
ENDROOT
BRANCH   7  10
HETATM   10  C   UNL     1      -7.633  12.844  68.792  1.00  0.00    -0.025 C  
HETATM   11  C   UNL     1      -6.633  11.796  68.552  1.00  0.00    -0.059 C  
HETATM   12  N   UNL     1      -5.872  10.931  68.412  1.00  0.00    -0.043 NA 
ENDBRANCH   7  10
BRANCH   9  13
HETATM   13  N   UNL     1     -10.919  12.375  66.181  1.00  0.00    -0.275 NA 
HETATM   14  C   UNL     1     -10.897  12.158  64.743  1.00  0.00    -0.307 C  
BRANCH  13  15
HETATM   15  C   UNL     1     -10.478  11.309  66.956  1.00  0.00    -0.234 A  
HETATM   16  N   UNL     1      -9.416  10.573  66.534  1.00  0.00    -0.162 NA 
HETATM   17  C   UNL     1      -9.049   9.482  67.242  1.00  0.00    -0.130 A  
HETATM   18  N   UNL     1      -9.598   8.996  68.365  1.00  0.00    -0.150 NA 
HETATM   19  C   UNL     1     -10.612   9.765  68.779  1.00  0.00    -0.219 A  
HETATM   20  C   UNL     1     -11.100  10.909  68.166  1.00  0.00    -0.337 A  
HETATM   21  C   UNL     1     -12.146  11.396  69.009  1.00  0.00    -0.316 A  
HETATM   22  C   UNL     1     -12.290  10.521  70.066  1.00  0.00    -0.219 A  
HETATM   23  N   UNL     1     -11.353   9.532  69.907  1.00  0.00    -0.398 NA 
HETATM   24  H   UNL     1     -11.226   8.740  70.536  1.00  0.00     0.000 HD 
ENDBRANCH  13  15
ENDBRANCH   9  13
TORSDOF 3
ENDMDL
MODEL      157
REMARK 921   NORMALIZED FREE ENERGY PREDICTED BY IDOCK:   -3.88 KCAL/MOL
REMARK 922        TOTAL FREE ENERGY PREDICTED BY IDOCK:   -4.88 KCAL/MOL
REMARK 923 INTER-LIGAND FREE ENERGY PREDICTED BY IDOCK:   -4.59 KCAL/MOL
REMARK 924 INTRA-LIGAND FREE ENERGY PREDICTED BY IDOCK:   -0.29 KCAL/MOL
REMARK 927      BINDING AFFINITY PREDICTED BY RF-SCORE:    0.00 PKD
ROOT
HETATM    1  C   UNL     1     -11.911   9.721  70.099  1.00  0.00    -0.141 C  
HETATM    2  C   UNL     1     -11.881   9.779  71.632  1.00  0.00    -0.429 C  
HETATM    3  C   UNL     1     -11.725  11.100  69.470  1.00  0.00    -0.405 C  
HETATM    4  C   UNL     1     -12.106   8.396  72.252  1.00  0.00    -0.392 C  
HETATM    5  N   UNL     1     -11.248   7.358  71.667  1.00  0.00    -0.243 N  
HETATM    6  C   UNL     1     -11.252   7.288  70.196  1.00  0.00    -0.239 C  
HETATM    7  C   UNL     1     -10.468   6.562  72.505  1.00  0.00    -0.205 C  
HETATM    8  O   UNL     1     -10.431   6.765  73.720  1.00  0.00    -0.325 OA 
HETATM    9  C   UNL     1     -10.936   8.654  69.537  1.00  0.00    -0.055 C  
ENDROOT
BRANCH   7  10
HETATM   10  C   UNL     1      -9.663   5.446  71.863  1.00  0.00    -0.204 C  
HETATM   11  C   UNL     1      -8.221   5.722  71.866  1.00  0.00    -0.119 C  
HETATM   12  N   UNL     1      -7.073   5.888  71.826  1.00  0.00    -0.083 NA 
ENDBRANCH   7  10
BRANCH   9  13
HETATM   13  N   UNL     1      -9.520   9.048  69.661  1.00  0.00    -0.166 NA 
HETATM   14  C   UNL     1      -8.792   9.162  70.915  1.00  0.00    -0.233 C  
BRANCH  13  15
HETATM   15  C   UNL     1      -8.754   9.179  68.508  1.00  0.00    -0.129 A  
HETATM   16  N   UNL     1      -8.326   8.062  67.862  1.00  0.00    -0.128 NA 
HETATM   17  C   UNL     1      -7.505   8.194  66.797  1.00  0.00    -0.090 A  
HETATM   18  N   UNL     1      -7.031   9.320  66.245  1.00  0.00    -0.085 NA 
HETATM   19  C   UNL     1      -7.503  10.402  66.876  1.00  0.00    -0.107 A  
HETATM   20  C   UNL     1      -8.350  10.429  67.973  1.00  0.00    -0.118 A  
HETATM   21  C   UNL     1      -8.605  11.808  68.244  1.00  0.00    -0.162 A  
HETATM   22  C   UNL     1      -7.879  12.565  67.348  1.00  0.00    -0.175 A  
HETATM   23  N   UNL     1      -7.211  11.694  66.527  1.00  0.00    -0.359 NA 
HETATM   24  H   UNL     1      -6.587  11.967  65.767  1.00  0.00     0.000 HD 
ENDBRANCH  13  15
ENDBRANCH   9  13
TORSDOF 3
ENDMDL
MODEL      158
REMARK 921   NORMALIZED FREE ENERGY PREDICTED BY IDOCK:   -3.88 KCAL/MOL
REMARK 922        TOTAL FREE ENERGY PREDICTED BY IDOCK:   -4.87 KCAL/MOL
REMARK 923 INTER-LIGAND FREE ENERGY PREDICTED BY IDOCK:   -5.61 KCAL/MOL
REMARK 924 INTRA-LIGAND FREE ENERGY PREDICTED BY IDOCK:    0.74 KCAL/MOL
REMARK 927      BINDING AFFINITY PREDICTED BY RF-SCORE:    0.00 PKD
ROOT
HETATM    1  C   UNL     1     -11.206  14.899  65.745  1.00  0.00    -0.334 C  
HETATM    2  C   UNL     1      -9.760  15.308  65.437  1.00  0.00    -0.243 C  
HETATM    3  C   UNL     1     -12.117  15.055  64.529  1.00  0.00    -0.373 C  
HETATM    4  C   UNL     1      -8.864  15.182  66.674  1.00  0.00    -0.286 C  
HETATM    5  N   UNL     1      -8.999  13.887  67.352  1.00  0.00    -0.199 N  
HETATM    6  C   UNL     1     -10.378  13.468  67.649  1.00  0.00    -0.239 C  
HETATM    7  C   UNL     1      -7.856  13.132  67.617  1.00  0.00    -0.169 C  
HETATM    8  O   UNL     1      -6.746  13.499  67.225  1.00  0.00    -0.211 OA 
HETATM    9  C   UNL     1     -11.289  13.495  66.398  1.00  0.00    -0.316 C  
ENDROOT
BRANCH   7  10
HETATM   10  C   UNL     1      -8.035  11.840  68.395  1.00  0.00    -0.147 C  
HETATM   11  C   UNL     1      -7.257  10.732  67.827  1.00  0.00    -0.088 C  
HETATM   12  N   UNL     1      -6.677   9.813  67.418  1.00  0.00    -0.073 NA 
ENDBRANCH   7  10
BRANCH   9  13
HETATM   13  N   UNL     1     -11.007  12.402  65.447  1.00  0.00    -0.290 NA 
HETATM   14  C   UNL     1     -10.792  12.573  64.019  1.00  0.00    -0.406 C  
BRANCH  13  15
HETATM   15  C   UNL     1     -10.771  11.124  65.940  1.00  0.00    -0.198 A  
HETATM   16  N   UNL     1     -11.354  10.743  67.108  1.00  0.00    -0.371 NA 
HETATM   17  C   UNL     1     -11.049   9.535  67.631  1.00  0.00     0.061 A  
HETATM   18  N   UNL     1     -10.221   8.600  67.140  1.00  0.00    -0.256 NA 
HETATM   19  C   UNL     1      -9.697   8.986  65.970  1.00  0.00    -0.269 A  
HETATM   20  C   UNL     1      -9.916  10.185  65.309  1.00  0.00    -0.381 A  
HETATM   21  C   UNL     1      -9.180  10.105  64.087  1.00  0.00    -0.314 A  
HETATM   22  C   UNL     1      -8.511   8.899  64.066  1.00  0.00    -0.133 A  
HETATM   23  N   UNL     1      -8.832   8.233  65.221  1.00  0.00    -0.378 NA 
HETATM   24  H   UNL     1      -8.479   7.313  65.485  1.00  0.00     0.000 HD 
ENDBRANCH  13  15
ENDBRANCH   9  13
TORSDOF 3
ENDMDL
MODEL      159
REMARK 921   NORMALIZED FREE ENERGY PREDICTED BY IDOCK:   -3.87 KCAL/MOL
REMARK 922        TOTAL FREE ENERGY PREDICTED BY IDOCK:   -4.87 KCAL/MOL
REMARK 923 INTER-LIGAND FREE ENERGY PREDICTED BY IDOCK:   -5.27 KCAL/MOL
REMARK 924 INTRA-LIGAND FREE ENERGY PREDICTED BY IDOCK:    0.41 KCAL/MOL
REMARK 927      BINDING AFFINITY PREDICTED BY RF-SCORE:    0.00 PKD
ROOT
HETATM    1  C   UNL     1      -8.131  10.296  67.977  1.00  0.00    -0.106 C  
HETATM    2  C   UNL     1      -7.598   8.893  67.658  1.00  0.00    -0.093 C  
HETATM    3  C   UNL     1      -8.805  10.942  66.768  1.00  0.00    -0.149 C  
HETATM    4  C   UNL     1      -6.892   8.271  68.867  1.00  0.00    -0.061 C  
HETATM    5  N   UNL     1      -7.685   8.354  70.100  1.00  0.00    -0.080 N  
HETATM    6  C   UNL     1      -8.215   9.689  70.423  1.00  0.00    -0.160 C  
HETATM    7  C   UNL     1      -7.924   7.195  70.840  1.00  0.00    -0.096 C  
HETATM    8  O   UNL     1      -7.545   6.094  70.435  1.00  0.00    -0.091 OA 
HETATM    9  C   UNL     1      -9.015  10.308  69.251  1.00  0.00    -0.179 C  
ENDROOT
BRANCH   7  10
HETATM   10  C   UNL     1      -8.674   7.343  72.150  1.00  0.00    -0.134 C  
HETATM   11  C   UNL     1      -7.926   8.130  73.139  1.00  0.00    -0.167 C  
HETATM   12  N   UNL     1      -7.379   8.731  73.968  1.00  0.00    -0.407 NA 
ENDBRANCH   7  10
BRANCH   9  13
HETATM   13  N   UNL     1     -10.331   9.674  69.043  1.00  0.00    -0.197 NA 
HETATM   14  C   UNL     1     -10.727   8.947  67.847  1.00  0.00    -0.121 C  
BRANCH  13  15
HETATM   15  C   UNL     1     -11.227   9.618  70.104  1.00  0.00    -0.256 A  
HETATM   16  N   UNL     1     -11.513   8.416  70.671  1.00  0.00    -0.253 NA 
HETATM   17  C   UNL     1     -12.453   8.353  71.639  1.00  0.00    -0.328 A  
HETATM   18  N   UNL     1     -13.178   9.354  72.161  1.00  0.00    -0.435 NA 
HETATM   19  C   UNL     1     -12.844  10.528  71.613  1.00  0.00    -0.475 A  
HETATM   20  C   UNL     1     -11.904  10.752  70.621  1.00  0.00    -0.460 A  
HETATM   21  C   UNL     1     -11.874  12.165  70.413  1.00  0.00    -0.277 A  
HETATM   22  C   UNL     1     -12.816  12.742  71.239  1.00  0.00    -0.262 A  
HETATM   23  N   UNL     1     -13.401  11.731  71.958  1.00  0.00    -0.486 NA 
HETATM   24  H   UNL     1     -14.141  11.856  72.649  1.00  0.00     0.000 HD 
ENDBRANCH  13  15
ENDBRANCH   9  13
TORSDOF 3
ENDMDL
MODEL      160
REMARK 921   NORMALIZED FREE ENERGY PREDICTED BY IDOCK:   -3.85 KCAL/MOL
REMARK 922        TOTAL FREE ENERGY PREDICTED BY IDOCK:   -4.85 KCAL/MOL
REMARK 923 INTER-LIGAND FREE ENERGY PREDICTED BY IDOCK:   -4.95 KCAL/MOL
REMARK 924 INTRA-LIGAND FREE ENERGY PREDICTED BY IDOCK:    0.10 KCAL/MOL
REMARK 927      BINDING AFFINITY PREDICTED BY RF-SCORE:    0.00 PKD
ROOT
HETATM    1  C   UNL     1     -12.780  14.286  69.857  1.00  0.00    -0.093 C  
HETATM    2  C   UNL     1     -12.323  13.006  70.569  1.00  0.00    -0.365 C  
HETATM    3  C   UNL     1     -13.274  15.344  70.842  1.00  0.00    -0.512 C  
HETATM    4  C   UNL     1     -11.865  11.940  69.568  1.00  0.00    -0.331 C  
HETATM    5  N   UNL     1     -10.915  12.455  68.574  1.00  0.00    -0.232 N  
HETATM    6  C   UNL     1     -11.327  13.688  67.884  1.00  0.00    -0.295 C  
HETATM    7  C   UNL     1      -9.699  11.798  68.385  1.00  0.00    -0.197 C  
HETATM    8  O   UNL     1      -9.379  10.839  69.091  1.00  0.00    -0.190 OA 
HETATM    9  C   UNL     1     -11.709  14.819  68.870  1.00  0.00    -0.309 C  
ENDROOT
BRANCH   7  10
HETATM   10  C   UNL     1      -8.786  12.315  67.288  1.00  0.00    -0.190 C  
HETATM   11  C   UNL     1      -7.945  11.258  66.714  1.00  0.00    -0.159 C  
HETATM   12  N   UNL     1      -7.244  10.471  66.229  1.00  0.00    -0.126 NA 
ENDBRANCH   7  10
BRANCH   9  13
HETATM   13  N   UNL     1     -10.545  15.416  69.554  1.00  0.00    -0.250 NA 
HETATM   14  C   UNL     1     -10.323  15.400  70.991  1.00  0.00     0.499 C  
BRANCH  13  15
HETATM   15  C   UNL     1      -9.491  15.901  68.789  1.00  0.00    -0.221 A  
HETATM   16  N   UNL     1      -8.290  15.264  68.828  1.00  0.00    -0.165 NA 
HETATM   17  C   UNL     1      -7.244  15.793  68.156  1.00  0.00    -0.118 A  
HETATM   18  N   UNL     1      -7.211  16.906  67.409  1.00  0.00    -0.150 NA 
HETATM   19  C   UNL     1      -8.416  17.487  67.355  1.00  0.00    -0.216 A  
HETATM   20  C   UNL     1      -9.578  17.065  67.982  1.00  0.00    -0.260 A  
HETATM   21  C   UNL     1     -10.600  17.979  67.582  1.00  0.00    -0.413 A  
HETATM   22  C   UNL     1     -10.026  18.939  66.775  1.00  0.00    -0.360 A  
HETATM   23  N   UNL     1      -8.697  18.628  66.652  1.00  0.00    -0.294 NA 
HETATM   24  H   UNL     1      -8.016  19.167  66.116  1.00  0.00     0.000 HD 
ENDBRANCH  13  15
ENDBRANCH   9  13
TORSDOF 3
ENDMDL
MODEL      161
REMARK 921   NORMALIZED FREE ENERGY PREDICTED BY IDOCK:   -3.82 KCAL/MOL
REMARK 922        TOTAL FREE ENERGY PREDICTED BY IDOCK:   -4.81 KCAL/MOL
REMARK 923 INTER-LIGAND FREE ENERGY PREDICTED BY IDOCK:   -4.47 KCAL/MOL
REMARK 924 INTRA-LIGAND FREE ENERGY PREDICTED BY IDOCK:   -0.33 KCAL/MOL
REMARK 927      BINDING AFFINITY PREDICTED BY RF-SCORE:    0.00 PKD
ROOT
HETATM    1  C   UNL     1     -10.541   7.165  66.870  1.00  0.00    -0.371 C  
HETATM    2  C   UNL     1      -9.258   7.366  66.053  1.00  0.00    -0.092 C  
HETATM    3  C   UNL     1     -10.833   5.686  67.122  1.00  0.00    -0.242 C  
HETATM    4  C   UNL     1      -8.996   8.851  65.775  1.00  0.00    -0.203 C  
HETATM    5  N   UNL     1      -9.088   9.685  66.979  1.00  0.00    -0.134 N  
HETATM    6  C   UNL     1     -10.306   9.502  67.785  1.00  0.00    -0.239 C  
HETATM    7  C   UNL     1      -8.030  10.534  67.306  1.00  0.00    -0.114 C  
HETATM    8  O   UNL     1      -6.992  10.539  66.642  1.00  0.00    -0.099 OA 
HETATM    9  C   UNL     1     -10.551   8.020  68.162  1.00  0.00    -0.116 C  
ENDROOT
BRANCH   7  10
HETATM   10  C   UNL     1      -8.206  11.440  68.511  1.00  0.00    -0.153 C  
HETATM   11  C   UNL     1      -7.077  11.353  69.447  1.00  0.00    -0.065 C  
HETATM   12  N   UNL     1      -6.222  11.319  70.231  1.00  0.00    -0.209 NA 
ENDBRANCH   7  10
BRANCH   9  13
HETATM   13  N   UNL     1      -9.618   7.518  69.190  1.00  0.00    -0.157 NA 
HETATM   14  C   UNL     1      -8.180   7.394  69.023  1.00  0.00    -0.128 C  
BRANCH  13  15
HETATM   15  C   UNL     1     -10.096   7.281  70.474  1.00  0.00    -0.191 A  
HETATM   16  N   UNL     1     -10.552   8.324  71.218  1.00  0.00    -0.213 NA 
HETATM   17  C   UNL     1     -10.928   8.103  72.497  1.00  0.00    -0.369 A  
HETATM   18  N   UNL     1     -10.928   6.947  73.177  1.00  0.00    -0.282 NA 
HETATM   19  C   UNL     1     -10.514   5.934  72.407  1.00  0.00    -0.208 A  
HETATM   20  C   UNL     1     -10.103   6.001  71.085  1.00  0.00    -0.241 A  
HETATM   21  C   UNL     1      -9.810   4.659  70.691  1.00  0.00    -0.296 A  
HETATM   22  C   UNL     1     -10.004   3.839  71.783  1.00  0.00    -0.157 A  
HETATM   23  N   UNL     1     -10.427   4.631  72.819  1.00  0.00    -0.195 NA 
HETATM   24  H   UNL     1     -10.645   4.299  73.759  1.00  0.00     0.000 HD 
ENDBRANCH  13  15
ENDBRANCH   9  13
TORSDOF 3
ENDMDL
MODEL      162
REMARK 921   NORMALIZED FREE ENERGY PREDICTED BY IDOCK:   -3.82 KCAL/MOL
REMARK 922        TOTAL FREE ENERGY PREDICTED BY IDOCK:   -4.80 KCAL/MOL
REMARK 923 INTER-LIGAND FREE ENERGY PREDICTED BY IDOCK:   -5.18 KCAL/MOL
REMARK 924 INTRA-LIGAND FREE ENERGY PREDICTED BY IDOCK:    0.37 KCAL/MOL
REMARK 927      BINDING AFFINITY PREDICTED BY RF-SCORE:    0.00 PKD
ROOT
HETATM    1  C   UNL     1      -6.647  10.248  69.016  1.00  0.00    -0.053 C  
HETATM    2  C   UNL     1      -7.189  10.923  67.749  1.00  0.00    -0.091 C  
HETATM    3  C   UNL     1      -6.289  11.264  70.098  1.00  0.00    -0.120 C  
HETATM    4  C   UNL     1      -7.509   9.896  66.658  1.00  0.00    -0.099 C  
HETATM    5  N   UNL     1      -8.323   8.775  67.145  1.00  0.00    -0.104 N  
HETATM    6  C   UNL     1      -7.828   8.117  68.365  1.00  0.00    -0.118 C  
HETATM    7  C   UNL     1      -9.502   8.445  66.477  1.00  0.00    -0.220 C  
HETATM    8  O   UNL     1      -9.909   9.125  65.533  1.00  0.00    -0.220 OA 
HETATM    9  C   UNL     1      -7.581   9.118  69.520  1.00  0.00    -0.079 C  
ENDROOT
BRANCH   7  10
HETATM   10  C   UNL     1     -10.265   7.226  66.964  1.00  0.00    -0.348 C  
HETATM   11  C   UNL     1      -9.799   5.984  66.336  1.00  0.00    -0.110 C  
HETATM   12  N   UNL     1      -9.484   4.971  65.864  1.00  0.00    -0.158 NA 
ENDBRANCH   7  10
BRANCH   9  13
HETATM   13  N   UNL     1      -8.826   9.630  70.125  1.00  0.00    -0.228 NA 
HETATM   14  C   UNL     1      -9.691  10.635  69.529  1.00  0.00    -0.055 C  
BRANCH  13  15
HETATM   15  C   UNL     1      -9.318   9.020  71.273  1.00  0.00    -0.254 A  
HETATM   16  N   UNL     1      -8.445   8.513  72.184  1.00  0.00    -0.278 NA 
HETATM   17  C   UNL     1      -8.927   7.839  73.251  1.00  0.00    -0.231 A  
HETATM   18  N   UNL     1     -10.205   7.591  73.571  1.00  0.00    -0.340 NA 
HETATM   19  C   UNL     1     -11.040   8.138  72.680  1.00  0.00    -0.380 A  
HETATM   20  C   UNL     1     -10.700   8.857  71.545  1.00  0.00    -0.398 A  
HETATM   21  C   UNL     1     -11.933   9.271  70.952  1.00  0.00    -0.321 A  
HETATM   22  C   UNL     1     -12.967   8.760  71.709  1.00  0.00    -0.361 A  
HETATM   23  N   UNL     1     -12.407   8.069  72.753  1.00  0.00    -0.610 NA 
HETATM   24  H   UNL     1     -12.929   7.576  73.477  1.00  0.00     0.000 HD 
ENDBRANCH  13  15
ENDBRANCH   9  13
TORSDOF 3
ENDMDL
MODEL      163
REMARK 921   NORMALIZED FREE ENERGY PREDICTED BY IDOCK:   -3.82 KCAL/MOL
REMARK 922        TOTAL FREE ENERGY PREDICTED BY IDOCK:   -4.80 KCAL/MOL
REMARK 923 INTER-LIGAND FREE ENERGY PREDICTED BY IDOCK:   -4.48 KCAL/MOL
REMARK 924 INTRA-LIGAND FREE ENERGY PREDICTED BY IDOCK:   -0.32 KCAL/MOL
REMARK 927      BINDING AFFINITY PREDICTED BY RF-SCORE:    0.00 PKD
ROOT
HETATM    1  C   UNL     1      -9.452   7.551  70.396  1.00  0.00    -0.161 C  
HETATM    2  C   UNL     1     -10.888   8.018  70.666  1.00  0.00    -0.240 C  
HETATM    3  C   UNL     1      -9.293   6.044  70.592  1.00  0.00    -0.176 C  
HETATM    4  C   UNL     1     -11.026   9.535  70.503  1.00  0.00    -0.288 C  
HETATM    5  N   UNL     1     -10.451  10.032  69.246  1.00  0.00    -0.210 N  
HETATM    6  C   UNL     1      -9.076   9.589  68.960  1.00  0.00    -0.144 C  
HETATM    7  C   UNL     1     -11.231  10.823  68.403  1.00  0.00    -0.284 C  
HETATM    8  O   UNL     1     -12.415  11.049  68.659  1.00  0.00    -0.462 OA 
HETATM    9  C   UNL     1      -8.924   8.050  69.027  1.00  0.00    -0.145 C  
ENDROOT
BRANCH   7  10
HETATM   10  C   UNL     1     -10.568  11.384  67.158  1.00  0.00    -0.279 C  
HETATM   11  C   UNL     1     -11.523  12.054  66.267  1.00  0.00    -0.345 C  
HETATM   12  N   UNL     1     -12.231  12.584  65.515  1.00  0.00    -0.597 NA 
ENDBRANCH   7  10
BRANCH   9  13
HETATM   13  N   UNL     1      -9.543   7.352  67.883  1.00  0.00    -0.139 NA 
HETATM   14  C   UNL     1     -10.969   7.319  67.599  1.00  0.00    -0.110 C  
BRANCH  13  15
HETATM   15  C   UNL     1      -8.723   6.805  66.903  1.00  0.00    -0.117 A  
HETATM   16  N   UNL     1      -8.065   7.631  66.047  1.00  0.00    -0.112 NA 
HETATM   17  C   UNL     1      -7.344   7.094  65.039  1.00  0.00    -0.083 A  
HETATM   18  N   UNL     1      -7.160   5.798  64.746  1.00  0.00    -0.058 NA 
HETATM   19  C   UNL     1      -7.784   5.010  65.630  1.00  0.00    -0.087 A  
HETATM   20  C   UNL     1      -8.553   5.410  66.711  1.00  0.00    -0.110 A  
HETATM   21  C   UNL     1      -8.957   4.211  67.376  1.00  0.00    -0.140 A  
HETATM   22  C   UNL     1      -8.467   3.137  66.662  1.00  0.00    -0.108 A  
HETATM   23  N   UNL     1      -7.761   3.641  65.601  1.00  0.00    -0.085 NA 
HETATM   24  H   UNL     1      -7.289   3.079  64.892  1.00  0.00     0.000 HD 
ENDBRANCH  13  15
ENDBRANCH   9  13
TORSDOF 3
ENDMDL
MODEL      164
REMARK 921   NORMALIZED FREE ENERGY PREDICTED BY IDOCK:   -3.78 KCAL/MOL
REMARK 922        TOTAL FREE ENERGY PREDICTED BY IDOCK:   -4.76 KCAL/MOL
REMARK 923 INTER-LIGAND FREE ENERGY PREDICTED BY IDOCK:   -4.54 KCAL/MOL
REMARK 924 INTRA-LIGAND FREE ENERGY PREDICTED BY IDOCK:   -0.22 KCAL/MOL
REMARK 927      BINDING AFFINITY PREDICTED BY RF-SCORE:    0.00 PKD
ROOT
HETATM    1  C   UNL     1      -8.379   4.631  69.393  1.00  0.00    -0.080 C  
HETATM    2  C   UNL     1      -9.509   3.801  70.017  1.00  0.00    -0.264 C  
HETATM    3  C   UNL     1      -8.184   4.310  67.912  1.00  0.00    -0.094 C  
HETATM    4  C   UNL     1      -9.669   4.105  71.511  1.00  0.00    -0.173 C  
HETATM    5  N   UNL     1      -9.738   5.543  71.800  1.00  0.00    -0.161 N  
HETATM    6  C   UNL     1      -8.670   6.361  71.204  1.00  0.00    -0.135 C  
HETATM    7  C   UNL     1     -10.803   6.039  72.553  1.00  0.00    -0.247 C  
HETATM    8  O   UNL     1     -11.723   5.302  72.914  1.00  0.00    -0.295 OA 
HETATM    9  C   UNL     1      -8.542   6.146  69.676  1.00  0.00    -0.128 C  
ENDROOT
BRANCH   7  10
HETATM   10  C   UNL     1     -10.787   7.516  72.900  1.00  0.00    -0.425 C  
HETATM   11  C   UNL     1     -11.921   8.242  72.313  1.00  0.00    -0.386 C  
HETATM   12  N   UNL     1     -12.786   8.873  71.865  1.00  0.00    -0.350 NA 
ENDBRANCH   7  10
BRANCH   9  13
HETATM   13  N   UNL     1      -9.642   6.759  68.906  1.00  0.00    -0.138 NA 
HETATM   14  C   UNL     1     -11.050   6.429  69.056  1.00  0.00    -0.358 C  
BRANCH  13  15
HETATM   15  C   UNL     1      -9.364   7.840  68.078  1.00  0.00    -0.141 A  
HETATM   16  N   UNL     1      -9.676   7.765  66.757  1.00  0.00    -0.210 NA 
HETATM   17  C   UNL     1      -9.319   8.780  65.939  1.00  0.00    -0.218 A  
HETATM   18  N   UNL     1      -8.679   9.916  66.253  1.00  0.00    -0.137 NA 
HETATM   19  C   UNL     1      -8.424   9.980  67.565  1.00  0.00    -0.118 A  
HETATM   20  C   UNL     1      -8.729   9.028  68.525  1.00  0.00    -0.133 A  
HETATM   21  C   UNL     1      -8.305   9.573  69.775  1.00  0.00    -0.170 A  
HETATM   22  C   UNL     1      -7.723  10.800  69.533  1.00  0.00    -0.066 A  
HETATM   23  N   UNL     1      -7.799  11.029  68.184  1.00  0.00    -0.110 NA 
HETATM   24  H   UNL     1      -7.442  11.859  67.710  1.00  0.00     0.000 HD 
ENDBRANCH  13  15
ENDBRANCH   9  13
TORSDOF 3
ENDMDL
MODEL      165
REMARK 921   NORMALIZED FREE ENERGY PREDICTED BY IDOCK:   -3.77 KCAL/MOL
REMARK 922        TOTAL FREE ENERGY PREDICTED BY IDOCK:   -4.74 KCAL/MOL
REMARK 923 INTER-LIGAND FREE ENERGY PREDICTED BY IDOCK:   -7.12 KCAL/MOL
REMARK 924 INTRA-LIGAND FREE ENERGY PREDICTED BY IDOCK:    2.38 KCAL/MOL
REMARK 927      BINDING AFFINITY PREDICTED BY RF-SCORE:    0.00 PKD
ROOT
HETATM    1  C   UNL     1     -11.231  13.918  68.685  1.00  0.00    -0.298 C  
HETATM    2  C   UNL     1     -11.892  15.231  68.245  1.00  0.00    -0.251 C  
HETATM    3  C   UNL     1     -11.826  12.708  67.965  1.00  0.00    -0.376 C  
HETATM    4  C   UNL     1     -11.314  16.431  69.002  1.00  0.00    -0.253 C  
HETATM    5  N   UNL     1      -9.846  16.459  68.999  1.00  0.00    -0.256 N  
HETATM    6  C   UNL     1      -9.188  15.207  69.407  1.00  0.00    -0.175 C  
HETATM    7  C   UNL     1      -9.183  17.611  68.575  1.00  0.00    -0.281 C  
HETATM    8  O   UNL     1      -9.809  18.577  68.132  1.00  0.00    -0.312 OA 
HETATM    9  C   UNL     1      -9.685  13.985  68.597  1.00  0.00    -0.179 C  
ENDROOT
BRANCH   7  10
HETATM   10  C   UNL     1      -7.669  17.624  68.670  1.00  0.00    -0.281 C  
HETATM   11  C   UNL     1      -7.033  18.091  67.432  1.00  0.00    -0.191 C  
HETATM   12  N   UNL     1      -6.471  18.438  66.477  1.00  0.00    -0.182 NA 
ENDBRANCH   7  10
BRANCH   9  13
HETATM   13  N   UNL     1      -9.187  13.964  67.208  1.00  0.00    -0.224 NA 
HETATM   14  C   UNL     1      -8.097  13.133  66.724  1.00  0.00     0.219 C  
BRANCH  13  15
HETATM   15  C   UNL     1      -9.886  14.665  66.231  1.00  0.00    -0.300 A  
HETATM   16  N   UNL     1      -9.740  16.014  66.147  1.00  0.00    -0.300 NA 
HETATM   17  C   UNL     1     -10.491  16.702  65.258  1.00  0.00    -0.173 A  
HETATM   18  N   UNL     1     -11.400  16.228  64.394  1.00  0.00    -0.748 NA 
HETATM   19  C   UNL     1     -11.491  14.895  64.472  1.00  0.00    -0.325 A  
HETATM   20  C   UNL     1     -10.789  14.056  65.323  1.00  0.00    -0.352 A  
HETATM   21  C   UNL     1     -11.194  12.726  64.993  1.00  0.00    -0.333 A  
HETATM   22  C   UNL     1     -12.148  12.801  64.000  1.00  0.00    -0.457 A  
HETATM   23  N   UNL     1     -12.321  14.127  63.699  1.00  0.00    -1.092 NA 
HETATM   24  H   UNL     1     -12.972  14.489  63.002  1.00  0.00     0.000 HD 
ENDBRANCH  13  15
ENDBRANCH   9  13
TORSDOF 3
ENDMDL
MODEL      166
REMARK 921   NORMALIZED FREE ENERGY PREDICTED BY IDOCK:   -3.74 KCAL/MOL
REMARK 922        TOTAL FREE ENERGY PREDICTED BY IDOCK:   -4.71 KCAL/MOL
REMARK 923 INTER-LIGAND FREE ENERGY PREDICTED BY IDOCK:   -4.37 KCAL/MOL
REMARK 924 INTRA-LIGAND FREE ENERGY PREDICTED BY IDOCK:   -0.34 KCAL/MOL
REMARK 927      BINDING AFFINITY PREDICTED BY RF-SCORE:    0.00 PKD
ROOT
HETATM    1  C   UNL     1      -8.233   9.225  65.992  1.00  0.00    -0.111 C  
HETATM    2  C   UNL     1      -8.236   7.926  65.176  1.00  0.00    -0.143 C  
HETATM    3  C   UNL     1      -9.048  10.328  65.318  1.00  0.00    -0.228 C  
HETATM    4  C   UNL     1      -7.385   6.841  65.844  1.00  0.00    -0.075 C  
HETATM    5  N   UNL     1      -7.694   6.665  67.268  1.00  0.00    -0.103 N  
HETATM    6  C   UNL     1      -7.706   7.899  68.071  1.00  0.00    -0.125 C  
HETATM    7  C   UNL     1      -7.997   5.391  67.750  1.00  0.00    -0.100 C  
HETATM    8  O   UNL     1      -8.084   4.427  66.987  1.00  0.00    -0.101 OA 
HETATM    9  C   UNL     1      -8.631   8.986  67.472  1.00  0.00    -0.120 C  
ENDROOT
BRANCH   7  10
HETATM   10  C   UNL     1      -8.225   5.243  69.244  1.00  0.00    -0.092 C  
HETATM   11  C   UNL     1      -7.488   4.109  69.814  1.00  0.00    -0.049 C  
HETATM   12  N   UNL     1      -6.942   3.219  70.321  1.00  0.00    -0.034 NA 
ENDBRANCH   7  10
BRANCH   9  13
HETATM   13  N   UNL     1     -10.067   8.689  67.639  1.00  0.00    -0.198 NA 
HETATM   14  C   UNL     1     -10.750   7.533  67.081  1.00  0.00    -0.309 C  
BRANCH  13  15
HETATM   15  C   UNL     1     -10.818   9.465  68.513  1.00  0.00    -0.105 A  
HETATM   16  N   UNL     1     -11.372  10.624  68.067  1.00  0.00    -0.377 NA 
HETATM   17  C   UNL     1     -12.022  11.421  68.943  1.00  0.00    -0.304 A  
HETATM   18  N   UNL     1     -12.224  11.227  70.255  1.00  0.00    -0.337 NA 
HETATM   19  C   UNL     1     -11.705  10.060  70.655  1.00  0.00    -0.337 A  
HETATM   20  C   UNL     1     -11.018   9.139  69.879  1.00  0.00    -0.218 A  
HETATM   21  C   UNL     1     -10.714   8.041  70.742  1.00  0.00    -0.236 A  
HETATM   22  C   UNL     1     -11.176   8.346  72.005  1.00  0.00    -0.334 A  
HETATM   23  N   UNL     1     -11.771   9.579  71.936  1.00  0.00    -0.334 NA 
HETATM   24  H   UNL     1     -12.201  10.067  72.721  1.00  0.00     0.000 HD 
ENDBRANCH  13  15
ENDBRANCH   9  13
TORSDOF 3
ENDMDL
MODEL      167
REMARK 921   NORMALIZED FREE ENERGY PREDICTED BY IDOCK:   -3.67 KCAL/MOL
REMARK 922        TOTAL FREE ENERGY PREDICTED BY IDOCK:   -4.63 KCAL/MOL
REMARK 923 INTER-LIGAND FREE ENERGY PREDICTED BY IDOCK:   -4.94 KCAL/MOL
REMARK 924 INTRA-LIGAND FREE ENERGY PREDICTED BY IDOCK:    0.30 KCAL/MOL
REMARK 927      BINDING AFFINITY PREDICTED BY RF-SCORE:    0.00 PKD
ROOT
HETATM    1  C   UNL     1      -9.865  19.423  67.771  1.00  0.00    -0.449 C  
HETATM    2  C   UNL     1      -8.851  19.677  66.648  1.00  0.00    -0.403 C  
HETATM    3  C   UNL     1     -11.291  19.761  67.342  1.00  0.00     0.297 C  
HETATM    4  C   UNL     1      -7.420  19.370  67.102  1.00  0.00    -0.225 C  
HETATM    5  N   UNL     1      -7.293  18.059  67.751  1.00  0.00    -0.210 N  
HETATM    6  C   UNL     1      -8.261  17.788  68.826  1.00  0.00    -0.226 C  
HETATM    7  C   UNL     1      -6.330  17.159  67.294  1.00  0.00    -0.159 C  
HETATM    8  O   UNL     1      -5.638  17.417  66.307  1.00  0.00    -0.190 OA 
HETATM    9  C   UNL     1      -9.726  18.001  68.372  1.00  0.00    -0.344 C  
ENDROOT
BRANCH   7  10
HETATM   10  C   UNL     1      -6.177  15.852  68.050  1.00  0.00    -0.143 C  
HETATM   11  C   UNL     1      -5.759  16.055  69.442  1.00  0.00    -0.125 C  
HETATM   12  N   UNL     1      -5.415  16.149  70.547  1.00  0.00    -0.164 NA 
ENDBRANCH   7  10
BRANCH   9  13
HETATM   13  N   UNL     1     -10.215  16.944  67.465  1.00  0.00    -0.287 NA 
HETATM   14  C   UNL     1     -10.018  16.924  66.025  1.00  0.00    -0.293 C  
BRANCH  13  15
HETATM   15  C   UNL     1     -10.776  15.795  68.010  1.00  0.00    -0.296 A  
HETATM   16  N   UNL     1     -12.009  15.861  68.579  1.00  0.00    -0.198 NA 
HETATM   17  C   UNL     1     -12.509  14.764  69.190  1.00  0.00     0.035 A  
HETATM   18  N   UNL     1     -11.948  13.553  69.317  1.00  0.00    -0.331 NA 
HETATM   19  C   UNL     1     -10.756  13.508  68.712  1.00  0.00    -0.238 A  
HETATM   20  C   UNL     1     -10.115  14.540  68.045  1.00  0.00    -0.226 A  
HETATM   21  C   UNL     1      -8.901  13.989  67.531  1.00  0.00    -0.199 A  
HETATM   22  C   UNL     1      -8.822  12.672  67.936  1.00  0.00    -0.182 A  
HETATM   23  N   UNL     1      -9.955  12.398  68.657  1.00  0.00    -0.382 NA 
HETATM   24  H   UNL     1     -10.170  11.500  69.090  1.00  0.00     0.000 HD 
ENDBRANCH  13  15
ENDBRANCH   9  13
TORSDOF 3
ENDMDL
MODEL      168
REMARK 921   NORMALIZED FREE ENERGY PREDICTED BY IDOCK:   -3.67 KCAL/MOL
REMARK 922        TOTAL FREE ENERGY PREDICTED BY IDOCK:   -4.63 KCAL/MOL
REMARK 923 INTER-LIGAND FREE ENERGY PREDICTED BY IDOCK:   -4.34 KCAL/MOL
REMARK 924 INTRA-LIGAND FREE ENERGY PREDICTED BY IDOCK:   -0.29 KCAL/MOL
REMARK 927      BINDING AFFINITY PREDICTED BY RF-SCORE:    0.00 PKD
ROOT
HETATM    1  C   UNL     1      -9.968   9.786  66.439  1.00  0.00    -0.314 C  
HETATM    2  C   UNL     1      -9.254  10.671  67.470  1.00  0.00    -0.151 C  
HETATM    3  C   UNL     1      -9.421   9.994  65.028  1.00  0.00    -0.339 C  
HETATM    4  C   UNL     1      -9.837  10.480  68.874  1.00  0.00    -0.201 C  
HETATM    5  N   UNL     1      -9.954   9.069  69.261  1.00  0.00    -0.183 N  
HETATM    6  C   UNL     1     -10.627   8.198  68.283  1.00  0.00    -0.098 C  
HETATM    7  C   UNL     1      -9.394   8.640  70.465  1.00  0.00    -0.175 C  
HETATM    8  O   UNL     1      -8.740   9.411  71.171  1.00  0.00    -0.284 OA 
HETATM    9  C   UNL     1     -10.001   8.298  66.871  1.00  0.00    -0.273 C  
ENDROOT
BRANCH   7  10
HETATM   10  C   UNL     1      -9.614   7.192  70.863  1.00  0.00    -0.167 C  
HETATM   11  C   UNL     1     -10.924   6.975  71.488  1.00  0.00    -0.234 C  
HETATM   12  N   UNL     1     -11.939   6.742  72.001  1.00  0.00    -0.319 NA 
ENDBRANCH   7  10
BRANCH   9  13
HETATM   13  N   UNL     1      -8.684   7.641  66.768  1.00  0.00    -0.128 NA 
HETATM   14  C   UNL     1      -7.480   8.074  67.458  1.00  0.00    -0.097 C  
BRANCH  13  15
HETATM   15  C   UNL     1      -8.586   6.429  66.093  1.00  0.00    -0.144 A  
HETATM   16  N   UNL     1      -8.225   6.424  64.783  1.00  0.00    -0.124 NA 
HETATM   17  C   UNL     1      -8.221   5.254  64.107  1.00  0.00    -0.132 A  
HETATM   18  N   UNL     1      -8.527   4.030  64.561  1.00  0.00    -0.102 NA 
HETATM   19  C   UNL     1      -8.837   4.061  65.862  1.00  0.00    -0.123 A  
HETATM   20  C   UNL     1      -8.881   5.175  66.686  1.00  0.00    -0.112 A  
HETATM   21  C   UNL     1      -9.210   4.692  67.990  1.00  0.00    -0.158 A  
HETATM   22  C   UNL     1      -9.399   3.328  67.909  1.00  0.00    -0.194 A  
HETATM   23  N   UNL     1      -9.174   2.962  66.607  1.00  0.00    -0.289 NA 
HETATM   24  H   UNL     1      -9.246   2.011  66.245  1.00  0.00     0.000 HD 
ENDBRANCH  13  15
ENDBRANCH   9  13
TORSDOF 3
ENDMDL
MODEL      169
REMARK 921   NORMALIZED FREE ENERGY PREDICTED BY IDOCK:   -3.64 KCAL/MOL
REMARK 922        TOTAL FREE ENERGY PREDICTED BY IDOCK:   -4.59 KCAL/MOL
REMARK 923 INTER-LIGAND FREE ENERGY PREDICTED BY IDOCK:   -4.33 KCAL/MOL
REMARK 924 INTRA-LIGAND FREE ENERGY PREDICTED BY IDOCK:   -0.26 KCAL/MOL
REMARK 927      BINDING AFFINITY PREDICTED BY RF-SCORE:    0.00 PKD
ROOT
HETATM    1  C   UNL     1      -6.650   9.345  70.812  1.00  0.00    -0.096 C  
HETATM    2  C   UNL     1      -5.910   8.155  70.186  1.00  0.00    -0.022 C  
HETATM    3  C   UNL     1      -6.779  10.515  69.839  1.00  0.00    -0.142 C  
HETATM    4  C   UNL     1      -5.755   7.003  71.184  1.00  0.00    -0.031 C  
HETATM    5  N   UNL     1      -7.011   6.651  71.856  1.00  0.00    -0.070 N  
HETATM    6  C   UNL     1      -7.745   7.777  72.456  1.00  0.00    -0.106 C  
HETATM    7  C   UNL     1      -7.448   5.326  71.843  1.00  0.00    -0.096 C  
HETATM    8  O   UNL     1      -6.835   4.462  71.212  1.00  0.00    -0.033 OA 
HETATM    9  C   UNL     1      -8.001   8.923  71.447  1.00  0.00    -0.102 C  
ENDROOT
BRANCH   7  10
HETATM   10  C   UNL     1      -8.707   4.995  72.623  1.00  0.00    -0.119 C  
HETATM   11  C   UNL     1      -9.224   3.657  72.311  1.00  0.00    -0.117 C  
HETATM   12  N   UNL     1      -9.690   2.615  72.097  1.00  0.00    -0.135 NA 
ENDBRANCH   7  10
BRANCH   9  13
HETATM   13  N   UNL     1      -9.031   8.597  70.442  1.00  0.00    -0.149 NA 
HETATM   14  C   UNL     1      -8.989   7.453  69.546  1.00  0.00    -0.144 C  
BRANCH  13  15
HETATM   15  C   UNL     1     -10.213   9.329  70.427  1.00  0.00    -0.233 A  
HETATM   16  N   UNL     1     -11.026   9.303  71.515  1.00  0.00    -0.360 NA 
HETATM   17  C   UNL     1     -12.217   9.940  71.461  1.00  0.00    -0.416 A  
HETATM   18  N   UNL     1     -12.741  10.640  70.444  1.00  0.00    -0.315 NA 
HETATM   19  C   UNL     1     -11.900  10.682  69.404  1.00  0.00    -0.253 A  
HETATM   20  C   UNL     1     -10.651  10.087  69.311  1.00  0.00    -0.249 A  
HETATM   21  C   UNL     1     -10.127  10.461  68.036  1.00  0.00    -0.189 A  
HETATM   22  C   UNL     1     -11.077  11.220  67.385  1.00  0.00    -0.297 A  
HETATM   23  N   UNL     1     -12.151  11.341  68.229  1.00  0.00    -0.660 NA 
HETATM   24  H   UNL     1     -13.011  11.846  68.014  1.00  0.00     0.000 HD 
ENDBRANCH  13  15
ENDBRANCH   9  13
TORSDOF 3
ENDMDL
MODEL      170
REMARK 921   NORMALIZED FREE ENERGY PREDICTED BY IDOCK:   -3.63 KCAL/MOL
REMARK 922        TOTAL FREE ENERGY PREDICTED BY IDOCK:   -4.58 KCAL/MOL
REMARK 923 INTER-LIGAND FREE ENERGY PREDICTED BY IDOCK:   -4.18 KCAL/MOL
REMARK 924 INTRA-LIGAND FREE ENERGY PREDICTED BY IDOCK:   -0.40 KCAL/MOL
REMARK 927      BINDING AFFINITY PREDICTED BY RF-SCORE:    0.00 PKD
ROOT
HETATM    1  C   UNL     1     -10.745   5.670  69.615  1.00  0.00    -0.398 C  
HETATM    2  C   UNL     1      -9.704   4.544  69.650  1.00  0.00    -0.288 C  
HETATM    3  C   UNL     1     -10.804   6.438  70.934  1.00  0.00    -0.316 C  
HETATM    4  C   UNL     1      -9.682   3.758  68.335  1.00  0.00    -0.024 C  
HETATM    5  N   UNL     1      -9.603   4.622  67.151  1.00  0.00    -0.164 N  
HETATM    6  C   UNL     1     -10.586   5.717  67.099  1.00  0.00    -0.270 C  
HETATM    7  C   UNL     1      -8.604   4.396  66.204  1.00  0.00    -0.113 C  
HETATM    8  O   UNL     1      -7.743   3.532  66.383  1.00  0.00    -0.082 OA 
HETATM    9  C   UNL     1     -10.570   6.588  68.378  1.00  0.00    -0.246 C  
ENDROOT
BRANCH   7  10
HETATM   10  C   UNL     1      -8.613   5.259  64.955  1.00  0.00    -0.145 C  
HETATM   11  C   UNL     1      -7.303   5.304  64.294  1.00  0.00    -0.056 C  
HETATM   12  N   UNL     1      -6.290   5.390  63.734  1.00  0.00    -0.022 NA 
ENDBRANCH   7  10
BRANCH   9  13
HETATM   13  N   UNL     1      -9.384   7.462  68.475  1.00  0.00    -0.142 NA 
HETATM   14  C   UNL     1      -8.015   6.996  68.619  1.00  0.00    -0.120 C  
BRANCH  13  15
HETATM   15  C   UNL     1      -9.535   8.828  68.265  1.00  0.00    -0.141 A  
HETATM   16  N   UNL     1      -9.813   9.637  69.320  1.00  0.00    -0.179 NA 
HETATM   17  C   UNL     1     -10.050  10.949  69.097  1.00  0.00    -0.177 A  
HETATM   18  N   UNL     1     -10.042  11.610  67.931  1.00  0.00    -0.183 NA 
HETATM   19  C   UNL     1      -9.724  10.795  66.917  1.00  0.00    -0.178 A  
HETATM   20  C   UNL     1      -9.451   9.438  66.987  1.00  0.00    -0.200 A  
HETATM   21  C   UNL     1      -9.119   9.031  65.658  1.00  0.00    -0.278 A  
HETATM   22  C   UNL     1      -9.244  10.126  64.829  1.00  0.00    -0.242 A  
HETATM   23  N   UNL     1      -9.617  11.189  65.609  1.00  0.00    -0.215 NA 
HETATM   24  H   UNL     1      -9.791  12.134  65.267  1.00  0.00     0.000 HD 
ENDBRANCH  13  15
ENDBRANCH   9  13
TORSDOF 3
ENDMDL
MODEL      171
REMARK 921   NORMALIZED FREE ENERGY PREDICTED BY IDOCK:   -3.61 KCAL/MOL
REMARK 922        TOTAL FREE ENERGY PREDICTED BY IDOCK:   -4.56 KCAL/MOL
REMARK 923 INTER-LIGAND FREE ENERGY PREDICTED BY IDOCK:   -4.28 KCAL/MOL
REMARK 924 INTRA-LIGAND FREE ENERGY PREDICTED BY IDOCK:   -0.28 KCAL/MOL
REMARK 927      BINDING AFFINITY PREDICTED BY RF-SCORE:    0.00 PKD
ROOT
HETATM    1  C   UNL     1     -10.372   5.278  68.233  1.00  0.00    -0.181 C  
HETATM    2  C   UNL     1      -9.646   6.541  67.752  1.00  0.00    -0.125 C  
HETATM    3  C   UNL     1      -9.540   4.017  68.004  1.00  0.00    -0.195 C  
HETATM    4  C   UNL     1     -10.505   7.794  67.953  1.00  0.00    -0.201 C  
HETATM    5  N   UNL     1     -11.068   7.894  69.305  1.00  0.00     0.031 N  
HETATM    6  C   UNL     1     -11.761   6.690  69.793  1.00  0.00    -0.216 C  
HETATM    7  C   UNL     1     -10.875   9.062  70.043  1.00  0.00    -0.231 C  
HETATM    8  O   UNL     1     -10.177   9.980  69.606  1.00  0.00    -0.211 OA 
HETATM    9  C   UNL     1     -10.884   5.418  69.690  1.00  0.00    -0.088 C  
ENDROOT
BRANCH   7  10
HETATM   10  C   UNL     1     -11.547   9.153  71.401  1.00  0.00    -0.411 C  
HETATM   11  C   UNL     1     -12.514  10.254  71.475  1.00  0.00    -0.422 C  
HETATM   12  N   UNL     1     -13.282  11.116  71.601  1.00  0.00    -0.400 NA 
ENDBRANCH   7  10
BRANCH   9  13
HETATM   13  N   UNL     1      -9.798   5.375  70.687  1.00  0.00    -0.179 NA 
HETATM   14  C   UNL     1      -8.583   6.172  70.632  1.00  0.00    -0.135 C  
BRANCH  13  15
HETATM   15  C   UNL     1      -9.984   4.645  71.855  1.00  0.00    -0.189 A  
HETATM   16  N   UNL     1     -10.806   5.133  72.822  1.00  0.00    -0.242 NA 
HETATM   17  C   UNL     1     -10.911   4.466  73.993  1.00  0.00    -0.247 A  
HETATM   18  N   UNL     1     -10.302   3.329  74.361  1.00  0.00    -0.174 NA 
HETATM   19  C   UNL     1      -9.534   2.852  73.374  1.00  0.00    -0.092 A  
HETATM   20  C   UNL     1      -9.330   3.415  72.125  1.00  0.00    -0.180 A  
HETATM   21  C   UNL     1      -8.477   2.514  71.417  1.00  0.00    -0.090 A  
HETATM   22  C   UNL     1      -8.158   1.471  72.261  1.00  0.00    -0.045 A  
HETATM   23  N   UNL     1      -8.805   1.695  73.449  1.00  0.00    -0.061 NA 
HETATM   24  H   UNL     1      -8.751   1.090  74.268  1.00  0.00     0.000 HD 
ENDBRANCH  13  15
ENDBRANCH   9  13
TORSDOF 3
ENDMDL
MODEL      172
REMARK 921   NORMALIZED FREE ENERGY PREDICTED BY IDOCK:   -3.61 KCAL/MOL
REMARK 922        TOTAL FREE ENERGY PREDICTED BY IDOCK:   -4.56 KCAL/MOL
REMARK 923 INTER-LIGAND FREE ENERGY PREDICTED BY IDOCK:   -5.21 KCAL/MOL
REMARK 924 INTRA-LIGAND FREE ENERGY PREDICTED BY IDOCK:    0.65 KCAL/MOL
REMARK 927      BINDING AFFINITY PREDICTED BY RF-SCORE:    0.00 PKD
ROOT
HETATM    1  C   UNL     1      -9.539   5.647  68.114  1.00  0.00    -0.135 C  
HETATM    2  C   UNL     1      -8.943   7.054  67.974  1.00  0.00    -0.126 C  
HETATM    3  C   UNL     1      -8.554   4.562  67.683  1.00  0.00    -0.106 C  
HETATM    4  C   UNL     1      -9.952   8.135  68.374  1.00  0.00    -0.190 C  
HETATM    5  N   UNL     1     -10.592   7.872  69.669  1.00  0.00    -0.237 N  
HETATM    6  C   UNL     1     -11.164   6.525  69.831  1.00  0.00    -0.395 C  
HETATM    7  C   UNL     1     -10.576   8.860  70.654  1.00  0.00    -0.229 C  
HETATM    8  O   UNL     1      -9.969   9.919  70.481  1.00  0.00    -0.244 OA 
HETATM    9  C   UNL     1     -10.140   5.405  69.523  1.00  0.00    -0.240 C  
ENDROOT
BRANCH   7  10
HETATM   10  C   UNL     1     -11.324   8.575  71.944  1.00  0.00    -0.399 C  
HETATM   11  C   UNL     1     -12.717   9.036  71.898  1.00  0.00    -0.382 C  
HETATM   12  N   UNL     1     -13.822   9.390  71.929  1.00  0.00    -0.345 NA 
ENDBRANCH   7  10
BRANCH   9  13
HETATM   13  N   UNL     1      -9.109   5.253  70.568  1.00  0.00    -0.138 NA 
HETATM   14  C   UNL     1      -7.694   5.032  70.318  1.00  0.00    -0.067 C  
BRANCH  13  15
HETATM   15  C   UNL     1      -9.455   5.484  71.894  1.00  0.00    -0.148 A  
HETATM   16  N   UNL     1     -10.420   4.720  72.473  1.00  0.00    -0.201 NA 
HETATM   17  C   UNL     1     -10.819   5.009  73.732  1.00  0.00    -0.304 A  
HETATM   18  N   UNL     1     -10.375   5.979  74.543  1.00  0.00    -0.273 NA 
HETATM   19  C   UNL     1      -9.398   6.686  73.962  1.00  0.00    -0.192 A  
HETATM   20  C   UNL     1      -8.881   6.509  72.689  1.00  0.00    -0.126 A  
HETATM   21  C   UNL     1      -7.829   7.467  72.550  1.00  0.00    -0.108 A  
HETATM   22  C   UNL     1      -7.773   8.213  73.709  1.00  0.00    -0.180 A  
HETATM   23  N   UNL     1      -8.737   7.729  74.554  1.00  0.00    -0.445 NA 
HETATM   24  H   UNL     1      -8.934   8.092  75.487  1.00  0.00     0.000 HD 
ENDBRANCH  13  15
ENDBRANCH   9  13
TORSDOF 3
ENDMDL
MODEL      173
REMARK 921   NORMALIZED FREE ENERGY PREDICTED BY IDOCK:   -3.60 KCAL/MOL
REMARK 922        TOTAL FREE ENERGY PREDICTED BY IDOCK:   -4.55 KCAL/MOL
REMARK 923 INTER-LIGAND FREE ENERGY PREDICTED BY IDOCK:   -4.98 KCAL/MOL
REMARK 924 INTRA-LIGAND FREE ENERGY PREDICTED BY IDOCK:    0.43 KCAL/MOL
REMARK 927      BINDING AFFINITY PREDICTED BY RF-SCORE:    0.00 PKD
ROOT
HETATM    1  C   UNL     1     -11.037  16.425  67.207  1.00  0.00    -0.019 C  
HETATM    2  C   UNL     1     -11.884  15.385  67.953  1.00  0.00    -0.090 C  
HETATM    3  C   UNL     1     -10.496  17.502  68.146  1.00  0.00    -0.386 C  
HETATM    4  C   UNL     1     -12.451  14.332  66.995  1.00  0.00     0.007 C  
HETATM    5  N   UNL     1     -11.436  13.761  66.102  1.00  0.00    -0.328 N  
HETATM    6  C   UNL     1     -10.603  14.740  65.383  1.00  0.00    -0.378 C  
HETATM    7  C   UNL     1     -11.289  12.376  66.029  1.00  0.00    -0.353 C  
HETATM    8  O   UNL     1     -11.946  11.629  66.757  1.00  0.00    -0.536 OA 
HETATM    9  C   UNL     1      -9.939  15.765  66.333  1.00  0.00    -0.277 C  
ENDROOT
BRANCH   7  10
HETATM   10  C   UNL     1     -10.286  11.829  65.029  1.00  0.00    -0.325 C  
HETATM   11  C   UNL     1      -9.704  10.552  65.460  1.00  0.00    -0.242 C  
HETATM   12  N   UNL     1      -9.197   9.550  65.752  1.00  0.00    -0.194 NA 
ENDBRANCH   7  10
BRANCH   9  13
HETATM   13  N   UNL     1      -8.837  15.194  67.131  1.00  0.00    -0.202 NA 
HETATM   14  C   UNL     1      -8.585  13.773  67.307  1.00  0.00    -0.212 C  
BRANCH  13  15
HETATM   15  C   UNL     1      -7.861  16.044  67.638  1.00  0.00    -0.142 A  
HETATM   16  N   UNL     1      -7.416  15.865  68.910  1.00  0.00    -0.164 NA 
HETATM   17  C   UNL     1      -6.537  16.749  69.429  1.00  0.00    -0.228 A  
HETATM   18  N   UNL     1      -5.999  17.830  68.844  1.00  0.00    -0.189 NA 
HETATM   19  C   UNL     1      -6.423  17.955  67.581  1.00  0.00    -0.179 A  
HETATM   20  C   UNL     1      -7.314  17.132  66.910  1.00  0.00    -0.242 A  
HETATM   21  C   UNL     1      -7.406  17.646  65.581  1.00  0.00     0.134 A  
HETATM   22  C   UNL     1      -6.617  18.775  65.500  1.00  0.00    -0.272 A  
HETATM   23  N   UNL     1      -6.031  18.952  66.727  1.00  0.00    -0.162 NA 
HETATM   24  H   UNL     1      -5.396  19.713  66.968  1.00  0.00     0.000 HD 
ENDBRANCH  13  15
ENDBRANCH   9  13
TORSDOF 3
ENDMDL
MODEL      174
REMARK 921   NORMALIZED FREE ENERGY PREDICTED BY IDOCK:   -3.58 KCAL/MOL
REMARK 922        TOTAL FREE ENERGY PREDICTED BY IDOCK:   -4.52 KCAL/MOL
REMARK 923 INTER-LIGAND FREE ENERGY PREDICTED BY IDOCK:   -4.45 KCAL/MOL
REMARK 924 INTRA-LIGAND FREE ENERGY PREDICTED BY IDOCK:   -0.08 KCAL/MOL
REMARK 927      BINDING AFFINITY PREDICTED BY RF-SCORE:    0.00 PKD
ROOT
HETATM    1  C   UNL     1      -6.220  13.242  69.087  1.00  0.00    -0.099 C  
HETATM    2  C   UNL     1      -5.325  12.821  67.914  1.00  0.00    -0.106 C  
HETATM    3  C   UNL     1      -5.849  14.623  69.624  1.00  0.00    -0.104 C  
HETATM    4  C   UNL     1      -5.682  11.419  67.409  1.00  0.00    -0.064 C  
HETATM    5  N   UNL     1      -7.120  11.244  67.170  1.00  0.00    -0.116 N  
HETATM    6  C   UNL     1      -8.000  11.650  68.279  1.00  0.00    -0.143 C  
HETATM    7  C   UNL     1      -7.556  10.769  65.933  1.00  0.00    -0.106 C  
HETATM    8  O   UNL     1      -6.759  10.567  65.014  1.00  0.00    -0.096 OA 
HETATM    9  C   UNL     1      -7.727  13.098  68.753  1.00  0.00    -0.006 C  
ENDROOT
BRANCH   7  10
HETATM   10  C   UNL     1      -9.044  10.523  65.761  1.00  0.00    -0.204 C  
HETATM   11  C   UNL     1      -9.523  10.891  64.423  1.00  0.00    -0.247 C  
HETATM   12  N   UNL     1      -9.964  11.177  63.389  1.00  0.00    -0.349 NA 
ENDBRANCH   7  10
BRANCH   9  13
HETATM   13  N   UNL     1      -8.204  14.123  67.804  1.00  0.00    -0.155 NA 
HETATM   14  C   UNL     1      -7.348  14.996  67.018  1.00  0.00     0.083 C  
BRANCH  13  15
HETATM   15  C   UNL     1      -9.560  14.181  67.502  1.00  0.00    -0.223 A  
HETATM   16  N   UNL     1      -9.975  13.879  66.243  1.00  0.00    -0.298 NA 
HETATM   17  C   UNL     1     -11.281  14.026  65.929  1.00  0.00    -0.308 A  
HETATM   18  N   UNL     1     -12.285  14.438  66.717  1.00  0.00    -0.378 NA 
HETATM   19  C   UNL     1     -11.853  14.687  67.959  1.00  0.00    -0.311 A  
HETATM   20  C   UNL     1     -10.555  14.579  68.431  1.00  0.00    -0.244 A  
HETATM   21  C   UNL     1     -10.610  14.900  69.822  1.00  0.00    -0.189 A  
HETATM   22  C   UNL     1     -11.911  15.234  70.135  1.00  0.00    -0.338 A  
HETATM   23  N   UNL     1     -12.653  15.104  68.990  1.00  0.00    -0.445 NA 
HETATM   24  H   UNL     1     -13.653  15.291  68.915  1.00  0.00     0.000 HD 
ENDBRANCH  13  15
ENDBRANCH   9  13
TORSDOF 3
ENDMDL
MODEL      175
REMARK 921   NORMALIZED FREE ENERGY PREDICTED BY IDOCK:   -3.55 KCAL/MOL
REMARK 922        TOTAL FREE ENERGY PREDICTED BY IDOCK:   -4.49 KCAL/MOL
REMARK 923 INTER-LIGAND FREE ENERGY PREDICTED BY IDOCK:   -4.78 KCAL/MOL
REMARK 924 INTRA-LIGAND FREE ENERGY PREDICTED BY IDOCK:    0.30 KCAL/MOL
REMARK 927      BINDING AFFINITY PREDICTED BY RF-SCORE:    0.00 PKD
ROOT
HETATM    1  C   UNL     1     -10.120   5.484  68.728  1.00  0.00    -0.256 C  
HETATM    2  C   UNL     1      -8.825   5.493  67.906  1.00  0.00    -0.105 C  
HETATM    3  C   UNL     1      -9.920   4.854  70.105  1.00  0.00    -0.325 C  
HETATM    4  C   UNL     1      -9.047   6.094  66.514  1.00  0.00    -0.148 C  
HETATM    5  N   UNL     1      -9.754   7.380  66.549  1.00  0.00    -0.184 N  
HETATM    6  C   UNL     1     -10.995   7.399  67.340  1.00  0.00    -0.144 C  
HETATM    7  C   UNL     1      -9.201   8.483  65.898  1.00  0.00    -0.182 C  
HETATM    8  O   UNL     1      -8.094   8.413  65.358  1.00  0.00    -0.116 OA 
HETATM    9  C   UNL     1     -10.785   6.884  68.785  1.00  0.00    -0.219 C  
ENDROOT
BRANCH   7  10
HETATM   10  C   UNL     1     -10.008   9.769  65.889  1.00  0.00    -0.345 C  
HETATM   11  C   UNL     1      -9.852  10.520  64.637  1.00  0.00    -0.340 C  
HETATM   12  N   UNL     1      -9.759  11.166  63.677  1.00  0.00    -0.284 NA 
ENDBRANCH   7  10
BRANCH   9  13
HETATM   13  N   UNL     1     -10.050   7.834  69.643  1.00  0.00    -0.191 NA 
HETATM   14  C   UNL     1      -8.822   7.533  70.360  1.00  0.00    -0.145 C  
BRANCH  13  15
HETATM   15  C   UNL     1     -10.449   9.166  69.668  1.00  0.00    -0.223 A  
HETATM   16  N   UNL     1     -11.705   9.477  70.085  1.00  0.00    -0.121 NA 
HETATM   17  C   UNL     1     -12.119  10.762  70.019  1.00  0.00    -0.345 A  
HETATM   18  N   UNL     1     -11.438  11.835  69.593  1.00  0.00    -0.281 NA 
HETATM   19  C   UNL     1     -10.193  11.503  69.230  1.00  0.00     0.078 A  
HETATM   20  C   UNL     1      -9.625  10.239  69.244  1.00  0.00    -0.239 A  
HETATM   21  C   UNL     1      -8.271  10.407  68.818  1.00  0.00    -0.128 A  
HETATM   22  C   UNL     1      -8.076  11.740  68.520  1.00  0.00    -0.140 A  
HETATM   23  N   UNL     1      -9.256  12.391  68.770  1.00  0.00    -0.399 NA 
HETATM   24  H   UNL     1      -9.415  13.389  68.634  1.00  0.00     0.000 HD 
ENDBRANCH  13  15
ENDBRANCH   9  13
TORSDOF 3
ENDMDL
MODEL      176
REMARK 921   NORMALIZED FREE ENERGY PREDICTED BY IDOCK:   -3.54 KCAL/MOL
REMARK 922        TOTAL FREE ENERGY PREDICTED BY IDOCK:   -4.48 KCAL/MOL
REMARK 923 INTER-LIGAND FREE ENERGY PREDICTED BY IDOCK:   -4.74 KCAL/MOL
REMARK 924 INTRA-LIGAND FREE ENERGY PREDICTED BY IDOCK:    0.26 KCAL/MOL
REMARK 927      BINDING AFFINITY PREDICTED BY RF-SCORE:    0.00 PKD
ROOT
HETATM    1  C   UNL     1      -9.693   6.072  67.887  1.00  0.00    -0.123 C  
HETATM    2  C   UNL     1      -9.243   7.447  67.374  1.00  0.00    -0.146 C  
HETATM    3  C   UNL     1      -8.726   4.963  67.479  1.00  0.00    -0.103 C  
HETATM    4  C   UNL     1     -10.241   8.544  67.758  1.00  0.00    -0.225 C  
HETATM    5  N   UNL     1     -10.606   8.516  69.180  1.00  0.00    -0.207 N  
HETATM    6  C   UNL     1     -11.033   7.206  69.698  1.00  0.00    -0.212 C  
HETATM    7  C   UNL     1     -10.483   9.679  69.941  1.00  0.00    -0.253 C  
HETATM    8  O   UNL     1     -10.003  10.706  69.458  1.00  0.00    -0.197 OA 
HETATM    9  C   UNL     1     -10.001   6.089  69.407  1.00  0.00    -0.174 C  
ENDROOT
BRANCH   7  10
HETATM   10  C   UNL     1     -10.954   9.625  71.383  1.00  0.00    -0.354 C  
HETATM   11  C   UNL     1     -12.347  10.061  71.536  1.00  0.00    -0.419 C  
HETATM   12  N   UNL     1     -13.439  10.408  71.723  1.00  0.00    -0.315 NA 
ENDBRANCH   7  10
BRANCH   9  13
HETATM   13  N   UNL     1      -8.785   6.187  70.238  1.00  0.00    -0.143 NA 
HETATM   14  C   UNL     1      -7.423   6.148  69.731  1.00  0.00    -0.081 C  
BRANCH  13  15
HETATM   15  C   UNL     1      -8.914   6.490  71.588  1.00  0.00    -0.143 A  
HETATM   16  N   UNL     1      -8.242   7.555  72.099  1.00  0.00    -0.100 NA 
HETATM   17  C   UNL     1      -8.296   7.790  73.429  1.00  0.00    -0.180 A  
HETATM   18  N   UNL     1      -8.959   7.101  74.369  1.00  0.00    -0.207 NA 
HETATM   19  C   UNL     1      -9.644   6.085  73.830  1.00  0.00    -0.163 A  
HETATM   20  C   UNL     1      -9.690   5.722  72.494  1.00  0.00    -0.175 A  
HETATM   21  C   UNL     1     -10.591   4.616  72.414  1.00  0.00    -0.225 A  
HETATM   22  C   UNL     1     -11.020   4.317  73.690  1.00  0.00    -0.282 A  
HETATM   23  N   UNL     1     -10.430   5.217  74.540  1.00  0.00    -0.316 NA 
HETATM   24  H   UNL     1     -10.558   5.237  75.552  1.00  0.00     0.000 HD 
ENDBRANCH  13  15
ENDBRANCH   9  13
TORSDOF 3
ENDMDL
MODEL      177
REMARK 921   NORMALIZED FREE ENERGY PREDICTED BY IDOCK:   -3.53 KCAL/MOL
REMARK 922        TOTAL FREE ENERGY PREDICTED BY IDOCK:   -4.46 KCAL/MOL
REMARK 923 INTER-LIGAND FREE ENERGY PREDICTED BY IDOCK:   -4.61 KCAL/MOL
REMARK 924 INTRA-LIGAND FREE ENERGY PREDICTED BY IDOCK:    0.15 KCAL/MOL
REMARK 927      BINDING AFFINITY PREDICTED BY RF-SCORE:    0.00 PKD
ROOT
HETATM    1  C   UNL     1      -7.249  12.766  68.375  1.00  0.00    -0.115 C  
HETATM    2  C   UNL     1      -6.176  11.748  68.786  1.00  0.00    -0.057 C  
HETATM    3  C   UNL     1      -6.701  13.821  67.416  1.00  0.00    -0.006 C  
HETATM    4  C   UNL     1      -6.729  10.718  69.776  1.00  0.00    -0.139 C  
HETATM    5  N   UNL     1      -7.996  10.121  69.337  1.00  0.00    -0.139 N  
HETATM    6  C   UNL     1      -9.038  11.077  68.928  1.00  0.00    -0.123 C  
HETATM    7  C   UNL     1      -8.117   8.732  69.284  1.00  0.00    -0.110 C  
HETATM    8  O   UNL     1      -7.154   8.001  69.528  1.00  0.00    -0.056 OA 
HETATM    9  C   UNL     1      -8.538  12.077  67.858  1.00  0.00    -0.165 C  
ENDROOT
BRANCH   7  10
HETATM   10  C   UNL     1      -9.471   8.160  68.907  1.00  0.00    -0.151 C  
HETATM   11  C   UNL     1     -10.075   7.383  69.996  1.00  0.00    -0.191 C  
HETATM   12  N   UNL     1     -10.598   6.746  70.814  1.00  0.00    -0.218 NA 
ENDBRANCH   7  10
BRANCH   9  13
HETATM   13  N   UNL     1      -8.368  11.468  66.524  1.00  0.00    -0.168 NA 
HETATM   14  C   UNL     1      -7.381  10.455  66.190  1.00  0.00    -0.131 C  
BRANCH  13  15
HETATM   15  C   UNL     1      -9.300  11.749  65.531  1.00  0.00    -0.118 A  
HETATM   16  N   UNL     1      -9.308  11.003  64.395  1.00  0.00    -0.209 NA 
HETATM   17  C   UNL     1     -10.153  11.338  63.395  1.00  0.00    -0.400 A  
HETATM   18  N   UNL     1     -11.039  12.344  63.356  1.00  0.00    -0.448 NA 
HETATM   19  C   UNL     1     -11.037  13.033  64.504  1.00  0.00    -0.351 A  
HETATM   20  C   UNL     1     -10.238  12.810  65.614  1.00  0.00    -0.292 A  
HETATM   21  C   UNL     1     -10.642  13.768  66.593  1.00  0.00    -0.274 A  
HETATM   22  C   UNL     1     -11.625  14.561  66.040  1.00  0.00    -0.356 A  
HETATM   23  N   UNL     1     -11.849  14.104  64.767  1.00  0.00    -0.394 NA 
HETATM   24  H   UNL     1     -12.522  14.503  64.111  1.00  0.00     0.000 HD 
ENDBRANCH  13  15
ENDBRANCH   9  13
TORSDOF 3
ENDMDL
MODEL      178
REMARK 921   NORMALIZED FREE ENERGY PREDICTED BY IDOCK:   -3.51 KCAL/MOL
REMARK 922        TOTAL FREE ENERGY PREDICTED BY IDOCK:   -4.45 KCAL/MOL
REMARK 923 INTER-LIGAND FREE ENERGY PREDICTED BY IDOCK:   -6.81 KCAL/MOL
REMARK 924 INTRA-LIGAND FREE ENERGY PREDICTED BY IDOCK:    2.36 KCAL/MOL
REMARK 927      BINDING AFFINITY PREDICTED BY RF-SCORE:    0.00 PKD
ROOT
HETATM    1  C   UNL     1      -9.931  15.946  69.377  1.00  0.00    -0.274 C  
HETATM    2  C   UNL     1     -10.728  16.839  68.418  1.00  0.00    -0.362 C  
HETATM    3  C   UNL     1     -10.645  14.624  69.656  1.00  0.00    -0.125 C  
HETATM    4  C   UNL     1     -10.020  18.176  68.176  1.00  0.00    -0.359 C  
HETATM    5  N   UNL     1      -8.603  18.021  67.826  1.00  0.00    -0.241 N  
HETATM    6  C   UNL     1      -7.819  17.160  68.727  1.00  0.00    -0.258 C  
HETATM    7  C   UNL     1      -8.111  18.633  66.674  1.00  0.00    -0.271 C  
HETATM    8  O   UNL     1      -8.863  19.239  65.906  1.00  0.00    -0.440 OA 
HETATM    9  C   UNL     1      -8.461  15.764  68.921  1.00  0.00    -0.218 C  
ENDROOT
BRANCH   7  10
HETATM   10  C   UNL     1      -6.623  18.516  66.398  1.00  0.00    -0.233 C  
HETATM   11  C   UNL     1      -6.260  19.001  65.061  1.00  0.00    -0.272 C  
HETATM   12  N   UNL     1      -5.913  19.356  64.012  1.00  0.00    -0.419 NA 
ENDBRANCH   7  10
BRANCH   9  13
HETATM   13  N   UNL     1      -8.331  14.893  67.736  1.00  0.00    -0.148 NA 
HETATM   14  C   UNL     1      -7.248  13.950  67.509  1.00  0.00    -0.161 C  
BRANCH  13  15
HETATM   15  C   UNL     1      -9.380  14.833  66.826  1.00  0.00    -0.249 A  
HETATM   16  N   UNL     1      -9.562  15.857  65.951  1.00  0.00    -0.337 NA 
HETATM   17  C   UNL     1     -10.637  15.838  65.132  1.00  0.00    -0.411 A  
HETATM   18  N   UNL     1     -11.596  14.906  65.039  1.00  0.00    -0.368 NA 
HETATM   19  C   UNL     1     -11.366  13.891  65.882  1.00  0.00    -0.313 A  
HETATM   20  C   UNL     1     -10.313  13.766  66.774  1.00  0.00    -0.272 A  
HETATM   21  C   UNL     1     -10.478  12.496  67.407  1.00  0.00    -0.231 A  
HETATM   22  C   UNL     1     -11.633  11.919  66.921  1.00  0.00    -0.285 A  
HETATM   23  N   UNL     1     -12.163  12.783  65.998  1.00  0.00    -0.559 NA 
HETATM   24  H   UNL     1     -13.025  12.626  65.475  1.00  0.00     0.000 HD 
ENDBRANCH  13  15
ENDBRANCH   9  13
TORSDOF 3
ENDMDL
MODEL      179
REMARK 921   NORMALIZED FREE ENERGY PREDICTED BY IDOCK:   -3.51 KCAL/MOL
REMARK 922        TOTAL FREE ENERGY PREDICTED BY IDOCK:   -4.44 KCAL/MOL
REMARK 923 INTER-LIGAND FREE ENERGY PREDICTED BY IDOCK:   -4.16 KCAL/MOL
REMARK 924 INTRA-LIGAND FREE ENERGY PREDICTED BY IDOCK:   -0.28 KCAL/MOL
REMARK 927      BINDING AFFINITY PREDICTED BY RF-SCORE:    0.00 PKD
ROOT
HETATM    1  C   UNL     1      -9.828   9.848  66.632  1.00  0.00    -0.265 C  
HETATM    2  C   UNL     1      -8.815  10.659  67.453  1.00  0.00    -0.132 C  
HETATM    3  C   UNL     1      -9.476   9.830  65.146  1.00  0.00    -0.338 C  
HETATM    4  C   UNL     1      -9.200  10.701  68.935  1.00  0.00    -0.183 C  
HETATM    5  N   UNL     1      -9.507   9.376  69.487  1.00  0.00    -0.170 N  
HETATM    6  C   UNL     1     -10.469   8.575  68.712  1.00  0.00    -0.184 C  
HETATM    7  C   UNL     1      -8.855   8.947  70.643  1.00  0.00    -0.198 C  
HETATM    8  O   UNL     1      -7.972   9.632  71.165  1.00  0.00    -0.275 OA 
HETATM    9  C   UNL     1     -10.061   8.435  67.225  1.00  0.00    -0.253 C  
ENDROOT
BRANCH   7  10
HETATM   10  C   UNL     1      -9.267   7.607  71.225  1.00  0.00    -0.155 C  
HETATM   11  C   UNL     1     -10.320   7.736  72.240  1.00  0.00    -0.237 C  
HETATM   12  N   UNL     1     -11.141   7.774  73.060  1.00  0.00    -0.407 NA 
ENDBRANCH   7  10
BRANCH   9  13
HETATM   13  N   UNL     1      -8.915   7.529  67.017  1.00  0.00    -0.126 NA 
HETATM   14  C   UNL     1      -7.586   7.723  67.573  1.00  0.00    -0.109 C  
BRANCH  13  15
HETATM   15  C   UNL     1      -9.125   6.314  66.374  1.00  0.00    -0.153 A  
HETATM   16  N   UNL     1      -9.854   5.349  66.995  1.00  0.00    -0.147 NA 
HETATM   17  C   UNL     1      -9.977   4.138  66.408  1.00  0.00    -0.155 A  
HETATM   18  N   UNL     1      -9.470   3.726  65.237  1.00  0.00    -0.160 NA 
HETATM   19  C   UNL     1      -8.794   4.709  64.631  1.00  0.00    -0.153 A  
HETATM   20  C   UNL     1      -8.586   5.996  65.101  1.00  0.00    -0.073 A  
HETATM   21  C   UNL     1      -7.857   6.680  64.080  1.00  0.00    -0.108 A  
HETATM   22  C   UNL     1      -7.609   5.787  63.058  1.00  0.00    -0.082 A  
HETATM   23  N   UNL     1      -8.181   4.593  63.412  1.00  0.00    -0.096 NA 
HETATM   24  H   UNL     1      -8.154   3.741  62.850  1.00  0.00     0.000 HD 
ENDBRANCH  13  15
ENDBRANCH   9  13
TORSDOF 3
ENDMDL
MODEL      180
REMARK 921   NORMALIZED FREE ENERGY PREDICTED BY IDOCK:   -3.50 KCAL/MOL
REMARK 922        TOTAL FREE ENERGY PREDICTED BY IDOCK:   -4.43 KCAL/MOL
REMARK 923 INTER-LIGAND FREE ENERGY PREDICTED BY IDOCK:   -4.08 KCAL/MOL
REMARK 924 INTRA-LIGAND FREE ENERGY PREDICTED BY IDOCK:   -0.35 KCAL/MOL
REMARK 927      BINDING AFFINITY PREDICTED BY RF-SCORE:    0.00 PKD
ROOT
HETATM    1  C   UNL     1      -7.111  12.062  68.171  1.00  0.00    -0.086 C  
HETATM    2  C   UNL     1      -6.945  11.583  66.723  1.00  0.00    -0.108 C  
HETATM    3  C   UNL     1      -6.814  13.554  68.318  1.00  0.00    -0.108 C  
HETATM    4  C   UNL     1      -7.209  10.079  66.596  1.00  0.00    -0.099 C  
HETATM    5  N   UNL     1      -8.462   9.659  67.236  1.00  0.00    -0.131 N  
HETATM    6  C   UNL     1      -8.649  10.116  68.623  1.00  0.00    -0.123 C  
HETATM    7  C   UNL     1      -9.393   8.924  66.502  1.00  0.00    -0.195 C  
HETATM    8  O   UNL     1      -9.213   8.686  65.306  1.00  0.00    -0.117 OA 
HETATM    9  C   UNL     1      -8.479  11.648  68.771  1.00  0.00    -0.025 C  
ENDROOT
BRANCH   7  10
HETATM   10  C   UNL     1     -10.634   8.439  67.229  1.00  0.00    -0.328 C  
HETATM   11  C   UNL     1     -10.556   7.017  67.585  1.00  0.00    -0.257 C  
HETATM   12  N   UNL     1     -10.560   5.894  67.881  1.00  0.00    -0.242 NA 
ENDBRANCH   7  10
BRANCH   9  13
HETATM   13  N   UNL     1      -9.608  12.417  68.211  1.00  0.00    -0.216 NA 
HETATM   14  C   UNL     1     -10.047  12.364  66.826  1.00  0.00    -0.214 C  
BRANCH  13  15
HETATM   15  C   UNL     1     -10.427  13.136  69.074  1.00  0.00    -0.002 A  
HETATM   16  N   UNL     1     -10.197  14.463  69.259  1.00  0.00    -0.129 NA 
HETATM   17  C   UNL     1     -10.935  15.137  70.168  1.00  0.00    -0.253 A  
HETATM   18  N   UNL     1     -11.920  14.671  70.950  1.00  0.00    -0.309 NA 
HETATM   19  C   UNL     1     -12.151  13.374  70.716  1.00  0.00    -0.250 A  
HETATM   20  C   UNL     1     -11.485  12.554  69.818  1.00  0.00    -0.211 A  
HETATM   21  C   UNL     1     -12.124  11.278  69.896  1.00  0.00    -0.414 A  
HETATM   22  C   UNL     1     -13.111  11.350  70.857  1.00  0.00     0.026 A  
HETATM   23  N   UNL     1     -13.110  12.629  71.349  1.00  0.00    -0.286 NA 
HETATM   24  H   UNL     1     -13.732  12.976  72.079  1.00  0.00     0.000 HD 
ENDBRANCH  13  15
ENDBRANCH   9  13
TORSDOF 3
ENDMDL
MODEL      181
REMARK 921   NORMALIZED FREE ENERGY PREDICTED BY IDOCK:   -3.48 KCAL/MOL
REMARK 922        TOTAL FREE ENERGY PREDICTED BY IDOCK:   -4.41 KCAL/MOL
REMARK 923 INTER-LIGAND FREE ENERGY PREDICTED BY IDOCK:   -4.76 KCAL/MOL
REMARK 924 INTRA-LIGAND FREE ENERGY PREDICTED BY IDOCK:    0.35 KCAL/MOL
REMARK 927      BINDING AFFINITY PREDICTED BY RF-SCORE:    0.00 PKD
ROOT
HETATM    1  C   UNL     1      -7.583  15.308  67.794  1.00  0.00    -0.171 C  
HETATM    2  C   UNL     1      -7.388  13.994  67.026  1.00  0.00     0.378 C  
HETATM    3  C   UNL     1      -6.902  16.485  67.097  1.00  0.00    -0.230 C  
HETATM    4  C   UNL     1      -8.043  12.815  67.754  1.00  0.00    -0.168 C  
HETATM    5  N   UNL     1      -9.429  13.086  68.153  1.00  0.00    -0.216 N  
HETATM    6  C   UNL     1      -9.644  14.347  68.883  1.00  0.00    -0.123 C  
HETATM    7  C   UNL     1     -10.435  12.191  67.786  1.00  0.00    -0.205 C  
HETATM    8  O   UNL     1     -10.188  11.219  67.069  1.00  0.00    -0.204 OA 
HETATM    9  C   UNL     1      -9.073  15.572  68.129  1.00  0.00    -0.184 C  
ENDROOT
BRANCH   7  10
HETATM   10  C   UNL     1     -11.838  12.467  68.293  1.00  0.00    -0.361 C  
HETATM   11  C   UNL     1     -12.117  11.792  69.567  1.00  0.00    -0.250 C  
HETATM   12  N   UNL     1     -12.402  11.274  70.566  1.00  0.00    -0.352 NA 
ENDBRANCH   7  10
BRANCH   9  13
HETATM   13  N   UNL     1      -9.869  15.952  66.945  1.00  0.00    -0.238 NA 
HETATM   14  C   UNL     1     -10.547  15.017  66.062  1.00  0.00    -0.322 C  
BRANCH  13  15
HETATM   15  C   UNL     1     -10.137  17.296  66.716  1.00  0.00    -0.302 A  
HETATM   16  N   UNL     1     -10.465  17.706  65.462  1.00  0.00    -0.638 NA 
HETATM   17  C   UNL     1     -10.633  19.026  65.226  1.00  0.00     0.495 A  
HETATM   18  N   UNL     1     -10.530  20.046  66.090  1.00  0.00    -0.443 NA 
HETATM   19  C   UNL     1     -10.250  19.608  67.323  1.00  0.00    -0.433 A  
HETATM   20  C   UNL     1     -10.054  18.295  67.721  1.00  0.00    -0.369 A  
HETATM   21  C   UNL     1      -9.834  18.336  69.132  1.00  0.00    -0.174 A  
HETATM   22  C   UNL     1      -9.856  19.655  69.533  1.00  0.00    -0.050 A  
HETATM   23  N   UNL     1     -10.104  20.416  68.420  1.00  0.00    -0.204 NA 
HETATM   24  H   UNL     1     -10.171  21.434  68.409  1.00  0.00     0.000 HD 
ENDBRANCH  13  15
ENDBRANCH   9  13
TORSDOF 3
ENDMDL
MODEL      182
REMARK 921   NORMALIZED FREE ENERGY PREDICTED BY IDOCK:   -3.45 KCAL/MOL
REMARK 922        TOTAL FREE ENERGY PREDICTED BY IDOCK:   -4.37 KCAL/MOL
REMARK 923 INTER-LIGAND FREE ENERGY PREDICTED BY IDOCK:   -4.42 KCAL/MOL
REMARK 924 INTRA-LIGAND FREE ENERGY PREDICTED BY IDOCK:    0.06 KCAL/MOL
REMARK 927      BINDING AFFINITY PREDICTED BY RF-SCORE:    0.00 PKD
ROOT
HETATM    1  C   UNL     1      -8.212  10.590  65.852  1.00  0.00    -0.152 C  
HETATM    2  C   UNL     1      -8.170   9.069  65.657  1.00  0.00    -0.120 C  
HETATM    3  C   UNL     1      -9.098  11.277  64.814  1.00  0.00    -0.032 C  
HETATM    4  C   UNL     1      -7.249   8.397  66.681  1.00  0.00    -0.077 C  
HETATM    5  N   UNL     1      -7.514   8.826  68.059  1.00  0.00    -0.092 N  
HETATM    6  C   UNL     1      -7.569  10.282  68.270  1.00  0.00    -0.091 C  
HETATM    7  C   UNL     1      -7.741   7.864  69.044  1.00  0.00    -0.101 C  
HETATM    8  O   UNL     1      -7.797   6.665  68.760  1.00  0.00    -0.107 OA 
HETATM    9  C   UNL     1      -8.562  10.982  67.311  1.00  0.00    -0.130 C  
ENDROOT
BRANCH   7  10
HETATM   10  C   UNL     1      -7.924   8.350  70.470  1.00  0.00    -0.098 C  
HETATM   11  C   UNL     1      -8.043   7.244  71.429  1.00  0.00    -0.102 C  
HETATM   12  N   UNL     1      -8.157   6.415  72.233  1.00  0.00    -0.107 NA 
ENDBRANCH   7  10
BRANCH   9  13
HETATM   13  N   UNL     1      -9.976  10.732  67.650  1.00  0.00    -0.170 NA 
HETATM   14  C   UNL     1     -10.621   9.429  67.629  1.00  0.00    -0.271 C  
BRANCH  13  15
HETATM   15  C   UNL     1     -10.736  11.769  68.177  1.00  0.00    -0.214 A  
HETATM   16  N   UNL     1     -10.779  12.962  67.526  1.00  0.00    -0.225 NA 
HETATM   17  C   UNL     1     -11.442  13.995  68.091  1.00  0.00    -0.309 A  
HETATM   18  N   UNL     1     -12.110  14.019  69.254  1.00  0.00    -0.347 NA 
HETATM   19  C   UNL     1     -12.086  12.821  69.849  1.00  0.00    -0.259 A  
HETATM   20  C   UNL     1     -11.456  11.673  69.396  1.00  0.00    -0.372 A  
HETATM   21  C   UNL     1     -11.759  10.651  70.348  1.00  0.00    -0.446 A  
HETATM   22  C   UNL     1     -12.513  11.213  71.357  1.00  0.00    -0.309 A  
HETATM   23  N   UNL     1     -12.697  12.535  71.041  1.00  0.00    -0.291 NA 
HETATM   24  H   UNL     1     -13.214  13.206  71.609  1.00  0.00     0.000 HD 
ENDBRANCH  13  15
ENDBRANCH   9  13
TORSDOF 3
ENDMDL
MODEL      183
REMARK 921   NORMALIZED FREE ENERGY PREDICTED BY IDOCK:   -3.45 KCAL/MOL
REMARK 922        TOTAL FREE ENERGY PREDICTED BY IDOCK:   -4.37 KCAL/MOL
REMARK 923 INTER-LIGAND FREE ENERGY PREDICTED BY IDOCK:   -3.87 KCAL/MOL
REMARK 924 INTRA-LIGAND FREE ENERGY PREDICTED BY IDOCK:   -0.49 KCAL/MOL
REMARK 927      BINDING AFFINITY PREDICTED BY RF-SCORE:    0.00 PKD
ROOT
HETATM    1  C   UNL     1      -9.803   4.241  70.281  1.00  0.00    -0.263 C  
HETATM    2  C   UNL     1      -8.407   3.603  70.282  1.00  0.00    -0.082 C  
HETATM    3  C   UNL     1     -10.127   4.911  71.615  1.00  0.00    -0.266 C  
HETATM    4  C   UNL     1      -8.109   2.903  68.952  1.00  0.00    -0.055 C  
HETATM    5  N   UNL     1      -8.392   3.745  67.783  1.00  0.00    -0.092 N  
HETATM    6  C   UNL     1      -9.722   4.376  67.764  1.00  0.00    -0.137 C  
HETATM    7  C   UNL     1      -7.401   3.933  66.819  1.00  0.00    -0.072 C  
HETATM    8  O   UNL     1      -6.271   3.466  66.971  1.00  0.00    -0.030 OA 
HETATM    9  C   UNL     1     -10.019   5.171  69.059  1.00  0.00    -0.195 C  
ENDROOT
BRANCH   7  10
HETATM   10  C   UNL     1      -7.767   4.740  65.587  1.00  0.00    -0.090 C  
HETATM   11  C   UNL     1      -7.278   6.123  65.656  1.00  0.00    -0.074 C  
HETATM   12  N   UNL     1      -6.929   7.230  65.658  1.00  0.00    -0.059 NA 
ENDBRANCH   7  10
BRANCH   9  13
HETATM   13  N   UNL     1      -9.260   6.433  69.157  1.00  0.00    -0.134 NA 
HETATM   14  C   UNL     1      -7.848   6.533  69.485  1.00  0.00    -0.105 C  
BRANCH  13  15
HETATM   15  C   UNL     1      -9.871   7.618  68.763  1.00  0.00    -0.164 A  
HETATM   16  N   UNL     1      -9.793   8.009  67.464  1.00  0.00    -0.160 NA 
HETATM   17  C   UNL     1     -10.307   9.206  67.106  1.00  0.00    -0.267 A  
HETATM   18  N   UNL     1     -10.926  10.111  67.878  1.00  0.00    -0.285 NA 
HETATM   19  C   UNL     1     -11.025   9.679  69.141  1.00  0.00    -0.151 A  
HETATM   20  C   UNL     1     -10.554   8.482  69.657  1.00  0.00    -0.221 A  
HETATM   21  C   UNL     1     -10.945   8.461  71.031  1.00  0.00    -0.288 A  
HETATM   22  C   UNL     1     -11.590   9.647  71.314  1.00  0.00    -0.393 A  
HETATM   23  N   UNL     1     -11.625  10.378  70.155  1.00  0.00    -0.289 NA 
HETATM   24  H   UNL     1     -12.037  11.307  70.060  1.00  0.00     0.000 HD 
ENDBRANCH  13  15
ENDBRANCH   9  13
TORSDOF 3
ENDMDL
MODEL      184
REMARK 921   NORMALIZED FREE ENERGY PREDICTED BY IDOCK:   -3.43 KCAL/MOL
REMARK 922        TOTAL FREE ENERGY PREDICTED BY IDOCK:   -4.35 KCAL/MOL
REMARK 923 INTER-LIGAND FREE ENERGY PREDICTED BY IDOCK:   -4.25 KCAL/MOL
REMARK 924 INTRA-LIGAND FREE ENERGY PREDICTED BY IDOCK:   -0.10 KCAL/MOL
REMARK 927      BINDING AFFINITY PREDICTED BY RF-SCORE:    0.00 PKD
ROOT
HETATM    1  C   UNL     1      -8.286  12.209  68.402  1.00  0.00    -0.143 C  
HETATM    2  C   UNL     1      -7.033  11.704  69.130  1.00  0.00    -0.105 C  
HETATM    3  C   UNL     1      -8.042  13.544  67.700  1.00  0.00    -0.180 C  
HETATM    4  C   UNL     1      -7.302  10.383  69.860  1.00  0.00    -0.142 C  
HETATM    5  N   UNL     1      -7.958   9.381  69.011  1.00  0.00    -0.089 N  
HETATM    6  C   UNL     1      -9.157   9.845  68.295  1.00  0.00    -0.122 C  
HETATM    7  C   UNL     1      -7.398   8.109  68.897  1.00  0.00    -0.090 C  
HETATM    8  O   UNL     1      -6.323   7.837  69.436  1.00  0.00    -0.034 OA 
HETATM    9  C   UNL     1      -8.895  11.129  67.471  1.00  0.00    -0.139 C  
ENDROOT
BRANCH   7  10
HETATM   10  C   UNL     1      -8.156   7.080  68.078  1.00  0.00    -0.119 C  
HETATM   11  C   UNL     1      -7.413   5.822  67.931  1.00  0.00    -0.078 C  
HETATM   12  N   UNL     1      -6.871   4.809  67.767  1.00  0.00    -0.058 NA 
ENDBRANCH   7  10
BRANCH   9  13
HETATM   13  N   UNL     1      -8.085  10.891  66.260  1.00  0.00    -0.162 NA 
HETATM   14  C   UNL     1      -6.643  10.709  66.245  1.00  0.00    -0.126 C  
BRANCH  13  15
HETATM   15  C   UNL     1      -8.732  10.667  65.050  1.00  0.00    -0.176 A  
HETATM   16  N   UNL     1      -8.322   9.643  64.256  1.00  0.00    -0.154 NA 
HETATM   17  C   UNL     1      -8.891   9.487  63.040  1.00  0.00    -0.229 A  
HETATM   18  N   UNL     1      -9.858  10.223  62.473  1.00  0.00    -0.069 NA 
HETATM   19  C   UNL     1     -10.269  11.196  63.295  1.00  0.00    -0.350 A  
HETATM   20  C   UNL     1      -9.789  11.478  64.564  1.00  0.00    -0.278 A  
HETATM   21  C   UNL     1     -10.575  12.566  65.053  1.00  0.00    -0.329 A  
HETATM   22  C   UNL     1     -11.462  12.935  64.063  1.00  0.00    -0.422 A  
HETATM   23  N   UNL     1     -11.259  12.095  62.999  1.00  0.00    -0.653 NA 
HETATM   24  H   UNL     1     -11.769  12.134  62.116  1.00  0.00     0.000 HD 
ENDBRANCH  13  15
ENDBRANCH   9  13
TORSDOF 3
ENDMDL
MODEL      185
REMARK 921   NORMALIZED FREE ENERGY PREDICTED BY IDOCK:   -3.43 KCAL/MOL
REMARK 922        TOTAL FREE ENERGY PREDICTED BY IDOCK:   -4.34 KCAL/MOL
REMARK 923 INTER-LIGAND FREE ENERGY PREDICTED BY IDOCK:   -4.84 KCAL/MOL
REMARK 924 INTRA-LIGAND FREE ENERGY PREDICTED BY IDOCK:    0.50 KCAL/MOL
REMARK 927      BINDING AFFINITY PREDICTED BY RF-SCORE:    0.00 PKD
ROOT
HETATM    1  C   UNL     1      -7.637  10.207  67.343  1.00  0.00    -0.094 C  
HETATM    2  C   UNL     1      -8.493   8.966  67.059  1.00  0.00    -0.112 C  
HETATM    3  C   UNL     1      -7.441  11.066  66.094  1.00  0.00    -0.076 C  
HETATM    4  C   UNL     1      -8.651   8.094  68.309  1.00  0.00    -0.130 C  
HETATM    5  N   UNL     1      -9.062   8.858  69.494  1.00  0.00    -0.144 N  
HETATM    6  C   UNL     1      -8.262  10.060  69.781  1.00  0.00    -0.178 C  
HETATM    7  C   UNL     1     -10.179   8.445  70.221  1.00  0.00    -0.196 C  
HETATM    8  O   UNL     1     -10.868   7.496  69.842  1.00  0.00    -0.248 OA 
HETATM    9  C   UNL     1      -8.159  11.009  68.562  1.00  0.00    -0.140 C  
ENDROOT
BRANCH   7  10
HETATM   10  C   UNL     1     -10.515   9.215  71.486  1.00  0.00    -0.422 C  
HETATM   11  C   UNL     1     -11.897   9.709  71.490  1.00  0.00    -0.407 C  
HETATM   12  N   UNL     1     -12.974  10.139  71.547  1.00  0.00    -0.408 NA 
ENDBRANCH   7  10
BRANCH   9  13
HETATM   13  N   UNL     1      -9.413  11.734  68.280  1.00  0.00    -0.190 NA 
HETATM   14  C   UNL     1     -10.720  11.378  68.810  1.00  0.00    -0.203 C  
BRANCH  13  15
HETATM   15  C   UNL     1      -9.355  12.935  67.583  1.00  0.00    -0.195 A  
HETATM   16  N   UNL     1     -10.243  13.168  66.581  1.00  0.00    -0.254 NA 
HETATM   17  C   UNL     1     -10.123  14.296  65.846  1.00  0.00    -0.326 A  
HETATM   18  N   UNL     1      -9.219  15.279  65.971  1.00  0.00    -0.312 NA 
HETATM   19  C   UNL     1      -8.386  15.041  66.992  1.00  0.00    -0.222 A  
HETATM   20  C   UNL     1      -8.385  13.940  67.833  1.00  0.00    -0.167 A  
HETATM   21  C   UNL     1      -7.347  14.170  68.787  1.00  0.00    -0.128 A  
HETATM   22  C   UNL     1      -6.730  15.363  68.472  1.00  0.00    -0.113 A  
HETATM   23  N   UNL     1      -7.370  15.877  67.375  1.00  0.00    -0.173 NA 
HETATM   24  H   UNL     1      -7.127  16.752  66.911  1.00  0.00     0.000 HD 
ENDBRANCH  13  15
ENDBRANCH   9  13
TORSDOF 3
ENDMDL
MODEL      186
REMARK 921   NORMALIZED FREE ENERGY PREDICTED BY IDOCK:   -3.42 KCAL/MOL
REMARK 922        TOTAL FREE ENERGY PREDICTED BY IDOCK:   -4.34 KCAL/MOL
REMARK 923 INTER-LIGAND FREE ENERGY PREDICTED BY IDOCK:   -4.28 KCAL/MOL
REMARK 924 INTRA-LIGAND FREE ENERGY PREDICTED BY IDOCK:   -0.06 KCAL/MOL
REMARK 927      BINDING AFFINITY PREDICTED BY RF-SCORE:    0.00 PKD
ROOT
HETATM    1  C   UNL     1      -9.374   9.344  69.365  1.00  0.00    -0.172 C  
HETATM    2  C   UNL     1     -10.879   9.612  69.242  1.00  0.00    -0.227 C  
HETATM    3  C   UNL     1      -9.079   7.890  69.730  1.00  0.00    -0.146 C  
HETATM    4  C   UNL     1     -11.163  11.081  68.912  1.00  0.00    -0.265 C  
HETATM    5  N   UNL     1     -10.362  11.583  67.789  1.00  0.00    -0.179 N  
HETATM    6  C   UNL     1      -8.915  11.329  67.880  1.00  0.00    -0.146 C  
HETATM    7  C   UNL     1     -11.002  12.203  66.715  1.00  0.00    -0.280 C  
HETATM    8  O   UNL     1     -12.232  12.268  66.660  1.00  0.00    -0.574 OA 
HETATM    9  C   UNL     1      -8.589   9.835  68.121  1.00  0.00    -0.118 C  
ENDROOT
BRANCH   7  10
HETATM   10  C   UNL     1     -10.127  12.782  65.618  1.00  0.00    -0.281 C  
HETATM   11  C   UNL     1     -10.484  12.272  64.289  1.00  0.00    -0.346 C  
HETATM   12  N   UNL     1     -10.708  11.895  63.214  1.00  0.00    -0.385 NA 
ENDBRANCH   7  10
BRANCH   9  13
HETATM   13  N   UNL     1      -8.812   8.990  66.932  1.00  0.00    -0.115 NA 
HETATM   14  C   UNL     1      -9.901   9.154  65.983  1.00  0.00    -0.272 C  
BRANCH  13  15
HETATM   15  C   UNL     1      -7.844   8.057  66.578  1.00  0.00    -0.097 A  
HETATM   16  N   UNL     1      -6.544   8.446  66.488  1.00  0.00    -0.055 NA 
HETATM   17  C   UNL     1      -5.621   7.560  66.054  1.00  0.00    -0.032 A  
HETATM   18  N   UNL     1      -5.802   6.282  65.689  1.00  0.00    -0.024 NA 
HETATM   19  C   UNL     1      -7.082   5.917  65.828  1.00  0.00    -0.070 A  
HETATM   20  C   UNL     1      -8.135   6.705  66.262  1.00  0.00    -0.115 A  
HETATM   21  C   UNL     1      -9.283   5.855  66.289  1.00  0.00    -0.171 A  
HETATM   22  C   UNL     1      -8.906   4.609  65.832  1.00  0.00    -0.124 A  
HETATM   23  N   UNL     1      -7.566   4.665  65.552  1.00  0.00    -0.081 NA 
HETATM   24  H   UNL     1      -7.010   3.890  65.190  1.00  0.00     0.000 HD 
ENDBRANCH  13  15
ENDBRANCH   9  13
TORSDOF 3
ENDMDL
MODEL      187
REMARK 921   NORMALIZED FREE ENERGY PREDICTED BY IDOCK:   -3.40 KCAL/MOL
REMARK 922        TOTAL FREE ENERGY PREDICTED BY IDOCK:   -4.32 KCAL/MOL
REMARK 923 INTER-LIGAND FREE ENERGY PREDICTED BY IDOCK:   -3.84 KCAL/MOL
REMARK 924 INTRA-LIGAND FREE ENERGY PREDICTED BY IDOCK:   -0.47 KCAL/MOL
REMARK 927      BINDING AFFINITY PREDICTED BY RF-SCORE:    0.00 PKD
ROOT
HETATM    1  C   UNL     1      -6.885  12.271  67.879  1.00  0.00    -0.093 C  
HETATM    2  C   UNL     1      -6.189  11.399  66.826  1.00  0.00    -0.141 C  
HETATM    3  C   UNL     1      -7.764  13.346  67.242  1.00  0.00    -0.092 C  
HETATM    4  C   UNL     1      -5.282  10.349  67.476  1.00  0.00    -0.040 C  
HETATM    5  N   UNL     1      -5.950   9.595  68.544  1.00  0.00    -0.043 N  
HETATM    6  C   UNL     1      -6.634  10.410  69.562  1.00  0.00    -0.073 C  
HETATM    7  C   UNL     1      -5.943   8.201  68.505  1.00  0.00    -0.041 C  
HETATM    8  O   UNL     1      -5.451   7.594  67.552  1.00  0.00    -0.032 OA 
HETATM    9  C   UNL     1      -7.629  11.421  68.941  1.00  0.00    -0.114 C  
ENDROOT
BRANCH   7  10
HETATM   10  C   UNL     1      -6.572   7.464  69.674  1.00  0.00    -0.040 C  
HETATM   11  C   UNL     1      -7.613   6.521  69.248  1.00  0.00    -0.100 C  
HETATM   12  N   UNL     1      -8.455   5.769  68.976  1.00  0.00    -0.104 NA 
ENDBRANCH   7  10
BRANCH   9  13
HETATM   13  N   UNL     1      -8.853  10.787  68.414  1.00  0.00    -0.139 NA 
HETATM   14  C   UNL     1      -8.898   9.861  67.294  1.00  0.00    -0.132 C  
BRANCH  13  15
HETATM   15  C   UNL     1     -10.047  10.946  69.110  1.00  0.00    -0.177 A  
HETATM   16  N   UNL     1     -10.846  12.009  68.828  1.00  0.00    -0.226 NA 
HETATM   17  C   UNL     1     -11.957  12.210  69.570  1.00  0.00    -0.275 A  
HETATM   18  N   UNL     1     -12.421  11.473  70.591  1.00  0.00    -0.334 NA 
HETATM   19  C   UNL     1     -11.637  10.413  70.816  1.00  0.00    -0.358 A  
HETATM   20  C   UNL     1     -10.475  10.072  70.142  1.00  0.00    -0.338 A  
HETATM   21  C   UNL     1     -10.033   8.838  70.711  1.00  0.00    -0.263 A  
HETATM   22  C   UNL     1     -10.900   8.498  71.727  1.00  0.00    -0.304 A  
HETATM   23  N   UNL     1     -11.867   9.469  71.782  1.00  0.00    -0.385 NA 
HETATM   24  H   UNL     1     -12.643   9.487  72.443  1.00  0.00     0.000 HD 
ENDBRANCH  13  15
ENDBRANCH   9  13
TORSDOF 3
ENDMDL
MODEL      188
REMARK 921   NORMALIZED FREE ENERGY PREDICTED BY IDOCK:   -3.37 KCAL/MOL
REMARK 922        TOTAL FREE ENERGY PREDICTED BY IDOCK:   -4.27 KCAL/MOL
REMARK 923 INTER-LIGAND FREE ENERGY PREDICTED BY IDOCK:   -4.31 KCAL/MOL
REMARK 924 INTRA-LIGAND FREE ENERGY PREDICTED BY IDOCK:    0.04 KCAL/MOL
REMARK 927      BINDING AFFINITY PREDICTED BY RF-SCORE:    0.00 PKD
ROOT
HETATM    1  C   UNL     1      -7.693   7.426  67.970  1.00  0.00    -0.116 C  
HETATM    2  C   UNL     1      -8.360   6.108  68.386  1.00  0.00    -0.114 C  
HETATM    3  C   UNL     1      -7.678   7.607  66.453  1.00  0.00    -0.089 C  
HETATM    4  C   UNL     1      -8.335   5.922  69.907  1.00  0.00    -0.121 C  
HETATM    5  N   UNL     1      -8.812   7.102  70.638  1.00  0.00    -0.148 N  
HETATM    6  C   UNL     1      -8.193   8.380  70.250  1.00  0.00    -0.121 C  
HETATM    7  C   UNL     1      -9.823   6.956  71.588  1.00  0.00    -0.168 C  
HETATM    8  O   UNL     1     -10.374   5.868  71.768  1.00  0.00    -0.204 OA 
HETATM    9  C   UNL     1      -8.284   8.644  68.727  1.00  0.00    -0.121 C  
ENDROOT
BRANCH   7  10
HETATM   10  C   UNL     1     -10.224   8.188  72.380  1.00  0.00    -0.368 C  
HETATM   11  C   UNL     1     -11.565   8.670  72.026  1.00  0.00    -0.370 C  
HETATM   12  N   UNL     1     -12.612   9.108  71.781  1.00  0.00    -0.344 NA 
ENDBRANCH   7  10
BRANCH   9  13
HETATM   13  N   UNL     1      -9.644   8.996  68.275  1.00  0.00    -0.143 NA 
HETATM   14  C   UNL     1     -10.801   8.120  68.352  1.00  0.00     0.092 C  
BRANCH  13  15
HETATM   15  C   UNL     1      -9.906  10.304  67.884  1.00  0.00    -0.157 A  
HETATM   16  N   UNL     1     -11.195  10.718  67.763  1.00  0.00    -0.341 NA 
HETATM   17  C   UNL     1     -11.445  11.960  67.293  1.00  0.00    -0.317 A  
HETATM   18  N   UNL     1     -10.566  12.900  66.918  1.00  0.00    -0.252 NA 
HETATM   19  C   UNL     1      -9.307  12.479  67.088  1.00  0.00    -0.201 A  
HETATM   20  C   UNL     1      -8.894  11.244  67.560  1.00  0.00    -0.140 A  
HETATM   21  C   UNL     1      -7.466  11.294  67.608  1.00  0.00    -0.101 A  
HETATM   22  C   UNL     1      -7.063  12.522  67.127  1.00  0.00    -0.053 A  
HETATM   23  N   UNL     1      -8.194  13.228  66.810  1.00  0.00    -0.413 NA 
HETATM   24  H   UNL     1      -8.207  14.172  66.424  1.00  0.00     0.000 HD 
ENDBRANCH  13  15
ENDBRANCH   9  13
TORSDOF 3
ENDMDL
MODEL      189
REMARK 921   NORMALIZED FREE ENERGY PREDICTED BY IDOCK:   -3.36 KCAL/MOL
REMARK 922        TOTAL FREE ENERGY PREDICTED BY IDOCK:   -4.27 KCAL/MOL
REMARK 923 INTER-LIGAND FREE ENERGY PREDICTED BY IDOCK:   -4.09 KCAL/MOL
REMARK 924 INTRA-LIGAND FREE ENERGY PREDICTED BY IDOCK:   -0.18 KCAL/MOL
REMARK 927      BINDING AFFINITY PREDICTED BY RF-SCORE:    0.00 PKD
ROOT
HETATM    1  C   UNL     1      -7.381   2.753  69.620  1.00  0.00    -0.044 C  
HETATM    2  C   UNL     1      -6.510   3.096  68.404  1.00  0.00    -0.036 C  
HETATM    3  C   UNL     1      -6.658   3.026  70.938  1.00  0.00    -0.031 C  
HETATM    4  C   UNL     1      -7.233   2.783  67.089  1.00  0.00    -0.053 C  
HETATM    5  N   UNL     1      -8.593   3.332  67.037  1.00  0.00    -0.105 N  
HETATM    6  C   UNL     1      -9.445   3.025  68.197  1.00  0.00    -0.159 C  
HETATM    7  C   UNL     1      -8.969   4.128  65.954  1.00  0.00    -0.126 C  
HETATM    8  O   UNL     1      -8.155   4.438  65.081  1.00  0.00    -0.099 OA 
HETATM    9  C   UNL     1      -8.781   3.415  69.540  1.00  0.00    -0.076 C  
ENDROOT
BRANCH   7  10
HETATM   10  C   UNL     1     -10.410   4.602  65.900  1.00  0.00    -0.315 C  
HETATM   11  C   UNL     1     -10.581   5.941  66.478  1.00  0.00    -0.201 C  
HETATM   12  N   UNL     1     -10.783   6.989  66.934  1.00  0.00    -0.331 NA 
ENDBRANCH   7  10
BRANCH   9  13
HETATM   13  N   UNL     1      -8.740   4.873  69.770  1.00  0.00    -0.085 NA 
HETATM   14  C   UNL     1      -7.842   5.798  69.099  1.00  0.00    -0.090 C  
BRANCH  13  15
HETATM   15  C   UNL     1      -9.720   5.456  70.565  1.00  0.00    -0.185 A  
HETATM   16  N   UNL     1     -10.211   6.678  70.227  1.00  0.00    -0.186 NA 
HETATM   17  C   UNL     1     -11.094   7.282  71.053  1.00  0.00    -0.258 A  
HETATM   18  N   UNL     1     -11.594   6.829  72.212  1.00  0.00    -0.278 NA 
HETATM   19  C   UNL     1     -11.125   5.609  72.496  1.00  0.00    -0.276 A  
HETATM   20  C   UNL     1     -10.224   4.864  71.751  1.00  0.00    -0.268 A  
HETATM   21  C   UNL     1     -10.077   3.618  72.435  1.00  0.00    -0.233 A  
HETATM   22  C   UNL     1     -10.845   3.663  73.581  1.00  0.00    -0.239 A  
HETATM   23  N   UNL     1     -11.471   4.883  73.605  1.00  0.00    -0.414 NA 
HETATM   24  H   UNL     1     -12.101   5.203  74.340  1.00  0.00     0.000 HD 
ENDBRANCH  13  15
ENDBRANCH   9  13
TORSDOF 3
ENDMDL
MODEL      190
REMARK 921   NORMALIZED FREE ENERGY PREDICTED BY IDOCK:   -3.35 KCAL/MOL
REMARK 922        TOTAL FREE ENERGY PREDICTED BY IDOCK:   -4.25 KCAL/MOL
REMARK 923 INTER-LIGAND FREE ENERGY PREDICTED BY IDOCK:   -4.54 KCAL/MOL
REMARK 924 INTRA-LIGAND FREE ENERGY PREDICTED BY IDOCK:    0.29 KCAL/MOL
REMARK 927      BINDING AFFINITY PREDICTED BY RF-SCORE:    0.00 PKD
ROOT
HETATM    1  C   UNL     1      -8.777   5.850  67.424  1.00  0.00    -0.108 C  
HETATM    2  C   UNL     1     -10.078   5.188  67.896  1.00  0.00    -0.193 C  
HETATM    3  C   UNL     1      -8.651   5.843  65.901  1.00  0.00    -0.145 C  
HETATM    4  C   UNL     1     -10.175   5.167  69.425  1.00  0.00    -0.223 C  
HETATM    5  N   UNL     1      -9.901   6.474  70.036  1.00  0.00    -0.165 N  
HETATM    6  C   UNL     1      -8.663   7.133  69.591  1.00  0.00    -0.141 C  
HETATM    7  C   UNL     1     -10.823   7.018  70.930  1.00  0.00    -0.241 C  
HETATM    8  O   UNL     1     -11.896   6.455  71.157  1.00  0.00    -0.335 OA 
HETATM    9  C   UNL     1      -8.576   7.254  68.050  1.00  0.00    -0.125 C  
ENDROOT
BRANCH   7  10
HETATM   10  C   UNL     1     -10.458   8.329  71.601  1.00  0.00    -0.303 C  
HETATM   11  C   UNL     1      -9.628   8.135  72.797  1.00  0.00    -0.283 C  
HETATM   12  N   UNL     1      -8.983   8.047  73.757  1.00  0.00    -0.264 NA 
ENDBRANCH   7  10
BRANCH   9  13
HETATM   13  N   UNL     1      -9.490   8.268  67.491  1.00  0.00    -0.146 NA 
HETATM   14  C   UNL     1     -10.892   8.045  67.178  1.00  0.00    -0.080 C  
BRANCH  13  15
HETATM   15  C   UNL     1      -9.054   9.584  67.386  1.00  0.00    -0.130 A  
HETATM   16  N   UNL     1      -7.799   9.835  66.927  1.00  0.00    -0.102 NA 
HETATM   17  C   UNL     1      -7.346  11.108  66.915  1.00  0.00    -0.138 A  
HETATM   18  N   UNL     1      -7.986  12.222  67.298  1.00  0.00    -0.171 NA 
HETATM   19  C   UNL     1      -9.232  11.948  67.703  1.00  0.00    -0.183 A  
HETATM   20  C   UNL     1      -9.836  10.703  67.769  1.00  0.00    -0.187 A  
HETATM   21  C   UNL     1     -11.175  10.934  68.212  1.00  0.00    -0.347 A  
HETATM   22  C   UNL     1     -11.324  12.285  68.443  1.00  0.00    -0.292 A  
HETATM   23  N   UNL     1     -10.132  12.887  68.134  1.00  0.00    -0.235 NA 
HETATM   24  H   UNL     1      -9.942  13.886  68.213  1.00  0.00     0.000 HD 
ENDBRANCH  13  15
ENDBRANCH   9  13
TORSDOF 3
ENDMDL
MODEL      191
REMARK 921   NORMALIZED FREE ENERGY PREDICTED BY IDOCK:   -3.34 KCAL/MOL
REMARK 922        TOTAL FREE ENERGY PREDICTED BY IDOCK:   -4.24 KCAL/MOL
REMARK 923 INTER-LIGAND FREE ENERGY PREDICTED BY IDOCK:   -4.61 KCAL/MOL
REMARK 924 INTRA-LIGAND FREE ENERGY PREDICTED BY IDOCK:    0.37 KCAL/MOL
REMARK 927      BINDING AFFINITY PREDICTED BY RF-SCORE:    0.00 PKD
ROOT
HETATM    1  C   UNL     1      -9.683   8.705  67.021  1.00  0.00    -0.262 C  
HETATM    2  C   UNL     1     -10.692   7.563  67.200  1.00  0.00    -0.379 C  
HETATM    3  C   UNL     1     -10.368  10.022  66.658  1.00  0.00    -0.281 C  
HETATM    4  C   UNL     1      -9.991   6.241  67.528  1.00  0.00    -0.134 C  
HETATM    5  N   UNL     1      -9.012   6.363  68.615  1.00  0.00    -0.126 N  
HETATM    6  C   UNL     1      -8.039   7.459  68.471  1.00  0.00    -0.125 C  
HETATM    7  C   UNL     1      -9.090   5.499  69.707  1.00  0.00    -0.132 C  
HETATM    8  O   UNL     1     -10.011   4.685  69.809  1.00  0.00    -0.217 OA 
HETATM    9  C   UNL     1      -8.720   8.828  68.230  1.00  0.00    -0.135 C  
ENDROOT
BRANCH   7  10
HETATM   10  C   UNL     1      -8.007   5.606  70.765  1.00  0.00    -0.112 C  
HETATM   11  C   UNL     1      -8.265   4.740  71.922  1.00  0.00    -0.110 C  
HETATM   12  N   UNL     1      -8.420   4.088  72.870  1.00  0.00    -0.095 NA 
ENDBRANCH   7  10
BRANCH   9  13
HETATM   13  N   UNL     1      -9.377   9.373  69.434  1.00  0.00    -0.161 NA 
HETATM   14  C   UNL     1     -10.702   9.971  69.464  1.00  0.00    -0.244 C  
BRANCH  13  15
HETATM   15  C   UNL     1      -8.777   9.181  70.674  1.00  0.00    -0.229 A  
HETATM   16  N   UNL     1      -7.473   9.525  70.844  1.00  0.00    -0.308 NA 
HETATM   17  C   UNL     1      -6.870   9.250  72.021  1.00  0.00     0.323 A  
HETATM   18  N   UNL     1      -7.394   8.667  73.109  1.00  0.00    -0.357 NA 
HETATM   19  C   UNL     1      -8.688   8.379  72.926  1.00  0.00    -0.170 A  
HETATM   20  C   UNL     1      -9.442   8.602  71.785  1.00  0.00    -0.354 A  
HETATM   21  C   UNL     1     -10.769   8.174  72.097  1.00  0.00    -0.360 A  
HETATM   22  C   UNL     1     -10.769   7.670  73.380  1.00  0.00    -0.271 A  
HETATM   23  N   UNL     1      -9.494   7.797  73.868  1.00  0.00    -0.370 NA 
HETATM   24  H   UNL     1      -9.189   7.501  74.796  1.00  0.00     0.000 HD 
ENDBRANCH  13  15
ENDBRANCH   9  13
TORSDOF 3
ENDMDL
MODEL      192
REMARK 921   NORMALIZED FREE ENERGY PREDICTED BY IDOCK:   -3.34 KCAL/MOL
REMARK 922        TOTAL FREE ENERGY PREDICTED BY IDOCK:   -4.24 KCAL/MOL
REMARK 923 INTER-LIGAND FREE ENERGY PREDICTED BY IDOCK:   -4.16 KCAL/MOL
REMARK 924 INTRA-LIGAND FREE ENERGY PREDICTED BY IDOCK:   -0.08 KCAL/MOL
REMARK 927      BINDING AFFINITY PREDICTED BY RF-SCORE:    0.00 PKD
ROOT
HETATM    1  C   UNL     1      -9.077   7.754  66.696  1.00  0.00    -0.195 C  
HETATM    2  C   UNL     1     -10.550   7.331  66.772  1.00  0.00    -0.288 C  
HETATM    3  C   UNL     1      -8.829   8.771  65.583  1.00  0.00    -0.239 C  
HETATM    4  C   UNL     1     -10.778   6.284  67.866  1.00  0.00    -0.305 C  
HETATM    5  N   UNL     1     -10.187   6.662  69.156  1.00  0.00    -0.171 N  
HETATM    6  C   UNL     1      -8.776   7.081  69.107  1.00  0.00    -0.132 C  
HETATM    7  C   UNL     1     -10.982   6.653  70.302  1.00  0.00    -0.303 C  
HETATM    8  O   UNL     1     -12.188   6.406  70.237  1.00  0.00    -0.193 OA 
HETATM    9  C   UNL     1      -8.528   8.206  68.073  1.00  0.00    -0.133 C  
ENDROOT
BRANCH   7  10
HETATM   10  C   UNL     1     -10.307   6.969  71.625  1.00  0.00    -0.216 C  
HETATM   11  C   UNL     1     -10.745   6.076  72.705  1.00  0.00    -0.232 C  
HETATM   12  N   UNL     1     -11.062   5.411  73.602  1.00  0.00    -0.229 NA 
ENDBRANCH   7  10
BRANCH   9  13
HETATM   13  N   UNL     1      -9.054   9.517  68.499  1.00  0.00    -0.131 NA 
HETATM   14  C   UNL     1     -10.463   9.833  68.676  1.00  0.00    -0.208 C  
BRANCH  13  15
HETATM   15  C   UNL     1      -8.162  10.498  68.916  1.00  0.00    -0.141 A  
HETATM   16  N   UNL     1      -8.153  11.702  68.284  1.00  0.00    -0.143 NA 
HETATM   17  C   UNL     1      -7.222  12.618  68.630  1.00  0.00    -0.108 A  
HETATM   18  N   UNL     1      -6.262  12.518  69.560  1.00  0.00    -0.114 NA 
HETATM   19  C   UNL     1      -6.323  11.341  70.193  1.00  0.00    -0.120 A  
HETATM   20  C   UNL     1      -7.217  10.308  69.956  1.00  0.00    -0.164 A  
HETATM   21  C   UNL     1      -6.914   9.293  70.914  1.00  0.00    -0.107 A  
HETATM   22  C   UNL     1      -5.834   9.714  71.661  1.00  0.00     0.002 A  
HETATM   23  N   UNL     1      -5.484  10.959  71.206  1.00  0.00    -0.295 NA 
HETATM   24  H   UNL     1      -4.712  11.519  71.568  1.00  0.00     0.000 HD 
ENDBRANCH  13  15
ENDBRANCH   9  13
TORSDOF 3
ENDMDL
MODEL      193
REMARK 921   NORMALIZED FREE ENERGY PREDICTED BY IDOCK:   -3.34 KCAL/MOL
REMARK 922        TOTAL FREE ENERGY PREDICTED BY IDOCK:   -4.24 KCAL/MOL
REMARK 923 INTER-LIGAND FREE ENERGY PREDICTED BY IDOCK:   -4.16 KCAL/MOL
REMARK 924 INTRA-LIGAND FREE ENERGY PREDICTED BY IDOCK:   -0.08 KCAL/MOL
REMARK 927      BINDING AFFINITY PREDICTED BY RF-SCORE:    0.00 PKD
ROOT
HETATM    1  C   UNL     1     -10.018   4.136  68.185  1.00  0.00     0.002 C  
HETATM    2  C   UNL     1      -9.412   4.705  66.896  1.00  0.00    -0.175 C  
HETATM    3  C   UNL     1      -9.336   2.838  68.615  1.00  0.00    -0.240 C  
HETATM    4  C   UNL     1     -10.129   5.986  66.456  1.00  0.00    -0.137 C  
HETATM    5  N   UNL     1     -10.278   6.963  67.541  1.00  0.00    -0.174 N  
HETATM    6  C   UNL     1     -10.849   6.438  68.792  1.00  0.00    -0.317 C  
HETATM    7  C   UNL     1      -9.838   8.273  67.348  1.00  0.00    -0.188 C  
HETATM    8  O   UNL     1      -9.258   8.602  66.310  1.00  0.00    -0.173 OA 
HETATM    9  C   UNL     1     -10.088   5.195  69.315  1.00  0.00    -0.213 C  
ENDROOT
BRANCH   7  10
HETATM   10  C   UNL     1     -10.090   9.269  68.465  1.00  0.00    -0.211 C  
HETATM   11  C   UNL     1     -11.063  10.301  68.087  1.00  0.00    -0.264 C  
HETATM   12  N   UNL     1     -11.814  11.152  67.843  1.00  0.00    -0.630 NA 
ENDBRANCH   7  10
BRANCH   9  13
HETATM   13  N   UNL     1      -8.764   5.518  69.883  1.00  0.00    -0.122 NA 
HETATM   14  C   UNL     1      -7.493   5.298  69.212  1.00  0.00    -0.062 C  
BRANCH  13  15
HETATM   15  C   UNL     1      -8.698   6.222  71.079  1.00  0.00    -0.136 A  
HETATM   16  N   UNL     1      -8.168   7.474  71.086  1.00  0.00    -0.100 NA 
HETATM   17  C   UNL     1      -8.020   8.118  72.265  1.00  0.00    -0.135 A  
HETATM   18  N   UNL     1      -8.344   7.689  73.494  1.00  0.00    -0.153 NA 
HETATM   19  C   UNL     1      -8.901   6.473  73.450  1.00  0.00    -0.123 A  
HETATM   20  C   UNL     1      -9.122   5.694  72.325  1.00  0.00    -0.144 A  
HETATM   21  C   UNL     1      -9.782   4.513  72.784  1.00  0.00    -0.180 A  
HETATM   22  C   UNL     1      -9.898   4.590  74.157  1.00  0.00    -0.151 A  
HETATM   23  N   UNL     1      -9.352   5.786  74.545  1.00  0.00    -0.139 NA 
HETATM   24  H   UNL     1      -9.290   6.116  75.509  1.00  0.00     0.000 HD 
ENDBRANCH  13  15
ENDBRANCH   9  13
TORSDOF 3
ENDMDL
MODEL      194
REMARK 921   NORMALIZED FREE ENERGY PREDICTED BY IDOCK:   -3.30 KCAL/MOL
REMARK 922        TOTAL FREE ENERGY PREDICTED BY IDOCK:   -4.19 KCAL/MOL
REMARK 923 INTER-LIGAND FREE ENERGY PREDICTED BY IDOCK:   -4.91 KCAL/MOL
REMARK 924 INTRA-LIGAND FREE ENERGY PREDICTED BY IDOCK:    0.72 KCAL/MOL
REMARK 927      BINDING AFFINITY PREDICTED BY RF-SCORE:    0.00 PKD
ROOT
HETATM    1  C   UNL     1     -11.526  13.645  68.166  1.00  0.00    -0.348 C  
HETATM    2  C   UNL     1     -11.728  14.870  67.264  1.00  0.00    -0.308 C  
HETATM    3  C   UNL     1     -12.028  12.361  67.508  1.00  0.00    -0.253 C  
HETATM    4  C   UNL     1     -11.254  16.156  67.950  1.00  0.00    -0.245 C  
HETATM    5  N   UNL     1      -9.909  16.039  68.525  1.00  0.00    -0.211 N  
HETATM    6  C   UNL     1      -9.688  14.865  69.386  1.00  0.00    -0.091 C  
HETATM    7  C   UNL     1      -8.937  16.983  68.192  1.00  0.00    -0.227 C  
HETATM    8  O   UNL     1      -9.170  17.869  67.367  1.00  0.00    -0.249 OA 
HETATM    9  C   UNL     1     -10.070  13.537  68.687  1.00  0.00    -0.166 C  
ENDROOT
BRANCH   7  10
HETATM   10  C   UNL     1      -7.587  16.871  68.876  1.00  0.00    -0.234 C  
HETATM   11  C   UNL     1      -6.889  18.160  68.954  1.00  0.00    -0.258 C  
HETATM   12  N   UNL     1      -6.281  19.146  69.033  1.00  0.00    -0.250 NA 
ENDBRANCH   7  10
BRANCH   9  13
HETATM   13  N   UNL     1      -9.113  13.132  67.640  1.00  0.00    -0.190 NA 
HETATM   14  C   UNL     1      -7.920  13.875  67.267  1.00  0.00    -0.129 C  
BRANCH  13  15
HETATM   15  C   UNL     1      -9.248  11.879  67.052  1.00  0.00    -0.191 A  
HETATM   16  N   UNL     1      -9.502  11.793  65.719  1.00  0.00    -0.233 NA 
HETATM   17  C   UNL     1      -9.725  10.578  65.171  1.00  0.00    -0.282 A  
HETATM   18  N   UNL     1      -9.723   9.380  65.773  1.00  0.00    -0.283 NA 
HETATM   19  C   UNL     1      -9.429   9.494  67.074  1.00  0.00    -0.155 A  
HETATM   20  C   UNL     1      -9.174  10.661  67.775  1.00  0.00    -0.151 A  
HETATM   21  C   UNL     1      -8.864  10.262  69.112  1.00  0.00    -0.182 A  
HETATM   22  C   UNL     1      -8.985   8.890  69.190  1.00  0.00    -0.140 A  
HETATM   23  N   UNL     1      -9.335   8.440  67.943  1.00  0.00    -0.135 NA 
HETATM   24  H   UNL     1      -9.500   7.464  67.699  1.00  0.00     0.000 HD 
ENDBRANCH  13  15
ENDBRANCH   9  13
TORSDOF 3
ENDMDL
MODEL      195
REMARK 921   NORMALIZED FREE ENERGY PREDICTED BY IDOCK:   -3.29 KCAL/MOL
REMARK 922        TOTAL FREE ENERGY PREDICTED BY IDOCK:   -4.19 KCAL/MOL
REMARK 923 INTER-LIGAND FREE ENERGY PREDICTED BY IDOCK:   -4.58 KCAL/MOL
REMARK 924 INTRA-LIGAND FREE ENERGY PREDICTED BY IDOCK:    0.39 KCAL/MOL
REMARK 927      BINDING AFFINITY PREDICTED BY RF-SCORE:    0.00 PKD
ROOT
HETATM    1  C   UNL     1      -7.644  11.000  66.879  1.00  0.00    -0.133 C  
HETATM    2  C   UNL     1      -8.612  11.036  65.689  1.00  0.00    -0.131 C  
HETATM    3  C   UNL     1      -6.197  11.231  66.446  1.00  0.00    -0.106 C  
HETATM    4  C   UNL     1     -10.054  10.766  66.130  1.00  0.00    -0.242 C  
HETATM    5  N   UNL     1     -10.468  11.585  67.276  1.00  0.00    -0.205 N  
HETATM    6  C   UNL     1      -9.549  11.574  68.427  1.00  0.00    -0.195 C  
HETATM    7  C   UNL     1     -11.638  12.340  67.192  1.00  0.00    -0.353 C  
HETATM    8  O   UNL     1     -12.288  12.389  66.145  1.00  0.00    -0.606 OA 
HETATM    9  C   UNL     1      -8.097  11.935  68.029  1.00  0.00    -0.151 C  
ENDROOT
BRANCH   7  10
HETATM   10  C   UNL     1     -12.070  13.104  68.430  1.00  0.00    -0.216 C  
HETATM   11  C   UNL     1     -11.806  14.544  68.322  1.00  0.00    -0.312 C  
HETATM   12  N   UNL     1     -11.609  15.688  68.302  1.00  0.00    -0.353 NA 
ENDBRANCH   7  10
BRANCH   9  13
HETATM   13  N   UNL     1      -7.916  13.365  67.712  1.00  0.00    -0.151 NA 
HETATM   14  C   UNL     1      -8.671  14.098  66.709  1.00  0.00    -0.123 C  
BRANCH  13  15
HETATM   15  C   UNL     1      -7.080  14.132  68.515  1.00  0.00    -0.103 A  
HETATM   16  N   UNL     1      -6.596  13.604  69.669  1.00  0.00    -0.082 NA 
HETATM   17  C   UNL     1      -5.860  14.384  70.492  1.00  0.00    -0.170 A  
HETATM   18  N   UNL     1      -5.508  15.668  70.326  1.00  0.00    -0.145 NA 
HETATM   19  C   UNL     1      -5.963  16.147  69.162  1.00  0.00    -0.134 A  
HETATM   20  C   UNL     1      -6.722  15.473  68.218  1.00  0.00    -0.122 A  
HETATM   21  C   UNL     1      -6.913  16.386  67.136  1.00  0.00    -0.239 A  
HETATM   22  C   UNL     1      -6.313  17.582  67.472  1.00  0.00    -0.150 A  
HETATM   23  N   UNL     1      -5.746  17.421  68.709  1.00  0.00    -0.157 NA 
HETATM   24  H   UNL     1      -5.236  18.143  69.218  1.00  0.00     0.000 HD 
ENDBRANCH  13  15
ENDBRANCH   9  13
TORSDOF 3
ENDMDL
MODEL      196
REMARK 921   NORMALIZED FREE ENERGY PREDICTED BY IDOCK:   -3.29 KCAL/MOL
REMARK 922        TOTAL FREE ENERGY PREDICTED BY IDOCK:   -4.18 KCAL/MOL
REMARK 923 INTER-LIGAND FREE ENERGY PREDICTED BY IDOCK:   -3.89 KCAL/MOL
REMARK 924 INTRA-LIGAND FREE ENERGY PREDICTED BY IDOCK:   -0.29 KCAL/MOL
REMARK 927      BINDING AFFINITY PREDICTED BY RF-SCORE:    0.00 PKD
ROOT
HETATM    1  C   UNL     1     -11.464  13.728  68.061  1.00  0.00    -0.344 C  
HETATM    2  C   UNL     1     -11.967  14.792  67.077  1.00  0.00    -0.225 C  
HETATM    3  C   UNL     1     -11.597  12.316  67.495  1.00  0.00    -0.422 C  
HETATM    4  C   UNL     1     -11.863  16.201  67.671  1.00  0.00     0.467 C  
HETATM    5  N   UNL     1     -10.545  16.484  68.251  1.00  0.00    -0.310 N  
HETATM    6  C   UNL     1     -10.036  15.473  69.191  1.00  0.00    -0.239 C  
HETATM    7  C   UNL     1      -9.853  17.628  67.851  1.00  0.00    -0.300 C  
HETATM    8  O   UNL     1     -10.297  18.362  66.966  1.00  0.00    -0.358 OA 
HETATM    9  C   UNL     1     -10.041  14.047  68.588  1.00  0.00    -0.217 C  
ENDROOT
BRANCH   7  10
HETATM   10  C   UNL     1      -8.533  17.925  68.540  1.00  0.00    -0.303 C  
HETATM   11  C   UNL     1      -7.538  18.496  67.624  1.00  0.00    -0.230 C  
HETATM   12  N   UNL     1      -6.705  18.936  66.947  1.00  0.00    -0.193 NA 
ENDBRANCH   7  10
BRANCH   9  13
HETATM   13  N   UNL     1      -8.993  13.840  67.570  1.00  0.00    -0.191 NA 
HETATM   14  C   UNL     1      -8.841  14.627  66.357  1.00  0.00    -0.078 C  
BRANCH  13  15
HETATM   15  C   UNL     1      -7.969  12.937  67.832  1.00  0.00    -0.156 A  
HETATM   16  N   UNL     1      -7.870  11.806  67.083  1.00  0.00    -0.160 NA 
HETATM   17  C   UNL     1      -6.932  10.888  67.401  1.00  0.00    -0.084 A  
HETATM   18  N   UNL     1      -6.027  10.930  68.390  1.00  0.00    -0.043 NA 
HETATM   19  C   UNL     1      -6.121  12.073  69.081  1.00  0.00    -0.080 A  
HETATM   20  C   UNL     1      -7.022  13.105  68.875  1.00  0.00    -0.093 A  
HETATM   21  C   UNL     1      -6.692  14.118  69.827  1.00  0.00    -0.065 A  
HETATM   22  C   UNL     1      -5.647  13.656  70.600  1.00  0.00    -0.165 A  
HETATM   23  N   UNL     1      -5.316  12.409  70.137  1.00  0.00    -0.100 NA 
HETATM   24  H   UNL     1      -4.578  11.818  70.522  1.00  0.00     0.000 HD 
ENDBRANCH  13  15
ENDBRANCH   9  13
TORSDOF 3
ENDMDL
MODEL      197
REMARK 921   NORMALIZED FREE ENERGY PREDICTED BY IDOCK:   -3.26 KCAL/MOL
REMARK 922        TOTAL FREE ENERGY PREDICTED BY IDOCK:   -4.15 KCAL/MOL
REMARK 923 INTER-LIGAND FREE ENERGY PREDICTED BY IDOCK:   -3.72 KCAL/MOL
REMARK 924 INTRA-LIGAND FREE ENERGY PREDICTED BY IDOCK:   -0.42 KCAL/MOL
REMARK 927      BINDING AFFINITY PREDICTED BY RF-SCORE:    0.00 PKD
ROOT
HETATM    1  C   UNL     1      -9.625   8.749  68.743  1.00  0.00    -0.160 C  
HETATM    2  C   UNL     1     -10.079   8.928  67.288  1.00  0.00    -0.303 C  
HETATM    3  C   UNL     1     -10.743   9.066  69.735  1.00  0.00    -0.233 C  
HETATM    4  C   UNL     1      -8.939   8.643  66.305  1.00  0.00    -0.173 C  
HETATM    5  N   UNL     1      -8.249   7.376  66.576  1.00  0.00    -0.116 N  
HETATM    6  C   UNL     1      -7.813   7.177  67.967  1.00  0.00    -0.118 C  
HETATM    7  C   UNL     1      -8.100   6.445  65.548  1.00  0.00    -0.130 C  
HETATM    8  O   UNL     1      -8.602   6.637  64.438  1.00  0.00     0.122 OA 
HETATM    9  C   UNL     1      -8.966   7.367  68.983  1.00  0.00    -0.131 C  
ENDROOT
BRANCH   7  10
HETATM   10  C   UNL     1      -7.306   5.187  65.851  1.00  0.00    -0.081 C  
HETATM   11  C   UNL     1      -8.164   4.005  66.001  1.00  0.00    -0.105 C  
HETATM   12  N   UNL     1      -8.789   3.038  66.145  1.00  0.00    -0.136 NA 
ENDBRANCH   7  10
BRANCH   9  13
HETATM   13  N   UNL     1      -9.938   6.257  68.976  1.00  0.00    -0.141 NA 
HETATM   14  C   UNL     1     -11.019   6.102  68.015  1.00  0.00    -0.305 C  
BRANCH  13  15
HETATM   15  C   UNL     1      -9.746   5.187  69.841  1.00  0.00    -0.199 A  
HETATM   16  N   UNL     1      -9.022   4.114  69.423  1.00  0.00    -0.095 NA 
HETATM   17  C   UNL     1      -8.916   3.038  70.233  1.00  0.00    -0.098 A  
HETATM   18  N   UNL     1      -9.436   2.862  71.457  1.00  0.00    -0.135 NA 
HETATM   19  C   UNL     1     -10.106   3.950  71.857  1.00  0.00    -0.134 A  
HETATM   20  C   UNL     1     -10.297   5.124  71.147  1.00  0.00    -0.276 A  
HETATM   21  C   UNL     1     -11.026   5.997  72.011  1.00  0.00    -0.313 A  
HETATM   22  C   UNL     1     -11.291   5.320  73.183  1.00  0.00    -0.291 A  
HETATM   23  N   UNL     1     -10.729   4.075  73.071  1.00  0.00    -0.177 NA 
HETATM   24  H   UNL     1     -10.768   3.347  73.785  1.00  0.00     0.000 HD 
ENDBRANCH  13  15
ENDBRANCH   9  13
TORSDOF 3
ENDMDL
MODEL      198
REMARK 921   NORMALIZED FREE ENERGY PREDICTED BY IDOCK:   -3.26 KCAL/MOL
REMARK 922        TOTAL FREE ENERGY PREDICTED BY IDOCK:   -4.15 KCAL/MOL
REMARK 923 INTER-LIGAND FREE ENERGY PREDICTED BY IDOCK:   -4.34 KCAL/MOL
REMARK 924 INTRA-LIGAND FREE ENERGY PREDICTED BY IDOCK:    0.19 KCAL/MOL
REMARK 927      BINDING AFFINITY PREDICTED BY RF-SCORE:    0.00 PKD
ROOT
HETATM    1  C   UNL     1      -7.438  11.897  67.875  1.00  0.00    -0.114 C  
HETATM    2  C   UNL     1      -7.025  11.189  66.578  1.00  0.00    -0.126 C  
HETATM    3  C   UNL     1      -7.858  13.345  67.628  1.00  0.00    -0.174 C  
HETATM    4  C   UNL     1      -6.570   9.750  66.844  1.00  0.00    -0.067 C  
HETATM    5  N   UNL     1      -7.515   8.994  67.675  1.00  0.00    -0.085 N  
HETATM    6  C   UNL     1      -7.934   9.657  68.921  1.00  0.00    -0.089 C  
HETATM    7  C   UNL     1      -7.983   7.758  67.228  1.00  0.00    -0.118 C  
HETATM    8  O   UNL     1      -7.675   7.328  66.114  1.00  0.00    -0.095 OA 
HETATM    9  C   UNL     1      -8.486  11.083  68.676  1.00  0.00    -0.157 C  
ENDROOT
BRANCH   7  10
HETATM   10  C   UNL     1      -8.890   6.974  68.158  1.00  0.00    -0.129 C  
HETATM   11  C   UNL     1     -10.047   6.399  67.461  1.00  0.00    -0.155 C  
HETATM   12  N   UNL     1     -10.989   5.932  66.969  1.00  0.00    -0.279 NA 
ENDBRANCH   7  10
BRANCH   9  13
HETATM   13  N   UNL     1      -9.822  11.092  68.049  1.00  0.00    -0.167 NA 
HETATM   14  C   UNL     1     -10.407   9.981  67.315  1.00  0.00    -0.237 C  
BRANCH  13  15
HETATM   15  C   UNL     1     -10.671  12.167  68.286  1.00  0.00    -0.223 A  
HETATM   16  N   UNL     1     -10.934  12.538  69.567  1.00  0.00    -0.000 NA 
HETATM   17  C   UNL     1     -11.831  13.522  69.794  1.00  0.00    -0.329 A  
HETATM   18  N   UNL     1     -12.530  14.235  68.899  1.00  0.00    -0.059 NA 
HETATM   19  C   UNL     1     -12.218  13.876  67.647  1.00  0.00    -0.197 A  
HETATM   20  C   UNL     1     -11.321  12.895  67.256  1.00  0.00    -0.356 A  
HETATM   21  C   UNL     1     -11.298  12.924  65.828  1.00  0.00    -0.349 A  
HETATM   22  C   UNL     1     -12.201  13.875  65.403  1.00  0.00    -0.444 A  
HETATM   23  N   UNL     1     -12.756  14.441  66.521  1.00  0.00    -0.386 NA 
HETATM   24  H   UNL     1     -13.465  15.174  66.517  1.00  0.00     0.000 HD 
ENDBRANCH  13  15
ENDBRANCH   9  13
TORSDOF 3
ENDMDL
MODEL      199
REMARK 921   NORMALIZED FREE ENERGY PREDICTED BY IDOCK:   -3.25 KCAL/MOL
REMARK 922        TOTAL FREE ENERGY PREDICTED BY IDOCK:   -4.14 KCAL/MOL
REMARK 923 INTER-LIGAND FREE ENERGY PREDICTED BY IDOCK:   -3.97 KCAL/MOL
REMARK 924 INTRA-LIGAND FREE ENERGY PREDICTED BY IDOCK:   -0.17 KCAL/MOL
REMARK 927      BINDING AFFINITY PREDICTED BY RF-SCORE:    0.00 PKD
ROOT
HETATM    1  C   UNL     1      -7.081   8.815  69.678  1.00  0.00    -0.054 C  
HETATM    2  C   UNL     1      -7.814  10.131  69.969  1.00  0.00    -0.131 C  
HETATM    3  C   UNL     1      -6.924   7.957  70.933  1.00  0.00    -0.048 C  
HETATM    4  C   UNL     1      -7.932  10.998  68.711  1.00  0.00    -0.144 C  
HETATM    5  N   UNL     1      -8.445  10.261  67.551  1.00  0.00    -0.118 N  
HETATM    6  C   UNL     1      -7.764   8.989  67.257  1.00  0.00    -0.096 C  
HETATM    7  C   UNL     1      -9.542  10.763  66.850  1.00  0.00    -0.171 C  
HETATM    8  O   UNL     1     -10.132  11.775  67.235  1.00  0.00    -0.191 OA 
HETATM    9  C   UNL     1      -7.709   8.048  68.486  1.00  0.00    -0.106 C  
ENDROOT
BRANCH   7  10
HETATM   10  C   UNL     1      -9.984  10.012  65.608  1.00  0.00    -0.355 C  
HETATM   11  C   UNL     1     -10.152  10.896  64.448  1.00  0.00    -0.339 C  
HETATM   12  N   UNL     1     -10.317  11.545  63.499  1.00  0.00    -0.394 NA 
ENDBRANCH   7  10
BRANCH   9  13
HETATM   13  N   UNL     1      -9.014   7.443  68.816  1.00  0.00    -0.130 NA 
HETATM   14  C   UNL     1     -10.271   8.168  68.908  1.00  0.00    -0.210 C  
BRANCH  13  15
HETATM   15  C   UNL     1      -9.112   6.059  68.902  1.00  0.00    -0.121 A  
HETATM   16  N   UNL     1      -8.950   5.309  67.780  1.00  0.00    -0.109 NA 
HETATM   17  C   UNL     1      -9.138   3.972  67.850  1.00  0.00    -0.141 A  
HETATM   18  N   UNL     1      -9.467   3.233  68.919  1.00  0.00    -0.161 NA 
HETATM   19  C   UNL     1      -9.578   3.993  70.015  1.00  0.00    -0.204 A  
HETATM   20  C   UNL     1      -9.412   5.366  70.103  1.00  0.00    -0.213 A  
HETATM   21  C   UNL     1      -9.581   5.700  71.482  1.00  0.00    -0.184 A  
HETATM   22  C   UNL     1      -9.885   4.544  72.170  1.00  0.00    -0.177 A  
HETATM   23  N   UNL     1      -9.885   3.516  71.262  1.00  0.00    -0.170 NA 
HETATM   24  H   UNL     1     -10.084   2.540  71.482  1.00  0.00     0.000 HD 
ENDBRANCH  13  15
ENDBRANCH   9  13
TORSDOF 3
ENDMDL
MODEL      200
REMARK 921   NORMALIZED FREE ENERGY PREDICTED BY IDOCK:   -3.22 KCAL/MOL
REMARK 922        TOTAL FREE ENERGY PREDICTED BY IDOCK:   -4.11 KCAL/MOL
REMARK 923 INTER-LIGAND FREE ENERGY PREDICTED BY IDOCK:   -3.83 KCAL/MOL
REMARK 924 INTRA-LIGAND FREE ENERGY PREDICTED BY IDOCK:   -0.28 KCAL/MOL
REMARK 927      BINDING AFFINITY PREDICTED BY RF-SCORE:    0.00 PKD
ROOT
HETATM    1  C   UNL     1      -6.363  13.899  69.760  1.00  0.00    -0.125 C  
HETATM    2  C   UNL     1      -5.880  12.930  68.673  1.00  0.00    -0.069 C  
HETATM    3  C   UNL     1      -5.277  14.896  70.162  1.00  0.00    -0.104 C  
HETATM    4  C   UNL     1      -6.966  11.912  68.306  1.00  0.00    -0.077 C  
HETATM    5  N   UNL     1      -8.267  12.534  68.032  1.00  0.00    -0.156 N  
HETATM    6  C   UNL     1      -8.747  13.476  69.057  1.00  0.00     0.370 C  
HETATM    7  C   UNL     1      -8.925  12.247  66.836  1.00  0.00    -0.207 C  
HETATM    8  O   UNL     1      -8.398  11.540  65.975  1.00  0.00    -0.094 OA 
HETATM    9  C   UNL     1      -7.707  14.575  69.386  1.00  0.00    -0.000 C  
ENDROOT
BRANCH   7  10
HETATM   10  C   UNL     1     -10.306  12.844  66.635  1.00  0.00    -0.258 C  
HETATM   11  C   UNL     1     -10.263  14.128  65.923  1.00  0.00    -0.319 C  
HETATM   12  N   UNL     1     -10.294  15.152  65.378  1.00  0.00    -0.363 NA 
ENDBRANCH   7  10
BRANCH   9  13
HETATM   13  N   UNL     1      -7.565  15.582  68.317  1.00  0.00    -0.113 NA 
HETATM   14  C   UNL     1      -6.882  15.366  67.052  1.00  0.00     0.179 C  
BRANCH  13  15
HETATM   15  C   UNL     1      -8.252  16.786  68.430  1.00  0.00    -0.224 A  
HETATM   16  N   UNL     1      -9.602  16.770  68.584  1.00  0.00    -0.246 NA 
HETATM   17  C   UNL     1     -10.275  17.942  68.600  1.00  0.00    -0.385 A  
HETATM   18  N   UNL     1      -9.784  19.185  68.491  1.00  0.00    -0.380 NA 
HETATM   19  C   UNL     1      -8.451  19.169  68.384  1.00  0.00    -0.349 A  
HETATM   20  C   UNL     1      -7.625  18.056  68.357  1.00  0.00    -0.288 A  
HETATM   21  C   UNL     1      -6.288  18.554  68.283  1.00  0.00    -0.206 A  
HETATM   22  C   UNL     1      -6.345  19.931  68.221  1.00  0.00    -0.260 A  
HETATM   23  N   UNL     1      -7.667  20.288  68.278  1.00  0.00    -0.153 NA 
HETATM   24  H   UNL     1      -8.017  21.246  68.246  1.00  0.00     0.000 HD 
ENDBRANCH  13  15
ENDBRANCH   9  13
TORSDOF 3
ENDMDL
MODEL      201
REMARK 921   NORMALIZED FREE ENERGY PREDICTED BY IDOCK:   -3.20 KCAL/MOL
REMARK 922        TOTAL FREE ENERGY PREDICTED BY IDOCK:   -4.08 KCAL/MOL
REMARK 923 INTER-LIGAND FREE ENERGY PREDICTED BY IDOCK:   -3.60 KCAL/MOL
REMARK 924 INTRA-LIGAND FREE ENERGY PREDICTED BY IDOCK:   -0.48 KCAL/MOL
REMARK 927      BINDING AFFINITY PREDICTED BY RF-SCORE:    0.00 PKD
ROOT
HETATM    1  C   UNL     1      -8.192   8.699  64.967  1.00  0.00    -0.159 C  
HETATM    2  C   UNL     1      -7.821  10.157  65.269  1.00  0.00    -0.143 C  
HETATM    3  C   UNL     1      -6.981   7.882  64.519  1.00  0.00    -0.071 C  
HETATM    4  C   UNL     1      -9.050  10.975  65.682  1.00  0.00    -0.206 C  
HETATM    5  N   UNL     1      -9.851  10.323  66.724  1.00  0.00    -0.189 N  
HETATM    6  C   UNL     1     -10.211   8.920  66.462  1.00  0.00    -0.249 C  
HETATM    7  C   UNL     1     -10.169  11.028  67.885  1.00  0.00    -0.182 C  
HETATM    8  O   UNL     1      -9.725  12.162  68.081  1.00  0.00    -0.197 OA 
HETATM    9  C   UNL     1      -8.977   8.043  66.132  1.00  0.00    -0.175 C  
ENDROOT
BRANCH   7  10
HETATM   10  C   UNL     1     -11.070  10.344  68.897  1.00  0.00    -0.296 C  
HETATM   11  C   UNL     1     -10.355   9.974  70.124  1.00  0.00    -0.266 C  
HETATM   12  N   UNL     1      -9.843   9.643  71.113  1.00  0.00    -0.094 NA 
ENDBRANCH   7  10
BRANCH   9  13
HETATM   13  N   UNL     1      -8.132   7.760  67.307  1.00  0.00    -0.117 NA 
HETATM   14  C   UNL     1      -7.445   8.764  68.103  1.00  0.00    -0.092 C  
BRANCH  13  15
HETATM   15  C   UNL     1      -8.090   6.464  67.810  1.00  0.00    -0.115 A  
HETATM   16  N   UNL     1      -7.107   5.621  67.396  1.00  0.00    -0.072 NA 
HETATM   17  C   UNL     1      -7.124   4.336  67.815  1.00  0.00    -0.064 A  
HETATM   18  N   UNL     1      -8.006   3.738  68.629  1.00  0.00    -0.066 NA 
HETATM   19  C   UNL     1      -8.935   4.603  69.053  1.00  0.00    -0.110 A  
HETATM   20  C   UNL     1      -9.047   5.943  68.717  1.00  0.00    -0.116 A  
HETATM   21  C   UNL     1     -10.161   6.446  69.457  1.00  0.00    -0.203 A  
HETATM   22  C   UNL     1     -10.710   5.402  70.172  1.00  0.00    -0.225 A  
HETATM   23  N   UNL     1      -9.956   4.287  69.910  1.00  0.00    -0.192 NA 
HETATM   24  H   UNL     1     -10.129   3.359  70.296  1.00  0.00     0.000 HD 
ENDBRANCH  13  15
ENDBRANCH   9  13
TORSDOF 3
ENDMDL
MODEL      202
REMARK 921   NORMALIZED FREE ENERGY PREDICTED BY IDOCK:   -3.17 KCAL/MOL
REMARK 922        TOTAL FREE ENERGY PREDICTED BY IDOCK:   -4.04 KCAL/MOL
REMARK 923 INTER-LIGAND FREE ENERGY PREDICTED BY IDOCK:   -6.63 KCAL/MOL
REMARK 924 INTRA-LIGAND FREE ENERGY PREDICTED BY IDOCK:    2.59 KCAL/MOL
REMARK 927      BINDING AFFINITY PREDICTED BY RF-SCORE:    0.00 PKD
ROOT
HETATM    1  C   UNL     1     -11.132  14.142  69.157  1.00  0.00    -0.295 C  
HETATM    2  C   UNL     1     -11.699  15.483  68.672  1.00  0.00    -0.363 C  
HETATM    3  C   UNL     1     -12.001  12.962  68.725  1.00  0.00    -0.290 C  
HETATM    4  C   UNL     1     -10.838  16.660  69.144  1.00  0.00    -0.315 C  
HETATM    5  N   UNL     1      -9.408  16.471  68.873  1.00  0.00    -0.252 N  
HETATM    6  C   UNL     1      -8.843  15.187  69.320  1.00  0.00    -0.207 C  
HETATM    7  C   UNL     1      -8.705  17.460  68.186  1.00  0.00    -0.256 C  
HETATM    8  O   UNL     1      -9.281  18.454  67.738  1.00  0.00    -0.271 OA 
HETATM    9  C   UNL     1      -9.637  13.971  68.784  1.00  0.00    -0.097 C  
ENDROOT
BRANCH   7  10
HETATM   10  C   UNL     1      -7.211  17.260  68.004  1.00  0.00    -0.192 C  
HETATM   11  C   UNL     1      -6.449  17.591  69.214  1.00  0.00    -0.243 C  
HETATM   12  N   UNL     1      -5.791  17.851  70.134  1.00  0.00    -0.227 NA 
ENDBRANCH   7  10
BRANCH   9  13
HETATM   13  N   UNL     1      -9.429  13.727  67.343  1.00  0.00    -0.216 NA 
HETATM   14  C   UNL     1      -8.177  13.300  66.742  1.00  0.00     0.166 C  
BRANCH  13  15
HETATM   15  C   UNL     1     -10.527  13.752  66.491  1.00  0.00    -0.282 A  
HETATM   16  N   UNL     1     -11.292  12.636  66.358  1.00  0.00    -0.313 NA 
HETATM   17  C   UNL     1     -12.301  12.635  65.459  1.00  0.00    -0.391 A  
HETATM   18  N   UNL     1     -12.689  13.625  64.642  1.00  0.00    -0.663 NA 
HETATM   19  C   UNL     1     -11.945  14.722  64.826  1.00  0.00    -0.404 A  
HETATM   20  C   UNL     1     -10.886  14.878  65.706  1.00  0.00    -0.343 A  
HETATM   21  C   UNL     1     -10.453  16.232  65.570  1.00  0.00    -0.383 A  
HETATM   22  C   UNL     1     -11.220  16.834  64.594  1.00  0.00     0.105 A  
HETATM   23  N   UNL     1     -12.118  15.899  64.148  1.00  0.00    -0.901 NA 
HETATM   24  H   UNL     1     -12.814  16.057  63.419  1.00  0.00     0.000 HD 
ENDBRANCH  13  15
ENDBRANCH   9  13
TORSDOF 3
ENDMDL
MODEL      203
REMARK 921   NORMALIZED FREE ENERGY PREDICTED BY IDOCK:   -3.16 KCAL/MOL
REMARK 922        TOTAL FREE ENERGY PREDICTED BY IDOCK:   -4.03 KCAL/MOL
REMARK 923 INTER-LIGAND FREE ENERGY PREDICTED BY IDOCK:   -4.09 KCAL/MOL
REMARK 924 INTRA-LIGAND FREE ENERGY PREDICTED BY IDOCK:    0.07 KCAL/MOL
REMARK 927      BINDING AFFINITY PREDICTED BY RF-SCORE:    0.00 PKD
ROOT
HETATM    1  C   UNL     1      -7.858   8.592  68.738  1.00  0.00    -0.106 C  
HETATM    2  C   UNL     1      -7.854   9.196  70.148  1.00  0.00    -0.114 C  
HETATM    3  C   UNL     1      -6.443   8.353  68.213  1.00  0.00    -0.059 C  
HETATM    4  C   UNL     1      -9.277   9.465  70.648  1.00  0.00    -0.242 C  
HETATM    5  N   UNL     1     -10.172   8.314  70.481  1.00  0.00    -0.196 N  
HETATM    6  C   UNL     1     -10.186   7.711  69.138  1.00  0.00    -0.203 C  
HETATM    7  C   UNL     1     -10.892   7.842  71.579  1.00  0.00    -0.229 C  
HETATM    8  O   UNL     1     -10.732   8.329  72.701  1.00  0.00    -0.343 OA 
HETATM    9  C   UNL     1      -8.767   7.341  68.640  1.00  0.00    -0.127 C  
ENDROOT
BRANCH   7  10
HETATM   10  C   UNL     1     -11.869   6.705  71.341  1.00  0.00    -0.388 C  
HETATM   11  C   UNL     1     -13.242   7.055  71.726  1.00  0.00    -0.267 C  
HETATM   12  N   UNL     1     -14.343   7.266  72.025  1.00  0.00    -0.310 NA 
ENDBRANCH   7  10
BRANCH   9  13
HETATM   13  N   UNL     1      -8.198   6.163  69.323  1.00  0.00    -0.115 NA 
HETATM   14  C   UNL     1      -7.317   6.213  70.479  1.00  0.00    -0.085 C  
BRANCH  13  15
HETATM   15  C   UNL     1      -8.636   4.895  68.957  1.00  0.00    -0.084 A  
HETATM   16  N   UNL     1      -8.918   3.982  69.924  1.00  0.00    -0.088 NA 
HETATM   17  C   UNL     1      -9.252   2.724  69.562  1.00  0.00    -0.134 A  
HETATM   18  N   UNL     1      -9.365   2.216  68.326  1.00  0.00    -0.196 NA 
HETATM   19  C   UNL     1      -9.123   3.148  67.397  1.00  0.00    -0.176 A  
HETATM   20  C   UNL     1      -8.775   4.472  67.610  1.00  0.00    -0.111 A  
HETATM   21  C   UNL     1      -8.675   5.070  66.316  1.00  0.00    -0.117 A  
HETATM   22  C   UNL     1      -8.916   4.094  65.371  1.00  0.00    -0.132 A  
HETATM   23  N   UNL     1      -9.182   2.930  66.045  1.00  0.00    -0.270 NA 
HETATM   24  H   UNL     1      -9.391   2.034  65.606  1.00  0.00     0.000 HD 
ENDBRANCH  13  15
ENDBRANCH   9  13
TORSDOF 3
ENDMDL
MODEL      204
REMARK 921   NORMALIZED FREE ENERGY PREDICTED BY IDOCK:   -3.13 KCAL/MOL
REMARK 922        TOTAL FREE ENERGY PREDICTED BY IDOCK:   -4.00 KCAL/MOL
REMARK 923 INTER-LIGAND FREE ENERGY PREDICTED BY IDOCK:   -4.26 KCAL/MOL
REMARK 924 INTRA-LIGAND FREE ENERGY PREDICTED BY IDOCK:    0.26 KCAL/MOL
REMARK 927      BINDING AFFINITY PREDICTED BY RF-SCORE:    0.00 PKD
ROOT
HETATM    1  C   UNL     1      -7.436  11.659  67.497  1.00  0.00    -0.123 C  
HETATM    2  C   UNL     1      -8.587  10.838  66.901  1.00  0.00    -0.132 C  
HETATM    3  C   UNL     1      -6.259  11.780  66.531  1.00  0.00     0.075 C  
HETATM    4  C   UNL     1      -9.746  10.692  67.893  1.00  0.00    -0.161 C  
HETATM    5  N   UNL     1     -10.155  11.970  68.490  1.00  0.00    -0.211 N  
HETATM    6  C   UNL     1      -9.066  12.780  69.060  1.00  0.00     0.516 C  
HETATM    7  C   UNL     1     -11.496  12.351  68.438  1.00  0.00    -0.310 C  
HETATM    8  O   UNL     1     -12.327  11.670  67.834  1.00  0.00    -0.404 OA 
HETATM    9  C   UNL     1      -7.918  13.025  68.050  1.00  0.00    -0.155 C  
ENDROOT
BRANCH   7  10
HETATM   10  C   UNL     1     -11.886  13.638  69.142  1.00  0.00    -0.394 C  
HETATM   11  C   UNL     1     -12.407  13.401  70.495  1.00  0.00    -0.329 C  
HETATM   12  N   UNL     1     -12.839  13.278  71.565  1.00  0.00    -0.358 NA 
ENDBRANCH   7  10
BRANCH   9  13
HETATM   13  N   UNL     1      -8.272  13.983  66.985  1.00  0.00    -0.118 NA 
HETATM   14  C   UNL     1      -9.294  13.767  65.974  1.00  0.00    -0.015 C  
BRANCH  13  15
HETATM   15  C   UNL     1      -7.714  15.256  67.013  1.00  0.00    -0.157 A  
HETATM   16  N   UNL     1      -6.423  15.410  67.408  1.00  0.00    -0.293 NA 
HETATM   17  C   UNL     1      -5.914  16.656  67.523  1.00  0.00    -0.152 A  
HETATM   18  N   UNL     1      -6.521  17.828  67.282  1.00  0.00    -0.160 NA 
HETATM   19  C   UNL     1      -7.776  17.643  66.854  1.00  0.00    -0.216 A  
HETATM   20  C   UNL     1      -8.432  16.434  66.683  1.00  0.00    -0.306 A  
HETATM   21  C   UNL     1      -9.725  16.754  66.164  1.00  0.00    -0.315 A  
HETATM   22  C   UNL     1      -9.827  18.128  66.082  1.00  0.00    -0.251 A  
HETATM   23  N   UNL     1      -8.636  18.652  66.511  1.00  0.00    -0.294 NA 
HETATM   24  H   UNL     1      -8.420  19.648  66.566  1.00  0.00     0.000 HD 
ENDBRANCH  13  15
ENDBRANCH   9  13
TORSDOF 3
ENDMDL
MODEL      205
REMARK 921   NORMALIZED FREE ENERGY PREDICTED BY IDOCK:   -3.08 KCAL/MOL
REMARK 922        TOTAL FREE ENERGY PREDICTED BY IDOCK:   -3.94 KCAL/MOL
REMARK 923 INTER-LIGAND FREE ENERGY PREDICTED BY IDOCK:   -3.47 KCAL/MOL
REMARK 924 INTRA-LIGAND FREE ENERGY PREDICTED BY IDOCK:   -0.46 KCAL/MOL
REMARK 927      BINDING AFFINITY PREDICTED BY RF-SCORE:    0.00 PKD
ROOT
HETATM    1  C   UNL     1      -6.919   4.023  69.847  1.00  0.00    -0.042 C  
HETATM    2  C   UNL     1      -7.690   3.024  70.719  1.00  0.00    -0.039 C  
HETATM    3  C   UNL     1      -6.602   3.453  68.465  1.00  0.00    -0.041 C  
HETATM    4  C   UNL     1      -7.969   3.594  72.114  1.00  0.00    -0.071 C  
HETATM    5  N   UNL     1      -8.548   4.942  72.078  1.00  0.00    -0.123 N  
HETATM    6  C   UNL     1      -7.831   5.917  71.239  1.00  0.00    -0.112 C  
HETATM    7  C   UNL     1      -9.730   5.198  72.773  1.00  0.00    -0.153 C  
HETATM    8  O   UNL     1     -10.334   4.294  73.354  1.00  0.00    -0.147 OA 
HETATM    9  C   UNL     1      -7.614   5.408  69.793  1.00  0.00    -0.070 C  
ENDROOT
BRANCH   7  10
HETATM   10  C   UNL     1     -10.245   6.626  72.778  1.00  0.00    -0.208 C  
HETATM   11  C   UNL     1     -11.454   6.789  71.962  1.00  0.00    -0.282 C  
HETATM   12  N   UNL     1     -12.403   6.984  71.322  1.00  0.00    -0.368 NA 
ENDBRANCH   7  10
BRANCH   9  13
HETATM   13  N   UNL     1      -8.848   5.400  68.985  1.00  0.00    -0.100 NA 
HETATM   14  C   UNL     1      -9.905   4.407  69.086  1.00  0.00    -0.128 C  
BRANCH  13  15
HETATM   15  C   UNL     1      -9.125   6.490  68.167  1.00  0.00    -0.114 A  
HETATM   16  N   UNL     1      -9.855   7.525  68.661  1.00  0.00    -0.162 NA 
HETATM   17  C   UNL     1     -10.200   8.538  67.836  1.00  0.00    -0.218 A  
HETATM   18  N   UNL     1      -9.907   8.689  66.536  1.00  0.00    -0.259 NA 
HETATM   19  C   UNL     1      -9.153   7.677  66.091  1.00  0.00    -0.144 A  
HETATM   20  C   UNL     1      -8.718   6.577  66.811  1.00  0.00    -0.123 A  
HETATM   21  C   UNL     1      -7.908   5.811  65.917  1.00  0.00    -0.101 A  
HETATM   22  C   UNL     1      -7.915   6.436  64.688  1.00  0.00    -0.118 A  
HETATM   23  N   UNL     1      -8.682   7.566  64.809  1.00  0.00    -0.350 NA 
HETATM   24  H   UNL     1      -8.873   8.228  64.057  1.00  0.00     0.000 HD 
ENDBRANCH  13  15
ENDBRANCH   9  13
TORSDOF 3
ENDMDL
MODEL      206
REMARK 921   NORMALIZED FREE ENERGY PREDICTED BY IDOCK:   -3.06 KCAL/MOL
REMARK 922        TOTAL FREE ENERGY PREDICTED BY IDOCK:   -3.91 KCAL/MOL
REMARK 923 INTER-LIGAND FREE ENERGY PREDICTED BY IDOCK:   -4.29 KCAL/MOL
REMARK 924 INTRA-LIGAND FREE ENERGY PREDICTED BY IDOCK:    0.38 KCAL/MOL
REMARK 927      BINDING AFFINITY PREDICTED BY RF-SCORE:    0.00 PKD
ROOT
HETATM    1  C   UNL     1      -6.488  10.665  69.548  1.00  0.00    -0.078 C  
HETATM    2  C   UNL     1      -5.580  10.112  68.441  1.00  0.00    -0.038 C  
HETATM    3  C   UNL     1      -5.952  11.972  70.128  1.00  0.00    -0.159 C  
HETATM    4  C   UNL     1      -6.108   8.782  67.893  1.00  0.00    -0.051 C  
HETATM    5  N   UNL     1      -7.533   8.830  67.543  1.00  0.00    -0.089 N  
HETATM    6  C   UNL     1      -8.424   9.366  68.586  1.00  0.00    -0.119 C  
HETATM    7  C   UNL     1      -7.940   8.429  66.270  1.00  0.00    -0.099 C  
HETATM    8  O   UNL     1      -7.115   8.107  65.412  1.00  0.00    -0.062 OA 
HETATM    9  C   UNL     1      -7.969  10.755  69.097  1.00  0.00    -0.134 C  
ENDROOT
BRANCH   7  10
HETATM   10  C   UNL     1      -9.430   8.414  65.983  1.00  0.00    -0.224 C  
HETATM   11  C   UNL     1      -9.898   9.670  65.382  1.00  0.00    -0.252 C  
HETATM   12  N   UNL     1     -10.331  10.642  64.919  1.00  0.00    -0.313 NA 
ENDBRANCH   7  10
BRANCH   9  13
HETATM   13  N   UNL     1      -8.209  11.841  68.128  1.00  0.00    -0.146 NA 
HETATM   14  C   UNL     1      -7.342  12.166  67.007  1.00  0.00    -0.072 C  
BRANCH  13  15
HETATM   15  C   UNL     1      -9.419  12.525  68.169  1.00  0.00    -0.214 A  
HETATM   16  N   UNL     1     -10.494  11.942  68.762  1.00  0.00    -0.207 NA 
HETATM   17  C   UNL     1     -11.690  12.570  68.718  1.00  0.00    -0.327 A  
HETATM   18  N   UNL     1     -11.990  13.749  68.155  1.00  0.00    -0.374 NA 
HETATM   19  C   UNL     1     -10.904  14.317  67.616  1.00  0.00    -0.268 A  
HETATM   20  C   UNL     1      -9.618  13.803  67.586  1.00  0.00    -0.219 A  
HETATM   21  C   UNL     1      -8.808  14.795  66.953  1.00  0.00    -0.274 A  
HETATM   22  C   UNL     1      -9.624  15.844  66.582  1.00  0.00    -0.246 A  
HETATM   23  N   UNL     1     -10.896  15.534  66.988  1.00  0.00    -0.323 NA 
HETATM   24  H   UNL     1     -11.716  16.123  66.844  1.00  0.00     0.000 HD 
ENDBRANCH  13  15
ENDBRANCH   9  13
TORSDOF 3
ENDMDL
MODEL      207
REMARK 921   NORMALIZED FREE ENERGY PREDICTED BY IDOCK:   -3.06 KCAL/MOL
REMARK 922        TOTAL FREE ENERGY PREDICTED BY IDOCK:   -3.91 KCAL/MOL
REMARK 923 INTER-LIGAND FREE ENERGY PREDICTED BY IDOCK:   -3.47 KCAL/MOL
REMARK 924 INTRA-LIGAND FREE ENERGY PREDICTED BY IDOCK:   -0.43 KCAL/MOL
REMARK 927      BINDING AFFINITY PREDICTED BY RF-SCORE:    0.00 PKD
ROOT
HETATM    1  C   UNL     1      -6.978   3.546  69.199  1.00  0.00    -0.045 C  
HETATM    2  C   UNL     1      -6.543   3.654  67.732  1.00  0.00    -0.042 C  
HETATM    3  C   UNL     1      -5.821   3.812  70.161  1.00  0.00    -0.018 C  
HETATM    4  C   UNL     1      -7.704   3.349  66.779  1.00  0.00    -0.080 C  
HETATM    5  N   UNL     1      -8.927   4.091  67.106  1.00  0.00    -0.123 N  
HETATM    6  C   UNL     1      -9.359   4.011  68.512  1.00  0.00    -0.160 C  
HETATM    7  C   UNL     1      -9.557   4.844  66.116  1.00  0.00    -0.175 C  
HETATM    8  O   UNL     1      -9.062   4.956  64.992  1.00  0.00    -0.156 OA 
HETATM    9  C   UNL     1      -8.234   4.403  69.501  1.00  0.00    -0.059 C  
ENDROOT
BRANCH   7  10
HETATM   10  C   UNL     1     -10.864   5.525  66.478  1.00  0.00    -0.237 C  
HETATM   11  C   UNL     1     -10.677   6.928  66.869  1.00  0.00    -0.316 C  
HETATM   12  N   UNL     1     -10.592   8.037  67.201  1.00  0.00    -0.329 NA 
ENDBRANCH   7  10
BRANCH   9  13
HETATM   13  N   UNL     1      -7.950   5.852  69.517  1.00  0.00    -0.103 NA 
HETATM   14  C   UNL     1      -7.206   6.568  68.495  1.00  0.00    -0.085 C  
BRANCH  13  15
HETATM   15  C   UNL     1      -8.553   6.645  70.487  1.00  0.00    -0.143 A  
HETATM   16  N   UNL     1      -9.860   6.991  70.347  1.00  0.00    -0.179 NA 
HETATM   17  C   UNL     1     -10.415   7.837  71.242  1.00  0.00    -0.206 A  
HETATM   18  N   UNL     1      -9.844   8.410  72.311  1.00  0.00    -0.290 NA 
HETATM   19  C   UNL     1      -8.571   8.018  72.446  1.00  0.00    -0.163 A  
HETATM   20  C   UNL     1      -7.868   7.158  71.618  1.00  0.00    -0.097 A  
HETATM   21  C   UNL     1      -6.573   7.012  72.204  1.00  0.00    -0.056 A  
HETATM   22  C   UNL     1      -6.516   7.813  73.326  1.00  0.00    -0.072 A  
HETATM   23  N   UNL     1      -7.738   8.421  73.456  1.00  0.00    -0.339 NA 
HETATM   24  H   UNL     1      -7.990   9.078  74.195  1.00  0.00     0.000 HD 
ENDBRANCH  13  15
ENDBRANCH   9  13
TORSDOF 3
ENDMDL
MODEL      208
REMARK 921   NORMALIZED FREE ENERGY PREDICTED BY IDOCK:   -3.05 KCAL/MOL
REMARK 922        TOTAL FREE ENERGY PREDICTED BY IDOCK:   -3.90 KCAL/MOL
REMARK 923 INTER-LIGAND FREE ENERGY PREDICTED BY IDOCK:   -3.47 KCAL/MOL
REMARK 924 INTRA-LIGAND FREE ENERGY PREDICTED BY IDOCK:   -0.44 KCAL/MOL
REMARK 927      BINDING AFFINITY PREDICTED BY RF-SCORE:    0.00 PKD
ROOT
HETATM    1  C   UNL     1      -9.574   3.301  68.163  1.00  0.00    -0.147 C  
HETATM    2  C   UNL     1      -8.365   2.557  67.580  1.00  0.00    -0.095 C  
HETATM    3  C   UNL     1      -9.471   3.462  69.679  1.00  0.00    -0.223 C  
HETATM    4  C   UNL     1      -8.497   2.370  66.065  1.00  0.00    -0.100 C  
HETATM    5  N   UNL     1      -8.846   3.610  65.361  1.00  0.00    -0.119 N  
HETATM    6  C   UNL     1      -9.997   4.347  65.908  1.00  0.00    -0.240 C  
HETATM    7  C   UNL     1      -8.062   4.030  64.286  1.00  0.00    -0.090 C  
HETATM    8  O   UNL     1      -7.041   3.418  63.967  1.00  0.00    -0.048 OA 
HETATM    9  C   UNL     1      -9.851   4.634  67.423  1.00  0.00    -0.165 C  
ENDROOT
BRANCH   7  10
HETATM   10  C   UNL     1      -8.510   5.272  63.536  1.00  0.00    -0.087 C  
HETATM   11  C   UNL     1      -7.434   6.260  63.395  1.00  0.00    -0.079 C  
HETATM   12  N   UNL     1      -6.629   7.087  63.264  1.00  0.00    -0.043 NA 
ENDBRANCH   7  10
BRANCH   9  13
HETATM   13  N   UNL     1      -8.853   5.678  67.725  1.00  0.00    -0.107 NA 
HETATM   14  C   UNL     1      -7.433   5.587  67.424  1.00  0.00    -0.084 C  
BRANCH  13  15
HETATM   15  C   UNL     1      -9.289   6.912  68.193  1.00  0.00    -0.124 A  
HETATM   16  N   UNL     1      -9.531   7.074  69.521  1.00  0.00    -0.147 NA 
HETATM   17  C   UNL     1     -10.044   8.245  69.958  1.00  0.00    -0.196 A  
HETATM   18  N   UNL     1     -10.356   9.335  69.242  1.00  0.00    -0.209 NA 
HETATM   19  C   UNL     1     -10.067   9.161  67.947  1.00  0.00    -0.199 A  
HETATM   20  C   UNL     1      -9.538   8.027  67.352  1.00  0.00    -0.196 A  
HETATM   21  C   UNL     1      -9.364   8.347  65.970  1.00  0.00    -0.244 A  
HETATM   22  C   UNL     1      -9.829   9.629  65.764  1.00  0.00    -0.302 A  
HETATM   23  N   UNL     1     -10.258  10.108  66.975  1.00  0.00    -0.222 NA 
HETATM   24  H   UNL     1     -10.660  11.032  67.130  1.00  0.00     0.000 HD 
ENDBRANCH  13  15
ENDBRANCH   9  13
TORSDOF 3
ENDMDL
MODEL      209
REMARK 921   NORMALIZED FREE ENERGY PREDICTED BY IDOCK:   -3.05 KCAL/MOL
REMARK 922        TOTAL FREE ENERGY PREDICTED BY IDOCK:   -3.90 KCAL/MOL
REMARK 923 INTER-LIGAND FREE ENERGY PREDICTED BY IDOCK:   -3.85 KCAL/MOL
REMARK 924 INTRA-LIGAND FREE ENERGY PREDICTED BY IDOCK:   -0.04 KCAL/MOL
REMARK 927      BINDING AFFINITY PREDICTED BY RF-SCORE:    0.00 PKD
ROOT
HETATM    1  C   UNL     1      -7.614   8.928  65.177  1.00  0.00    -0.099 C  
HETATM    2  C   UNL     1      -6.868  10.234  65.481  1.00  0.00    -0.134 C  
HETATM    3  C   UNL     1      -6.676   7.721  65.173  1.00  0.00    -0.051 C  
HETATM    4  C   UNL     1      -7.812  11.440  65.446  1.00  0.00     0.585 C  
HETATM    5  N   UNL     1      -9.033  11.239  66.237  1.00  0.00    -0.193 N  
HETATM    6  C   UNL     1      -9.760   9.987  65.970  1.00  0.00    -0.240 C  
HETATM    7  C   UNL     1      -9.391  12.185  67.197  1.00  0.00    -0.193 C  
HETATM    8  O   UNL     1      -8.660  13.147  67.443  1.00  0.00    -0.183 OA 
HETATM    9  C   UNL     1      -8.854   8.737  66.088  1.00  0.00    -0.168 C  
ENDROOT
BRANCH   7  10
HETATM   10  C   UNL     1     -10.704  11.978  67.929  1.00  0.00    -0.243 C  
HETATM   11  C   UNL     1     -11.250  13.230  68.467  1.00  0.00    -0.271 C  
HETATM   12  N   UNL     1     -11.725  14.184  68.928  1.00  0.00    -0.313 NA 
ENDBRANCH   7  10
BRANCH   9  13
HETATM   13  N   UNL     1      -8.497   8.405  67.481  1.00  0.00    -0.128 NA 
HETATM   14  C   UNL     1      -7.359   8.950  68.204  1.00  0.00    -0.084 C  
BRANCH  13  15
HETATM   15  C   UNL     1      -9.376   7.637  68.237  1.00  0.00    -0.145 A  
HETATM   16  N   UNL     1      -9.665   6.370  67.838  1.00  0.00    -0.121 NA 
HETATM   17  C   UNL     1     -10.590   5.661  68.522  1.00  0.00    -0.189 A  
HETATM   18  N   UNL     1     -11.296   6.034  69.599  1.00  0.00    -0.374 NA 
HETATM   19  C   UNL     1     -10.959   7.268  69.992  1.00  0.00    -0.253 A  
HETATM   20  C   UNL     1     -10.032   8.112  69.401  1.00  0.00    -0.188 A  
HETATM   21  C   UNL     1      -9.992   9.288  70.211  1.00  0.00    -0.262 A  
HETATM   22  C   UNL     1     -10.914   9.143  71.226  1.00  0.00    -0.330 A  
HETATM   23  N   UNL     1     -11.497   7.912  71.075  1.00  0.00    -0.278 NA 
HETATM   24  H   UNL     1     -12.224   7.530  71.680  1.00  0.00     0.000 HD 
ENDBRANCH  13  15
ENDBRANCH   9  13
TORSDOF 3
ENDMDL
MODEL      210
REMARK 921   NORMALIZED FREE ENERGY PREDICTED BY IDOCK:   -3.04 KCAL/MOL
REMARK 922        TOTAL FREE ENERGY PREDICTED BY IDOCK:   -3.89 KCAL/MOL
REMARK 923 INTER-LIGAND FREE ENERGY PREDICTED BY IDOCK:   -3.57 KCAL/MOL
REMARK 924 INTRA-LIGAND FREE ENERGY PREDICTED BY IDOCK:   -0.32 KCAL/MOL
REMARK 927      BINDING AFFINITY PREDICTED BY RF-SCORE:    0.00 PKD
ROOT
HETATM    1  C   UNL     1     -10.797   7.717  69.350  1.00  0.00    -0.136 C  
HETATM    2  C   UNL     1     -10.283   7.797  67.907  1.00  0.00    -0.259 C  
HETATM    3  C   UNL     1     -11.075   6.277  69.780  1.00  0.00    -0.473 C  
HETATM    4  C   UNL     1     -10.043   9.248  67.476  1.00  0.00    -0.218 C  
HETATM    5  N   UNL     1      -9.251  10.013  68.447  1.00  0.00    -0.129 N  
HETATM    6  C   UNL     1      -9.720   9.943  69.841  1.00  0.00    -0.235 C  
HETATM    7  C   UNL     1      -8.112  10.693  68.018  1.00  0.00    -0.112 C  
HETATM    8  O   UNL     1      -7.719  10.602  66.853  1.00  0.00    -0.112 OA 
HETATM    9  C   UNL     1      -9.885   8.486  70.339  1.00  0.00    -0.179 C  
ENDROOT
BRANCH   7  10
HETATM   10  C   UNL     1      -7.374  11.539  69.039  1.00  0.00    -0.094 C  
HETATM   11  C   UNL     1      -6.973  12.845  68.501  1.00  0.00    -0.098 C  
HETATM   12  N   UNL     1      -6.617  13.886  68.130  1.00  0.00    -0.110 NA 
ENDBRANCH   7  10
BRANCH   9  13
HETATM   13  N   UNL     1      -8.599   7.804  70.583  1.00  0.00    -0.126 NA 
HETATM   14  C   UNL     1      -7.620   7.477  69.559  1.00  0.00    -0.095 C  
BRANCH  13  15
HETATM   15  C   UNL     1      -8.193   7.580  71.894  1.00  0.00    -0.106 A  
HETATM   16  N   UNL     1      -7.783   8.630  72.653  1.00  0.00    -0.362 NA 
HETATM   17  C   UNL     1      -7.302   8.396  73.894  1.00  0.00    -0.113 A  
HETATM   18  N   UNL     1      -7.172   7.221  74.528  1.00  0.00    -0.107 NA 
HETATM   19  C   UNL     1      -7.623   6.213  73.773  1.00  0.00    -0.091 A  
HETATM   20  C   UNL     1      -8.145   6.294  72.491  1.00  0.00    -0.103 A  
HETATM   21  C   UNL     1      -8.531   4.966  72.134  1.00  0.00    -0.124 A  
HETATM   22  C   UNL     1      -8.193   4.125  73.174  1.00  0.00    -0.090 A  
HETATM   23  N   UNL     1      -7.638   4.899  74.160  1.00  0.00    -0.093 NA 
HETATM   24  H   UNL     1      -7.286   4.549  75.051  1.00  0.00     0.000 HD 
ENDBRANCH  13  15
ENDBRANCH   9  13
TORSDOF 3
ENDMDL
MODEL      211
REMARK 921   NORMALIZED FREE ENERGY PREDICTED BY IDOCK:   -3.00 KCAL/MOL
REMARK 922        TOTAL FREE ENERGY PREDICTED BY IDOCK:   -3.84 KCAL/MOL
REMARK 923 INTER-LIGAND FREE ENERGY PREDICTED BY IDOCK:   -4.12 KCAL/MOL
REMARK 924 INTRA-LIGAND FREE ENERGY PREDICTED BY IDOCK:    0.28 KCAL/MOL
REMARK 927      BINDING AFFINITY PREDICTED BY RF-SCORE:    0.00 PKD
ROOT
HETATM    1  C   UNL     1     -10.198   8.778  67.517  1.00  0.00    -0.309 C  
HETATM    2  C   UNL     1     -10.090   9.427  66.131  1.00  0.00    -0.324 C  
HETATM    3  C   UNL     1      -9.213   7.622  67.686  1.00  0.00    -0.144 C  
HETATM    4  C   UNL     1     -11.108  10.560  65.961  1.00  0.00     0.311 C  
HETATM    5  N   UNL     1     -11.103  11.510  67.080  1.00  0.00    -0.293 N  
HETATM    6  C   UNL     1     -11.195  10.910  68.421  1.00  0.00    -0.285 C  
HETATM    7  C   UNL     1     -10.962  12.874  66.820  1.00  0.00    -0.272 C  
HETATM    8  O   UNL     1     -10.768  13.285  65.674  1.00  0.00    -0.275 OA 
HETATM    9  C   UNL     1     -10.119   9.823  68.659  1.00  0.00    -0.169 C  
ENDROOT
BRANCH   7  10
HETATM   10  C   UNL     1     -11.048  13.825  68.000  1.00  0.00    -0.284 C  
HETATM   11  C   UNL     1      -9.917  14.760  68.050  1.00  0.00    -0.218 C  
HETATM   12  N   UNL     1      -9.042  15.516  68.152  1.00  0.00    -0.182 NA 
ENDBRANCH   7  10
BRANCH   9  13
HETATM   13  N   UNL     1      -8.762  10.375  68.839  1.00  0.00    -0.148 NA 
HETATM   14  C   UNL     1      -8.173  11.425  68.024  1.00  0.00    -0.140 C  
BRANCH  13  15
HETATM   15  C   UNL     1      -8.022   9.994  69.953  1.00  0.00    -0.171 A  
HETATM   16  N   UNL     1      -6.764  10.481  70.116  1.00  0.00    -0.149 NA 
HETATM   17  C   UNL     1      -6.015  10.036  71.149  1.00  0.00    -0.013 A  
HETATM   18  N   UNL     1      -6.348   9.146  72.095  1.00  0.00    -0.273 NA 
HETATM   19  C   UNL     1      -7.606   8.717  71.933  1.00  0.00    -0.003 A  
HETATM   20  C   UNL     1      -8.492   9.081  70.933  1.00  0.00    -0.253 A  
HETATM   21  C   UNL     1      -9.715   8.399  71.217  1.00  0.00    -0.245 A  
HETATM   22  C   UNL     1      -9.521   7.619  72.338  1.00  0.00    -0.165 A  
HETATM   23  N   UNL     1      -8.231   7.819  72.757  1.00  0.00    -0.115 NA 
HETATM   24  H   UNL     1      -7.801   7.367  73.563  1.00  0.00     0.000 HD 
ENDBRANCH  13  15
ENDBRANCH   9  13
TORSDOF 3
ENDMDL
MODEL      212
REMARK 921   NORMALIZED FREE ENERGY PREDICTED BY IDOCK:   -2.99 KCAL/MOL
REMARK 922        TOTAL FREE ENERGY PREDICTED BY IDOCK:   -3.83 KCAL/MOL
REMARK 923 INTER-LIGAND FREE ENERGY PREDICTED BY IDOCK:   -4.08 KCAL/MOL
REMARK 924 INTRA-LIGAND FREE ENERGY PREDICTED BY IDOCK:    0.25 KCAL/MOL
REMARK 927      BINDING AFFINITY PREDICTED BY RF-SCORE:    0.00 PKD
ROOT
HETATM    1  C   UNL     1     -11.160   9.111  69.555  1.00  0.00    -0.068 C  
HETATM    2  C   UNL     1     -10.107   7.999  69.644  1.00  0.00    -0.198 C  
HETATM    3  C   UNL     1     -11.453   9.733  70.919  1.00  0.00    -0.447 C  
HETATM    4  C   UNL     1      -9.849   7.358  68.277  1.00  0.00    -0.160 C  
HETATM    5  N   UNL     1      -9.603   8.343  67.217  1.00  0.00    -0.156 N  
HETATM    6  C   UNL     1     -10.595   9.427  67.118  1.00  0.00    -0.224 C  
HETATM    7  C   UNL     1      -8.458   8.230  66.429  1.00  0.00    -0.121 C  
HETATM    8  O   UNL     1      -7.613   7.361  66.657  1.00  0.00    -0.095 OA 
HETATM    9  C   UNL     1     -10.812  10.158  68.465  1.00  0.00    -0.237 C  
ENDROOT
BRANCH   7  10
HETATM   10  C   UNL     1      -8.289   9.221  65.291  1.00  0.00    -0.151 C  
HETATM   11  C   UNL     1      -7.013   9.944  65.362  1.00  0.00    -0.113 C  
HETATM   12  N   UNL     1      -6.028  10.558  65.371  1.00  0.00    -0.131 NA 
ENDBRANCH   7  10
BRANCH   9  13
HETATM   13  N   UNL     1      -9.683  11.028  68.845  1.00  0.00    -0.194 NA 
HETATM   14  C   UNL     1      -8.425  10.565  69.407  1.00  0.00    -0.094 C  
BRANCH  13  15
HETATM   15  C   UNL     1      -9.732  12.378  68.515  1.00  0.00    -0.136 A  
HETATM   16  N   UNL     1     -10.931  13.019  68.509  1.00  0.00    -0.252 NA 
HETATM   17  C   UNL     1     -10.986  14.305  68.097  1.00  0.00    -0.246 A  
HETATM   18  N   UNL     1      -9.981  15.089  67.681  1.00  0.00    -0.225 NA 
HETATM   19  C   UNL     1      -8.810  14.444  67.739  1.00  0.00    -0.186 A  
HETATM   20  C   UNL     1      -8.593  13.136  68.140  1.00  0.00    -0.181 A  
HETATM   21  C   UNL     1      -7.181  12.929  68.076  1.00  0.00    -0.115 A  
HETATM   22  C   UNL     1      -6.598  14.085  67.600  1.00  0.00    -0.159 A  
HETATM   23  N   UNL     1      -7.603  14.995  67.395  1.00  0.00    -0.193 NA 
HETATM   24  H   UNL     1      -7.473  15.942  67.040  1.00  0.00     0.000 HD 
ENDBRANCH  13  15
ENDBRANCH   9  13
TORSDOF 3
ENDMDL
MODEL      213
REMARK 921   NORMALIZED FREE ENERGY PREDICTED BY IDOCK:   -2.99 KCAL/MOL
REMARK 922        TOTAL FREE ENERGY PREDICTED BY IDOCK:   -3.83 KCAL/MOL
REMARK 923 INTER-LIGAND FREE ENERGY PREDICTED BY IDOCK:   -3.46 KCAL/MOL
REMARK 924 INTRA-LIGAND FREE ENERGY PREDICTED BY IDOCK:   -0.37 KCAL/MOL
REMARK 927      BINDING AFFINITY PREDICTED BY RF-SCORE:    0.00 PKD
ROOT
HETATM    1  C   UNL     1      -8.730   9.793  65.834  1.00  0.00    -0.156 C  
HETATM    2  C   UNL     1      -9.984   8.969  66.155  1.00  0.00    -0.311 C  
HETATM    3  C   UNL     1      -9.045  10.990  64.938  1.00  0.00    -0.164 C  
HETATM    4  C   UNL     1      -9.649   7.751  67.022  1.00  0.00    -0.184 C  
HETATM    5  N   UNL     1      -8.826   8.087  68.191  1.00  0.00    -0.132 N  
HETATM    6  C   UNL     1      -7.622   8.887  67.909  1.00  0.00    -0.093 C  
HETATM    7  C   UNL     1      -9.245   7.689  69.460  1.00  0.00    -0.150 C  
HETATM    8  O   UNL     1     -10.330   7.126  69.623  1.00  0.00    -0.202 OA 
HETATM    9  C   UNL     1      -7.939  10.175  67.111  1.00  0.00    -0.109 C  
ENDROOT
BRANCH   7  10
HETATM   10  C   UNL     1      -8.321   7.983  70.628  1.00  0.00    -0.123 C  
HETATM   11  C   UNL     1      -9.054   8.217  71.878  1.00  0.00    -0.171 C  
HETATM   12  N   UNL     1      -9.576   8.424  72.894  1.00  0.00    -0.243 NA 
ENDBRANCH   7  10
BRANCH   9  13
HETATM   13  N   UNL     1      -8.616  11.209  67.918  1.00  0.00    -0.131 NA 
HETATM   14  C   UNL     1      -9.893  11.039  68.591  1.00  0.00    -0.193 C  
BRANCH  13  15
HETATM   15  C   UNL     1      -7.940  12.391  68.202  1.00  0.00    -0.153 A  
HETATM   16  N   UNL     1      -8.267  13.524  67.527  1.00  0.00    -0.172 NA 
HETATM   17  C   UNL     1      -7.546  14.647  67.739  1.00  0.00    -0.160 A  
HETATM   18  N   UNL     1      -6.507  14.824  68.568  1.00  0.00    -0.087 NA 
HETATM   19  C   UNL     1      -6.236  13.704  69.249  1.00  0.00    -0.104 A  
HETATM   20  C   UNL     1      -6.884  12.483  69.145  1.00  0.00    -0.062 A  
HETATM   21  C   UNL     1      -6.269  11.623  70.105  1.00  0.00    -0.121 A  
HETATM   22  C   UNL     1      -5.251  12.323  70.720  1.00  0.00    -0.149 A  
HETATM   23  N   UNL     1      -5.242  13.584  70.183  1.00  0.00    -0.094 NA 
HETATM   24  H   UNL     1      -4.590  14.326  70.441  1.00  0.00     0.000 HD 
ENDBRANCH  13  15
ENDBRANCH   9  13
TORSDOF 3
ENDMDL
MODEL      214
REMARK 921   NORMALIZED FREE ENERGY PREDICTED BY IDOCK:   -2.99 KCAL/MOL
REMARK 922        TOTAL FREE ENERGY PREDICTED BY IDOCK:   -3.83 KCAL/MOL
REMARK 923 INTER-LIGAND FREE ENERGY PREDICTED BY IDOCK:   -3.92 KCAL/MOL
REMARK 924 INTRA-LIGAND FREE ENERGY PREDICTED BY IDOCK:    0.10 KCAL/MOL
REMARK 927      BINDING AFFINITY PREDICTED BY RF-SCORE:    0.00 PKD
ROOT
HETATM    1  C   UNL     1      -6.374  17.428  68.384  1.00  0.00    -0.175 C  
HETATM    2  C   UNL     1      -7.678  18.103  68.828  1.00  0.00    -0.277 C  
HETATM    3  C   UNL     1      -5.361  17.334  69.524  1.00  0.00    -0.173 C  
HETATM    4  C   UNL     1      -8.671  18.225  67.667  1.00  0.00    -0.256 C  
HETATM    5  N   UNL     1      -8.856  16.967  66.934  1.00  0.00    -0.215 N  
HETATM    6  C   UNL     1      -7.618  16.295  66.506  1.00  0.00    -0.183 C  
HETATM    7  C   UNL     1     -10.146  16.471  66.740  1.00  0.00    -0.288 C  
HETATM    8  O   UNL     1     -11.124  17.034  67.236  1.00  0.00    -0.091 OA 
HETATM    9  C   UNL     1      -6.629  16.073  67.677  1.00  0.00    -0.162 C  
ENDROOT
BRANCH   7  10
HETATM   10  C   UNL     1     -10.294  15.213  65.904  1.00  0.00    -0.344 C  
HETATM   11  C   UNL     1     -11.167  14.217  66.539  1.00  0.00    -0.332 C  
HETATM   12  N   UNL     1     -11.835  13.386  66.996  1.00  0.00    -0.384 NA 
ENDBRANCH   7  10
BRANCH   9  13
HETATM   13  N   UNL     1      -7.057  15.011  68.608  1.00  0.00    -0.104 NA 
HETATM   14  C   UNL     1      -8.035  15.177  69.671  1.00  0.00    -0.113 C  
BRANCH  13  15
HETATM   15  C   UNL     1      -6.627  13.707  68.387  1.00  0.00    -0.096 A  
HETATM   16  N   UNL     1      -6.751  13.167  67.146  1.00  0.00    -0.113 NA 
HETATM   17  C   UNL     1      -6.419  11.870  66.958  1.00  0.00    -0.136 A  
HETATM   18  N   UNL     1      -5.950  10.993  67.857  1.00  0.00    -0.046 NA 
HETATM   19  C   UNL     1      -5.799  11.565  69.057  1.00  0.00    -0.049 A  
HETATM   20  C   UNL     1      -6.090  12.875  69.403  1.00  0.00    -0.109 A  
HETATM   21  C   UNL     1      -5.713  13.018  70.774  1.00  0.00    -0.160 A  
HETATM   22  C   UNL     1      -5.256  11.796  71.223  1.00  0.00    -0.064 A  
HETATM   23  N   UNL     1      -5.320  10.923  70.168  1.00  0.00    -0.053 NA 
HETATM   24  H   UNL     1      -5.052   9.940  70.205  1.00  0.00     0.000 HD 
ENDBRANCH  13  15
ENDBRANCH   9  13
TORSDOF 3
ENDMDL
MODEL      215
REMARK 921   NORMALIZED FREE ENERGY PREDICTED BY IDOCK:   -2.98 KCAL/MOL
REMARK 922        TOTAL FREE ENERGY PREDICTED BY IDOCK:   -3.82 KCAL/MOL
REMARK 923 INTER-LIGAND FREE ENERGY PREDICTED BY IDOCK:   -3.73 KCAL/MOL
REMARK 924 INTRA-LIGAND FREE ENERGY PREDICTED BY IDOCK:   -0.09 KCAL/MOL
REMARK 927      BINDING AFFINITY PREDICTED BY RF-SCORE:    0.00 PKD
ROOT
HETATM    1  C   UNL     1      -7.051   4.234  69.879  1.00  0.00    -0.042 C  
HETATM    2  C   UNL     1      -7.665   3.271  70.903  1.00  0.00    -0.043 C  
HETATM    3  C   UNL     1      -7.041   3.642  68.470  1.00  0.00    -0.051 C  
HETATM    4  C   UNL     1      -7.635   3.861  72.317  1.00  0.00    -0.070 C  
HETATM    5  N   UNL     1      -8.159   5.231  72.380  1.00  0.00    -0.106 N  
HETATM    6  C   UNL     1      -7.592   6.171  71.399  1.00  0.00    -0.099 C  
HETATM    7  C   UNL     1      -9.166   5.538  73.296  1.00  0.00    -0.132 C  
HETATM    8  O   UNL     1      -9.672   4.661  74.000  1.00  0.00    -0.129 OA 
HETATM    9  C   UNL     1      -7.691   5.645  69.947  1.00  0.00    -0.083 C  
ENDROOT
BRANCH   7  10
HETATM   10  C   UNL     1      -9.616   6.985  73.383  1.00  0.00    -0.225 C  
HETATM   11  C   UNL     1      -8.615   7.846  74.024  1.00  0.00    -0.264 C  
HETATM   12  N   UNL     1      -7.870   8.575  74.535  1.00  0.00    -0.355 NA 
ENDBRANCH   7  10
BRANCH   9  13
HETATM   13  N   UNL     1      -9.063   5.680  69.405  1.00  0.00    -0.116 NA 
HETATM   14  C   UNL     1     -10.130   4.765  69.777  1.00  0.00    -0.219 C  
BRANCH  13  15
HETATM   15  C   UNL     1      -9.440   6.743  68.593  1.00  0.00    -0.132 A  
HETATM   16  N   UNL     1      -9.218   6.670  67.254  1.00  0.00    -0.123 NA 
HETATM   17  C   UNL     1      -9.500   7.742  66.482  1.00  0.00    -0.201 A  
HETATM   18  N   UNL     1     -10.002   8.928  66.856  1.00  0.00    -0.222 NA 
HETATM   19  C   UNL     1     -10.249   8.955  68.171  1.00  0.00    -0.201 A  
HETATM   20  C   UNL     1     -10.019   7.940  69.087  1.00  0.00    -0.184 A  
HETATM   21  C   UNL     1     -10.489   8.427  70.345  1.00  0.00    -0.228 A  
HETATM   22  C   UNL     1     -10.940   9.718  70.166  1.00  0.00    -0.291 A  
HETATM   23  N   UNL     1     -10.782  10.025  68.839  1.00  0.00    -0.211 NA 
HETATM   24  H   UNL     1     -11.024  10.919  68.412  1.00  0.00     0.000 HD 
ENDBRANCH  13  15
ENDBRANCH   9  13
TORSDOF 3
ENDMDL
MODEL      216
REMARK 921   NORMALIZED FREE ENERGY PREDICTED BY IDOCK:   -2.97 KCAL/MOL
REMARK 922        TOTAL FREE ENERGY PREDICTED BY IDOCK:   -3.80 KCAL/MOL
REMARK 923 INTER-LIGAND FREE ENERGY PREDICTED BY IDOCK:   -3.51 KCAL/MOL
REMARK 924 INTRA-LIGAND FREE ENERGY PREDICTED BY IDOCK:   -0.29 KCAL/MOL
REMARK 927      BINDING AFFINITY PREDICTED BY RF-SCORE:    0.00 PKD
ROOT
HETATM    1  C   UNL     1      -7.402   9.580  64.557  1.00  0.00    -0.114 C  
HETATM    2  C   UNL     1      -6.798  10.430  65.683  1.00  0.00    -0.133 C  
HETATM    3  C   UNL     1      -6.336   8.784  63.806  1.00  0.00    -0.080 C  
HETATM    4  C   UNL     1      -7.872  11.252  66.404  1.00  0.00    -0.109 C  
HETATM    5  N   UNL     1      -9.035  10.451  66.804  1.00  0.00    -0.139 N  
HETATM    6  C   UNL     1      -9.627   9.619  65.744  1.00  0.00    -0.263 C  
HETATM    7  C   UNL     1      -9.465  10.484  68.131  1.00  0.00    -0.151 C  
HETATM    8  O   UNL     1      -8.840  11.115  68.986  1.00  0.00    -0.124 OA 
HETATM    9  C   UNL     1      -8.582   8.707  65.055  1.00  0.00    -0.158 C  
ENDROOT
BRANCH   7  10
HETATM   10  C   UNL     1     -10.723   9.708  68.480  1.00  0.00    -0.239 C  
HETATM   11  C   UNL     1     -11.039   9.767  69.912  1.00  0.00    -0.254 C  
HETATM   12  N   UNL     1     -11.334   9.765  71.035  1.00  0.00    -0.359 NA 
ENDBRANCH   7  10
BRANCH   9  13
HETATM   13  N   UNL     1      -8.146   7.578  65.899  1.00  0.00    -0.119 NA 
HETATM   14  C   UNL     1      -7.252   7.687  67.041  1.00  0.00    -0.089 C  
BRANCH  13  15
HETATM   15  C   UNL     1      -8.731   6.331  65.712  1.00  0.00    -0.139 A  
HETATM   16  N   UNL     1      -9.733   5.934  66.541  1.00  0.00    -0.156 NA 
HETATM   17  C   UNL     1     -10.235   4.686  66.414  1.00  0.00    -0.260 A  
HETATM   18  N   UNL     1      -9.882   3.732  65.541  1.00  0.00    -0.151 NA 
HETATM   19  C   UNL     1      -8.924   4.166  64.712  1.00  0.00    -0.140 A  
HETATM   20  C   UNL     1      -8.317   5.412  64.714  1.00  0.00    -0.145 A  
HETATM   21  C   UNL     1      -7.403   5.410  63.616  1.00  0.00    -0.053 A  
HETATM   22  C   UNL     1      -7.450   4.167  63.020  1.00  0.00    -0.050 A  
HETATM   23  N   UNL     1      -8.376   3.421  63.702  1.00  0.00    -0.089 NA 
HETATM   24  H   UNL     1      -8.620   2.454  63.490  1.00  0.00     0.000 HD 
ENDBRANCH  13  15
ENDBRANCH   9  13
TORSDOF 3
ENDMDL
MODEL      217
REMARK 921   NORMALIZED FREE ENERGY PREDICTED BY IDOCK:   -2.96 KCAL/MOL
REMARK 922        TOTAL FREE ENERGY PREDICTED BY IDOCK:   -3.80 KCAL/MOL
REMARK 923 INTER-LIGAND FREE ENERGY PREDICTED BY IDOCK:   -4.35 KCAL/MOL
REMARK 924 INTRA-LIGAND FREE ENERGY PREDICTED BY IDOCK:    0.55 KCAL/MOL
REMARK 927      BINDING AFFINITY PREDICTED BY RF-SCORE:    0.00 PKD
ROOT
HETATM    1  C   UNL     1     -11.094  12.851  67.782  1.00  0.00    -0.291 C  
HETATM    2  C   UNL     1     -11.561  13.319  66.398  1.00  0.00    -0.387 C  
HETATM    3  C   UNL     1     -10.704  11.374  67.785  1.00  0.00    -0.254 C  
HETATM    4  C   UNL     1     -11.985  14.792  66.416  1.00  0.00    -0.168 C  
HETATM    5  N   UNL     1     -10.992  15.667  67.051  1.00  0.00    -0.301 N  
HETATM    6  C   UNL     1     -10.520  15.233  68.376  1.00  0.00    -0.236 C  
HETATM    7  C   UNL     1     -10.531  16.790  66.364  1.00  0.00    -0.269 C  
HETATM    8  O   UNL     1     -10.887  17.017  65.205  1.00  0.00    -0.545 OA 
HETATM    9  C   UNL     1      -9.998  13.775  68.371  1.00  0.00    -0.229 C  
ENDROOT
BRANCH   7  10
HETATM   10  C   UNL     1      -9.570  17.712  67.092  1.00  0.00    -0.278 C  
HETATM   11  C   UNL     1      -9.071  18.794  66.234  1.00  0.00    -0.242 C  
HETATM   12  N   UNL     1      -8.630  19.662  65.603  1.00  0.00    -0.289 NA 
ENDBRANCH   7  10
BRANCH   9  13
HETATM   13  N   UNL     1      -8.694  13.625  67.696  1.00  0.00    -0.170 NA 
HETATM   14  C   UNL     1      -8.414  12.682  66.625  1.00  0.00     0.029 C  
BRANCH  13  15
HETATM   15  C   UNL     1      -7.682  14.537  67.973  1.00  0.00    -0.135 A  
HETATM   16  N   UNL     1      -7.425  15.536  67.087  1.00  0.00    -0.218 NA 
HETATM   17  C   UNL     1      -6.381  16.363  67.315  1.00  0.00    -0.180 A  
HETATM   18  N   UNL     1      -5.521  16.353  68.343  1.00  0.00    -0.101 NA 
HETATM   19  C   UNL     1      -5.825  15.387  69.218  1.00  0.00    -0.104 A  
HETATM   20  C   UNL     1      -6.859  14.469  69.126  1.00  0.00    -0.123 A  
HETATM   21  C   UNL     1      -6.802  13.684  70.319  1.00  0.00     0.467 A  
HETATM   22  C   UNL     1      -5.723  14.113  71.064  1.00  0.00    -0.215 A  
HETATM   23  N   UNL     1      -5.137  15.145  70.377  1.00  0.00    -0.111 NA 
HETATM   24  H   UNL     1      -4.310  15.657  70.684  1.00  0.00     0.000 HD 
ENDBRANCH  13  15
ENDBRANCH   9  13
TORSDOF 3
ENDMDL
MODEL      218
REMARK 921   NORMALIZED FREE ENERGY PREDICTED BY IDOCK:   -2.94 KCAL/MOL
REMARK 922        TOTAL FREE ENERGY PREDICTED BY IDOCK:   -3.78 KCAL/MOL
REMARK 923 INTER-LIGAND FREE ENERGY PREDICTED BY IDOCK:   -3.77 KCAL/MOL
REMARK 924 INTRA-LIGAND FREE ENERGY PREDICTED BY IDOCK:   -0.01 KCAL/MOL
REMARK 927      BINDING AFFINITY PREDICTED BY RF-SCORE:    0.00 PKD
ROOT
HETATM    1  C   UNL     1      -9.572  15.924  67.787  1.00  0.00    -0.218 C  
HETATM    2  C   UNL     1      -8.689  15.522  66.598  1.00  0.00    -0.326 C  
HETATM    3  C   UNL     1     -10.922  16.478  67.336  1.00  0.00    -0.121 C  
HETATM    4  C   UNL     1      -7.324  15.003  67.063  1.00  0.00     0.083 C  
HETATM    5  N   UNL     1      -7.424  13.987  68.117  1.00  0.00    -0.116 N  
HETATM    6  C   UNL     1      -8.274  14.347  69.264  1.00  0.00     0.124 C  
HETATM    7  C   UNL     1      -6.773  12.764  67.953  1.00  0.00    -0.116 C  
HETATM    8  O   UNL     1      -6.180  12.495  66.906  1.00  0.00    -0.216 OA 
HETATM    9  C   UNL     1      -9.694  14.788  68.834  1.00  0.00    -0.215 C  
ENDROOT
BRANCH   7  10
HETATM   10  C   UNL     1      -6.834  11.778  69.106  1.00  0.00    -0.106 C  
HETATM   11  C   UNL     1      -6.336  10.448  68.733  1.00  0.00    -0.047 C  
HETATM   12  N   UNL     1      -5.969   9.373  68.496  1.00  0.00    -0.044 NA 
ENDBRANCH   7  10
BRANCH   9  13
HETATM   13  N   UNL     1     -10.538  13.669  68.372  1.00  0.00    -0.245 NA 
HETATM   14  C   UNL     1     -10.603  13.184  67.003  1.00  0.00    -0.258 C  
BRANCH  13  15
HETATM   15  C   UNL     1     -11.217  12.904  69.314  1.00  0.00    -0.190 A  
HETATM   16  N   UNL     1     -12.278  13.443  69.970  1.00  0.00    -0.321 NA 
HETATM   17  C   UNL     1     -12.876  12.730  70.950  1.00  0.00    -0.105 A  
HETATM   18  N   UNL     1     -12.571  11.500  71.388  1.00  0.00    -0.348 NA 
HETATM   19  C   UNL     1     -11.551  10.979  70.695  1.00  0.00    -0.167 A  
HETATM   20  C   UNL     1     -10.843  11.582  69.667  1.00  0.00    -0.053 A  
HETATM   21  C   UNL     1      -9.893  10.614  69.218  1.00  0.00    -0.201 A  
HETATM   22  C   UNL     1     -10.021   9.489  70.005  1.00  0.00    -0.237 A  
HETATM   23  N   UNL     1     -11.029   9.730  70.902  1.00  0.00    -0.326 NA 
HETATM   24  H   UNL     1     -11.345   9.076  71.618  1.00  0.00     0.000 HD 
ENDBRANCH  13  15
ENDBRANCH   9  13
TORSDOF 3
ENDMDL
MODEL      219
REMARK 921   NORMALIZED FREE ENERGY PREDICTED BY IDOCK:   -2.77 KCAL/MOL
REMARK 922        TOTAL FREE ENERGY PREDICTED BY IDOCK:   -3.58 KCAL/MOL
REMARK 923 INTER-LIGAND FREE ENERGY PREDICTED BY IDOCK:   -3.29 KCAL/MOL
REMARK 924 INTRA-LIGAND FREE ENERGY PREDICTED BY IDOCK:   -0.29 KCAL/MOL
REMARK 927      BINDING AFFINITY PREDICTED BY RF-SCORE:    0.00 PKD
ROOT
HETATM    1  C   UNL     1      -6.696  10.268  70.335  1.00  0.00    -0.122 C  
HETATM    2  C   UNL     1      -5.782   9.399  69.460  1.00  0.00    -0.034 C  
HETATM    3  C   UNL     1      -6.401  11.757  70.171  1.00  0.00    -0.035 C  
HETATM    4  C   UNL     1      -6.064   7.907  69.662  1.00  0.00    -0.033 C  
HETATM    5  N   UNL     1      -7.490   7.573  69.569  1.00  0.00    -0.091 N  
HETATM    6  C   UNL     1      -8.389   8.399  70.392  1.00  0.00    -0.121 C  
HETATM    7  C   UNL     1      -7.902   6.565  68.697  1.00  0.00    -0.110 C  
HETATM    8  O   UNL     1      -7.097   6.002  67.952  1.00  0.00    -0.070 OA 
HETATM    9  C   UNL     1      -8.194   9.915  70.144  1.00  0.00    -0.136 C  
ENDROOT
BRANCH   7  10
HETATM   10  C   UNL     1      -9.375   6.197  68.697  1.00  0.00    -0.121 C  
HETATM   11  C   UNL     1      -9.707   5.213  67.659  1.00  0.00    -0.148 C  
HETATM   12  N   UNL     1     -10.034   4.448  66.850  1.00  0.00    -0.206 NA 
ENDBRANCH   7  10
BRANCH   9  13
HETATM   13  N   UNL     1      -8.729  10.368  68.845  1.00  0.00    -0.148 NA 
HETATM   14  C   UNL     1      -8.305   9.866  67.548  1.00  0.00    -0.114 C  
BRANCH  13  15
HETATM   15  C   UNL     1      -9.824  11.224  68.828  1.00  0.00    -0.184 A  
HETATM   16  N   UNL     1     -11.051  10.742  69.160  1.00  0.00    -0.229 NA 
HETATM   17  C   UNL     1     -12.126  11.553  69.053  1.00  0.00    -0.238 A  
HETATM   18  N   UNL     1     -12.166  12.834  68.657  1.00  0.00    -0.085 NA 
HETATM   19  C   UNL     1     -10.940  13.292  68.379  1.00  0.00    -0.264 A  
HETATM   20  C   UNL     1      -9.748  12.587  68.444  1.00  0.00    -0.189 A  
HETATM   21  C   UNL     1      -8.718  13.517  68.104  1.00  0.00    -0.174 A  
HETATM   22  C   UNL     1      -9.311  14.725  67.802  1.00  0.00    -0.199 A  
HETATM   23  N   UNL     1     -10.663  14.569  67.969  1.00  0.00    -0.239 NA 
HETATM   24  H   UNL     1     -11.360  15.297  67.811  1.00  0.00     0.000 HD 
ENDBRANCH  13  15
ENDBRANCH   9  13
TORSDOF 3
ENDMDL
MODEL      220
REMARK 921   NORMALIZED FREE ENERGY PREDICTED BY IDOCK:   -2.72 KCAL/MOL
REMARK 922        TOTAL FREE ENERGY PREDICTED BY IDOCK:   -3.51 KCAL/MOL
REMARK 923 INTER-LIGAND FREE ENERGY PREDICTED BY IDOCK:   -5.89 KCAL/MOL
REMARK 924 INTRA-LIGAND FREE ENERGY PREDICTED BY IDOCK:    2.38 KCAL/MOL
REMARK 927      BINDING AFFINITY PREDICTED BY RF-SCORE:    0.00 PKD
ROOT
HETATM    1  C   UNL     1      -7.503  16.595  68.436  1.00  0.00    -0.194 C  
HETATM    2  C   UNL     1      -7.443  15.932  67.054  1.00  0.00    -0.254 C  
HETATM    3  C   UNL     1      -7.704  18.107  68.338  1.00  0.00    -0.303 C  
HETATM    4  C   UNL     1      -7.204  14.422  67.165  1.00  0.00     0.197 C  
HETATM    5  N   UNL     1      -8.109  13.766  68.116  1.00  0.00    -0.144 N  
HETATM    6  C   UNL     1      -8.191  14.390  69.447  1.00  0.00     0.220 C  
HETATM    7  C   UNL     1      -8.852  12.660  67.703  1.00  0.00    -0.184 C  
HETATM    8  O   UNL     1      -8.816  12.273  66.533  1.00  0.00    -0.197 OA 
HETATM    9  C   UNL     1      -8.524  15.901  69.374  1.00  0.00    -0.191 C  
ENDROOT
BRANCH   7  10
HETATM   10  C   UNL     1      -9.709  11.962  68.743  1.00  0.00    -0.051 C  
HETATM   11  C   UNL     1     -10.999  12.633  68.948  1.00  0.00    -0.229 C  
HETATM   12  N   UNL     1     -12.028  13.125  69.165  1.00  0.00    -0.302 NA 
ENDBRANCH   7  10
BRANCH   9  13
HETATM   13  N   UNL     1      -9.925  16.172  68.998  1.00  0.00    -0.229 NA 
HETATM   14  C   UNL     1     -11.022  16.341  69.937  1.00  0.00    -0.365 C  
BRANCH  13  15
HETATM   15  C   UNL     1     -10.226  16.444  67.669  1.00  0.00    -0.272 A  
HETATM   16  N   UNL     1     -10.372  15.413  66.795  1.00  0.00    -0.272 NA 
HETATM   17  C   UNL     1     -10.572  15.684  65.486  1.00  0.00    -0.404 A  
HETATM   18  N   UNL     1     -10.663  16.881  64.889  1.00  0.00    -0.727 NA 
HETATM   19  C   UNL     1     -10.558  17.874  65.780  1.00  0.00    -0.174 A  
HETATM   20  C   UNL     1     -10.357  17.756  67.146  1.00  0.00    -0.354 A  
HETATM   21  C   UNL     1     -10.365  19.087  67.665  1.00  0.00    -0.504 A  
HETATM   22  C   UNL     1     -10.521  19.960  66.609  1.00  0.00    -0.460 A  
HETATM   23  N   UNL     1     -10.632  19.206  65.469  1.00  0.00    -0.499 NA 
HETATM   24  H   UNL     1     -10.751  19.581  64.528  1.00  0.00     0.000 HD 
ENDBRANCH  13  15
ENDBRANCH   9  13
TORSDOF 3
ENDMDL
MODEL      221
REMARK 921   NORMALIZED FREE ENERGY PREDICTED BY IDOCK:   -2.71 KCAL/MOL
REMARK 922        TOTAL FREE ENERGY PREDICTED BY IDOCK:   -3.50 KCAL/MOL
REMARK 923 INTER-LIGAND FREE ENERGY PREDICTED BY IDOCK:   -3.68 KCAL/MOL
REMARK 924 INTRA-LIGAND FREE ENERGY PREDICTED BY IDOCK:    0.18 KCAL/MOL
REMARK 927      BINDING AFFINITY PREDICTED BY RF-SCORE:    0.00 PKD
ROOT
HETATM    1  C   UNL     1      -7.356   8.919  65.482  1.00  0.00    -0.085 C  
HETATM    2  C   UNL     1      -8.109   7.601  65.264  1.00  0.00    -0.133 C  
HETATM    3  C   UNL     1      -7.503   9.867  64.294  1.00  0.00    -0.136 C  
HETATM    4  C   UNL     1      -7.922   6.644  66.446  1.00  0.00    -0.106 C  
HETATM    5  N   UNL     1      -8.174   7.280  67.745  1.00  0.00    -0.118 N  
HETATM    6  C   UNL     1      -7.470   8.553  67.974  1.00  0.00    -0.097 C  
HETATM    7  C   UNL     1      -9.074   6.691  68.633  1.00  0.00    -0.126 C  
HETATM    8  O   UNL     1      -9.716   5.687  68.314  1.00  0.00    -0.120 OA 
HETATM    9  C   UNL     1      -7.713   9.578  66.840  1.00  0.00    -0.098 C  
ENDROOT
BRANCH   7  10
HETATM   10  C   UNL     1      -9.239   7.337  69.996  1.00  0.00    -0.148 C  
HETATM   11  C   UNL     1     -10.564   7.090  70.578  1.00  0.00    -0.224 C  
HETATM   12  N   UNL     1     -11.598   6.942  71.084  1.00  0.00    -0.300 NA 
ENDBRANCH   7  10
BRANCH   9  13
HETATM   13  N   UNL     1      -9.070  10.157  66.857  1.00  0.00    -0.142 NA 
HETATM   14  C   UNL     1     -10.301   9.404  66.681  1.00  0.00    -0.214 C  
BRANCH  13  15
HETATM   15  C   UNL     1      -9.229  11.490  67.217  1.00  0.00    -0.167 A  
HETATM   16  N   UNL     1     -10.481  12.011  67.310  1.00  0.00    -0.215 NA 
HETATM   17  C   UNL     1     -10.627  13.329  67.568  1.00  0.00    -0.246 A  
HETATM   18  N   UNL     1      -9.672  14.249  67.768  1.00  0.00    -0.218 NA 
HETATM   19  C   UNL     1      -8.453  13.699  67.712  1.00  0.00    -0.183 A  
HETATM   20  C   UNL     1      -8.144  12.371  67.463  1.00  0.00    -0.173 A  
HETATM   21  C   UNL     1      -6.722  12.269  67.557  1.00  0.00    -0.138 A  
HETATM   22  C   UNL     1      -6.217  13.527  67.811  1.00  0.00    -0.154 A  
HETATM   23  N   UNL     1      -7.283  14.386  67.897  1.00  0.00    -0.141 NA 
HETATM   24  H   UNL     1      -7.215  15.388  68.072  1.00  0.00     0.000 HD 
ENDBRANCH  13  15
ENDBRANCH   9  13
TORSDOF 3
ENDMDL
MODEL      222
REMARK 921   NORMALIZED FREE ENERGY PREDICTED BY IDOCK:   -2.65 KCAL/MOL
REMARK 922        TOTAL FREE ENERGY PREDICTED BY IDOCK:   -3.43 KCAL/MOL
REMARK 923 INTER-LIGAND FREE ENERGY PREDICTED BY IDOCK:   -2.97 KCAL/MOL
REMARK 924 INTRA-LIGAND FREE ENERGY PREDICTED BY IDOCK:   -0.47 KCAL/MOL
REMARK 927      BINDING AFFINITY PREDICTED BY RF-SCORE:    0.00 PKD
ROOT
HETATM    1  C   UNL     1      -6.728   9.513  67.991  1.00  0.00    -0.063 C  
HETATM    2  C   UNL     1      -6.688   9.820  69.494  1.00  0.00    -0.054 C  
HETATM    3  C   UNL     1      -5.341   9.202  67.432  1.00  0.00    -0.037 C  
HETATM    4  C   UNL     1      -8.080  10.166  70.033  1.00  0.00    -0.061 C  
HETATM    5  N   UNL     1      -9.108   9.196  69.638  1.00  0.00    -0.151 N  
HETATM    6  C   UNL     1      -9.159   8.878  68.201  1.00  0.00    -0.140 C  
HETATM    7  C   UNL     1      -9.912   8.613  70.617  1.00  0.00    -0.192 C  
HETATM    8  O   UNL     1      -9.723   8.843  71.814  1.00  0.00    -0.288 OA 
HETATM    9  C   UNL     1      -7.785   8.434  67.643  1.00  0.00    -0.099 C  
ENDROOT
BRANCH   7  10
HETATM   10  C   UNL     1     -11.017   7.681  70.153  1.00  0.00    -0.255 C  
HETATM   11  C   UNL     1     -10.779   6.288  70.552  1.00  0.00    -0.269 C  
HETATM   12  N   UNL     1     -10.641   5.168  70.825  1.00  0.00    -0.188 NA 
ENDBRANCH   7  10
BRANCH   9  13
HETATM   13  N   UNL     1      -7.388   7.080  68.078  1.00  0.00    -0.094 NA 
HETATM   14  C   UNL     1      -7.244   6.657  69.461  1.00  0.00    -0.082 C  
BRANCH  13  15
HETATM   15  C   UNL     1      -7.285   6.071  67.127  1.00  0.00    -0.075 A  
HETATM   16  N   UNL     1      -6.058   5.716  66.663  1.00  0.00    -0.028 NA 
HETATM   17  C   UNL     1      -5.970   4.800  65.673  1.00  0.00    -0.023 A  
HETATM   18  N   UNL     1      -6.963   4.146  65.053  1.00  0.00    -0.056 NA 
HETATM   19  C   UNL     1      -8.154   4.485  65.561  1.00  0.00    -0.109 A  
HETATM   20  C   UNL     1      -8.404   5.398  66.573  1.00  0.00    -0.109 A  
HETATM   21  C   UNL     1      -9.816   5.373  66.791  1.00  0.00    -0.190 A  
HETATM   22  C   UNL     1     -10.375   4.493  65.888  1.00  0.00    -0.258 A  
HETATM   23  N   UNL     1      -9.351   3.967  65.144  1.00  0.00    -0.148 NA 
HETATM   24  H   UNL     1      -9.464   3.288  64.390  1.00  0.00     0.000 HD 
ENDBRANCH  13  15
ENDBRANCH   9  13
TORSDOF 3
ENDMDL
MODEL      223
REMARK 921   NORMALIZED FREE ENERGY PREDICTED BY IDOCK:   -2.60 KCAL/MOL
REMARK 922        TOTAL FREE ENERGY PREDICTED BY IDOCK:   -3.37 KCAL/MOL
REMARK 923 INTER-LIGAND FREE ENERGY PREDICTED BY IDOCK:   -5.64 KCAL/MOL
REMARK 924 INTRA-LIGAND FREE ENERGY PREDICTED BY IDOCK:    2.26 KCAL/MOL
REMARK 927      BINDING AFFINITY PREDICTED BY RF-SCORE:    0.00 PKD
ROOT
HETATM    1  C   UNL     1      -9.804  19.376  67.281  1.00  0.00    -0.445 C  
HETATM    2  C   UNL     1      -9.746  18.974  68.761  1.00  0.00    -0.473 C  
HETATM    3  C   UNL     1      -9.286  20.795  67.053  1.00  0.00    -0.314 C  
HETATM    4  C   UNL     1     -10.303  17.564  68.981  1.00  0.00    -0.303 C  
HETATM    5  N   UNL     1      -9.737  16.572  68.060  1.00  0.00    -0.233 N  
HETATM    6  C   UNL     1      -9.771  16.939  66.634  1.00  0.00    -0.271 C  
HETATM    7  C   UNL     1      -9.172  15.404  68.573  1.00  0.00    -0.198 C  
HETATM    8  O   UNL     1      -9.074  15.228  69.789  1.00  0.00    -0.203 OA 
HETATM    9  C   UNL     1      -9.131  18.323  66.364  1.00  0.00    -0.249 C  
ENDROOT
BRANCH   7  10
HETATM   10  C   UNL     1      -8.676  14.370  67.579  1.00  0.00    -0.203 C  
HETATM   11  C   UNL     1      -7.211  14.304  67.522  1.00  0.00    -0.176 C  
HETATM   12  N   UNL     1      -6.058  14.214  67.421  1.00  0.00    -0.317 NA 
ENDBRANCH   7  10
BRANCH   9  13
HETATM   13  N   UNL     1      -7.660  18.318  66.477  1.00  0.00    -0.230 NA 
HETATM   14  C   UNL     1      -6.757  17.605  65.589  1.00  0.00     0.008 C  
BRANCH  13  15
HETATM   15  C   UNL     1      -7.052  19.167  67.395  1.00  0.00    -0.208 A  
HETATM   16  N   UNL     1      -6.900  20.483  67.086  1.00  0.00    -0.268 NA 
HETATM   17  C   UNL     1      -6.227  21.284  67.941  1.00  0.00    -0.270 A  
HETATM   18  N   UNL     1      -5.664  20.963  69.115  1.00  0.00    -0.359 NA 
HETATM   19  C   UNL     1      -5.867  19.674  69.411  1.00  0.00    -0.250 A  
HETATM   20  C   UNL     1      -6.537  18.734  68.643  1.00  0.00    -0.273 A  
HETATM   21  C   UNL     1      -6.531  17.523  69.403  1.00  0.00    -0.230 A  
HETATM   22  C   UNL     1      -5.829  17.750  70.568  1.00  0.00     0.044 A  
HETATM   23  N   UNL     1      -5.427  19.061  70.554  1.00  0.00    -0.220 NA 
HETATM   24  H   UNL     1      -4.881  19.514  71.287  1.00  0.00     0.000 HD 
ENDBRANCH  13  15
ENDBRANCH   9  13
TORSDOF 3
ENDMDL
MODEL      224
REMARK 921   NORMALIZED FREE ENERGY PREDICTED BY IDOCK:   -2.59 KCAL/MOL
REMARK 922        TOTAL FREE ENERGY PREDICTED BY IDOCK:   -3.36 KCAL/MOL
REMARK 923 INTER-LIGAND FREE ENERGY PREDICTED BY IDOCK:   -3.24 KCAL/MOL
REMARK 924 INTRA-LIGAND FREE ENERGY PREDICTED BY IDOCK:   -0.12 KCAL/MOL
REMARK 927      BINDING AFFINITY PREDICTED BY RF-SCORE:    0.00 PKD
ROOT
HETATM    1  C   UNL     1      -6.759   3.846  68.609  1.00  0.00    -0.046 C  
HETATM    2  C   UNL     1      -7.017   3.455  67.148  1.00  0.00    -0.057 C  
HETATM    3  C   UNL     1      -5.269   4.008  68.903  1.00  0.00    -0.011 C  
HETATM    4  C   UNL     1      -8.512   3.259  66.874  1.00  0.00    -0.102 C  
HETATM    5  N   UNL     1      -9.336   4.372  67.361  1.00  0.00    -0.144 N  
HETATM    6  C   UNL     1      -9.099   4.772  68.757  1.00  0.00    -0.112 C  
HETATM    7  C   UNL     1     -10.226   4.998  66.487  1.00  0.00    -0.271 C  
HETATM    8  O   UNL     1     -10.276   4.680  65.297  1.00  0.00    -0.168 OA 
HETATM    9  C   UNL     1      -7.607   5.068  69.044  1.00  0.00    -0.072 C  
ENDROOT
BRANCH   7  10
HETATM   10  C   UNL     1     -11.117   6.087  67.056  1.00  0.00    -0.263 C  
HETATM   11  C   UNL     1     -10.548   7.428  66.877  1.00  0.00    -0.305 C  
HETATM   12  N   UNL     1     -10.144   8.512  66.779  1.00  0.00    -0.277 NA 
ENDBRANCH   7  10
BRANCH   9  13
HETATM   13  N   UNL     1      -7.138   6.334  68.449  1.00  0.00    -0.080 NA 
HETATM   14  C   UNL     1      -6.948   6.567  67.026  1.00  0.00    -0.068 C  
BRANCH  13  15
HETATM   15  C   UNL     1      -7.004   7.453  69.263  1.00  0.00    -0.065 A  
HETATM   16  N   UNL     1      -5.809   8.098  69.318  1.00  0.00    -0.033 NA 
HETATM   17  C   UNL     1      -5.657   9.127  70.180  1.00  0.00    -0.031 A  
HETATM   18  N   UNL     1      -6.560   9.643  71.027  1.00  0.00    -0.251 NA 
HETATM   19  C   UNL     1      -7.737   9.016  70.919  1.00  0.00    -0.128 A  
HETATM   20  C   UNL     1      -8.047   7.955  70.084  1.00  0.00    -0.116 A  
HETATM   21  C   UNL     1      -9.432   7.673  70.295  1.00  0.00    -0.161 A  
HETATM   22  C   UNL     1      -9.900   8.529  71.270  1.00  0.00    -0.216 A  
HETATM   23  N   UNL     1      -8.856   9.335  71.643  1.00  0.00    -0.258 NA 
HETATM   24  H   UNL     1      -8.903  10.065  72.354  1.00  0.00     0.000 HD 
ENDBRANCH  13  15
ENDBRANCH   9  13
TORSDOF 3
ENDMDL
MODEL      225
REMARK 921   NORMALIZED FREE ENERGY PREDICTED BY IDOCK:   -2.58 KCAL/MOL
REMARK 922        TOTAL FREE ENERGY PREDICTED BY IDOCK:   -3.35 KCAL/MOL
REMARK 923 INTER-LIGAND FREE ENERGY PREDICTED BY IDOCK:   -3.15 KCAL/MOL
REMARK 924 INTRA-LIGAND FREE ENERGY PREDICTED BY IDOCK:   -0.20 KCAL/MOL
REMARK 927      BINDING AFFINITY PREDICTED BY RF-SCORE:    0.00 PKD
ROOT
HETATM    1  C   UNL     1     -10.537   7.244  67.827  1.00  0.00    -0.289 C  
HETATM    2  C   UNL     1     -10.299   8.538  67.037  1.00  0.00    -0.379 C  
HETATM    3  C   UNL     1     -10.975   6.094  66.922  1.00  0.00    -0.384 C  
HETATM    4  C   UNL     1      -9.896   9.693  67.960  1.00  0.00    -0.150 C  
HETATM    5  N   UNL     1      -8.814   9.339  68.885  1.00  0.00    -0.134 N  
HETATM    6  C   UNL     1      -9.014   8.095  69.647  1.00  0.00    -0.154 C  
HETATM    7  C   UNL     1      -7.676  10.143  68.948  1.00  0.00    -0.093 C  
HETATM    8  O   UNL     1      -7.533  11.102  68.187  1.00  0.00    -0.086 OA 
HETATM    9  C   UNL     1      -9.333   6.886  68.735  1.00  0.00    -0.129 C  
ENDROOT
BRANCH   7  10
HETATM   10  C   UNL     1      -6.621   9.786  69.979  1.00  0.00    -0.081 C  
HETATM   11  C   UNL     1      -6.020  10.972  70.601  1.00  0.00    -0.079 C  
HETATM   12  N   UNL     1      -5.497  11.870  71.119  1.00  0.00    -0.344 NA 
ENDBRANCH   7  10
BRANCH   9  13
HETATM   13  N   UNL     1      -8.163   6.404  67.974  1.00  0.00    -0.115 NA 
HETATM   14  C   UNL     1      -7.465   7.162  66.949  1.00  0.00    -0.100 C  
BRANCH  13  15
HETATM   15  C   UNL     1      -7.566   5.204  68.345  1.00  0.00    -0.079 A  
HETATM   16  N   UNL     1      -6.568   5.214  69.268  1.00  0.00    -0.045 NA 
HETATM   17  C   UNL     1      -5.928   4.060  69.556  1.00  0.00    -0.023 A  
HETATM   18  N   UNL     1      -6.148   2.838  69.049  1.00  0.00    -0.024 NA 
HETATM   19  C   UNL     1      -7.162   2.852  68.176  1.00  0.00    -0.049 A  
HETATM   20  C   UNL     1      -7.913   3.949  67.783  1.00  0.00    -0.089 A  
HETATM   21  C   UNL     1      -8.902   3.451  66.880  1.00  0.00    -0.149 A  
HETATM   22  C   UNL     1      -8.695   2.096  66.720  1.00  0.00    -0.120 A  
HETATM   23  N   UNL     1      -7.629   1.750  67.511  1.00  0.00    -0.058 NA 
HETATM   24  H   UNL     1      -7.241   0.810  67.592  1.00  0.00     0.000 HD 
ENDBRANCH  13  15
ENDBRANCH   9  13
TORSDOF 3
ENDMDL
MODEL      226
REMARK 921   NORMALIZED FREE ENERGY PREDICTED BY IDOCK:   -2.56 KCAL/MOL
REMARK 922        TOTAL FREE ENERGY PREDICTED BY IDOCK:   -3.32 KCAL/MOL
REMARK 923 INTER-LIGAND FREE ENERGY PREDICTED BY IDOCK:   -5.47 KCAL/MOL
REMARK 924 INTRA-LIGAND FREE ENERGY PREDICTED BY IDOCK:    2.15 KCAL/MOL
REMARK 927      BINDING AFFINITY PREDICTED BY RF-SCORE:    0.00 PKD
ROOT
HETATM    1  C   UNL     1      -7.255  17.891  68.212  1.00  0.00    -0.236 C  
HETATM    2  C   UNL     1      -8.683  18.449  68.151  1.00  0.00    -0.318 C  
HETATM    3  C   UNL     1      -6.606  18.123  69.575  1.00  0.00    -0.149 C  
HETATM    4  C   UNL     1      -9.309  18.243  66.768  1.00  0.00    -0.295 C  
HETATM    5  N   UNL     1      -9.172  16.867  66.275  1.00  0.00    -0.275 N  
HETATM    6  C   UNL     1      -7.813  16.305  66.332  1.00  0.00    -0.214 C  
HETATM    7  C   UNL     1     -10.307  16.178  65.846  1.00  0.00    -0.367 C  
HETATM    8  O   UNL     1     -11.429  16.679  65.944  1.00  0.00     0.471 OA 
HETATM    9  C   UNL     1      -7.185  16.415  67.743  1.00  0.00    -0.138 C  
ENDROOT
BRANCH   7  10
HETATM   10  C   UNL     1     -10.106  14.790  65.265  1.00  0.00    -0.388 C  
HETATM   11  C   UNL     1     -11.338  14.241  64.686  1.00  0.00    -0.373 C  
HETATM   12  N   UNL     1     -12.282  13.746  64.224  1.00  0.00    -0.575 NA 
ENDBRANCH   7  10
BRANCH   9  13
HETATM   13  N   UNL     1      -7.772  15.475  68.718  1.00  0.00    -0.147 NA 
HETATM   14  C   UNL     1      -7.017  14.702  69.691  1.00  0.00    -0.149 C  
BRANCH  13  15
HETATM   15  C   UNL     1      -9.155  15.412  68.844  1.00  0.00    -0.218 A  
HETATM   16  N   UNL     1      -9.825  16.475  69.362  1.00  0.00    -0.203 NA 
HETATM   17  C   UNL     1     -11.157  16.374  69.569  1.00  0.00    -0.293 A  
HETATM   18  N   UNL     1     -11.962  15.331  69.318  1.00  0.00    -0.317 NA 
HETATM   19  C   UNL     1     -11.281  14.317  68.771  1.00  0.00    -0.262 A  
HETATM   20  C   UNL     1      -9.924  14.272  68.495  1.00  0.00    -0.235 A  
HETATM   21  C   UNL     1      -9.687  13.008  67.872  1.00  0.00    -0.218 A  
HETATM   22  C   UNL     1     -10.880  12.317  67.833  1.00  0.00    -0.218 A  
HETATM   23  N   UNL     1     -11.838  13.126  68.389  1.00  0.00    -0.350 NA 
HETATM   24  H   UNL     1     -12.821  12.877  68.501  1.00  0.00     0.000 HD 
ENDBRANCH  13  15
ENDBRANCH   9  13
TORSDOF 3
ENDMDL
MODEL      227
REMARK 921   NORMALIZED FREE ENERGY PREDICTED BY IDOCK:   -2.52 KCAL/MOL
REMARK 922        TOTAL FREE ENERGY PREDICTED BY IDOCK:   -3.28 KCAL/MOL
REMARK 923 INTER-LIGAND FREE ENERGY PREDICTED BY IDOCK:   -3.22 KCAL/MOL
REMARK 924 INTRA-LIGAND FREE ENERGY PREDICTED BY IDOCK:   -0.07 KCAL/MOL
REMARK 927      BINDING AFFINITY PREDICTED BY RF-SCORE:    0.00 PKD
ROOT
HETATM    1  C   UNL     1      -7.136   7.722  68.867  1.00  0.00    -0.075 C  
HETATM    2  C   UNL     1      -6.613   8.589  70.020  1.00  0.00    -0.038 C  
HETATM    3  C   UNL     1      -6.003   7.043  68.101  1.00  0.00    -0.029 C  
HETATM    4  C   UNL     1      -7.756   9.293  70.758  1.00  0.00    -0.139 C  
HETATM    5  N   UNL     1      -8.848   8.384  71.127  1.00  0.00    -0.149 N  
HETATM    6  C   UNL     1      -9.361   7.535  70.039  1.00  0.00    -0.154 C  
HETATM    7  C   UNL     1      -9.285   8.342  72.451  1.00  0.00    -0.256 C  
HETATM    8  O   UNL     1      -8.719   8.999  73.328  1.00  0.00    -0.046 OA 
HETATM    9  C   UNL     1      -8.239   6.737  69.332  1.00  0.00    -0.128 C  
ENDROOT
BRANCH   7  10
HETATM   10  C   UNL     1     -10.472   7.451  72.770  1.00  0.00    -0.323 C  
HETATM   11  C   UNL     1     -11.756   8.136  72.574  1.00  0.00    -0.394 C  
HETATM   12  N   UNL     1     -12.801   8.627  72.452  1.00  0.00    -0.381 NA 
ENDBRANCH   7  10
BRANCH   9  13
HETATM   13  N   UNL     1      -7.710   5.626  70.147  1.00  0.00    -0.084 NA 
HETATM   14  C   UNL     1      -6.722   5.764  71.204  1.00  0.00    -0.057 C  
BRANCH  13  15
HETATM   15  C   UNL     1      -8.288   4.367  70.025  1.00  0.00    -0.062 A  
HETATM   16  N   UNL     1      -8.203   3.707  68.840  1.00  0.00    -0.064 NA 
HETATM   17  C   UNL     1      -8.845   2.526  68.699  1.00  0.00    -0.107 A  
HETATM   18  N   UNL     1      -9.584   1.867  69.603  1.00  0.00    -0.037 NA 
HETATM   19  C   UNL     1      -9.613   2.520  70.771  1.00  0.00    -0.105 A  
HETATM   20  C   UNL     1      -9.006   3.730  71.070  1.00  0.00    -0.158 A  
HETATM   21  C   UNL     1      -9.283   3.984  72.448  1.00  0.00    -0.153 A  
HETATM   22  C   UNL     1     -10.076   2.960  72.923  1.00  0.00    -0.142 A  
HETATM   23  N   UNL     1     -10.272   2.082  71.889  1.00  0.00    -0.135 NA 
HETATM   24  H   UNL     1     -10.826   1.227  71.944  1.00  0.00     0.000 HD 
ENDBRANCH  13  15
ENDBRANCH   9  13
TORSDOF 3
ENDMDL
MODEL      228
REMARK 921   NORMALIZED FREE ENERGY PREDICTED BY IDOCK:   -2.51 KCAL/MOL
REMARK 922        TOTAL FREE ENERGY PREDICTED BY IDOCK:   -3.26 KCAL/MOL
REMARK 923 INTER-LIGAND FREE ENERGY PREDICTED BY IDOCK:   -2.95 KCAL/MOL
REMARK 924 INTRA-LIGAND FREE ENERGY PREDICTED BY IDOCK:   -0.31 KCAL/MOL
REMARK 927      BINDING AFFINITY PREDICTED BY RF-SCORE:    0.00 PKD
ROOT
HETATM    1  C   UNL     1      -7.924   4.226  67.774  1.00  0.00    -0.087 C  
HETATM    2  C   UNL     1      -7.168   5.053  66.727  1.00  0.00    -0.077 C  
HETATM    3  C   UNL     1      -6.975   3.454  68.689  1.00  0.00    -0.049 C  
HETATM    4  C   UNL     1      -8.131   5.794  65.793  1.00  0.00    -0.116 C  
HETATM    5  N   UNL     1      -9.175   6.533  66.513  1.00  0.00    -0.154 N  
HETATM    6  C   UNL     1      -9.909   5.762  67.531  1.00  0.00    -0.130 C  
HETATM    7  C   UNL     1      -9.369   7.886  66.238  1.00  0.00    -0.164 C  
HETATM    8  O   UNL     1      -8.630   8.488  65.456  1.00  0.00    -0.163 OA 
HETATM    9  C   UNL     1      -8.965   5.075  68.548  1.00  0.00    -0.107 C  
ENDROOT
BRANCH   7  10
HETATM   10  C   UNL     1     -10.515   8.588  66.943  1.00  0.00    -0.345 C  
HETATM   11  C   UNL     1     -10.078   9.788  67.667  1.00  0.00    -0.190 C  
HETATM   12  N   UNL     1      -9.792  10.738  68.270  1.00  0.00    -0.161 NA 
ENDBRANCH   7  10
BRANCH   9  13
HETATM   13  N   UNL     1      -8.345   6.019  69.498  1.00  0.00    -0.114 NA 
HETATM   14  C   UNL     1      -7.545   7.174  69.124  1.00  0.00    -0.099 C  
BRANCH  13  15
HETATM   15  C   UNL     1      -8.652   5.913  70.850  1.00  0.00    -0.131 A  
HETATM   16  N   UNL     1      -9.944   6.049  71.252  1.00  0.00    -0.181 NA 
HETATM   17  C   UNL     1     -10.225   6.039  72.573  1.00  0.00    -0.186 A  
HETATM   18  N   UNL     1      -9.378   5.897  73.603  1.00  0.00    -0.134 NA 
HETATM   19  C   UNL     1      -8.122   5.724  73.175  1.00  0.00    -0.117 A  
HETATM   20  C   UNL     1      -7.680   5.706  71.861  1.00  0.00    -0.105 A  
HETATM   21  C   UNL     1      -6.277   5.440  71.918  1.00  0.00    -0.034 A  
HETATM   22  C   UNL     1      -5.909   5.352  73.244  1.00  0.00    -0.024 A  
HETATM   23  N   UNL     1      -7.042   5.533  73.995  1.00  0.00    -0.081 NA 
HETATM   24  H   UNL     1      -7.076   5.526  75.014  1.00  0.00     0.000 HD 
ENDBRANCH  13  15
ENDBRANCH   9  13
TORSDOF 3
ENDMDL
MODEL      229
REMARK 921   NORMALIZED FREE ENERGY PREDICTED BY IDOCK:   -2.50 KCAL/MOL
REMARK 922        TOTAL FREE ENERGY PREDICTED BY IDOCK:   -3.25 KCAL/MOL
REMARK 923 INTER-LIGAND FREE ENERGY PREDICTED BY IDOCK:   -3.33 KCAL/MOL
REMARK 924 INTRA-LIGAND FREE ENERGY PREDICTED BY IDOCK:    0.08 KCAL/MOL
REMARK 927      BINDING AFFINITY PREDICTED BY RF-SCORE:    0.00 PKD
ROOT
HETATM    1  C   UNL     1     -10.620   7.499  68.391  1.00  0.00    -0.177 C  
HETATM    2  C   UNL     1     -10.526   7.974  66.935  1.00  0.00    -0.387 C  
HETATM    3  C   UNL     1     -10.538   5.977  68.504  1.00  0.00    -0.325 C  
HETATM    4  C   UNL     1     -10.647   9.498  66.833  1.00  0.00    -0.171 C  
HETATM    5  N   UNL     1      -9.762  10.209  67.764  1.00  0.00    -0.151 N  
HETATM    6  C   UNL     1      -9.827   9.764  69.165  1.00  0.00    -0.188 C  
HETATM    7  C   UNL     1      -8.903  11.193  67.274  1.00  0.00    -0.144 C  
HETATM    8  O   UNL     1      -8.822  11.422  66.065  1.00  0.00    -0.203 OA 
HETATM    9  C   UNL     1      -9.616   8.237  69.313  1.00  0.00    -0.164 C  
ENDROOT
BRANCH   7  10
HETATM   10  C   UNL     1      -8.068  11.960  68.284  1.00  0.00    -0.154 C  
HETATM   11  C   UNL     1      -6.652  12.031  67.902  1.00  0.00    -0.076 C  
HETATM   12  N   UNL     1      -5.519  12.111  67.663  1.00  0.00    -0.081 NA 
ENDBRANCH   7  10
BRANCH   9  13
HETATM   13  N   UNL     1      -8.218   7.817  69.092  1.00  0.00    -0.128 NA 
HETATM   14  C   UNL     1      -7.406   8.193  67.946  1.00  0.00    -0.096 C  
BRANCH  13  15
HETATM   15  C   UNL     1      -7.550   7.139  70.105  1.00  0.00    -0.091 A  
HETATM   16  N   UNL     1      -6.558   6.268  69.782  1.00  0.00    -0.043 NA 
HETATM   17  C   UNL     1      -5.976   5.543  70.762  1.00  0.00    -0.025 A  
HETATM   18  N   UNL     1      -6.236   5.561  72.077  1.00  0.00    -0.037 NA 
HETATM   19  C   UNL     1      -7.186   6.457  72.369  1.00  0.00    -0.083 A  
HETATM   20  C   UNL     1      -7.869   7.273  71.481  1.00  0.00    -0.092 A  
HETATM   21  C   UNL     1      -8.739   8.083  72.274  1.00  0.00    -0.220 A  
HETATM   22  C   UNL     1      -8.592   7.708  73.593  1.00  0.00    -0.213 A  
HETATM   23  N   UNL     1      -7.649   6.714  73.632  1.00  0.00    -0.083 NA 
HETATM   24  H   UNL     1      -7.337   6.236  74.478  1.00  0.00     0.000 HD 
ENDBRANCH  13  15
ENDBRANCH   9  13
TORSDOF 3
ENDMDL
MODEL      230
REMARK 921   NORMALIZED FREE ENERGY PREDICTED BY IDOCK:   -2.49 KCAL/MOL
REMARK 922        TOTAL FREE ENERGY PREDICTED BY IDOCK:   -3.25 KCAL/MOL
REMARK 923 INTER-LIGAND FREE ENERGY PREDICTED BY IDOCK:   -5.47 KCAL/MOL
REMARK 924 INTRA-LIGAND FREE ENERGY PREDICTED BY IDOCK:    2.22 KCAL/MOL
REMARK 927      BINDING AFFINITY PREDICTED BY RF-SCORE:    0.00 PKD
ROOT
HETATM    1  C   UNL     1      -7.147  14.366  68.976  1.00  0.00    -0.120 C  
HETATM    2  C   UNL     1      -7.237  14.302  67.446  1.00  0.00    -0.137 C  
HETATM    3  C   UNL     1      -5.755  13.997  69.484  1.00  0.00    -0.092 C  
HETATM    4  C   UNL     1      -8.648  14.639  66.951  1.00  0.00    -0.204 C  
HETATM    5  N   UNL     1      -9.185  15.871  67.541  1.00  0.00    -0.206 N  
HETATM    6  C   UNL     1      -9.101  15.960  69.008  1.00  0.00    -0.240 C  
HETATM    7  C   UNL     1      -9.678  16.872  66.704  1.00  0.00    -0.271 C  
HETATM    8  O   UNL     1      -9.601  16.770  65.477  1.00  0.00    -0.515 OA 
HETATM    9  C   UNL     1      -7.666  15.716  69.535  1.00  0.00    -0.185 C  
ENDROOT
BRANCH   7  10
HETATM   10  C   UNL     1     -10.301  18.091  67.360  1.00  0.00    -0.391 C  
HETATM   11  C   UNL     1     -10.554  19.175  66.403  1.00  0.00    -0.435 C  
HETATM   12  N   UNL     1     -10.765  20.074  65.699  1.00  0.00    -0.355 NA 
ENDBRANCH   7  10
BRANCH   9  13
HETATM   13  N   UNL     1      -6.747  16.840  69.268  1.00  0.00    -0.223 NA 
HETATM   14  C   UNL     1      -5.735  17.327  70.191  1.00  0.00    -0.225 C  
BRANCH  13  15
HETATM   15  C   UNL     1      -6.716  17.396  67.994  1.00  0.00    -0.179 A  
HETATM   16  N   UNL     1      -6.278  16.645  66.950  1.00  0.00    -0.234 NA 
HETATM   17  C   UNL     1      -6.162  17.219  65.732  1.00  0.00     0.347 A  
HETATM   18  N   UNL     1      -6.438  18.482  65.377  1.00  0.00    -0.390 NA 
HETATM   19  C   UNL     1      -6.907  19.184  66.416  1.00  0.00    -0.207 A  
HETATM   20  C   UNL     1      -7.085  18.737  67.715  1.00  0.00    -0.237 A  
HETATM   21  C   UNL     1      -7.653  19.832  68.437  1.00  0.00    -0.336 A  
HETATM   22  C   UNL     1      -7.756  20.906  67.578  1.00  0.00    -0.175 A  
HETATM   23  N   UNL     1      -7.292  20.497  66.355  1.00  0.00    -0.458 NA 
HETATM   24  H   UNL     1      -7.242  21.082  65.521  1.00  0.00     0.000 HD 
ENDBRANCH  13  15
ENDBRANCH   9  13
TORSDOF 3
ENDMDL
MODEL      231
REMARK 921   NORMALIZED FREE ENERGY PREDICTED BY IDOCK:   -2.49 KCAL/MOL
REMARK 922        TOTAL FREE ENERGY PREDICTED BY IDOCK:   -3.24 KCAL/MOL
REMARK 923 INTER-LIGAND FREE ENERGY PREDICTED BY IDOCK:   -3.50 KCAL/MOL
REMARK 924 INTRA-LIGAND FREE ENERGY PREDICTED BY IDOCK:    0.26 KCAL/MOL
REMARK 927      BINDING AFFINITY PREDICTED BY RF-SCORE:    0.00 PKD
ROOT
HETATM    1  C   UNL     1      -7.442  11.657  67.503  1.00  0.00    -0.123 C  
HETATM    2  C   UNL     1      -8.570  10.916  66.774  1.00  0.00    -0.137 C  
HETATM    3  C   UNL     1      -6.214  11.848  66.615  1.00  0.00     0.056 C  
HETATM    4  C   UNL     1      -9.781  10.697  67.686  1.00  0.00    -0.165 C  
HETATM    5  N   UNL     1     -10.206  11.920  68.380  1.00  0.00    -0.201 N  
HETATM    6  C   UNL     1      -9.139  12.654  69.080  1.00  0.00     0.513 C  
HETATM    7  C   UNL     1     -11.537  12.328  68.295  1.00  0.00    -0.331 C  
HETATM    8  O   UNL     1     -12.344  11.720  67.587  1.00  0.00    -0.327 OA 
HETATM    9  C   UNL     1      -7.936  12.972  68.158  1.00  0.00    -0.154 C  
ENDROOT
BRANCH   7  10
HETATM   10  C   UNL     1     -11.949  13.549  69.097  1.00  0.00    -0.378 C  
HETATM   11  C   UNL     1     -12.532  13.195  70.397  1.00  0.00    -0.210 C  
HETATM   12  N   UNL     1     -13.013  12.979  71.431  1.00  0.00    -0.334 NA 
ENDBRANCH   7  10
BRANCH   9  13
HETATM   13  N   UNL     1      -8.221  14.033  67.172  1.00  0.00    -0.163 NA 
HETATM   14  C   UNL     1      -9.168  13.919  66.075  1.00  0.00     0.077 C  
BRANCH  13  15
HETATM   15  C   UNL     1      -7.676  15.297  67.366  1.00  0.00    -0.197 A  
HETATM   16  N   UNL     1      -7.855  16.253  66.417  1.00  0.00    -0.266 NA 
HETATM   17  C   UNL     1      -7.246  17.450  66.566  1.00  0.00    -0.270 A  
HETATM   18  N   UNL     1      -6.457  17.863  67.568  1.00  0.00    -0.166 NA 
HETATM   19  C   UNL     1      -6.334  16.916  68.507  1.00  0.00    -0.152 A  
HETATM   20  C   UNL     1      -6.897  15.650  68.498  1.00  0.00    -0.115 A  
HETATM   21  C   UNL     1      -6.519  15.039  69.733  1.00  0.00    -0.163 A  
HETATM   22  C   UNL     1      -5.712  15.921  70.421  1.00  0.00    -0.110 A  
HETATM   23  N   UNL     1      -5.605  17.056  69.659  1.00  0.00    -0.184 NA 
HETATM   24  H   UNL     1      -5.064  17.882  69.911  1.00  0.00     0.000 HD 
ENDBRANCH  13  15
ENDBRANCH   9  13
TORSDOF 3
ENDMDL
MODEL      232
REMARK 921   NORMALIZED FREE ENERGY PREDICTED BY IDOCK:   -2.38 KCAL/MOL
REMARK 922        TOTAL FREE ENERGY PREDICTED BY IDOCK:   -3.12 KCAL/MOL
REMARK 923 INTER-LIGAND FREE ENERGY PREDICTED BY IDOCK:   -5.55 KCAL/MOL
REMARK 924 INTRA-LIGAND FREE ENERGY PREDICTED BY IDOCK:    2.43 KCAL/MOL
REMARK 927      BINDING AFFINITY PREDICTED BY RF-SCORE:    0.00 PKD
ROOT
HETATM    1  C   UNL     1      -7.489   8.938  68.527  1.00  0.00    -0.085 C  
HETATM    2  C   UNL     1      -7.765  10.418  68.822  1.00  0.00    -0.104 C  
HETATM    3  C   UNL     1      -7.511   8.088  69.797  1.00  0.00    -0.089 C  
HETATM    4  C   UNL     1      -7.704  11.266  67.547  1.00  0.00    -0.122 C  
HETATM    5  N   UNL     1      -8.498  10.706  66.446  1.00  0.00    -0.146 N  
HETATM    6  C   UNL     1      -8.258   9.284  66.151  1.00  0.00    -0.111 C  
HETATM    7  C   UNL     1      -9.438  11.511  65.802  1.00  0.00    -0.234 C  
HETATM    8  O   UNL     1      -9.664  12.659  66.191  1.00  0.00    -0.256 OA 
HETATM    9  C   UNL     1      -8.403   8.386  67.404  1.00  0.00    -0.124 C  
ENDROOT
BRANCH   7  10
HETATM   10  C   UNL     1     -10.174  10.916  64.615  1.00  0.00    -0.411 C  
HETATM   11  C   UNL     1     -11.287  11.761  64.164  1.00  0.00    -0.352 C  
HETATM   12  N   UNL     1     -12.187  12.378  63.769  1.00  0.00    -0.493 NA 
ENDBRANCH   7  10
BRANCH   9  13
HETATM   13  N   UNL     1      -9.803   8.210  67.837  1.00  0.00    -0.161 NA 
HETATM   14  C   UNL     1     -10.825   7.499  67.086  1.00  0.00    -0.228 C  
BRANCH  13  15
HETATM   15  C   UNL     1     -10.167   8.608  69.118  1.00  0.00    -0.208 A  
HETATM   16  N   UNL     1      -9.940   7.772  70.165  1.00  0.00    -0.185 NA 
HETATM   17  C   UNL     1     -10.380   8.123  71.394  1.00  0.00    -0.208 A  
HETATM   18  N   UNL     1     -11.031   9.238  71.757  1.00  0.00    -0.364 NA 
HETATM   19  C   UNL     1     -11.202  10.059  70.715  1.00  0.00    -0.352 A  
HETATM   20  C   UNL     1     -10.806   9.842  69.404  1.00  0.00    -0.265 A  
HETATM   21  C   UNL     1     -11.163  11.021  68.681  1.00  0.00    -0.322 A  
HETATM   22  C   UNL     1     -11.796  11.884  69.551  1.00  0.00    -0.331 A  
HETATM   23  N   UNL     1     -11.816  11.281  70.782  1.00  0.00    -0.397 NA 
HETATM   24  H   UNL     1     -12.228  11.683  71.624  1.00  0.00     0.000 HD 
ENDBRANCH  13  15
ENDBRANCH   9  13
TORSDOF 3
ENDMDL
MODEL      233
REMARK 921   NORMALIZED FREE ENERGY PREDICTED BY IDOCK:   -2.33 KCAL/MOL
REMARK 922        TOTAL FREE ENERGY PREDICTED BY IDOCK:   -3.05 KCAL/MOL
REMARK 923 INTER-LIGAND FREE ENERGY PREDICTED BY IDOCK:   -5.70 KCAL/MOL
REMARK 924 INTRA-LIGAND FREE ENERGY PREDICTED BY IDOCK:    2.65 KCAL/MOL
REMARK 927      BINDING AFFINITY PREDICTED BY RF-SCORE:    0.00 PKD
ROOT
HETATM    1  C   UNL     1      -9.395  19.812  67.780  1.00  0.00    -0.443 C  
HETATM    2  C   UNL     1      -9.620  18.626  68.727  1.00  0.00    -0.383 C  
HETATM    3  C   UNL     1      -8.317  20.763  68.298  1.00  0.00     0.482 C  
HETATM    4  C   UNL     1     -10.729  17.701  68.216  1.00  0.00    -0.280 C  
HETATM    5  N   UNL     1     -10.562  17.329  66.805  1.00  0.00    -0.247 N  
HETATM    6  C   UNL     1     -10.335  18.449  65.878  1.00  0.00    -0.301 C  
HETATM    7  C   UNL     1     -10.575  15.981  66.446  1.00  0.00    -0.284 C  
HETATM    8  O   UNL     1     -10.649  15.097  67.302  1.00  0.00    -0.274 OA 
HETATM    9  C   UNL     1      -9.158  19.354  66.318  1.00  0.00    -0.346 C  
ENDROOT
BRANCH   7  10
HETATM   10  C   UNL     1     -10.485  15.648  64.968  1.00  0.00    -0.364 C  
HETATM   11  C   UNL     1     -11.698  14.992  64.466  1.00  0.00    -0.368 C  
HETATM   12  N   UNL     1     -12.623  14.458  64.013  1.00  0.00    -0.784 NA 
ENDBRANCH   7  10
BRANCH   9  13
HETATM   13  N   UNL     1      -7.836  18.730  66.119  1.00  0.00    -0.398 NA 
HETATM   14  C   UNL     1      -6.886  19.101  65.082  1.00  0.00    -0.021 C  
BRANCH  13  15
HETATM   15  C   UNL     1      -7.369  17.825  67.065  1.00  0.00    -0.194 A  
HETATM   16  N   UNL     1      -7.748  16.522  66.984  1.00  0.00    -0.186 NA 
HETATM   17  C   UNL     1      -7.368  15.665  67.957  1.00  0.00    -0.127 A  
HETATM   18  N   UNL     1      -6.624  15.918  69.044  1.00  0.00    -0.133 NA 
HETATM   19  C   UNL     1      -6.231  17.197  69.073  1.00  0.00    -0.193 A  
HETATM   20  C   UNL     1      -6.534  18.187  68.153  1.00  0.00    -0.192 A  
HETATM   21  C   UNL     1      -5.846  19.361  68.591  1.00  0.00    -0.236 A  
HETATM   22  C   UNL     1      -5.196  19.063  69.770  1.00  0.00    -0.201 A  
HETATM   23  N   UNL     1      -5.445  17.745  70.052  1.00  0.00    -0.225 NA 
HETATM   24  H   UNL     1      -5.096  17.245  70.870  1.00  0.00     0.000 HD 
ENDBRANCH  13  15
ENDBRANCH   9  13
TORSDOF 3
ENDMDL
MODEL      234
REMARK 921   NORMALIZED FREE ENERGY PREDICTED BY IDOCK:   -2.12 KCAL/MOL
REMARK 922        TOTAL FREE ENERGY PREDICTED BY IDOCK:   -2.81 KCAL/MOL
REMARK 923 INTER-LIGAND FREE ENERGY PREDICTED BY IDOCK:   -5.16 KCAL/MOL
REMARK 924 INTRA-LIGAND FREE ENERGY PREDICTED BY IDOCK:    2.35 KCAL/MOL
REMARK 927      BINDING AFFINITY PREDICTED BY RF-SCORE:    0.00 PKD
ROOT
HETATM    1  C   UNL     1     -11.402  12.013  66.000  1.00  0.00    -0.398 C  
HETATM    2  C   UNL     1     -10.086  12.504  65.383  1.00  0.00    -0.284 C  
HETATM    3  C   UNL     1     -11.271  10.608  66.586  1.00  0.00     0.073 C  
HETATM    4  C   UNL     1     -10.240  13.899  64.767  1.00  0.00    -0.324 C  
HETATM    5  N   UNL     1     -10.883  14.859  65.672  1.00  0.00    -0.324 N  
HETATM    6  C   UNL     1     -12.143  14.407  66.284  1.00  0.00    -0.366 C  
HETATM    7  C   UNL     1     -10.259  16.079  65.931  1.00  0.00    -0.365 C  
HETATM    8  O   UNL     1      -9.143  16.332  65.472  1.00  0.00    -0.374 OA 
HETATM    9  C   UNL     1     -11.998  13.040  66.997  1.00  0.00    -0.347 C  
ENDROOT
BRANCH   7  10
HETATM   10  C   UNL     1     -11.000  17.075  66.804  1.00  0.00     0.150 C  
HETATM   11  C   UNL     1     -10.134  17.684  67.821  1.00  0.00    -0.338 C  
HETATM   12  N   UNL     1      -9.504  18.190  68.654  1.00  0.00    -0.323 NA 
ENDBRANCH   7  10
BRANCH   9  13
HETATM   13  N   UNL     1     -11.242  13.118  68.262  1.00  0.00    -0.257 NA 
HETATM   14  C   UNL     1     -11.836  13.172  69.587  1.00  0.00    -0.324 C  
BRANCH  13  15
HETATM   15  C   UNL     1      -9.859  12.979  68.229  1.00  0.00    -0.225 A  
HETATM   16  N   UNL     1      -9.094  14.020  67.805  1.00  0.00    -0.184 NA 
HETATM   17  C   UNL     1      -7.759  13.849  67.687  1.00  0.00    -0.184 A  
HETATM   18  N   UNL     1      -7.034  12.752  67.948  1.00  0.00    -0.100 NA 
HETATM   19  C   UNL     1      -7.808  11.759  68.403  1.00  0.00    -0.141 A  
HETATM   20  C   UNL     1      -9.182  11.783  68.582  1.00  0.00    -0.088 A  
HETATM   21  C   UNL     1      -9.534  10.512  69.132  1.00  0.00    -0.205 A  
HETATM   22  C   UNL     1      -8.387   9.752  69.224  1.00  0.00    -0.142 A  
HETATM   23  N   UNL     1      -7.348  10.523  68.772  1.00  0.00    -0.085 NA 
HETATM   24  H   UNL     1      -6.375  10.222  68.717  1.00  0.00     0.000 HD 
ENDBRANCH  13  15
ENDBRANCH   9  13
TORSDOF 3
ENDMDL
MODEL      235
REMARK 921   NORMALIZED FREE ENERGY PREDICTED BY IDOCK:   -2.11 KCAL/MOL
REMARK 922        TOTAL FREE ENERGY PREDICTED BY IDOCK:   -2.80 KCAL/MOL
REMARK 923 INTER-LIGAND FREE ENERGY PREDICTED BY IDOCK:   -3.59 KCAL/MOL
REMARK 924 INTRA-LIGAND FREE ENERGY PREDICTED BY IDOCK:    0.79 KCAL/MOL
REMARK 927      BINDING AFFINITY PREDICTED BY RF-SCORE:    0.00 PKD
ROOT
HETATM    1  C   UNL     1      -7.781   6.970  66.453  1.00  0.00    -0.104 C  
HETATM    2  C   UNL     1      -7.017   8.028  67.260  1.00  0.00    -0.075 C  
HETATM    3  C   UNL     1      -7.212   5.568  66.662  1.00  0.00    -0.074 C  
HETATM    4  C   UNL     1      -7.574   9.434  67.013  1.00  0.00    -0.091 C  
HETATM    5  N   UNL     1      -9.034   9.505  67.147  1.00  0.00    -0.134 N  
HETATM    6  C   UNL     1      -9.790   8.493  66.390  1.00  0.00    -0.257 C  
HETATM    7  C   UNL     1      -9.598  10.459  67.995  1.00  0.00    -0.143 C  
HETATM    8  O   UNL     1      -8.888  11.191  68.688  1.00  0.00    -0.159 OA 
HETATM    9  C   UNL     1      -9.312   7.051  66.688  1.00  0.00    -0.165 C  
ENDROOT
BRANCH   7  10
HETATM   10  C   UNL     1     -11.112  10.551  68.037  1.00  0.00    -0.361 C  
HETATM   11  C   UNL     1     -11.633  11.613  67.166  1.00  0.00    -0.212 C  
HETATM   12  N   UNL     1     -12.105  12.445  66.509  1.00  0.00    -0.598 NA 
ENDBRANCH   7  10
BRANCH   9  13
HETATM   13  N   UNL     1      -9.715   6.566  68.022  1.00  0.00    -0.118 NA 
HETATM   14  C   UNL     1     -10.592   7.277  68.938  1.00  0.00    -0.191 C  
BRANCH  13  15
HETATM   15  C   UNL     1      -9.372   5.273  68.400  1.00  0.00    -0.118 A  
HETATM   16  N   UNL     1      -9.783   4.225  67.638  1.00  0.00    -0.160 NA 
HETATM   17  C   UNL     1      -9.528   2.966  68.060  1.00  0.00    -0.157 A  
HETATM   18  N   UNL     1      -8.887   2.575  69.171  1.00  0.00    -0.085 NA 
HETATM   19  C   UNL     1      -8.459   3.627  69.877  1.00  0.00    -0.056 A  
HETATM   20  C   UNL     1      -8.638   4.968  69.575  1.00  0.00    -0.102 A  
HETATM   21  C   UNL     1      -7.960   5.700  70.598  1.00  0.00    -0.104 A  
HETATM   22  C   UNL     1      -7.439   4.796  71.500  1.00  0.00    -0.078 A  
HETATM   23  N   UNL     1      -7.756   3.541  71.050  1.00  0.00    -0.047 NA 
HETATM   24  H   UNL     1      -7.506   2.670  71.518  1.00  0.00     0.000 HD 
ENDBRANCH  13  15
ENDBRANCH   9  13
TORSDOF 3
ENDMDL
MODEL      236
REMARK 921   NORMALIZED FREE ENERGY PREDICTED BY IDOCK:   -2.10 KCAL/MOL
REMARK 922        TOTAL FREE ENERGY PREDICTED BY IDOCK:   -2.78 KCAL/MOL
REMARK 923 INTER-LIGAND FREE ENERGY PREDICTED BY IDOCK:   -5.46 KCAL/MOL
REMARK 924 INTRA-LIGAND FREE ENERGY PREDICTED BY IDOCK:    2.67 KCAL/MOL
REMARK 927      BINDING AFFINITY PREDICTED BY RF-SCORE:    0.00 PKD
ROOT
HETATM    1  C   UNL     1     -11.957  13.598  65.128  1.00  0.00    -0.391 C  
HETATM    2  C   UNL     1     -10.610  14.036  64.538  1.00  0.00    -0.332 C  
HETATM    3  C   UNL     1     -12.282  12.142  64.795  1.00  0.00    -0.341 C  
HETATM    4  C   UNL     1     -10.313  15.507  64.848  1.00  0.00    -0.173 C  
HETATM    5  N   UNL     1     -10.495  15.844  66.265  1.00  0.00    -0.309 N  
HETATM    6  C   UNL     1     -11.776  15.425  66.856  1.00  0.00     0.114 C  
HETATM    7  C   UNL     1      -9.460  16.472  66.957  1.00  0.00    -0.239 C  
HETATM    8  O   UNL     1      -8.370  16.680  66.419  1.00  0.00    -0.263 OA 
HETATM    9  C   UNL     1     -12.064  13.919  66.641  1.00  0.00    -0.448 C  
ENDROOT
BRANCH   7  10
HETATM   10  C   UNL     1      -9.724  16.878  68.396  1.00  0.00    -0.263 C  
HETATM   11  C   UNL     1      -9.228  18.227  68.698  1.00  0.00    -0.292 C  
HETATM   12  N   UNL     1      -8.846  19.280  69.002  1.00  0.00    -0.294 NA 
ENDBRANCH   7  10
BRANCH   9  13
HETATM   13  N   UNL     1     -11.223  13.039  67.476  1.00  0.00    -0.271 NA 
HETATM   14  C   UNL     1     -11.424  12.794  68.895  1.00  0.00    -0.305 C  
BRANCH  13  15
HETATM   15  C   UNL     1     -10.254  12.254  66.862  1.00  0.00    -0.213 A  
HETATM   16  N   UNL     1     -10.634  11.157  66.156  1.00  0.00    -0.260 NA 
HETATM   17  C   UNL     1      -9.684  10.345  65.640  1.00  0.00    -0.236 A  
HETATM   18  N   UNL     1      -8.351  10.472  65.716  1.00  0.00    -0.161 NA 
HETATM   19  C   UNL     1      -8.009  11.582  66.381  1.00  0.00    -0.046 A  
HETATM   20  C   UNL     1      -8.861  12.508  66.960  1.00  0.00    -0.212 A  
HETATM   21  C   UNL     1      -8.026  13.533  67.502  1.00  0.00    -0.186 A  
HETATM   22  C   UNL     1      -6.712  13.179  67.279  1.00  0.00     0.034 A  
HETATM   23  N   UNL     1      -6.719  11.987  66.602  1.00  0.00    -0.370 NA 
HETATM   24  H   UNL     1      -5.887  11.477  66.305  1.00  0.00     0.000 HD 
ENDBRANCH  13  15
ENDBRANCH   9  13
TORSDOF 3
ENDMDL
MODEL      237
REMARK 921   NORMALIZED FREE ENERGY PREDICTED BY IDOCK:   -2.08 KCAL/MOL
REMARK 922        TOTAL FREE ENERGY PREDICTED BY IDOCK:   -2.76 KCAL/MOL
REMARK 923 INTER-LIGAND FREE ENERGY PREDICTED BY IDOCK:   -5.11 KCAL/MOL
REMARK 924 INTRA-LIGAND FREE ENERGY PREDICTED BY IDOCK:    2.34 KCAL/MOL
REMARK 927      BINDING AFFINITY PREDICTED BY RF-SCORE:    0.00 PKD
ROOT
HETATM    1  C   UNL     1      -7.558   7.088  69.265  1.00  0.00    -0.096 C  
HETATM    2  C   UNL     1      -7.825   8.300  70.168  1.00  0.00    -0.097 C  
HETATM    3  C   UNL     1      -7.525   5.781  70.056  1.00  0.00    -0.075 C  
HETATM    4  C   UNL     1      -7.819   9.608  69.369  1.00  0.00    -0.104 C  
HETATM    5  N   UNL     1      -8.658   9.549  68.166  1.00  0.00    -0.120 N  
HETATM    6  C   UNL     1      -8.428   8.390  67.288  1.00  0.00    -0.124 C  
HETATM    7  C   UNL     1      -9.626  10.532  67.958  1.00  0.00    -0.148 C  
HETATM    8  O   UNL     1      -9.838  11.404  68.804  1.00  0.00    -0.205 OA 
HETATM    9  C   UNL     1      -8.518   7.044  68.049  1.00  0.00    -0.125 C  
ENDROOT
BRANCH   7  10
HETATM   10  C   UNL     1     -10.411  10.480  66.660  1.00  0.00    -0.295 C  
HETATM   11  C   UNL     1     -11.356  11.596  66.530  1.00  0.00    -0.263 C  
HETATM   12  N   UNL     1     -12.131  12.446  66.375  1.00  0.00    -0.614 NA 
ENDBRANCH   7  10
BRANCH   9  13
HETATM   13  N   UNL     1      -9.898   6.675  68.419  1.00  0.00    -0.136 NA 
HETATM   14  C   UNL     1     -11.018   6.599  67.495  1.00  0.00    -0.338 C  
BRANCH  13  15
HETATM   15  C   UNL     1     -10.150   6.213  69.706  1.00  0.00    -0.181 A  
HETATM   16  N   UNL     1      -9.872   4.919  70.016  1.00  0.00    -0.213 NA 
HETATM   17  C   UNL     1     -10.204   4.450  71.239  1.00  0.00    -0.067 A  
HETATM   18  N   UNL     1     -10.788   5.107  72.252  1.00  0.00    -0.205 NA 
HETATM   19  C   UNL     1     -11.010   6.388  71.932  1.00  0.00    -0.253 A  
HETATM   20  C   UNL     1     -10.723   7.012  70.729  1.00  0.00    -0.252 A  
HETATM   21  C   UNL     1     -11.095   8.382  70.893  1.00  0.00    -0.289 A  
HETATM   22  C   UNL     1     -11.630   8.534  72.155  1.00  0.00    -0.377 A  
HETATM   23  N   UNL     1     -11.576   7.311  72.771  1.00  0.00    -0.533 NA 
HETATM   24  H   UNL     1     -11.908   7.115  73.716  1.00  0.00     0.000 HD 
ENDBRANCH  13  15
ENDBRANCH   9  13
TORSDOF 3
ENDMDL
MODEL      238
REMARK 921   NORMALIZED FREE ENERGY PREDICTED BY IDOCK:   -2.02 KCAL/MOL
REMARK 922        TOTAL FREE ENERGY PREDICTED BY IDOCK:   -2.70 KCAL/MOL
REMARK 923 INTER-LIGAND FREE ENERGY PREDICTED BY IDOCK:   -3.01 KCAL/MOL
REMARK 924 INTRA-LIGAND FREE ENERGY PREDICTED BY IDOCK:    0.32 KCAL/MOL
REMARK 927      BINDING AFFINITY PREDICTED BY RF-SCORE:    0.00 PKD
ROOT
HETATM    1  C   UNL     1      -7.161   8.889  68.772  1.00  0.00    -0.067 C  
HETATM    2  C   UNL     1      -7.255   8.293  70.183  1.00  0.00    -0.055 C  
HETATM    3  C   UNL     1      -6.269   8.053  67.855  1.00  0.00    -0.051 C  
HETATM    4  C   UNL     1      -8.121   9.160  71.103  1.00  0.00    -0.085 C  
HETATM    5  N   UNL     1      -9.414   9.517  70.506  1.00  0.00    -0.262 N  
HETATM    6  C   UNL     1      -9.350  10.082  69.148  1.00  0.00    -0.193 C  
HETATM    7  C   UNL     1     -10.589   9.260  71.214  1.00  0.00    -0.347 C  
HETATM    8  O   UNL     1     -10.562   8.672  72.297  1.00  0.00    -0.334 OA 
HETATM    9  C   UNL     1      -8.558   9.182  68.168  1.00  0.00    -0.129 C  
ENDROOT
BRANCH   7  10
HETATM   10  C   UNL     1     -11.895   9.723  70.595  1.00  0.00    -0.360 C  
HETATM   11  C   UNL     1     -13.042   8.922  71.040  1.00  0.00     0.022 C  
HETATM   12  N   UNL     1     -13.985   8.317  71.343  1.00  0.00    -0.314 NA 
ENDBRANCH   7  10
BRANCH   9  13
HETATM   13  N   UNL     1      -9.285   7.957  67.783  1.00  0.00    -0.137 NA 
HETATM   14  C   UNL     1     -10.470   7.445  68.451  1.00  0.00    -0.185 C  
BRANCH  13  15
HETATM   15  C   UNL     1      -8.930   7.304  66.608  1.00  0.00    -0.150 A  
HETATM   16  N   UNL     1      -8.818   8.019  65.456  1.00  0.00    -0.113 NA 
HETATM   17  C   UNL     1      -8.564   7.366  64.301  1.00  0.00     0.388 A  
HETATM   18  N   UNL     1      -8.386   6.051  64.109  1.00  0.00    -0.051 NA 
HETATM   19  C   UNL     1      -8.460   5.381  65.266  1.00  0.00    -0.149 A  
HETATM   20  C   UNL     1      -8.708   5.906  66.524  1.00  0.00    -0.126 A  
HETATM   21  C   UNL     1      -8.637   4.807  67.434  1.00  0.00    -0.104 A  
HETATM   22  C   UNL     1      -8.399   3.660  66.706  1.00  0.00    -0.104 A  
HETATM   23  N   UNL     1      -8.299   4.026  65.389  1.00  0.00    -0.108 NA 
HETATM   24  H   UNL     1      -8.130   3.384  64.614  1.00  0.00     0.000 HD 
ENDBRANCH  13  15
ENDBRANCH   9  13
TORSDOF 3
ENDMDL
MODEL      239
REMARK 921   NORMALIZED FREE ENERGY PREDICTED BY IDOCK:   -1.95 KCAL/MOL
REMARK 922        TOTAL FREE ENERGY PREDICTED BY IDOCK:   -2.60 KCAL/MOL
REMARK 923 INTER-LIGAND FREE ENERGY PREDICTED BY IDOCK:   -5.71 KCAL/MOL
REMARK 924 INTRA-LIGAND FREE ENERGY PREDICTED BY IDOCK:    3.10 KCAL/MOL
REMARK 927      BINDING AFFINITY PREDICTED BY RF-SCORE:    0.00 PKD
ROOT
HETATM    1  C   UNL     1      -9.280   8.229  66.761  1.00  0.00    -0.212 C  
HETATM    2  C   UNL     1     -10.759   7.930  67.037  1.00  0.00    -0.289 C  
HETATM    3  C   UNL     1      -9.097   9.496  65.927  1.00  0.00    -0.230 C  
HETATM    4  C   UNL     1     -10.931   6.637  67.841  1.00  0.00    -0.257 C  
HETATM    5  N   UNL     1     -10.068   6.579  69.027  1.00  0.00    -0.158 N  
HETATM    6  C   UNL     1      -8.644   6.873  68.789  1.00  0.00    -0.124 C  
HETATM    7  C   UNL     1     -10.634   6.312  70.274  1.00  0.00    -0.248 C  
HETATM    8  O   UNL     1     -11.854   6.198  70.405  1.00  0.00    -0.242 OA 
HETATM    9  C   UNL     1      -8.431   8.220  68.058  1.00  0.00    -0.132 C  
ENDROOT
BRANCH   7  10
HETATM   10  C   UNL     1      -9.692   6.178  71.457  1.00  0.00    -0.182 C  
HETATM   11  C   UNL     1     -10.161   6.921  72.633  1.00  0.00    -0.175 C  
HETATM   12  N   UNL     1     -10.470   7.498  73.591  1.00  0.00    -0.316 NA 
ENDBRANCH   7  10
BRANCH   9  13
HETATM   13  N   UNL     1      -8.681   9.395  68.915  1.00  0.00    -0.129 NA 
HETATM   14  C   UNL     1      -7.705   9.999  69.808  1.00  0.00    -0.168 C  
BRANCH  13  15
HETATM   15  C   UNL     1      -9.875  10.093  68.771  1.00  0.00    -0.175 A  
HETATM   16  N   UNL     1     -10.052  10.892  67.686  1.00  0.00    -0.175 NA 
HETATM   17  C   UNL     1     -11.175  11.640  67.597  1.00  0.00    -0.281 A  
HETATM   18  N   UNL     1     -12.200  11.707  68.459  1.00  0.00    -0.434 NA 
HETATM   19  C   UNL     1     -12.016  10.879  69.494  1.00  0.00    -0.330 A  
HETATM   20  C   UNL     1     -10.927  10.052  69.721  1.00  0.00    -0.317 A  
HETATM   21  C   UNL     1     -11.218   9.332  70.921  1.00  0.00    -0.372 A  
HETATM   22  C   UNL     1     -12.434   9.772  71.402  1.00  0.00    -0.387 A  
HETATM   23  N   UNL     1     -12.903  10.716  70.525  1.00  0.00    -0.372 NA 
HETATM   24  H   UNL     1     -13.782  11.223  70.625  1.00  0.00     0.000 HD 
ENDBRANCH  13  15
ENDBRANCH   9  13
TORSDOF 3
ENDMDL
MODEL      240
REMARK 921   NORMALIZED FREE ENERGY PREDICTED BY IDOCK:   -1.94 KCAL/MOL
REMARK 922        TOTAL FREE ENERGY PREDICTED BY IDOCK:   -2.60 KCAL/MOL
REMARK 923 INTER-LIGAND FREE ENERGY PREDICTED BY IDOCK:   -5.69 KCAL/MOL
REMARK 924 INTRA-LIGAND FREE ENERGY PREDICTED BY IDOCK:    3.09 KCAL/MOL
REMARK 927      BINDING AFFINITY PREDICTED BY RF-SCORE:    0.00 PKD
ROOT
HETATM    1  C   UNL     1      -7.424  16.605  67.886  1.00  0.00    -0.169 C  
HETATM    2  C   UNL     1      -7.628  15.741  66.634  1.00  0.00    -0.083 C  
HETATM    3  C   UNL     1      -7.415  18.097  67.558  1.00  0.00    -0.217 C  
HETATM    4  C   UNL     1      -7.598  14.247  66.971  1.00  0.00     0.209 C  
HETATM    5  N   UNL     1      -8.467  13.895  68.100  1.00  0.00    -0.163 N  
HETATM    6  C   UNL     1      -8.296  14.716  69.311  1.00  0.00     0.015 C  
HETATM    7  C   UNL     1      -9.406  12.875  67.950  1.00  0.00    -0.208 C  
HETATM    8  O   UNL     1      -9.568  12.316  66.862  1.00  0.00    -0.202 OA 
HETATM    9  C   UNL     1      -8.413  16.232  69.019  1.00  0.00    -0.244 C  
ENDROOT
BRANCH   7  10
HETATM   10  C   UNL     1     -10.223  12.488  69.169  1.00  0.00     0.224 C  
HETATM   11  C   UNL     1     -11.416  13.327  69.334  1.00  0.00    -0.263 C  
HETATM   12  N   UNL     1     -12.367  13.965  69.525  1.00  0.00    -0.299 NA 
ENDBRANCH   7  10
BRANCH   9  13
HETATM   13  N   UNL     1      -9.796  16.668  68.741  1.00  0.00    -0.241 NA 
HETATM   14  C   UNL     1     -10.876  16.687  69.713  1.00  0.00    -0.237 C  
BRANCH  13  15
HETATM   15  C   UNL     1     -10.083  17.252  67.512  1.00  0.00    -0.315 A  
HETATM   16  N   UNL     1      -9.945  18.596  67.365  1.00  0.00    -0.318 NA 
HETATM   17  C   UNL     1     -10.315  19.170  66.199  1.00  0.00    -0.484 A  
HETATM   18  N   UNL     1     -10.814  18.581  65.103  1.00  0.00    -0.463 NA 
HETATM   19  C   UNL     1     -10.898  17.255  65.263  1.00  0.00     0.004 A  
HETATM   20  C   UNL     1     -10.557  16.524  66.390  1.00  0.00    -0.221 A  
HETATM   21  C   UNL     1     -10.776  15.153  66.056  1.00  0.00    -0.333 A  
HETATM   22  C   UNL     1     -11.279  15.097  64.773  1.00  0.00    -0.388 A  
HETATM   23  N   UNL     1     -11.353  16.385  64.308  1.00  0.00    -1.293 NA 
HETATM   24  H   UNL     1     -11.695  16.656  63.386  1.00  0.00     0.000 HD 
ENDBRANCH  13  15
ENDBRANCH   9  13
TORSDOF 3
ENDMDL
MODEL      241
REMARK 921   NORMALIZED FREE ENERGY PREDICTED BY IDOCK:   -1.93 KCAL/MOL
REMARK 922        TOTAL FREE ENERGY PREDICTED BY IDOCK:   -2.58 KCAL/MOL
REMARK 923 INTER-LIGAND FREE ENERGY PREDICTED BY IDOCK:   -5.07 KCAL/MOL
REMARK 924 INTRA-LIGAND FREE ENERGY PREDICTED BY IDOCK:    2.49 KCAL/MOL
REMARK 927      BINDING AFFINITY PREDICTED BY RF-SCORE:    0.00 PKD
ROOT
HETATM    1  C   UNL     1      -9.279   8.228  66.762  1.00  0.00    -0.212 C  
HETATM    2  C   UNL     1     -10.754   7.969  67.095  1.00  0.00    -0.285 C  
HETATM    3  C   UNL     1      -9.088   9.521  65.972  1.00  0.00    -0.220 C  
HETATM    4  C   UNL     1     -10.936   6.651  67.855  1.00  0.00    -0.257 C  
HETATM    5  N   UNL     1     -10.023   6.515  68.996  1.00  0.00    -0.142 N  
HETATM    6  C   UNL     1      -8.602   6.768  68.704  1.00  0.00    -0.122 C  
HETATM    7  C   UNL     1     -10.541   6.216  70.256  1.00  0.00    -0.258 C  
HETATM    8  O   UNL     1     -11.758   6.139  70.440  1.00  0.00    -0.298 OA 
HETATM    9  C   UNL     1      -8.373   8.136  68.017  1.00  0.00    -0.129 C  
ENDROOT
BRANCH   7  10
HETATM   10  C   UNL     1      -9.553   6.000  71.388  1.00  0.00    -0.180 C  
HETATM   11  C   UNL     1      -9.880   6.796  72.578  1.00  0.00    -0.164 C  
HETATM   12  N   UNL     1     -10.078   7.409  73.543  1.00  0.00    -0.327 NA 
ENDBRANCH   7  10
BRANCH   9  13
HETATM   13  N   UNL     1      -8.540   9.283  68.931  1.00  0.00    -0.128 NA 
HETATM   14  C   UNL     1      -7.452  10.018  69.555  1.00  0.00    -0.123 C  
BRANCH  13  15
HETATM   15  C   UNL     1      -9.809   9.822  69.110  1.00  0.00    -0.188 A  
HETATM   16  N   UNL     1     -10.642   9.274  70.034  1.00  0.00    -0.216 NA 
HETATM   17  C   UNL     1     -11.905   9.742  70.139  1.00  0.00    -0.079 A  
HETATM   18  N   UNL     1     -12.490  10.725  69.438  1.00  0.00    -0.291 NA 
HETATM   19  C   UNL     1     -11.634  11.272  68.568  1.00  0.00    -0.315 A  
HETATM   20  C   UNL     1     -10.315  10.908  68.348  1.00  0.00    -0.196 A  
HETATM   21  C   UNL     1      -9.810  11.814  67.366  1.00  0.00    -0.189 A  
HETATM   22  C   UNL     1     -10.835  12.657  66.992  1.00  0.00    -0.253 A  
HETATM   23  N   UNL     1     -11.938  12.310  67.728  1.00  0.00    -0.498 NA 
HETATM   24  H   UNL     1     -12.852  12.759  67.661  1.00  0.00     0.000 HD 
ENDBRANCH  13  15
ENDBRANCH   9  13
TORSDOF 3
ENDMDL
MODEL      242
REMARK 921   NORMALIZED FREE ENERGY PREDICTED BY IDOCK:   -1.91 KCAL/MOL
REMARK 922        TOTAL FREE ENERGY PREDICTED BY IDOCK:   -2.56 KCAL/MOL
REMARK 923 INTER-LIGAND FREE ENERGY PREDICTED BY IDOCK:   -3.20 KCAL/MOL
REMARK 924 INTRA-LIGAND FREE ENERGY PREDICTED BY IDOCK:    0.64 KCAL/MOL
REMARK 927      BINDING AFFINITY PREDICTED BY RF-SCORE:    0.00 PKD
ROOT
HETATM    1  C   UNL     1      -6.563   5.898  68.528  1.00  0.00    -0.055 C  
HETATM    2  C   UNL     1      -5.497   6.606  67.682  1.00  0.00    -0.008 C  
HETATM    3  C   UNL     1      -6.058   5.580  69.935  1.00  0.00    -0.022 C  
HETATM    4  C   UNL     1      -6.002   6.887  66.262  1.00  0.00    -0.034 C  
HETATM    5  N   UNL     1      -7.323   7.527  66.239  1.00  0.00    -0.081 N  
HETATM    6  C   UNL     1      -8.360   6.871  67.052  1.00  0.00    -0.121 C  
HETATM    7  C   UNL     1      -7.498   8.707  65.515  1.00  0.00    -0.085 C  
HETATM    8  O   UNL     1      -6.546   9.259  64.959  1.00  0.00    -0.074 OA 
HETATM    9  C   UNL     1      -7.915   6.656  68.519  1.00  0.00    -0.118 C  
ENDROOT
BRANCH   7  10
HETATM   10  C   UNL     1      -8.900   9.287  65.449  1.00  0.00    -0.230 C  
HETATM   11  C   UNL     1      -8.986  10.615  66.069  1.00  0.00    -0.172 C  
HETATM   12  N   UNL     1      -9.123  11.660  66.555  1.00  0.00    -0.193 NA 
ENDBRANCH   7  10
BRANCH   9  13
HETATM   13  N   UNL     1      -7.879   7.903  69.307  1.00  0.00    -0.113 NA 
HETATM   14  C   UNL     1      -7.604   9.224  68.766  1.00  0.00    -0.079 C  
BRANCH  13  15
HETATM   15  C   UNL     1      -8.282   7.872  70.637  1.00  0.00    -0.114 A  
HETATM   16  N   UNL     1      -7.364   7.612  71.606  1.00  0.00    -0.066 NA 
HETATM   17  C   UNL     1      -7.778   7.491  72.886  1.00  0.00    -0.092 A  
HETATM   18  N   UNL     1      -9.022   7.603  73.374  1.00  0.00    -0.201 NA 
HETATM   19  C   UNL     1      -9.895   7.900  72.404  1.00  0.00    -0.225 A  
HETATM   20  C   UNL     1      -9.625   8.061  71.054  1.00  0.00    -0.184 A  
HETATM   21  C   UNL     1     -10.865   8.418  70.441  1.00  0.00    -0.246 A  
HETATM   22  C   UNL     1     -11.842   8.418  71.414  1.00  0.00    -0.296 A  
HETATM   23  N   UNL     1     -11.236   8.096  72.601  1.00  0.00    -0.385 NA 
HETATM   24  H   UNL     1     -11.714   8.014  73.499  1.00  0.00     0.000 HD 
ENDBRANCH  13  15
ENDBRANCH   9  13
TORSDOF 3
ENDMDL
MODEL      243
REMARK 921   NORMALIZED FREE ENERGY PREDICTED BY IDOCK:   -1.87 KCAL/MOL
REMARK 922        TOTAL FREE ENERGY PREDICTED BY IDOCK:   -2.52 KCAL/MOL
REMARK 923 INTER-LIGAND FREE ENERGY PREDICTED BY IDOCK:   -4.88 KCAL/MOL
REMARK 924 INTRA-LIGAND FREE ENERGY PREDICTED BY IDOCK:    2.36 KCAL/MOL
REMARK 927      BINDING AFFINITY PREDICTED BY RF-SCORE:    0.00 PKD
ROOT
HETATM    1  C   UNL     1     -10.104   8.503  66.967  1.00  0.00    -0.347 C  
HETATM    2  C   UNL     1     -11.004   7.282  67.200  1.00  0.00    -0.285 C  
HETATM    3  C   UNL     1     -10.816   9.811  67.306  1.00  0.00    -0.247 C  
HETATM    4  C   UNL     1     -10.292   5.979  66.822  1.00  0.00    -0.238 C  
HETATM    5  N   UNL     1      -8.950   5.866  67.407  1.00  0.00    -0.109 N  
HETATM    6  C   UNL     1      -8.071   7.030  67.205  1.00  0.00    -0.115 C  
HETATM    7  C   UNL     1      -8.616   4.727  68.139  1.00  0.00    -0.102 C  
HETATM    8  O   UNL     1      -9.452   3.849  68.364  1.00  0.00    -0.156 OA 
HETATM    9  C   UNL     1      -8.728   8.355  67.665  1.00  0.00    -0.137 C  
ENDROOT
BRANCH   7  10
HETATM   10  C   UNL     1      -7.192   4.616  68.652  1.00  0.00    -0.057 C  
HETATM   11  C   UNL     1      -7.024   5.226  69.977  1.00  0.00    -0.060 C  
HETATM   12  N   UNL     1      -6.825   5.704  71.016  1.00  0.00    -0.055 NA 
ENDBRANCH   7  10
BRANCH   9  13
HETATM   13  N   UNL     1      -8.810   8.487  69.132  1.00  0.00    -0.141 NA 
HETATM   14  C   UNL     1      -7.849   9.196  69.961  1.00  0.00    -0.099 C  
BRANCH  13  15
HETATM   15  C   UNL     1      -9.956   8.046  69.785  1.00  0.00    -0.191 A  
HETATM   16  N   UNL     1     -10.193   6.711  69.885  1.00  0.00    -0.182 NA 
HETATM   17  C   UNL     1     -11.352   6.290  70.437  1.00  0.00    -0.372 A  
HETATM   18  N   UNL     1     -12.352   7.029  70.938  1.00  0.00    -0.358 NA 
HETATM   19  C   UNL     1     -12.071   8.335  70.864  1.00  0.00    -0.137 A  
HETATM   20  C   UNL     1     -10.931   8.918  70.333  1.00  0.00    -0.275 A  
HETATM   21  C   UNL     1     -11.076  10.325  70.530  1.00  0.00    -0.381 A  
HETATM   22  C   UNL     1     -12.300  10.553  71.124  1.00  0.00    -0.405 A  
HETATM   23  N   UNL     1     -12.895   9.333  71.314  1.00  0.00    -0.429 NA 
HETATM   24  H   UNL     1     -13.815   9.188  71.730  1.00  0.00     0.000 HD 
ENDBRANCH  13  15
ENDBRANCH   9  13
TORSDOF 3
ENDMDL
MODEL      244
REMARK 921   NORMALIZED FREE ENERGY PREDICTED BY IDOCK:   -1.85 KCAL/MOL
REMARK 922        TOTAL FREE ENERGY PREDICTED BY IDOCK:   -2.49 KCAL/MOL
REMARK 923 INTER-LIGAND FREE ENERGY PREDICTED BY IDOCK:   -3.61 KCAL/MOL
REMARK 924 INTRA-LIGAND FREE ENERGY PREDICTED BY IDOCK:    1.12 KCAL/MOL
REMARK 927      BINDING AFFINITY PREDICTED BY RF-SCORE:    0.00 PKD
ROOT
HETATM    1  C   UNL     1      -6.037  17.524  66.383  1.00  0.00    -0.259 C  
HETATM    2  C   UNL     1      -5.765  18.531  67.509  1.00  0.00    -0.149 C  
HETATM    3  C   UNL     1      -5.126  16.301  66.476  1.00  0.00     0.710 C  
HETATM    4  C   UNL     1      -6.658  19.769  67.383  1.00  0.00    -0.204 C  
HETATM    5  N   UNL     1      -8.076  19.437  67.194  1.00  0.00    -0.261 N  
HETATM    6  C   UNL     1      -8.362  18.465  66.126  1.00  0.00    -0.133 C  
HETATM    7  C   UNL     1      -9.030  20.002  68.040  1.00  0.00    -0.236 C  
HETATM    8  O   UNL     1      -8.695  20.714  68.990  1.00  0.00     0.847 OA 
HETATM    9  C   UNL     1      -7.540  17.162  66.275  1.00  0.00    -0.317 C  
ENDROOT
BRANCH   7  10
HETATM   10  C   UNL     1     -10.489  19.698  67.753  1.00  0.00    -0.573 C  
HETATM   11  C   UNL     1     -10.796  19.726  66.318  1.00  0.00    -0.283 C  
HETATM   12  N   UNL     1     -11.104  19.746  65.199  1.00  0.00    -0.121 NA 
ENDBRANCH   7  10
BRANCH   9  13
HETATM   13  N   UNL     1      -8.005  16.303  67.382  1.00  0.00    -0.146 NA 
HETATM   14  C   UNL     1      -7.890  16.627  68.795  1.00  0.00    -0.238 C  
BRANCH  13  15
HETATM   15  C   UNL     1      -8.748  15.166  67.086  1.00  0.00    -0.216 A  
HETATM   16  N   UNL     1      -8.346  13.962  67.574  1.00  0.00    -0.183 NA 
HETATM   17  C   UNL     1      -9.017  12.848  67.208  1.00  0.00    -0.208 A  
HETATM   18  N   UNL     1     -10.082  12.745  66.400  1.00  0.00    -0.254 NA 
HETATM   19  C   UNL     1     -10.479  13.949  65.970  1.00  0.00    -0.298 A  
HETATM   20  C   UNL     1      -9.901  15.174  66.260  1.00  0.00    -0.317 A  
HETATM   21  C   UNL     1     -10.710  16.159  65.613  1.00  0.00    -0.321 A  
HETATM   22  C   UNL     1     -11.711  15.507  64.924  1.00  0.00    -0.118 A  
HETATM   23  N   UNL     1     -11.553  14.164  65.147  1.00  0.00    -0.330 NA 
HETATM   24  H   UNL     1     -12.147  13.431  64.758  1.00  0.00     0.000 HD 
ENDBRANCH  13  15
ENDBRANCH   9  13
TORSDOF 3
ENDMDL
MODEL      245
REMARK 921   NORMALIZED FREE ENERGY PREDICTED BY IDOCK:   -1.81 KCAL/MOL
REMARK 922        TOTAL FREE ENERGY PREDICTED BY IDOCK:   -2.44 KCAL/MOL
REMARK 923 INTER-LIGAND FREE ENERGY PREDICTED BY IDOCK:   -2.83 KCAL/MOL
REMARK 924 INTRA-LIGAND FREE ENERGY PREDICTED BY IDOCK:    0.39 KCAL/MOL
REMARK 927      BINDING AFFINITY PREDICTED BY RF-SCORE:    0.00 PKD
ROOT
HETATM    1  C   UNL     1      -7.301   5.620  67.841  1.00  0.00    -0.073 C  
HETATM    2  C   UNL     1      -8.472   4.639  67.987  1.00  0.00    -0.103 C  
HETATM    3  C   UNL     1      -6.759   5.656  66.413  1.00  0.00    -0.057 C  
HETATM    4  C   UNL     1      -8.982   4.585  69.431  1.00  0.00    -0.095 C  
HETATM    5  N   UNL     1      -9.229   5.914  70.003  1.00  0.00    -0.146 N  
HETATM    6  C   UNL     1      -8.124   6.877  69.866  1.00  0.00    -0.125 C  
HETATM    7  C   UNL     1     -10.470   6.193  70.576  1.00  0.00    -0.234 C  
HETATM    8  O   UNL     1     -11.385   5.368  70.542  1.00  0.00     0.077 OA 
HETATM    9  C   UNL     1      -7.644   7.024  68.402  1.00  0.00    -0.111 C  
ENDROOT
BRANCH   7  10
HETATM   10  C   UNL     1     -10.649   7.551  71.231  1.00  0.00    -0.230 C  
HETATM   11  C   UNL     1     -10.302   7.536  72.657  1.00  0.00    -0.259 C  
HETATM   12  N   UNL     1     -10.056   7.585  73.791  1.00  0.00    -0.286 NA 
ENDBRANCH   7  10
BRANCH   9  13
HETATM   13  N   UNL     1      -8.592   7.768  67.549  1.00  0.00    -0.122 NA 
HETATM   14  C   UNL     1      -9.984   8.027  67.879  1.00  0.00    -0.180 C  
BRANCH  13  15
HETATM   15  C   UNL     1      -8.114   8.412  66.413  1.00  0.00    -0.104 A  
HETATM   16  N   UNL     1      -8.735   8.209  65.221  1.00  0.00    -0.112 NA 
HETATM   17  C   UNL     1      -8.212   8.762  64.105  1.00  0.00    -0.162 A  
HETATM   18  N   UNL     1      -7.119   9.531  63.991  1.00  0.00    -0.104 NA 
HETATM   19  C   UNL     1      -6.555   9.747  65.185  1.00  0.00    -0.100 A  
HETATM   20  C   UNL     1      -6.973   9.255  66.411  1.00  0.00    -0.084 A  
HETATM   21  C   UNL     1      -6.082   9.803  67.384  1.00  0.00    -0.059 A  
HETATM   22  C   UNL     1      -5.137  10.560  66.724  1.00  0.00    -0.043 A  
HETATM   23  N   UNL     1      -5.436  10.511  65.387  1.00  0.00    -0.112 NA 
HETATM   24  H   UNL     1      -4.904  10.975  64.651  1.00  0.00     0.000 HD 
ENDBRANCH  13  15
ENDBRANCH   9  13
TORSDOF 3
ENDMDL
MODEL      246
REMARK 921   NORMALIZED FREE ENERGY PREDICTED BY IDOCK:   -1.63 KCAL/MOL
REMARK 922        TOTAL FREE ENERGY PREDICTED BY IDOCK:   -2.23 KCAL/MOL
REMARK 923 INTER-LIGAND FREE ENERGY PREDICTED BY IDOCK:   -3.17 KCAL/MOL
REMARK 924 INTRA-LIGAND FREE ENERGY PREDICTED BY IDOCK:    0.94 KCAL/MOL
REMARK 927      BINDING AFFINITY PREDICTED BY RF-SCORE:    0.00 PKD
ROOT
HETATM    1  C   UNL     1      -6.037  17.524  66.383  1.00  0.00    -0.259 C  
HETATM    2  C   UNL     1      -5.765  18.531  67.509  1.00  0.00    -0.149 C  
HETATM    3  C   UNL     1      -5.126  16.301  66.476  1.00  0.00     0.710 C  
HETATM    4  C   UNL     1      -6.658  19.769  67.383  1.00  0.00    -0.204 C  
HETATM    5  N   UNL     1      -8.076  19.437  67.194  1.00  0.00    -0.261 N  
HETATM    6  C   UNL     1      -8.362  18.465  66.126  1.00  0.00    -0.133 C  
HETATM    7  C   UNL     1      -9.030  20.002  68.040  1.00  0.00    -0.236 C  
HETATM    8  O   UNL     1      -8.695  20.714  68.990  1.00  0.00     0.847 OA 
HETATM    9  C   UNL     1      -7.540  17.162  66.275  1.00  0.00    -0.317 C  
ENDROOT
BRANCH   7  10
HETATM   10  C   UNL     1     -10.489  19.698  67.753  1.00  0.00    -0.573 C  
HETATM   11  C   UNL     1     -10.796  19.726  66.318  1.00  0.00    -0.283 C  
HETATM   12  N   UNL     1     -11.104  19.746  65.199  1.00  0.00    -0.121 NA 
ENDBRANCH   7  10
BRANCH   9  13
HETATM   13  N   UNL     1      -8.005  16.303  67.382  1.00  0.00    -0.146 NA 
HETATM   14  C   UNL     1      -7.890  16.627  68.795  1.00  0.00    -0.238 C  
BRANCH  13  15
HETATM   15  C   UNL     1      -8.748  15.166  67.086  1.00  0.00    -0.216 A  
HETATM   16  N   UNL     1      -9.919  15.292  66.408  1.00  0.00    -0.261 NA 
HETATM   17  C   UNL     1     -10.682  14.196  66.204  1.00  0.00    -0.297 A  
HETATM   18  N   UNL     1     -10.441  12.932  66.582  1.00  0.00    -0.260 NA 
HETATM   19  C   UNL     1      -9.263  12.832  67.209  1.00  0.00    -0.203 A  
HETATM   20  C   UNL     1      -8.373  13.858  67.487  1.00  0.00    -0.202 A  
HETATM   21  C   UNL     1      -7.247  13.246  68.120  1.00  0.00    -0.112 A  
HETATM   22  C   UNL     1      -7.506  11.897  68.247  1.00  0.00    -0.104 A  
HETATM   23  N   UNL     1      -8.738  11.663  67.692  1.00  0.00    -0.151 NA 
HETATM   24  H   UNL     1      -9.196  10.753  67.647  1.00  0.00     0.000 HD 
ENDBRANCH  13  15
ENDBRANCH   9  13
TORSDOF 3
ENDMDL
MODEL      247
REMARK 921   NORMALIZED FREE ENERGY PREDICTED BY IDOCK:   -1.62 KCAL/MOL
REMARK 922        TOTAL FREE ENERGY PREDICTED BY IDOCK:   -2.23 KCAL/MOL
REMARK 923 INTER-LIGAND FREE ENERGY PREDICTED BY IDOCK:   -3.01 KCAL/MOL
REMARK 924 INTRA-LIGAND FREE ENERGY PREDICTED BY IDOCK:    0.78 KCAL/MOL
REMARK 927      BINDING AFFINITY PREDICTED BY RF-SCORE:    0.00 PKD
ROOT
HETATM    1  C   UNL     1      -7.896  14.344  67.853  1.00  0.00    -0.155 C  
HETATM    2  C   UNL     1      -8.474  15.238  68.957  1.00  0.00    -0.221 C  
HETATM    3  C   UNL     1      -8.531  12.955  67.849  1.00  0.00    -0.181 C  
HETATM    4  C   UNL     1      -7.803  16.616  68.974  1.00  0.00    -0.215 C  
HETATM    5  N   UNL     1      -7.748  17.244  67.649  1.00  0.00    -0.181 N  
HETATM    6  C   UNL     1      -7.206  16.402  66.570  1.00  0.00    -0.092 C  
HETATM    7  C   UNL     1      -8.244  18.538  67.484  1.00  0.00    -0.252 C  
HETATM    8  O   UNL     1      -8.794  19.131  68.415  1.00  0.00    -0.322 OA 
HETATM    9  C   UNL     1      -7.927  15.036  66.466  1.00  0.00     0.394 C  
ENDROOT
BRANCH   7  10
HETATM   10  C   UNL     1      -8.089  19.179  66.117  1.00  0.00    -0.277 C  
HETATM   11  C   UNL     1      -6.919  20.062  66.041  1.00  0.00    -0.267 C  
HETATM   12  N   UNL     1      -6.017  20.784  65.923  1.00  0.00    -0.221 NA 
ENDBRANCH   7  10
BRANCH   9  13
HETATM   13  N   UNL     1      -9.288  15.135  65.904  1.00  0.00    -0.299 NA 
HETATM   14  C   UNL     1     -10.050  16.366  65.776  1.00  0.00    -0.327 C  
BRANCH  13  15
HETATM   15  C   UNL     1      -9.852  14.015  65.304  1.00  0.00    -0.152 A  
HETATM   16  N   UNL     1      -9.045  13.116  64.680  1.00  0.00     1.259 NA 
HETATM   17  C   UNL     1      -9.605  12.079  64.019  1.00  0.00    -0.017 A  
HETATM   18  N   UNL     1     -10.906  11.781  63.887  1.00  0.00    -0.367 NA 
HETATM   19  C   UNL     1     -11.672  12.659  64.546  1.00  0.00    -0.359 A  
HETATM   20  C   UNL     1     -11.248  13.764  65.268  1.00  0.00    -0.311 A  
HETATM   21  C   UNL     1     -12.425  14.352  65.823  1.00  0.00    -0.334 A  
HETATM   22  C   UNL     1     -13.514  13.625  65.389  1.00  0.00     0.737 A  
HETATM   23  N   UNL     1     -13.039  12.603  64.609  1.00  0.00    -0.848 NA 
HETATM   24  H   UNL     1     -13.617  11.903  64.144  1.00  0.00     0.000 HD 
ENDBRANCH  13  15
ENDBRANCH   9  13
TORSDOF 3
ENDMDL
MODEL      248
REMARK 921   NORMALIZED FREE ENERGY PREDICTED BY IDOCK:   -1.60 KCAL/MOL
REMARK 922        TOTAL FREE ENERGY PREDICTED BY IDOCK:   -2.19 KCAL/MOL
REMARK 923 INTER-LIGAND FREE ENERGY PREDICTED BY IDOCK:   -2.32 KCAL/MOL
REMARK 924 INTRA-LIGAND FREE ENERGY PREDICTED BY IDOCK:    0.13 KCAL/MOL
REMARK 927      BINDING AFFINITY PREDICTED BY RF-SCORE:    0.00 PKD
ROOT
HETATM    1  C   UNL     1      -9.956   7.847  66.780  1.00  0.00    -0.333 C  
HETATM    2  C   UNL     1     -11.038   6.814  67.121  1.00  0.00    -0.404 C  
HETATM    3  C   UNL     1     -10.506   9.272  66.777  1.00  0.00    -0.263 C  
HETATM    4  C   UNL     1     -10.482   5.386  67.084  1.00  0.00    -0.235 C  
HETATM    5  N   UNL     1      -9.235   5.235  67.844  1.00  0.00    -0.110 N  
HETATM    6  C   UNL     1      -8.185   6.221  67.541  1.00  0.00    -0.113 C  
HETATM    7  C   UNL     1      -9.140   4.234  68.811  1.00  0.00    -0.128 C  
HETATM    8  O   UNL     1     -10.110   3.525  69.088  1.00  0.00     0.255 OA 
HETATM    9  C   UNL     1      -8.691   7.680  67.660  1.00  0.00    -0.122 C  
ENDROOT
BRANCH   7  10
HETATM   10  C   UNL     1      -7.805   4.060  69.511  1.00  0.00    -0.052 C  
HETATM   11  C   UNL     1      -6.728   3.695  68.582  1.00  0.00    -0.045 C  
HETATM   12  N   UNL     1      -5.838   3.392  67.901  1.00  0.00    -0.025 NA 
ENDBRANCH   7  10
BRANCH   9  13
HETATM   13  N   UNL     1      -8.901   8.113  69.055  1.00  0.00    -0.144 NA 
HETATM   14  C   UNL     1      -9.802   7.475  70.000  1.00  0.00    -0.180 C  
BRANCH  13  15
HETATM   15  C   UNL     1      -8.082   9.105  69.583  1.00  0.00    -0.106 A  
HETATM   16  N   UNL     1      -8.333  10.406  69.283  1.00  0.00    -0.158 NA 
HETATM   17  C   UNL     1      -7.481  11.359  69.722  1.00  0.00     0.415 A  
HETATM   18  N   UNL     1      -6.370  11.206  70.457  1.00  0.00    -0.318 NA 
HETATM   19  C   UNL     1      -6.172   9.920  70.772  1.00  0.00    -0.093 A  
HETATM   20  C   UNL     1      -6.955   8.838  70.402  1.00  0.00    -0.047 A  
HETATM   21  C   UNL     1      -6.366   7.692  71.021  1.00  0.00    -0.035 A  
HETATM   22  C   UNL     1      -5.235   8.102  71.697  1.00  0.00    -0.034 A  
HETATM   23  N   UNL     1      -5.129   9.458  71.530  1.00  0.00    -0.047 NA 
HETATM   24  H   UNL     1      -4.384  10.039  71.915  1.00  0.00     0.000 HD 
ENDBRANCH  13  15
ENDBRANCH   9  13
TORSDOF 3
ENDMDL
MODEL      249
REMARK 921   NORMALIZED FREE ENERGY PREDICTED BY IDOCK:   -1.53 KCAL/MOL
REMARK 922        TOTAL FREE ENERGY PREDICTED BY IDOCK:   -2.11 KCAL/MOL
REMARK 923 INTER-LIGAND FREE ENERGY PREDICTED BY IDOCK:   -4.34 KCAL/MOL
REMARK 924 INTRA-LIGAND FREE ENERGY PREDICTED BY IDOCK:    2.23 KCAL/MOL
REMARK 927      BINDING AFFINITY PREDICTED BY RF-SCORE:    0.00 PKD
ROOT
HETATM    1  C   UNL     1      -9.351   6.776  72.843  1.00  0.00    -0.151 C  
HETATM    2  C   UNL     1     -10.771   7.052  72.332  1.00  0.00    -0.262 C  
HETATM    3  C   UNL     1      -9.149   5.306  73.206  1.00  0.00    -0.128 C  
HETATM    4  C   UNL     1     -10.972   8.536  72.007  1.00  0.00    -0.340 C  
HETATM    5  N   UNL     1      -9.905   9.089  71.165  1.00  0.00    -0.275 N  
HETATM    6  C   UNL     1      -8.532   8.828  71.629  1.00  0.00    -0.141 C  
HETATM    7  C   UNL     1     -10.239   9.760  69.988  1.00  0.00    -0.263 C  
HETATM    8  O   UNL     1     -11.410   9.830  69.608  1.00  0.00    -0.212 OA 
HETATM    9  C   UNL     1      -8.267   7.324  71.879  1.00  0.00    -0.103 C  
ENDROOT
BRANCH   7  10
HETATM   10  C   UNL     1      -9.109  10.389  69.194  1.00  0.00    -0.197 C  
HETATM   11  C   UNL     1      -9.563  11.513  68.366  1.00  0.00    -0.195 C  
HETATM   12  N   UNL     1      -9.862  12.401  67.680  1.00  0.00    -0.194 NA 
ENDBRANCH   7  10
BRANCH   9  13
HETATM   13  N   UNL     1      -8.153   6.536  70.636  1.00  0.00    -0.111 NA 
HETATM   14  C   UNL     1      -7.136   5.530  70.377  1.00  0.00    -0.062 C  
BRANCH  13  15
HETATM   15  C   UNL     1      -9.162   6.629  69.685  1.00  0.00    -0.145 A  
HETATM   16  N   UNL     1     -10.400   6.149  69.978  1.00  0.00    -0.193 NA 
HETATM   17  C   UNL     1     -11.352   6.156  69.019  1.00  0.00    -0.183 A  
HETATM   18  N   UNL     1     -11.257   6.600  67.756  1.00  0.00    -0.237 NA 
HETATM   19  C   UNL     1     -10.042   7.104  67.512  1.00  0.00    -0.188 A  
HETATM   20  C   UNL     1      -8.971   7.171  68.388  1.00  0.00    -0.125 A  
HETATM   21  C   UNL     1      -7.921   7.835  67.682  1.00  0.00    -0.124 A  
HETATM   22  C   UNL     1      -8.365   8.105  66.405  1.00  0.00    -0.115 A  
HETATM   23  N   UNL     1      -9.655   7.649  66.316  1.00  0.00    -0.396 NA 
HETATM   24  H   UNL     1     -10.240   7.707  65.483  1.00  0.00     0.000 HD 
ENDBRANCH  13  15
ENDBRANCH   9  13
TORSDOF 3
ENDMDL
MODEL      250
REMARK 921   NORMALIZED FREE ENERGY PREDICTED BY IDOCK:   -1.34 KCAL/MOL
REMARK 922        TOTAL FREE ENERGY PREDICTED BY IDOCK:   -1.90 KCAL/MOL
REMARK 923 INTER-LIGAND FREE ENERGY PREDICTED BY IDOCK:   -4.75 KCAL/MOL
REMARK 924 INTRA-LIGAND FREE ENERGY PREDICTED BY IDOCK:    2.85 KCAL/MOL
REMARK 927      BINDING AFFINITY PREDICTED BY RF-SCORE:    0.00 PKD
ROOT
HETATM    1  C   UNL     1      -7.285  15.236  68.962  1.00  0.00    -0.151 C  
HETATM    2  C   UNL     1      -7.260  15.445  67.442  1.00  0.00    -0.242 C  
HETATM    3  C   UNL     1      -6.552  16.352  69.705  1.00  0.00    -0.180 C  
HETATM    4  C   UNL     1      -7.966  14.301  66.706  1.00  0.00     0.344 C  
HETATM    5  N   UNL     1      -9.293  13.996  67.256  1.00  0.00    -0.221 N  
HETATM    6  C   UNL     1      -9.344  13.802  68.715  1.00  0.00     0.003 C  
HETATM    7  C   UNL     1     -10.396  13.962  66.403  1.00  0.00    -0.289 C  
HETATM    8  O   UNL     1     -10.287  14.256  65.211  1.00  0.00    -0.347 OA 
HETATM    9  C   UNL     1      -8.720  14.986  69.493  1.00  0.00    -0.059 C  
ENDROOT
BRANCH   7  10
HETATM   10  C   UNL     1     -11.732  13.559  67.001  1.00  0.00    -0.424 C  
HETATM   11  C   UNL     1     -11.783  12.134  67.352  1.00  0.00    -0.304 C  
HETATM   12  N   UNL     1     -11.889  11.014  67.638  1.00  0.00    -0.562 NA 
ENDBRANCH   7  10
BRANCH   9  13
HETATM   13  N   UNL     1      -9.558  16.201  69.478  1.00  0.00    -0.205 NA 
HETATM   14  C   UNL     1     -10.784  16.378  70.240  1.00  0.00    -0.134 C  
BRANCH  13  15
HETATM   15  C   UNL     1      -9.093  17.332  68.818  1.00  0.00    -0.232 A  
HETATM   16  N   UNL     1      -8.120  18.087  69.394  1.00  0.00     0.255 NA 
HETATM   17  C   UNL     1      -7.737  19.235  68.794  1.00  0.00    -0.362 A  
HETATM   18  N   UNL     1      -8.189  19.766  67.648  1.00  0.00    -0.298 NA 
HETATM   19  C   UNL     1      -9.114  18.981  67.084  1.00  0.00    -0.283 A  
HETATM   20  C   UNL     1      -9.604  17.780  67.573  1.00  0.00    -0.268 A  
HETATM   21  C   UNL     1     -10.530  17.301  66.595  1.00  0.00    -0.257 A  
HETATM   22  C   UNL     1     -10.606  18.234  65.582  1.00  0.00    -0.090 A  
HETATM   23  N   UNL     1      -9.743  19.251  65.898  1.00  0.00    -0.440 NA 
HETATM   24  H   UNL     1      -9.591  20.087  65.333  1.00  0.00     0.000 HD 
ENDBRANCH  13  15
ENDBRANCH   9  13
TORSDOF 3
ENDMDL
MODEL      251
REMARK 921   NORMALIZED FREE ENERGY PREDICTED BY IDOCK:   -1.31 KCAL/MOL
REMARK 922        TOTAL FREE ENERGY PREDICTED BY IDOCK:   -1.86 KCAL/MOL
REMARK 923 INTER-LIGAND FREE ENERGY PREDICTED BY IDOCK:   -2.17 KCAL/MOL
REMARK 924 INTRA-LIGAND FREE ENERGY PREDICTED BY IDOCK:    0.31 KCAL/MOL
REMARK 927      BINDING AFFINITY PREDICTED BY RF-SCORE:    0.00 PKD
ROOT
HETATM    1  C   UNL     1      -6.588   4.634  65.224  1.00  0.00    -0.047 C  
HETATM    2  C   UNL     1      -5.663   5.845  65.403  1.00  0.00    -0.024 C  
HETATM    3  C   UNL     1      -6.011   3.374  65.867  1.00  0.00    -0.023 C  
HETATM    4  C   UNL     1      -6.234   7.094  64.722  1.00  0.00    -0.037 C  
HETATM    5  N   UNL     1      -7.638   7.345  65.069  1.00  0.00    -0.095 N  
HETATM    6  C   UNL     1      -8.544   6.194  64.915  1.00  0.00     0.032 C  
HETATM    7  C   UNL     1      -8.010   8.598  65.555  1.00  0.00    -0.108 C  
HETATM    8  O   UNL     1      -7.167   9.472  65.769  1.00  0.00    -0.092 OA 
HETATM    9  C   UNL     1      -8.041   4.939  65.669  1.00  0.00    -0.112 C  
ENDROOT
BRANCH   7  10
HETATM   10  C   UNL     1      -9.485   8.839  65.819  1.00  0.00    -0.239 C  
HETATM   11  C   UNL     1      -9.870  10.241  65.614  1.00  0.00    -0.268 C  
HETATM   12  N   UNL     1     -10.234  11.335  65.483  1.00  0.00    -0.249 NA 
ENDBRANCH   7  10
BRANCH   9  13
HETATM   13  N   UNL     1      -8.184   5.042  67.134  1.00  0.00    -0.107 NA 
HETATM   14  C   UNL     1      -8.394   6.281  67.867  1.00  0.00    -0.118 C  
BRANCH  13  15
HETATM   15  C   UNL     1      -8.282   3.877  67.886  1.00  0.00    -0.092 A  
HETATM   16  N   UNL     1      -9.330   3.036  67.678  1.00  0.00    -0.206 NA 
HETATM   17  C   UNL     1      -9.471   1.953  68.473  1.00  0.00    -0.166 A  
HETATM   18  N   UNL     1      -8.685   1.555  69.484  1.00  0.00    -0.054 NA 
HETATM   19  C   UNL     1      -7.641   2.378  69.637  1.00  0.00    -0.043 A  
HETATM   20  C   UNL     1      -7.359   3.518  68.901  1.00  0.00    -0.050 A  
HETATM   21  C   UNL     1      -6.119   4.019  69.405  1.00  0.00    -0.027 A  
HETATM   22  C   UNL     1      -5.717   3.207  70.444  1.00  0.00    -0.017 A  
HETATM   23  N   UNL     1      -6.656   2.217  70.576  1.00  0.00    -0.028 NA 
HETATM   24  H   UNL     1      -6.627   1.470  71.270  1.00  0.00     0.000 HD 
ENDBRANCH  13  15
ENDBRANCH   9  13
TORSDOF 3
ENDMDL
MODEL      252
REMARK 921   NORMALIZED FREE ENERGY PREDICTED BY IDOCK:   -1.25 KCAL/MOL
REMARK 922        TOTAL FREE ENERGY PREDICTED BY IDOCK:   -1.79 KCAL/MOL
REMARK 923 INTER-LIGAND FREE ENERGY PREDICTED BY IDOCK:   -3.95 KCAL/MOL
REMARK 924 INTRA-LIGAND FREE ENERGY PREDICTED BY IDOCK:    2.16 KCAL/MOL
REMARK 927      BINDING AFFINITY PREDICTED BY RF-SCORE:    0.00 PKD
ROOT
HETATM    1  C   UNL     1      -7.472   8.194  68.794  1.00  0.00    -0.090 C  
HETATM    2  C   UNL     1      -7.785   9.177  69.929  1.00  0.00    -0.087 C  
HETATM    3  C   UNL     1      -8.027   6.798  69.075  1.00  0.00    -0.116 C  
HETATM    4  C   UNL     1      -7.192  10.562  69.652  1.00  0.00    -0.148 C  
HETATM    5  N   UNL     1      -7.508  11.064  68.310  1.00  0.00    -0.087 N  
HETATM    6  C   UNL     1      -7.225  10.135  67.203  1.00  0.00    -0.090 C  
HETATM    7  C   UNL     1      -8.084  12.327  68.169  1.00  0.00    -0.158 C  
HETATM    8  O   UNL     1      -8.401  12.994  69.156  1.00  0.00     0.321 OA 
HETATM    9  C   UNL     1      -7.888   8.751  67.408  1.00  0.00    -0.098 C  
ENDROOT
BRANCH   7  10
HETATM   10  C   UNL     1      -8.314  12.839  66.758  1.00  0.00     0.010 C  
HETATM   11  C   UNL     1      -8.932  14.170  66.739  1.00  0.00    -0.208 C  
HETATM   12  N   UNL     1      -9.432  15.215  66.658  1.00  0.00    -0.247 NA 
ENDBRANCH   7  10
BRANCH   9  13
HETATM   13  N   UNL     1      -9.351   8.770  67.213  1.00  0.00    -0.144 NA 
HETATM   14  C   UNL     1     -10.116   7.735  66.536  1.00  0.00    -0.154 C  
BRANCH  13  15
HETATM   15  C   UNL     1     -10.102   9.758  67.840  1.00  0.00    -0.173 A  
HETATM   16  N   UNL     1     -10.218   9.746  69.195  1.00  0.00    -0.188 NA 
HETATM   17  C   UNL     1     -11.024  10.651  69.792  1.00  0.00    -0.280 A  
HETATM   18  N   UNL     1     -11.757  11.618  69.221  1.00  0.00    -0.303 NA 
HETATM   19  C   UNL     1     -11.588  11.631  67.894  1.00  0.00    -0.298 A  
HETATM   20  C   UNL     1     -10.798  10.776  67.141  1.00  0.00    -0.335 A  
HETATM   21  C   UNL     1     -10.908  11.222  65.788  1.00  0.00    -0.257 A  
HETATM   22  C   UNL     1     -11.784  12.287  65.756  1.00  0.00    -0.385 A  
HETATM   23  N   UNL     1     -12.193  12.519  67.043  1.00  0.00    -0.433 NA 
HETATM   24  H   UNL     1     -12.850  13.246  67.327  1.00  0.00     0.000 HD 
ENDBRANCH  13  15
ENDBRANCH   9  13
TORSDOF 3
ENDMDL
MODEL      253
REMARK 921   NORMALIZED FREE ENERGY PREDICTED BY IDOCK:   -1.21 KCAL/MOL
REMARK 922        TOTAL FREE ENERGY PREDICTED BY IDOCK:   -1.74 KCAL/MOL
REMARK 923 INTER-LIGAND FREE ENERGY PREDICTED BY IDOCK:   -2.80 KCAL/MOL
REMARK 924 INTRA-LIGAND FREE ENERGY PREDICTED BY IDOCK:    1.06 KCAL/MOL
REMARK 927      BINDING AFFINITY PREDICTED BY RF-SCORE:    0.00 PKD
ROOT
HETATM    1  C   UNL     1      -8.434   5.157  70.729  1.00  0.00    -0.119 C  
HETATM    2  C   UNL     1      -9.860   5.608  71.070  1.00  0.00    -0.231 C  
HETATM    3  C   UNL     1      -8.404   3.746  70.143  1.00  0.00    -0.084 C  
HETATM    4  C   UNL     1      -9.873   7.009  71.690  1.00  0.00    -0.163 C  
HETATM    5  N   UNL     1      -9.094   7.986  70.919  1.00  0.00    -0.146 N  
HETATM    6  C   UNL     1      -7.725   7.572  70.571  1.00  0.00    -0.094 C  
HETATM    7  C   UNL     1      -9.693   9.185  70.530  1.00  0.00    -0.236 C  
HETATM    8  O   UNL     1     -10.884   9.403  70.759  1.00  0.00    -0.253 OA 
HETATM    9  C   UNL     1      -7.685   6.198  69.857  1.00  0.00    -0.100 C  
ENDROOT
BRANCH   7  10
HETATM   10  C   UNL     1      -8.825  10.200  69.809  1.00  0.00    -0.152 C  
HETATM   11  C   UNL     1      -9.475  10.743  68.610  1.00  0.00    -0.188 C  
HETATM   12  N   UNL     1      -9.929  11.198  67.644  1.00  0.00    -0.172 NA 
ENDBRANCH   7  10
BRANCH   9  13
HETATM   13  N   UNL     1      -8.181   6.247  68.468  1.00  0.00    -0.112 NA 
HETATM   14  C   UNL     1      -8.435   7.465  67.716  1.00  0.00    -0.118 C  
BRANCH  13  15
HETATM   15  C   UNL     1      -8.277   5.063  67.745  1.00  0.00    -0.098 A  
HETATM   16  N   UNL     1      -9.505   4.556  67.459  1.00  0.00    -0.151 NA 
HETATM   17  C   UNL     1      -9.593   3.359  66.838  1.00  0.00    -0.073 A  
HETATM   18  N   UNL     1      -8.598   2.558  66.430  1.00  0.00    -0.107 NA 
HETATM   19  C   UNL     1      -7.403   3.103  66.688  1.00  0.00    -0.074 A  
HETATM   20  C   UNL     1      -7.153   4.316  67.310  1.00  0.00    -0.067 A  
HETATM   21  C   UNL     1      -5.733   4.479  67.307  1.00  0.00    -0.022 A  
HETATM   22  C   UNL     1      -5.173   3.356  66.734  1.00  0.00    -0.012 A  
HETATM   23  N   UNL     1      -6.202   2.527  66.368  1.00  0.00    -0.024 NA 
HETATM   24  H   UNL     1      -6.091   1.616  65.924  1.00  0.00     0.000 HD 
ENDBRANCH  13  15
ENDBRANCH   9  13
TORSDOF 3
ENDMDL
MODEL      254
REMARK 921   NORMALIZED FREE ENERGY PREDICTED BY IDOCK:   -1.19 KCAL/MOL
REMARK 922        TOTAL FREE ENERGY PREDICTED BY IDOCK:   -1.71 KCAL/MOL
REMARK 923 INTER-LIGAND FREE ENERGY PREDICTED BY IDOCK:   -4.10 KCAL/MOL
REMARK 924 INTRA-LIGAND FREE ENERGY PREDICTED BY IDOCK:    2.39 KCAL/MOL
REMARK 927      BINDING AFFINITY PREDICTED BY RF-SCORE:    0.00 PKD
ROOT
HETATM    1  C   UNL     1      -9.947  14.151  67.464  1.00  0.00    -0.236 C  
HETATM    2  C   UNL     1      -8.791  13.868  66.495  1.00  0.00    -0.023 C  
HETATM    3  C   UNL     1     -11.188  14.666  66.738  1.00  0.00    -0.344 C  
HETATM    4  C   UNL     1      -7.540  13.387  67.239  1.00  0.00    -0.062 C  
HETATM    5  N   UNL     1      -7.818  12.302  68.188  1.00  0.00    -0.139 N  
HETATM    6  C   UNL     1      -8.929  12.546  69.122  1.00  0.00     0.716 C  
HETATM    7  C   UNL     1      -7.073  11.124  68.119  1.00  0.00    -0.071 C  
HETATM    8  O   UNL     1      -6.239  10.952  67.227  1.00  0.00    -0.057 OA 
HETATM    9  C   UNL     1     -10.237  12.945  68.395  1.00  0.00    -0.237 C  
ENDROOT
BRANCH   7  10
HETATM   10  C   UNL     1      -7.336  10.065  69.173  1.00  0.00    -0.087 C  
HETATM   11  C   UNL     1      -7.435   8.716  68.602  1.00  0.00    -0.096 C  
HETATM   12  N   UNL     1      -7.536   7.629  68.209  1.00  0.00    -0.111 NA 
ENDBRANCH   7  10
BRANCH   9  13
HETATM   13  N   UNL     1     -10.881  11.819  67.692  1.00  0.00    -0.206 NA 
HETATM   14  C   UNL     1     -12.027  11.074  68.186  1.00  0.00     0.017 C  
BRANCH  13  15
HETATM   15  C   UNL     1     -10.486  11.521  66.393  1.00  0.00    -0.250 A  
HETATM   16  N   UNL     1      -9.372  10.767  66.192  1.00  0.00    -0.177 NA 
HETATM   17  C   UNL     1      -8.940  10.559  64.929  1.00  0.00    -0.199 A  
HETATM   18  N   UNL     1      -9.478  10.997  63.782  1.00  0.00    -0.242 NA 
HETATM   19  C   UNL     1     -10.595  11.698  64.010  1.00  0.00    -0.373 A  
HETATM   20  C   UNL     1     -11.163  11.992  65.239  1.00  0.00    -0.374 A  
HETATM   21  C   UNL     1     -12.363  12.715  64.959  1.00  0.00    -0.561 A  
HETATM   22  C   UNL     1     -12.460  12.876  63.593  1.00  0.00    -0.348 A  
HETATM   23  N   UNL     1     -11.374  12.256  63.031  1.00  0.00    -0.643 NA 
HETATM   24  H   UNL     1     -11.175  12.216  62.031  1.00  0.00     0.000 HD 
ENDBRANCH  13  15
ENDBRANCH   9  13
TORSDOF 3
ENDMDL
MODEL      255
REMARK 921   NORMALIZED FREE ENERGY PREDICTED BY IDOCK:   -1.13 KCAL/MOL
REMARK 922        TOTAL FREE ENERGY PREDICTED BY IDOCK:   -1.64 KCAL/MOL
REMARK 923 INTER-LIGAND FREE ENERGY PREDICTED BY IDOCK:   -4.47 KCAL/MOL
REMARK 924 INTRA-LIGAND FREE ENERGY PREDICTED BY IDOCK:    2.83 KCAL/MOL
REMARK 927      BINDING AFFINITY PREDICTED BY RF-SCORE:    0.00 PKD
ROOT
HETATM    1  C   UNL     1      -9.600  15.908  67.773  1.00  0.00    -0.218 C  
HETATM    2  C   UNL     1      -8.680  15.543  66.601  1.00  0.00    -0.326 C  
HETATM    3  C   UNL     1     -10.909  16.537  67.299  1.00  0.00    -0.173 C  
HETATM    4  C   UNL     1      -7.355  14.948  67.092  1.00  0.00    -0.025 C  
HETATM    5  N   UNL     1      -7.537  13.877  68.079  1.00  0.00    -0.127 N  
HETATM    6  C   UNL     1      -8.425  14.200  69.208  1.00  0.00     0.328 C  
HETATM    7  C   UNL     1      -6.923  12.642  67.870  1.00  0.00    -0.110 C  
HETATM    8  O   UNL     1      -6.293  12.413  66.835  1.00  0.00    -0.169 OA 
HETATM    9  C   UNL     1      -9.808  14.718  68.745  1.00  0.00    -0.227 C  
ENDROOT
BRANCH   7  10
HETATM   10  C   UNL     1      -7.069  11.594  68.959  1.00  0.00    -0.108 C  
HETATM   11  C   UNL     1      -6.629  10.264  68.519  1.00  0.00    -0.052 C  
HETATM   12  N   UNL     1      -6.310   9.187  68.226  1.00  0.00    -0.054 NA 
ENDBRANCH   7  10
BRANCH   9  13
HETATM   13  N   UNL     1     -10.669  13.660  68.182  1.00  0.00    -0.242 NA 
HETATM   14  C   UNL     1     -11.763  13.012  68.886  1.00  0.00    -0.328 C  
BRANCH  13  15
HETATM   15  C   UNL     1     -10.551  13.343  66.833  1.00  0.00    -0.273 A  
HETATM   16  N   UNL     1     -10.847  14.285  65.899  1.00  0.00    -0.294 NA 
HETATM   17  C   UNL     1     -10.821  13.945  64.592  1.00  0.00    -0.408 A  
HETATM   18  N   UNL     1     -10.522  12.757  64.047  1.00  0.00    -0.420 NA 
HETATM   19  C   UNL     1     -10.195  11.863  64.988  1.00  0.00    -0.278 A  
HETATM   20  C   UNL     1     -10.170  12.062  66.359  1.00  0.00    -0.243 A  
HETATM   21  C   UNL     1      -9.712  10.835  66.931  1.00  0.00    -0.209 A  
HETATM   22  C   UNL     1      -9.520   9.929  65.908  1.00  0.00    -0.215 A  
HETATM   23  N   UNL     1      -9.824  10.569  64.734  1.00  0.00    -0.298 NA 
HETATM   24  H   UNL     1      -9.780  10.145  63.807  1.00  0.00     0.000 HD 
ENDBRANCH  13  15
ENDBRANCH   9  13
TORSDOF 3
ENDMDL
MODEL      256
REMARK 921   NORMALIZED FREE ENERGY PREDICTED BY IDOCK:   -1.05 KCAL/MOL
REMARK 922        TOTAL FREE ENERGY PREDICTED BY IDOCK:   -1.55 KCAL/MOL
REMARK 923 INTER-LIGAND FREE ENERGY PREDICTED BY IDOCK:   -1.94 KCAL/MOL
REMARK 924 INTRA-LIGAND FREE ENERGY PREDICTED BY IDOCK:    0.39 KCAL/MOL
REMARK 927      BINDING AFFINITY PREDICTED BY RF-SCORE:    0.00 PKD
ROOT
HETATM    1  C   UNL     1      -8.586  14.209  67.540  1.00  0.00    -0.196 C  
HETATM    2  C   UNL     1      -8.286  14.975  68.835  1.00  0.00    -0.178 C  
HETATM    3  C   UNL     1      -7.402  13.353  67.094  1.00  0.00     0.098 C  
HETATM    4  C   UNL     1      -9.467  15.858  69.252  1.00  0.00    -0.260 C  
HETATM    5  N   UNL     1     -10.748  15.142  69.252  1.00  0.00    -0.240 N  
HETATM    6  C   UNL     1     -11.054  14.391  68.023  1.00  0.00    -0.272 C  
HETATM    7  C   UNL     1     -11.548  15.170  70.394  1.00  0.00    -0.292 C  
HETATM    8  O   UNL     1     -11.163  15.723  71.426  1.00  0.00    -0.366 OA 
HETATM    9  C   UNL     1      -9.917  13.419  67.624  1.00  0.00    -0.229 C  
ENDROOT
BRANCH   7  10
HETATM   10  C   UNL     1     -12.902  14.487  70.319  1.00  0.00    -0.249 C  
HETATM   11  C   UNL     1     -13.152  13.608  71.468  1.00  0.00    -0.350 C  
HETATM   12  N   UNL     1     -13.402  12.888  72.344  1.00  0.00    -0.497 NA 
ENDBRANCH   7  10
BRANCH   9  13
HETATM   13  N   UNL     1      -9.827  12.234  68.500  1.00  0.00    -0.189 NA 
HETATM   14  C   UNL     1      -9.613  12.274  69.937  1.00  0.00     2.528 C  
BRANCH  13  15
HETATM   15  C   UNL     1     -10.115  10.982  67.970  1.00  0.00    -0.179 A  
HETATM   16  N   UNL     1     -11.064  10.210  68.563  1.00  0.00    -0.237 NA 
HETATM   17  C   UNL     1     -11.274   8.957  68.102  1.00  0.00     0.477 A  
HETATM   18  N   UNL     1     -10.663   8.331  67.087  1.00  0.00    -0.256 NA 
HETATM   19  C   UNL     1      -9.765   9.129  66.497  1.00  0.00    -0.241 A  
HETATM   20  C   UNL     1      -9.442  10.430  66.850  1.00  0.00    -0.196 A  
HETATM   21  C   UNL     1      -8.474  10.872  65.897  1.00  0.00    -0.158 A  
HETATM   22  C   UNL     1      -8.209   9.826  65.037  1.00  0.00    -0.142 A  
HETATM   23  N   UNL     1      -8.998   8.773  65.419  1.00  0.00    -0.316 NA 
HETATM   24  H   UNL     1      -9.013   7.858  64.969  1.00  0.00     0.000 HD 
ENDBRANCH  13  15
ENDBRANCH   9  13
TORSDOF 3
ENDMDL
MODEL      257
REMARK 921   NORMALIZED FREE ENERGY PREDICTED BY IDOCK:   -0.93 KCAL/MOL
REMARK 922        TOTAL FREE ENERGY PREDICTED BY IDOCK:   -1.41 KCAL/MOL
REMARK 923 INTER-LIGAND FREE ENERGY PREDICTED BY IDOCK:   -3.88 KCAL/MOL
REMARK 924 INTRA-LIGAND FREE ENERGY PREDICTED BY IDOCK:    2.47 KCAL/MOL
REMARK 927      BINDING AFFINITY PREDICTED BY RF-SCORE:    0.00 PKD
ROOT
HETATM    1  C   UNL     1      -8.071   6.350  66.468  1.00  0.00    -0.111 C  
HETATM    2  C   UNL     1      -7.067   7.235  67.220  1.00  0.00    -0.091 C  
HETATM    3  C   UNL     1      -7.546   4.929  66.271  1.00  0.00    -0.087 C  
HETATM    4  C   UNL     1      -7.589   8.667  67.378  1.00  0.00    -0.093 C  
HETATM    5  N   UNL     1      -8.961   8.724  67.899  1.00  0.00    -0.139 N  
HETATM    6  C   UNL     1      -9.940   7.876  67.199  1.00  0.00    -0.230 C  
HETATM    7  C   UNL     1      -9.235   9.510  69.019  1.00  0.00    -0.155 C  
HETATM    8  O   UNL     1      -8.333  10.096  69.620  1.00  0.00    -0.168 OA 
HETATM    9  C   UNL     1      -9.484   6.400  67.103  1.00  0.00    -0.129 C  
ENDROOT
BRANCH   7  10
HETATM   10  C   UNL     1     -10.682   9.607  69.469  1.00  0.00    -0.252 C  
HETATM   11  C   UNL     1     -11.468  10.526  68.637  1.00  0.00    -0.223 C  
HETATM   12  N   UNL     1     -12.139  11.249  68.026  1.00  0.00    -0.624 NA 
ENDBRANCH   7  10
BRANCH   9  13
HETATM   13  N   UNL     1      -9.561   5.680  68.389  1.00  0.00    -0.121 NA 
HETATM   14  C   UNL     1     -10.032   4.315  68.555  1.00  0.00     0.047 C  
BRANCH  13  15
HETATM   15  C   UNL     1      -9.008   6.266  69.523  1.00  0.00    -0.134 A  
HETATM   16  N   UNL     1      -7.669   6.495  69.570  1.00  0.00    -0.098 NA 
HETATM   17  C   UNL     1      -7.124   6.977  70.708  1.00  0.00    -0.067 A  
HETATM   18  N   UNL     1      -7.740   7.292  71.857  1.00  0.00    -0.089 NA 
HETATM   19  C   UNL     1      -9.061   7.097  71.766  1.00  0.00    -0.139 A  
HETATM   20  C   UNL     1      -9.763   6.614  70.673  1.00  0.00    -0.183 A  
HETATM   21  C   UNL     1     -11.142   6.635  71.045  1.00  0.00    -0.330 A  
HETATM   22  C   UNL     1     -11.229   7.077  72.349  1.00  0.00    -0.268 A  
HETATM   23  N   UNL     1      -9.954   7.349  72.774  1.00  0.00    -0.196 NA 
HETATM   24  H   UNL     1      -9.706   7.688  73.703  1.00  0.00     0.000 HD 
ENDBRANCH  13  15
ENDBRANCH   9  13
TORSDOF 3
ENDMDL
MODEL      258
REMARK 921   NORMALIZED FREE ENERGY PREDICTED BY IDOCK:   -0.65 KCAL/MOL
REMARK 922        TOTAL FREE ENERGY PREDICTED BY IDOCK:   -1.08 KCAL/MOL
REMARK 923 INTER-LIGAND FREE ENERGY PREDICTED BY IDOCK:   -3.66 KCAL/MOL
REMARK 924 INTRA-LIGAND FREE ENERGY PREDICTED BY IDOCK:    2.58 KCAL/MOL
REMARK 927      BINDING AFFINITY PREDICTED BY RF-SCORE:    0.00 PKD
ROOT
HETATM    1  C   UNL     1     -10.962  13.816  68.948  1.00  0.00    -0.281 C  
HETATM    2  C   UNL     1     -11.281  14.267  67.517  1.00  0.00    -0.322 C  
HETATM    3  C   UNL     1     -10.381  12.403  68.987  1.00  0.00     0.023 C  
HETATM    4  C   UNL     1     -11.897  15.670  67.494  1.00  0.00     0.222 C  
HETATM    5  N   UNL     1     -11.134  16.645  68.283  1.00  0.00    -0.346 N  
HETATM    6  C   UNL     1     -10.806  16.231  69.657  1.00  0.00    -0.345 C  
HETATM    7  C   UNL     1     -10.732  17.842  67.690  1.00  0.00    -0.331 C  
HETATM    8  O   UNL     1     -10.943  18.061  66.495  1.00  0.00    -0.065 OA 
HETATM    9  C   UNL     1     -10.098  14.855  69.708  1.00  0.00    -0.003 C  
ENDROOT
BRANCH   7  10
HETATM   10  C   UNL     1     -10.020  18.855  68.567  1.00  0.00    -0.463 C  
HETATM   11  C   UNL     1      -9.857  20.155  67.904  1.00  0.00    -0.389 C  
HETATM   12  N   UNL     1      -9.685  21.200  67.429  1.00  0.00    -0.173 NA 
ENDBRANCH   7  10
BRANCH   9  13
HETATM   13  N   UNL     1      -8.701  14.899  69.232  1.00  0.00    -0.143 NA 
HETATM   14  C   UNL     1      -7.630  14.040  69.710  1.00  0.00     0.521 C  
BRANCH  13  15
HETATM   15  C   UNL     1      -8.386  15.702  68.142  1.00  0.00    -0.146 A  
HETATM   16  N   UNL     1      -8.863  15.373  66.912  1.00  0.00    -0.233 NA 
HETATM   17  C   UNL     1      -8.478  16.103  65.842  1.00  0.00     0.103 A  
HETATM   18  N   UNL     1      -7.662  17.166  65.810  1.00  0.00    -0.335 NA 
HETATM   19  C   UNL     1      -7.243  17.491  67.039  1.00  0.00    -0.181 A  
HETATM   20  C   UNL     1      -7.552  16.846  68.226  1.00  0.00    -0.202 A  
HETATM   21  C   UNL     1      -6.912  17.594  69.262  1.00  0.00    -0.161 A  
HETATM   22  C   UNL     1      -6.207  18.625  68.676  1.00  0.00    -0.218 A  
HETATM   23  N   UNL     1      -6.415  18.544  67.324  1.00  0.00    -0.192 NA 
HETATM   24  H   UNL     1      -6.013  19.176  66.631  1.00  0.00     0.000 HD 
ENDBRANCH  13  15
ENDBRANCH   9  13
TORSDOF 3
ENDMDL
MODEL      259
REMARK 921   NORMALIZED FREE ENERGY PREDICTED BY IDOCK:   -0.62 KCAL/MOL
REMARK 922        TOTAL FREE ENERGY PREDICTED BY IDOCK:   -1.05 KCAL/MOL
REMARK 923 INTER-LIGAND FREE ENERGY PREDICTED BY IDOCK:   -3.70 KCAL/MOL
REMARK 924 INTRA-LIGAND FREE ENERGY PREDICTED BY IDOCK:    2.65 KCAL/MOL
REMARK 927      BINDING AFFINITY PREDICTED BY RF-SCORE:    0.00 PKD
ROOT
HETATM    1  C   UNL     1     -10.890  14.031  67.465  1.00  0.00    -0.277 C  
HETATM    2  C   UNL     1     -10.663  13.203  66.193  1.00  0.00    -0.289 C  
HETATM    3  C   UNL     1     -12.366  14.365  67.675  1.00  0.00    -0.029 C  
HETATM    4  C   UNL     1      -9.176  12.906  65.973  1.00  0.00     0.060 C  
HETATM    5  N   UNL     1      -8.514  12.375  67.171  1.00  0.00    -0.181 N  
HETATM    6  C   UNL     1      -8.724  13.146  68.407  1.00  0.00    -0.120 C  
HETATM    7  C   UNL     1      -7.792  11.184  67.082  1.00  0.00    -0.139 C  
HETATM    8  O   UNL     1      -7.765  10.534  66.035  1.00  0.00    -0.137 OA 
HETATM    9  C   UNL     1     -10.224  13.385  68.707  1.00  0.00    -0.119 C  
ENDROOT
BRANCH   7  10
HETATM   10  C   UNL     1      -7.054  10.718  68.324  1.00  0.00    -0.078 C  
HETATM   11  C   UNL     1      -6.493   9.370  68.170  1.00  0.00    -0.054 C  
HETATM   12  N   UNL     1      -6.038   8.303  68.115  1.00  0.00    -0.049 NA 
ENDBRANCH   7  10
BRANCH   9  13
HETATM   13  N   UNL     1     -10.927  12.173  69.171  1.00  0.00    -0.198 NA 
HETATM   14  C   UNL     1     -12.029  12.159  70.119  1.00  0.00    -0.314 C  
BRANCH  13  15
HETATM   15  C   UNL     1     -10.642  10.955  68.563  1.00  0.00    -0.190 A  
HETATM   16  N   UNL     1     -10.926  10.786  67.245  1.00  0.00    -0.303 NA 
HETATM   17  C   UNL     1     -10.734   9.573  66.682  1.00  0.00    -0.016 A  
HETATM   18  N   UNL     1     -10.270   8.453  67.256  1.00  0.00    -0.252 NA 
HETATM   19  C   UNL     1      -9.961   8.662  68.541  1.00  0.00    -0.183 A  
HETATM   20  C   UNL     1     -10.096   9.843  69.254  1.00  0.00    -0.214 A  
HETATM   21  C   UNL     1      -9.587   9.578  70.563  1.00  0.00    -0.312 A  
HETATM   22  C   UNL     1      -9.208   8.253  70.616  1.00  0.00    -0.152 A  
HETATM   23  N   UNL     1      -9.446   7.710  69.381  1.00  0.00    -0.153 NA 
HETATM   24  H   UNL     1      -9.268   6.739  69.124  1.00  0.00     0.000 HD 
ENDBRANCH  13  15
ENDBRANCH   9  13
TORSDOF 3
ENDMDL
MODEL      260
REMARK 921   NORMALIZED FREE ENERGY PREDICTED BY IDOCK:   -0.59 KCAL/MOL
REMARK 922        TOTAL FREE ENERGY PREDICTED BY IDOCK:   -1.01 KCAL/MOL
REMARK 923 INTER-LIGAND FREE ENERGY PREDICTED BY IDOCK:   -3.71 KCAL/MOL
REMARK 924 INTRA-LIGAND FREE ENERGY PREDICTED BY IDOCK:    2.70 KCAL/MOL
REMARK 927      BINDING AFFINITY PREDICTED BY RF-SCORE:    0.00 PKD
ROOT
HETATM    1  C   UNL     1      -8.337   9.257  66.629  1.00  0.00    -0.122 C  
HETATM    2  C   UNL     1      -9.107   8.124  67.322  1.00  0.00    -0.156 C  
HETATM    3  C   UNL     1      -9.272  10.336  66.085  1.00  0.00    -0.192 C  
HETATM    4  C   UNL     1      -8.161   7.031  67.830  1.00  0.00    -0.114 C  
HETATM    5  N   UNL     1      -7.033   7.562  68.605  1.00  0.00    -0.076 N  
HETATM    6  C   UNL     1      -6.284   8.657  67.965  1.00  0.00    -0.052 C  
HETATM    7  C   UNL     1      -6.777   7.053  69.878  1.00  0.00    -0.049 C  
HETATM    8  O   UNL     1      -7.526   6.219  70.391  1.00  0.00    -0.086 OA 
HETATM    9  C   UNL     1      -7.203   9.822  67.522  1.00  0.00    -0.089 C  
ENDROOT
BRANCH   7  10
HETATM   10  C   UNL     1      -5.550   7.571  70.606  1.00  0.00    -0.027 C  
HETATM   11  C   UNL     1      -5.877   8.624  71.576  1.00  0.00    -0.047 C  
HETATM   12  N   UNL     1      -6.069   9.469  72.348  1.00  0.00    -0.290 NA 
ENDBRANCH   7  10
BRANCH   9  13
HETATM   13  N   UNL     1      -7.707  10.630  68.649  1.00  0.00    -0.102 NA 
HETATM   14  C   UNL     1      -6.918  11.586  69.409  1.00  0.00    -0.071 C  
BRANCH  13  15
HETATM   15  C   UNL     1      -9.067  10.612  68.935  1.00  0.00    -0.176 A  
HETATM   16  N   UNL     1      -9.899  11.453  68.264  1.00  0.00    -0.194 NA 
HETATM   17  C   UNL     1     -11.205  11.499  68.610  1.00  0.00    -0.248 A  
HETATM   18  N   UNL     1     -11.840  10.795  69.558  1.00  0.00    -0.305 NA 
HETATM   19  C   UNL     1     -11.005   9.948  70.171  1.00  0.00    -0.301 A  
HETATM   20  C   UNL     1      -9.651   9.783  69.927  1.00  0.00    -0.269 A  
HETATM   21  C   UNL     1      -9.215   8.733  70.793  1.00  0.00    -0.242 A  
HETATM   22  C   UNL     1     -10.291   8.332  71.556  1.00  0.00    -0.214 A  
HETATM   23  N   UNL     1     -11.370   9.084  71.169  1.00  0.00    -0.283 NA 
HETATM   24  H   UNL     1     -12.307   9.012  71.566  1.00  0.00     0.000 HD 
ENDBRANCH  13  15
ENDBRANCH   9  13
TORSDOF 3
ENDMDL
MODEL      261
REMARK 921   NORMALIZED FREE ENERGY PREDICTED BY IDOCK:   -0.50 KCAL/MOL
REMARK 922        TOTAL FREE ENERGY PREDICTED BY IDOCK:   -0.90 KCAL/MOL
REMARK 923 INTER-LIGAND FREE ENERGY PREDICTED BY IDOCK:   -3.30 KCAL/MOL
REMARK 924 INTRA-LIGAND FREE ENERGY PREDICTED BY IDOCK:    2.40 KCAL/MOL
REMARK 927      BINDING AFFINITY PREDICTED BY RF-SCORE:    0.00 PKD
ROOT
HETATM    1  C   UNL     1      -6.806   4.510  67.878  1.00  0.00    -0.055 C  
HETATM    2  C   UNL     1      -6.603   5.743  68.768  1.00  0.00    -0.051 C  
HETATM    3  C   UNL     1      -7.094   3.253  68.696  1.00  0.00    -0.049 C  
HETATM    4  C   UNL     1      -6.277   6.989  67.938  1.00  0.00    -0.038 C  
HETATM    5  N   UNL     1      -7.207   7.193  66.820  1.00  0.00    -0.081 N  
HETATM    6  C   UNL     1      -7.426   6.021  65.956  1.00  0.00    -0.085 C  
HETATM    7  C   UNL     1      -7.845   8.425  66.677  1.00  0.00    -0.093 C  
HETATM    8  O   UNL     1      -7.699   9.317  67.515  1.00  0.00    -0.091 OA 
HETATM    9  C   UNL     1      -7.847   4.765  66.757  1.00  0.00    -0.099 C  
ENDROOT
BRANCH   7  10
HETATM   10  C   UNL     1      -8.731   8.618  65.459  1.00  0.00    -0.219 C  
HETATM   11  C   UNL     1      -9.390   9.930  65.447  1.00  0.00    -0.239 C  
HETATM   12  N   UNL     1      -9.951  10.944  65.388  1.00  0.00    -0.247 NA 
ENDBRANCH   7  10
BRANCH   9  13
HETATM   13  N   UNL     1      -9.231   4.833  67.264  1.00  0.00    -0.123 NA 
HETATM   14  C   UNL     1     -10.424   4.848  66.434  1.00  0.00    -0.280 C  
BRANCH  13  15
HETATM   15  C   UNL     1      -9.453   4.723  68.632  1.00  0.00    -0.150 A  
HETATM   16  N   UNL     1      -9.454   3.492  69.210  1.00  0.00    -0.182 NA 
HETATM   17  C   UNL     1      -9.762   3.382  70.521  1.00  0.00    -0.091 A  
HETATM   18  N   UNL     1     -10.075   4.357  71.387  1.00  0.00    -0.172 NA 
HETATM   19  C   UNL     1     -10.025   5.559  70.800  1.00  0.00    -0.201 A  
HETATM   20  C   UNL     1      -9.722   5.831  69.475  1.00  0.00    -0.199 A  
HETATM   21  C   UNL     1      -9.749   7.254  69.346  1.00  0.00    -0.161 A  
HETATM   22  C   UNL     1     -10.107   7.790  70.566  1.00  0.00    -0.192 A  
HETATM   23  N   UNL     1     -10.277   6.745  71.437  1.00  0.00    -0.198 NA 
HETATM   24  H   UNL     1     -10.550   6.836  72.415  1.00  0.00     0.000 HD 
ENDBRANCH  13  15
ENDBRANCH   9  13
TORSDOF 3
ENDMDL
MODEL      262
REMARK 921   NORMALIZED FREE ENERGY PREDICTED BY IDOCK:   -0.42 KCAL/MOL
REMARK 922        TOTAL FREE ENERGY PREDICTED BY IDOCK:   -0.81 KCAL/MOL
REMARK 923 INTER-LIGAND FREE ENERGY PREDICTED BY IDOCK:   -3.97 KCAL/MOL
REMARK 924 INTRA-LIGAND FREE ENERGY PREDICTED BY IDOCK:    3.15 KCAL/MOL
REMARK 927      BINDING AFFINITY PREDICTED BY RF-SCORE:    0.00 PKD
ROOT
HETATM    1  C   UNL     1     -10.714  11.703  68.472  1.00  0.00    -0.250 C  
HETATM    2  C   UNL     1     -11.529  12.984  68.696  1.00  0.00    -0.344 C  
HETATM    3  C   UNL     1     -11.484  10.671  67.650  1.00  0.00    -0.169 C  
HETATM    4  C   UNL     1     -10.760  13.996  69.553  1.00  0.00     0.027 C  
HETATM    5  N   UNL     1      -9.388  14.222  69.083  1.00  0.00     0.036 N  
HETATM    6  C   UNL     1      -8.589  13.008  68.852  1.00  0.00     0.301 C  
HETATM    7  C   UNL     1      -8.954  15.526  68.842  1.00  0.00    -0.220 C  
HETATM    8  O   UNL     1      -9.725  16.482  68.945  1.00  0.00    -0.238 OA 
HETATM    9  C   UNL     1      -9.299  12.002  67.913  1.00  0.00    -0.190 C  
ENDROOT
BRANCH   7  10
HETATM   10  C   UNL     1      -7.502  15.717  68.440  1.00  0.00    -0.121 C  
HETATM   11  C   UNL     1      -7.079  17.121  68.519  1.00  0.00    -0.213 C  
HETATM   12  N   UNL     1      -6.689  18.214  68.547  1.00  0.00    -0.222 NA 
ENDBRANCH   7  10
BRANCH   9  13
HETATM   13  N   UNL     1      -9.319  12.434  66.502  1.00  0.00    -0.233 NA 
HETATM   14  C   UNL     1      -8.296  12.118  65.518  1.00  0.00     1.080 C  
BRANCH  13  15
HETATM   15  C   UNL     1     -10.456  13.061  66.005  1.00  0.00    -0.279 A  
HETATM   16  N   UNL     1     -10.878  14.222  66.574  1.00  0.00    -0.300 NA 
HETATM   17  C   UNL     1     -12.035  14.778  66.150  1.00  0.00    -0.149 A  
HETATM   18  N   UNL     1     -12.868  14.340  65.194  1.00  0.00    -0.672 NA 
HETATM   19  C   UNL     1     -12.404  13.220  64.626  1.00  0.00    -0.391 A  
HETATM   20  C   UNL     1     -11.241  12.538  64.946  1.00  0.00    -0.344 A  
HETATM   21  C   UNL     1     -11.158  11.443  64.032  1.00  0.00    -0.400 A  
HETATM   22  C   UNL     1     -12.279  11.467  63.229  1.00  0.00     0.038 A  
HETATM   23  N   UNL     1     -13.029  12.551  63.607  1.00  0.00    -0.716 NA 
HETATM   24  H   UNL     1     -13.921  12.820  63.191  1.00  0.00     0.000 HD 
ENDBRANCH  13  15
ENDBRANCH   9  13
TORSDOF 3
ENDMDL
MODEL      263
REMARK 921   NORMALIZED FREE ENERGY PREDICTED BY IDOCK:   -0.16 KCAL/MOL
REMARK 922        TOTAL FREE ENERGY PREDICTED BY IDOCK:   -0.50 KCAL/MOL
REMARK 923 INTER-LIGAND FREE ENERGY PREDICTED BY IDOCK:   -1.41 KCAL/MOL
REMARK 924 INTRA-LIGAND FREE ENERGY PREDICTED BY IDOCK:    0.92 KCAL/MOL
REMARK 927      BINDING AFFINITY PREDICTED BY RF-SCORE:    0.00 PKD
ROOT
HETATM    1  C   UNL     1     -11.143  15.574  66.701  1.00  0.00    -0.193 C  
HETATM    2  C   UNL     1      -9.997  16.594  66.692  1.00  0.00    -0.290 C  
HETATM    3  C   UNL     1     -11.667  15.288  65.294  1.00  0.00    -0.058 C  
HETATM    4  C   UNL     1      -9.506  16.900  68.110  1.00  0.00    -0.251 C  
HETATM    5  N   UNL     1      -9.237  15.691  68.898  1.00  0.00    -0.209 N  
HETATM    6  C   UNL     1     -10.318  14.692  68.914  1.00  0.00    -0.245 C  
HETATM    7  C   UNL     1      -7.997  15.541  69.520  1.00  0.00    -0.192 C  
HETATM    8  O   UNL     1      -7.100  16.371  69.357  1.00  0.00    -0.221 OA 
HETATM    9  C   UNL     1     -10.776  14.291  67.491  1.00  0.00    -0.270 C  
ENDROOT
BRANCH   7  10
HETATM   10  C   UNL     1      -7.795  14.316  70.394  1.00  0.00     1.504 C  
HETATM   11  C   UNL     1      -6.625  13.527  69.990  1.00  0.00     0.112 C  
HETATM   12  N   UNL     1      -5.722  12.853  69.710  1.00  0.00    -0.102 NA 
ENDBRANCH   7  10
BRANCH   9  13
HETATM   13  N   UNL     1      -9.800  13.440  66.782  1.00  0.00    -0.258 NA 
HETATM   14  C   UNL     1      -8.915  13.891  65.721  1.00  0.00     0.713 C  
BRANCH  13  15
HETATM   15  C   UNL     1      -9.579  12.146  67.239  1.00  0.00    -0.185 A  
HETATM   16  N   UNL     1      -9.804  11.854  68.547  1.00  0.00    -0.204 NA 
HETATM   17  C   UNL     1      -9.499  10.620  69.007  1.00  0.00    -0.191 A  
HETATM   18  N   UNL     1      -8.989   9.582  68.328  1.00  0.00    -0.124 NA 
HETATM   19  C   UNL     1      -8.818   9.886  67.037  1.00  0.00    -0.134 A  
HETATM   20  C   UNL     1      -9.087  11.098  66.419  1.00  0.00    -0.198 A  
HETATM   21  C   UNL     1      -8.790  10.912  65.034  1.00  0.00    -0.151 A  
HETATM   22  C   UNL     1      -8.314   9.629  64.864  1.00  0.00    -0.148 A  
HETATM   23  N   UNL     1      -8.332   9.021  66.093  1.00  0.00    -0.118 NA 
HETATM   24  H   UNL     1      -8.029   8.065  66.278  1.00  0.00     0.000 HD 
ENDBRANCH  13  15
ENDBRANCH   9  13
TORSDOF 3
ENDMDL
MODEL      264
REMARK 921   NORMALIZED FREE ENERGY PREDICTED BY IDOCK:    0.41 KCAL/MOL
REMARK 922        TOTAL FREE ENERGY PREDICTED BY IDOCK:    0.17 KCAL/MOL
REMARK 923 INTER-LIGAND FREE ENERGY PREDICTED BY IDOCK:   -1.31 KCAL/MOL
REMARK 924 INTRA-LIGAND FREE ENERGY PREDICTED BY IDOCK:    1.48 KCAL/MOL
REMARK 927      BINDING AFFINITY PREDICTED BY RF-SCORE:    0.00 PKD
ROOT
HETATM    1  C   UNL     1      -9.155  16.053  65.540  1.00  0.00     0.260 C  
HETATM    2  C   UNL     1      -7.824  16.548  66.122  1.00  0.00    -0.134 C  
HETATM    3  C   UNL     1      -9.164  14.538  65.339  1.00  0.00     0.663 C  
HETATM    4  C   UNL     1      -7.814  18.071  66.284  1.00  0.00    -0.253 C  
HETATM    5  N   UNL     1      -9.006  18.584  66.970  1.00  0.00    -0.268 N  
HETATM    6  C   UNL     1     -10.296  18.115  66.436  1.00  0.00    -0.394 C  
HETATM    7  C   UNL     1      -8.853  19.414  68.081  1.00  0.00    -0.331 C  
HETATM    8  O   UNL     1      -7.736  19.662  68.539  1.00  0.00    -0.336 OA 
HETATM    9  C   UNL     1     -10.373  16.571  66.346  1.00  0.00    -0.311 C  
ENDROOT
BRANCH   7  10
HETATM   10  C   UNL     1     -10.112  19.988  68.705  1.00  0.00    -0.421 C  
HETATM   11  C   UNL     1      -9.923  20.351  70.116  1.00  0.00     0.867 C  
HETATM   12  N   UNL     1      -9.841  20.644  71.236  1.00  0.00     1.968 NA 
ENDBRANCH   7  10
BRANCH   9  13
HETATM   13  N   UNL     1     -10.514  15.916  67.660  1.00  0.00    -0.282 NA 
HETATM   14  C   UNL     1     -10.430  16.595  68.944  1.00  0.00    -0.322 C  
BRANCH  13  15
HETATM   15  C   UNL     1     -10.906  14.583  67.711  1.00  0.00    -0.264 A  
HETATM   16  N   UNL     1     -10.482  13.803  68.739  1.00  0.00    -0.237 NA 
HETATM   17  C   UNL     1     -10.788  12.486  68.734  1.00  0.00    -0.239 A  
HETATM   18  N   UNL     1     -11.494  11.800  67.825  1.00  0.00    -0.354 NA 
HETATM   19  C   UNL     1     -11.933  12.603  66.848  1.00  0.00    -0.275 A  
HETATM   20  C   UNL     1     -11.707  13.964  66.718  1.00  0.00    -0.423 A  
HETATM   21  C   UNL     1     -12.419  14.375  65.549  1.00  0.00    -0.356 A  
HETATM   22  C   UNL     1     -13.008  13.260  64.990  1.00  0.00    -0.157 A  
HETATM   23  N   UNL     1     -12.698  12.190  65.789  1.00  0.00     0.289 NA 
HETATM   24  H   UNL     1     -12.993  11.228  65.621  1.00  0.00     0.000 HD 
ENDBRANCH  13  15
ENDBRANCH   9  13
TORSDOF 3
ENDMDL
MODEL      265
REMARK 921   NORMALIZED FREE ENERGY PREDICTED BY IDOCK:    0.42 KCAL/MOL
REMARK 922        TOTAL FREE ENERGY PREDICTED BY IDOCK:    0.18 KCAL/MOL
REMARK 923 INTER-LIGAND FREE ENERGY PREDICTED BY IDOCK:   -0.22 KCAL/MOL
REMARK 924 INTRA-LIGAND FREE ENERGY PREDICTED BY IDOCK:    0.39 KCAL/MOL
REMARK 927      BINDING AFFINITY PREDICTED BY RF-SCORE:    0.00 PKD
ROOT
HETATM    1  C   UNL     1      -9.157  16.051  65.538  1.00  0.00     0.260 C  
HETATM    2  C   UNL     1      -7.818  16.532  66.113  1.00  0.00    -0.134 C  
HETATM    3  C   UNL     1      -9.175  14.540  65.315  1.00  0.00     0.889 C  
HETATM    4  C   UNL     1      -7.800  18.053  66.297  1.00  0.00    -0.253 C  
HETATM    5  N   UNL     1      -8.983  18.561  67.004  1.00  0.00    -0.268 N  
HETATM    6  C   UNL     1     -10.279  18.105  66.476  1.00  0.00    -0.391 C  
HETATM    7  C   UNL     1      -8.814  19.374  68.125  1.00  0.00    -0.331 C  
HETATM    8  O   UNL     1      -7.691  19.610  68.575  1.00  0.00    -0.336 OA 
HETATM    9  C   UNL     1     -10.365  16.563  66.364  1.00  0.00    -0.311 C  
ENDROOT
BRANCH   7  10
HETATM   10  C   UNL     1     -10.063  19.944  68.771  1.00  0.00    -0.487 C  
HETATM   11  C   UNL     1      -9.859  20.282  70.185  1.00  0.00     0.820 C  
HETATM   12  N   UNL     1      -9.764  20.556  71.309  1.00  0.00     1.813 NA 
ENDBRANCH   7  10
BRANCH   9  13
HETATM   13  N   UNL     1     -10.494  15.889  67.671  1.00  0.00    -0.282 NA 
HETATM   14  C   UNL     1     -10.395  16.549  68.963  1.00  0.00    -0.296 C  
BRANCH  13  15
HETATM   15  C   UNL     1     -10.889  14.557  67.706  1.00  0.00    -0.264 A  
HETATM   16  N   UNL     1     -12.114  14.213  67.228  1.00  0.00    -0.413 NA 
HETATM   17  C   UNL     1     -12.531  12.933  67.349  1.00  0.00     0.533 A  
HETATM   18  N   UNL     1     -11.880  11.893  67.889  1.00  0.00    -0.552 NA 
HETATM   19  C   UNL     1     -10.662  12.254  68.312  1.00  0.00    -0.221 A  
HETATM   20  C   UNL     1     -10.095  13.517  68.253  1.00  0.00    -0.247 A  
HETATM   21  C   UNL     1      -8.773  13.384  68.778  1.00  0.00     0.126 A  
HETATM   22  C   UNL     1      -8.597  12.075  69.175  1.00  0.00     0.507 A  
HETATM   23  N   UNL     1      -9.758  11.403  68.890  1.00  0.00    -0.376 NA 
HETATM   24  H   UNL     1      -9.924  10.414  69.080  1.00  0.00     0.000 HD 
ENDBRANCH  13  15
ENDBRANCH   9  13
TORSDOF 3
ENDMDL
MODEL      266
REMARK 921   NORMALIZED FREE ENERGY PREDICTED BY IDOCK:    0.54 KCAL/MOL
REMARK 922        TOTAL FREE ENERGY PREDICTED BY IDOCK:    0.32 KCAL/MOL
REMARK 923 INTER-LIGAND FREE ENERGY PREDICTED BY IDOCK:    0.51 KCAL/MOL
REMARK 924 INTRA-LIGAND FREE ENERGY PREDICTED BY IDOCK:   -0.20 KCAL/MOL
REMARK 927      BINDING AFFINITY PREDICTED BY RF-SCORE:    0.00 PKD
ROOT
HETATM    1  C   UNL     1      -6.696  15.868  68.905  1.00  0.00    -0.134 C  
HETATM    2  C   UNL     1      -5.979  15.622  67.572  1.00  0.00    -0.123 C  
HETATM    3  C   UNL     1      -7.505  17.164  68.890  1.00  0.00    -0.241 C  
HETATM    4  C   UNL     1      -5.142  14.339  67.612  1.00  0.00     0.123 C  
HETATM    5  N   UNL     1      -5.887  13.182  68.124  1.00  0.00    -0.086 N  
HETATM    6  C   UNL     1      -6.593  13.397  69.398  1.00  0.00    -0.075 C  
HETATM    7  C   UNL     1      -5.926  12.006  67.374  1.00  0.00    -0.130 C  
HETATM    8  O   UNL     1      -5.407  11.948  66.257  1.00  0.00    -0.308 OA 
HETATM    9  C   UNL     1      -7.521  14.636  69.360  1.00  0.00    -0.112 C  
ENDROOT
BRANCH   7  10
HETATM   10  C   UNL     1      -6.636  10.811  67.982  1.00  0.00    -0.063 C  
HETATM   11  C   UNL     1      -7.586  10.190  67.050  1.00  0.00    -0.092 C  
HETATM   12  N   UNL     1      -8.361   9.663  66.366  1.00  0.00    -0.119 NA 
ENDBRANCH   7  10
BRANCH   9  13
HETATM   13  N   UNL     1      -8.738  14.429  68.552  1.00  0.00    -0.179 NA 
HETATM   14  C   UNL     1      -8.762  13.884  67.205  1.00  0.00    -0.221 C  
BRANCH  13  15
HETATM   15  C   UNL     1      -9.981  14.616  69.147  1.00  0.00    -0.143 A  
HETATM   16  N   UNL     1     -10.428  13.708  70.054  1.00  0.00     0.835 NA 
HETATM   17  C   UNL     1     -11.675  13.843  70.559  1.00  0.00    -0.160 A  
HETATM   18  N   UNL     1     -12.581  14.795  70.294  1.00  0.00    -0.336 NA 
HETATM   19  C   UNL     1     -12.097  15.696  69.431  1.00  0.00    -0.266 A  
HETATM   20  C   UNL     1     -10.846  15.696  68.834  1.00  0.00    -0.252 A  
HETATM   21  C   UNL     1     -10.784  16.882  68.040  1.00  0.00    -0.364 A  
HETATM   22  C   UNL     1     -11.997  17.532  68.142  1.00  0.00     2.040 A  
HETATM   23  N   UNL     1     -12.785  16.794  68.987  1.00  0.00     0.918 NA 
HETATM   24  H   UNL     1     -13.743  17.028  69.247  1.00  0.00     0.000 HD 
ENDBRANCH  13  15
ENDBRANCH   9  13
TORSDOF 3
ENDMDL
MODEL      267
REMARK 921   NORMALIZED FREE ENERGY PREDICTED BY IDOCK:    1.12 KCAL/MOL
REMARK 922        TOTAL FREE ENERGY PREDICTED BY IDOCK:    1.00 KCAL/MOL
REMARK 923 INTER-LIGAND FREE ENERGY PREDICTED BY IDOCK:   -2.19 KCAL/MOL
REMARK 924 INTRA-LIGAND FREE ENERGY PREDICTED BY IDOCK:    3.20 KCAL/MOL
REMARK 927      BINDING AFFINITY PREDICTED BY RF-SCORE:    0.00 PKD
ROOT
HETATM    1  C   UNL     1     -10.629  14.122  67.881  1.00  0.00    -0.244 C  
HETATM    2  C   UNL     1     -10.016  14.599  66.558  1.00  0.00    -0.292 C  
HETATM    3  C   UNL     1      -9.895  12.907  68.448  1.00  0.00    -0.197 C  
HETATM    4  C   UNL     1     -10.784  15.793  65.982  1.00  0.00    -0.306 C  
HETATM    5  N   UNL     1     -11.010  16.859  66.966  1.00  0.00    -0.034 N  
HETATM    6  C   UNL     1     -11.589  16.424  68.248  1.00  0.00    -0.030 C  
HETATM    7  C   UNL     1     -10.630  18.166  66.660  1.00  0.00    -0.278 C  
HETATM    8  O   UNL     1     -10.040  18.426  65.610  1.00  0.00    -0.519 OA 
HETATM    9  C   UNL     1     -10.782  15.277  68.904  1.00  0.00    -0.245 C  
ENDROOT
BRANCH   7  10
HETATM   10  C   UNL     1     -10.962  19.247  67.672  1.00  0.00    -0.382 C  
HETATM   11  C   UNL     1     -10.008  20.362  67.634  1.00  0.00    -0.374 C  
HETATM   12  N   UNL     1      -9.280  21.266  67.662  1.00  0.00     0.113 NA 
ENDBRANCH   7  10
BRANCH   9  13
HETATM   13  N   UNL     1      -9.492  15.719  69.468  1.00  0.00    -0.267 NA 
HETATM   14  C   UNL     1      -9.200  15.841  70.887  1.00  0.00     2.464 C  
BRANCH  13  15
HETATM   15  C   UNL     1      -8.408  15.893  68.616  1.00  0.00    -0.195 A  
HETATM   16  N   UNL     1      -8.436  16.895  67.698  1.00  0.00    -0.198 NA 
HETATM   17  C   UNL     1      -7.423  17.003  66.811  1.00  0.00    -0.231 A  
HETATM   18  N   UNL     1      -6.330  16.234  66.699  1.00  0.00    -0.231 NA 
HETATM   19  C   UNL     1      -6.310  15.284  67.641  1.00  0.00    -0.146 A  
HETATM   20  C   UNL     1      -7.266  15.051  68.617  1.00  0.00    -0.115 A  
HETATM   21  C   UNL     1      -6.772  13.969  69.408  1.00  0.00    -0.107 A  
HETATM   22  C   UNL     1      -5.572  13.554  68.868  1.00  0.00    -0.074 A  
HETATM   23  N   UNL     1      -5.309  14.361  67.791  1.00  0.00    -0.305 NA 
HETATM   24  H   UNL     1      -4.488  14.285  67.190  1.00  0.00     0.000 HD 
ENDBRANCH  13  15
ENDBRANCH   9  13
TORSDOF 3
ENDMDL
MODEL      268
REMARK 921   NORMALIZED FREE ENERGY PREDICTED BY IDOCK:    2.10 KCAL/MOL
REMARK 922        TOTAL FREE ENERGY PREDICTED BY IDOCK:    2.15 KCAL/MOL
REMARK 923 INTER-LIGAND FREE ENERGY PREDICTED BY IDOCK:   -3.13 KCAL/MOL
REMARK 924 INTRA-LIGAND FREE ENERGY PREDICTED BY IDOCK:    5.28 KCAL/MOL
REMARK 927      BINDING AFFINITY PREDICTED BY RF-SCORE:    0.00 PKD
ROOT
HETATM    1  C   UNL     1      -7.749  14.099  67.497  1.00  0.00    -0.201 C  
HETATM    2  C   UNL     1      -7.861  14.658  68.921  1.00  0.00    -0.148 C  
HETATM    3  C   UNL     1      -8.748  12.971  67.244  1.00  0.00    -0.209 C  
HETATM    4  C   UNL     1      -6.829  15.763  69.173  1.00  0.00    -0.168 C  
HETATM    5  N   UNL     1      -6.810  16.783  68.119  1.00  0.00    -0.146 N  
HETATM    6  C   UNL     1      -6.713  16.270  66.742  1.00  0.00    -0.031 C  
HETATM    7  C   UNL     1      -6.933  18.129  68.466  1.00  0.00    -0.246 C  
HETATM    8  O   UNL     1      -7.133  18.467  69.634  1.00  0.00    -0.045 OA 
HETATM    9  C   UNL     1      -7.803  15.217  66.424  1.00  0.00     0.703 C  
ENDROOT
BRANCH   7  10
HETATM   10  C   UNL     1      -6.823  19.153  67.351  1.00  0.00    -0.217 C  
HETATM   11  C   UNL     1      -6.577  18.534  66.043  1.00  0.00    -0.249 C  
HETATM   12  N   UNL     1      -6.368  18.106  64.984  1.00  0.00    -0.243 NA 
ENDBRANCH   7  10
BRANCH   9  13
HETATM   13  N   UNL     1      -9.150  15.799  66.269  1.00  0.00    -0.312 NA 
HETATM   14  C   UNL     1     -10.116  15.406  65.256  1.00  0.00    -0.319 C  
BRANCH  13  15
HETATM   15  C   UNL     1      -9.618  16.682  67.235  1.00  0.00    -0.243 A  
HETATM   16  N   UNL     1      -9.751  16.254  68.519  1.00  0.00    -0.217 NA 
HETATM   17  C   UNL     1     -10.294  17.086  69.435  1.00  0.00    -0.230 A  
HETATM   18  N   UNL     1     -10.735  18.340  69.263  1.00  0.00     0.468 NA 
HETATM   19  C   UNL     1     -10.552  18.747  68.001  1.00  0.00    -0.296 A  
HETATM   20  C   UNL     1     -10.009  18.016  66.956  1.00  0.00    -0.330 A  
HETATM   21  C   UNL     1      -9.978  18.895  65.830  1.00  0.00     0.008 A  
HETATM   22  C   UNL     1     -10.538  20.098  66.208  1.00  0.00    -0.245 A  
HETATM   23  N   UNL     1     -10.887  19.989  67.529  1.00  0.00    -0.214 NA 
HETATM   24  H   UNL     1     -11.330  20.723  68.081  1.00  0.00     0.000 HD 
ENDBRANCH  13  15
ENDBRANCH   9  13
TORSDOF 3
ENDMDL
MODEL      269
REMARK 921   NORMALIZED FREE ENERGY PREDICTED BY IDOCK:    5.20 KCAL/MOL
REMARK 922        TOTAL FREE ENERGY PREDICTED BY IDOCK:    5.79 KCAL/MOL
REMARK 923 INTER-LIGAND FREE ENERGY PREDICTED BY IDOCK:    5.40 KCAL/MOL
REMARK 924 INTRA-LIGAND FREE ENERGY PREDICTED BY IDOCK:    0.40 KCAL/MOL
REMARK 927      BINDING AFFINITY PREDICTED BY RF-SCORE:    0.00 PKD
ROOT
HETATM    1  C   UNL     1      -6.408  17.369  66.051  1.00  0.00    -0.137 C  
HETATM    2  C   UNL     1      -5.189  18.236  66.392  1.00  0.00    -0.179 C  
HETATM    3  C   UNL     1      -6.016  15.924  65.746  1.00  0.00     4.616 C  
HETATM    4  C   UNL     1      -5.591  19.690  66.659  1.00  0.00    -0.169 C  
HETATM    5  N   UNL     1      -6.708  19.813  67.603  1.00  0.00    -0.229 N  
HETATM    6  C   UNL     1      -7.886  18.983  67.302  1.00  0.00    -0.245 C  
HETATM    7  C   UNL     1      -6.574  20.640  68.719  1.00  0.00    -0.114 C  
HETATM    8  O   UNL     1      -5.507  21.208  68.963  1.00  0.00    -0.349 OA 
HETATM    9  C   UNL     1      -7.526  17.488  67.117  1.00  0.00    -0.192 C  
ENDROOT
BRANCH   7  10
HETATM   10  C   UNL     1      -7.784  20.803  69.620  1.00  0.00     1.808 C  
HETATM   11  C   UNL     1      -7.498  20.438  71.014  1.00  0.00     1.462 C  
HETATM   12  N   UNL     1      -7.339  20.151  72.127  1.00  0.00     0.905 NA 
ENDBRANCH   7  10
BRANCH   9  13
HETATM   13  N   UNL     1      -7.188  16.809  68.383  1.00  0.00    -0.182 NA 
HETATM   14  C   UNL     1      -6.658  17.465  69.567  1.00  0.00    -0.172 C  
BRANCH  13  15
HETATM   15  C   UNL     1      -7.531  15.471  68.542  1.00  0.00    -0.118 A  
HETATM   16  N   UNL     1      -6.561  14.521  68.468  1.00  0.00    -0.087 NA 
HETATM   17  C   UNL     1      -6.912  13.218  68.529  1.00  0.00    -0.103 A  
HETATM   18  N   UNL     1      -8.137  12.691  68.670  1.00  0.00    -0.069 NA 
HETATM   19  C   UNL     1      -9.064  13.650  68.783  1.00  0.00     0.061 A  
HETATM   20  C   UNL     1      -8.861  15.020  68.743  1.00  0.00    -0.192 A  
HETATM   21  C   UNL     1     -10.141  15.618  68.957  1.00  0.00    -0.227 A  
HETATM   22  C   UNL     1     -11.074  14.609  69.071  1.00  0.00    -0.259 A  
HETATM   23  N   UNL     1     -10.403  13.418  68.957  1.00  0.00    -0.430 NA 
HETATM   24  H   UNL     1     -10.836  12.496  68.997  1.00  0.00     0.000 HD 
ENDBRANCH  13  15
ENDBRANCH   9  13
TORSDOF 3
ENDMDL
MODEL      270
REMARK 921   NORMALIZED FREE ENERGY PREDICTED BY IDOCK:    6.97 KCAL/MOL
REMARK 922        TOTAL FREE ENERGY PREDICTED BY IDOCK:    7.88 KCAL/MOL
REMARK 923 INTER-LIGAND FREE ENERGY PREDICTED BY IDOCK:    5.60 KCAL/MOL
REMARK 924 INTRA-LIGAND FREE ENERGY PREDICTED BY IDOCK:    2.28 KCAL/MOL
REMARK 927      BINDING AFFINITY PREDICTED BY RF-SCORE:    0.00 PKD
ROOT
HETATM    1  C   UNL     1      -8.026  15.936  69.677  1.00  0.00     0.036 C  
HETATM    2  C   UNL     1      -7.089  15.790  68.470  1.00  0.00    -0.118 C  
HETATM    3  C   UNL     1      -8.721  17.297  69.701  1.00  0.00     0.906 C  
HETATM    4  C   UNL     1      -6.371  14.437  68.478  1.00  0.00    -0.088 C  
HETATM    5  N   UNL     1      -7.282  13.304  68.681  1.00  0.00    -0.105 N  
HETATM    6  C   UNL     1      -8.198  13.425  69.827  1.00  0.00     1.722 C  
HETATM    7  C   UNL     1      -7.263  12.240  67.778  1.00  0.00    -0.114 C  
HETATM    8  O   UNL     1      -6.549  12.272  66.774  1.00  0.00    -0.039 OA 
HETATM    9  C   UNL     1      -9.009  14.744  69.800  1.00  0.00     0.345 C  
ENDROOT
BRANCH   7  10
HETATM   10  C   UNL     1      -8.161  11.053  68.076  1.00  0.00    -0.123 C  
HETATM   11  C   UNL     1      -9.098  10.770  66.981  1.00  0.00    -0.144 C  
HETATM   12  N   UNL     1      -9.872  10.505  66.158  1.00  0.00    -0.208 NA 
ENDBRANCH   7  10
BRANCH   9  13
HETATM   13  N   UNL     1     -10.063  14.759  68.768  1.00  0.00    -0.232 NA 
HETATM   14  C   UNL     1     -10.831  13.600  68.341  1.00  0.00    -0.256 C  
BRANCH  13  15
HETATM   15  C   UNL     1     -10.485  15.980  68.254  1.00  0.00    -0.269 A  
HETATM   16  N   UNL     1     -11.500  16.646  68.866  1.00  0.00    -0.141 NA 
HETATM   17  C   UNL     1     -11.968  17.785  68.310  1.00  0.00     2.562 A  
HETATM   18  N   UNL     1     -11.553  18.397  67.191  1.00  0.00     1.098 NA 
HETATM   19  C   UNL     1     -10.527  17.741  66.635  1.00  0.00    -0.300 A  
HETATM   20  C   UNL     1      -9.938  16.571  67.086  1.00  0.00    -0.266 A  
HETATM   21  C   UNL     1      -8.859  16.298  66.190  1.00  0.00    -0.362 A  
HETATM   22  C   UNL     1      -8.857  17.270  65.211  1.00  0.00     1.868 A  
HETATM   23  N   UNL     1      -9.881  18.137  65.494  1.00  0.00    -0.171 NA 
HETATM   24  H   UNL     1     -10.126  18.955  64.937  1.00  0.00     0.000 HD 
ENDBRANCH  13  15
ENDBRANCH   9  13
TORSDOF 3
ENDMDL
MODEL      271
REMARK 921   NORMALIZED FREE ENERGY PREDICTED BY IDOCK:    7.19 KCAL/MOL
REMARK 922        TOTAL FREE ENERGY PREDICTED BY IDOCK:    8.13 KCAL/MOL
REMARK 923 INTER-LIGAND FREE ENERGY PREDICTED BY IDOCK:    2.15 KCAL/MOL
REMARK 924 INTRA-LIGAND FREE ENERGY PREDICTED BY IDOCK:    5.98 KCAL/MOL
REMARK 927      BINDING AFFINITY PREDICTED BY RF-SCORE:    0.00 PKD
ROOT
HETATM    1  C   UNL     1      -6.620  16.083  68.724  1.00  0.00    -0.126 C  
HETATM    2  C   UNL     1      -6.816  16.974  69.958  1.00  0.00     0.580 C  
HETATM    3  C   UNL     1      -7.273  14.713  68.897  1.00  0.00    -0.124 C  
HETATM    4  C   UNL     1      -6.125  18.331  69.787  1.00  0.00    -0.208 C  
HETATM    5  N   UNL     1      -6.446  18.981  68.510  1.00  0.00    -0.236 N  
HETATM    6  C   UNL     1      -6.275  18.144  67.312  1.00  0.00    -0.167 C  
HETATM    7  C   UNL     1      -6.926  20.291  68.511  1.00  0.00    -0.210 C  
HETATM    8  O   UNL     1      -7.156  20.883  69.568  1.00  0.00     0.648 OA 
HETATM    9  C   UNL     1      -7.038  16.800  67.414  1.00  0.00    -0.156 C  
ENDROOT
BRANCH   7  10
HETATM   10  C   UNL     1      -7.162  20.952  67.165  1.00  0.00    -0.395 C  
HETATM   11  C   UNL     1      -7.060  20.003  66.049  1.00  0.00    -0.283 C  
HETATM   12  N   UNL     1      -6.978  19.306  65.125  1.00  0.00    -0.431 NA 
ENDBRANCH   7  10
BRANCH   9  13
HETATM   13  N   UNL     1      -8.500  16.948  67.282  1.00  0.00    -0.192 NA 
HETATM   14  C   UNL     1      -9.189  17.380  66.077  1.00  0.00    -0.061 C  
BRANCH  13  15
HETATM   15  C   UNL     1      -9.319  16.506  68.315  1.00  0.00    -0.217 A  
HETATM   16  N   UNL     1      -9.753  15.218  68.316  1.00  0.00    -0.208 NA 
HETATM   17  C   UNL     1     -10.622  14.819  69.271  1.00  0.00    -0.240 A  
HETATM   18  N   UNL     1     -11.141  15.537  70.277  1.00  0.00    -0.300 NA 
HETATM   19  C   UNL     1     -10.662  16.787  70.274  1.00  0.00     0.117 A  
HETATM   20  C   UNL     1      -9.769  17.340  69.371  1.00  0.00     0.081 A  
HETATM   21  C   UNL     1      -9.529  18.676  69.816  1.00  0.00     0.732 A  
HETATM   22  C   UNL     1     -10.308  18.904  70.931  1.00  0.00     2.380 A  
HETATM   23  N   UNL     1     -10.995  17.747  71.193  1.00  0.00     1.165 NA 
HETATM   24  H   UNL     1     -11.656  17.619  71.959  1.00  0.00     0.000 HD 
ENDBRANCH  13  15
ENDBRANCH   9  13
TORSDOF 3
ENDMDL
MODEL      272
REMARK 921   NORMALIZED FREE ENERGY PREDICTED BY IDOCK:    9.94 KCAL/MOL
REMARK 922        TOTAL FREE ENERGY PREDICTED BY IDOCK:   11.36 KCAL/MOL
REMARK 923 INTER-LIGAND FREE ENERGY PREDICTED BY IDOCK:    9.87 KCAL/MOL
REMARK 924 INTRA-LIGAND FREE ENERGY PREDICTED BY IDOCK:    1.49 KCAL/MOL
REMARK 927      BINDING AFFINITY PREDICTED BY RF-SCORE:    0.00 PKD
ROOT
HETATM    1  C   UNL     1     -10.291  12.263  68.415  1.00  0.00    -0.231 C  
HETATM    2  C   UNL     1      -9.039  12.760  67.680  1.00  0.00    -0.193 C  
HETATM    3  C   UNL     1     -10.008  11.015  69.250  1.00  0.00    -0.088 C  
HETATM    4  C   UNL     1      -9.345  13.989  66.817  1.00  0.00    -0.277 C  
HETATM    5  N   UNL     1     -10.078  15.033  67.544  1.00  0.00    -0.228 N  
HETATM    6  C   UNL     1     -11.278  14.578  68.266  1.00  0.00    -0.277 C  
HETATM    7  C   UNL     1      -9.584  16.337  67.551  1.00  0.00    -0.230 C  
HETATM    8  O   UNL     1      -8.505  16.610  67.021  1.00  0.00    -0.178 OA 
HETATM    9  C   UNL     1     -10.984  13.393  69.218  1.00  0.00    -0.109 C  
ENDROOT
BRANCH   7  10
HETATM   10  C   UNL     1     -10.419  17.399  68.243  1.00  0.00    -0.385 C  
HETATM   11  C   UNL     1     -10.478  18.652  67.479  1.00  0.00    -0.428 C  
HETATM   12  N   UNL     1     -10.552  19.672  66.930  1.00  0.00    -0.474 NA 
ENDBRANCH   7  10
BRANCH   9  13
HETATM   13  N   UNL     1     -10.229  13.787  70.423  1.00  0.00     1.851 NA 
HETATM   14  C   UNL     1      -8.807  13.564  70.627  1.00  0.00     5.747 C  
BRANCH  13  15
HETATM   15  C   UNL     1     -10.859  14.564  71.389  1.00  0.00     1.143 A  
HETATM   16  N   UNL     1     -10.177  14.913  72.512  1.00  0.00     2.800 NA 
HETATM   17  C   UNL     1     -10.822  15.588  73.489  1.00  0.00     2.533 A  
HETATM   18  N   UNL     1     -12.099  15.998  73.514  1.00  0.00    -0.469 NA 
HETATM   19  C   UNL     1     -12.731  15.678  72.378  1.00  0.00    -0.421 A  
HETATM   20  C   UNL     1     -12.207  14.995  71.292  1.00  0.00    -0.380 A  
HETATM   21  C   UNL     1     -13.248  14.944  70.315  1.00  0.00     0.005 A  
HETATM   22  C   UNL     1     -14.368  15.547  70.848  1.00  0.00     0.320 A  
HETATM   23  N   UNL     1     -14.038  15.982  72.105  1.00  0.00    -0.159 NA 
HETATM   24  H   UNL     1     -14.672  16.463  72.744  1.00  0.00     0.000 HD 
ENDBRANCH  13  15
ENDBRANCH   9  13
TORSDOF 3
ENDMDL
MODEL      273
REMARK 921   NORMALIZED FREE ENERGY PREDICTED BY IDOCK:   30.40 KCAL/MOL
REMARK 922        TOTAL FREE ENERGY PREDICTED BY IDOCK:   35.41 KCAL/MOL
REMARK 923 INTER-LIGAND FREE ENERGY PREDICTED BY IDOCK:   25.14 KCAL/MOL
REMARK 924 INTRA-LIGAND FREE ENERGY PREDICTED BY IDOCK:   10.27 KCAL/MOL
REMARK 927      BINDING AFFINITY PREDICTED BY RF-SCORE:    0.00 PKD
ROOT
HETATM    1  C   UNL     1      -5.983  16.905  67.953  1.00  0.00    -0.142 C  
HETATM    2  C   UNL     1      -6.015  18.360  68.438  1.00  0.00    -0.185 C  
HETATM    3  C   UNL     1      -6.437  15.930  69.038  1.00  0.00    -0.137 C  
HETATM    4  C   UNL     1      -5.523  19.325  67.354  1.00  0.00    -0.162 C  
HETATM    5  N   UNL     1      -6.165  19.103  66.053  1.00  0.00    -0.176 N  
HETATM    6  C   UNL     1      -6.155  17.712  65.570  1.00  0.00     0.112 C  
HETATM    7  C   UNL     1      -6.771  20.175  65.397  1.00  0.00    -0.298 C  
HETATM    8  O   UNL     1      -6.841  21.286  65.927  1.00  0.00     0.026 OA 
HETATM    9  C   UNL     1      -6.734  16.721  66.609  1.00  0.00    -0.206 C  
ENDROOT
BRANCH   7  10
HETATM   10  C   UNL     1      -7.347  19.917  64.016  1.00  0.00     2.138 C  
HETATM   11  C   UNL     1      -7.319  18.494  63.654  1.00  0.00     8.234 C  
HETATM   12  N   UNL     1      -7.312  17.387  63.304  1.00  0.00    13.670 NA 
ENDBRANCH   7  10
BRANCH   9  13
HETATM   13  N   UNL     1      -8.200  16.815  66.753  1.00  0.00    -0.210 NA 
HETATM   14  C   UNL     1      -9.167  16.235  65.836  1.00  0.00    -0.233 C  
BRANCH  13  15
HETATM   15  C   UNL     1      -8.729  17.360  67.918  1.00  0.00    -0.237 A  
HETATM   16  N   UNL     1      -9.351  16.546  68.811  1.00  0.00    -0.239 NA 
HETATM   17  C   UNL     1      -9.944  17.092  69.895  1.00  0.00     0.517 A  
HETATM   18  N   UNL     1     -10.007  18.385  70.247  1.00  0.00     1.272 NA 
HETATM   19  C   UNL     1      -9.350  19.156  69.372  1.00  0.00     0.058 A  
HETATM   20  C   UNL     1      -8.693  18.745  68.223  1.00  0.00    -0.363 A  
HETATM   21  C   UNL     1      -8.110  19.920  67.657  1.00  0.00    -0.339 A  
HETATM   22  C   UNL     1      -8.465  20.997  68.441  1.00  0.00     1.074 A  
HETATM   23  N   UNL     1      -9.224  20.515  69.477  1.00  0.00     0.973 NA 
HETATM   24  H   UNL     1      -9.634  21.085  70.217  1.00  0.00     0.000 HD 
ENDBRANCH  13  15
ENDBRANCH   9  13
TORSDOF 3
ENDMDL
MODEL      274
REMARK 921   NORMALIZED FREE ENERGY PREDICTED BY IDOCK:   31.79 KCAL/MOL
REMARK 922        TOTAL FREE ENERGY PREDICTED BY IDOCK:   37.05 KCAL/MOL
REMARK 923 INTER-LIGAND FREE ENERGY PREDICTED BY IDOCK:   23.83 KCAL/MOL
REMARK 924 INTRA-LIGAND FREE ENERGY PREDICTED BY IDOCK:   13.22 KCAL/MOL
REMARK 927      BINDING AFFINITY PREDICTED BY RF-SCORE:    0.00 PKD
ROOT
HETATM    1  C   UNL     1      -9.994  16.152  67.377  1.00  0.00    -0.247 C  
HETATM    2  C   UNL     1      -8.775  15.233  67.528  1.00  0.00    -0.189 C  
HETATM    3  C   UNL     1     -10.112  16.719  65.963  1.00  0.00    -0.350 C  
HETATM    4  C   UNL     1      -8.647  14.701  68.960  1.00  0.00    -0.097 C  
HETATM    5  N   UNL     1      -9.900  14.139  69.478  1.00  0.00     0.313 N  
HETATM    6  C   UNL     1     -11.086  14.998  69.335  1.00  0.00    -0.278 C  
HETATM    7  C   UNL     1      -9.903  12.849  70.009  1.00  0.00     2.769 C  
HETATM    8  O   UNL     1      -8.889  12.148  69.981  1.00  0.00     2.433 OA 
HETATM    9  C   UNL     1     -11.298  15.480  67.879  1.00  0.00    -0.308 C  
ENDROOT
BRANCH   7  10
HETATM   10  C   UNL     1     -11.201  12.342  70.610  1.00  0.00     1.357 C  
HETATM   11  C   UNL     1     -12.262  12.187  69.606  1.00  0.00    -0.120 C  
HETATM   12  N   UNL     1     -13.144  12.058  68.863  1.00  0.00     1.691 NA 
ENDBRANCH   7  10
BRANCH   9  13
HETATM   13  N   UNL     1     -11.779  14.416  66.976  1.00  0.00    -0.385 NA 
HETATM   14  C   UNL     1     -12.132  13.067  67.390  1.00  0.00    -0.233 C  
BRANCH  13  15
HETATM   15  C   UNL     1     -12.072  14.734  65.655  1.00  0.00    -0.114 A  
HETATM   16  N   UNL     1     -12.376  13.738  64.781  1.00  0.00    -0.517 NA 
HETATM   17  C   UNL     1     -12.569  14.043  63.479  1.00  0.00     0.407 A  
HETATM   18  N   UNL     1     -12.513  15.246  62.889  1.00  0.00     1.825 NA 
HETATM   19  C   UNL     1     -12.254  16.210  63.781  1.00  0.00     1.364 A  
HETATM   20  C   UNL     1     -12.038  16.056  65.141  1.00  0.00     0.872 A  
HETATM   21  C   UNL     1     -11.856  17.372  65.666  1.00  0.00     2.841 A  
HETATM   22  C   UNL     1     -11.919  18.266  64.617  1.00  0.00     5.834 A  
HETATM   23  N   UNL     1     -12.157  17.542  63.477  1.00  0.00     4.962 NA 
HETATM   24  H   UNL     1     -12.247  17.936  62.541  1.00  0.00     0.000 HD 
ENDBRANCH  13  15
ENDBRANCH   9  13
TORSDOF 3
ENDMDL
