MODEL        1
REMARK 921   NORMALIZED FREE ENERGY PREDICTED BY IDOCK:   -7.13 KCAL/MOL
REMARK 922        TOTAL FREE ENERGY PREDICTED BY IDOCK:   -9.76 KCAL/MOL
REMARK 923 INTER-LIGAND FREE ENERGY PREDICTED BY IDOCK:   -9.22 KCAL/MOL
REMARK 924 INTRA-LIGAND FREE ENERGY PREDICTED BY IDOCK:   -0.54 KCAL/MOL
REMARK 927      BINDING AFFINITY PREDICTED BY RF-SCORE:    0.00 PKD
ROOT
HETATM    1  C   UNL     1      -9.432   8.810  67.453  1.00  0.00    -0.183 C  
HETATM    2  C   UNL     1     -10.158   9.915  66.741  1.00  0.00    -0.292 A  
HETATM    3  C   UNL     1      -9.997  10.104  65.362  1.00  0.00    -0.377 A  
HETATM    4  C   UNL     1     -10.620  11.175  64.717  1.00  0.00    -0.371 A  
HETATM    5  C   UNL     1     -11.418  12.054  65.456  1.00  0.00    -0.313 A  
HETATM    6  C   UNL     1     -10.977  10.794  67.464  1.00  0.00    -0.372 A  
HETATM    7  C   UNL     1     -11.609  11.863  66.825  1.00  0.00    -0.341 A  
ENDROOT
BRANCH   5   8
HETATM    8  S   UNL     1     -12.146  13.449  64.633  1.00  0.00    -0.423 S  
HETATM    9  O   UNL     1     -12.582  13.061  63.308  1.00  0.00    -0.696 OA 
HETATM   10  O   UNL     1     -13.078  14.053  65.569  1.00  0.00    -0.713 OA 
BRANCH   8  11
HETATM   11  N   UNL     1     -10.897  14.538  64.491  1.00  0.00    -0.621 N  
HETATM   12  H   UNL     1      -9.973  14.195  64.231  1.00  0.00     0.000 HD 
BRANCH  11  13
HETATM   13  C   UNL     1     -11.068  15.896  64.714  1.00  0.00    -0.384 C  
HETATM   14  O   UNL     1     -11.612  16.622  63.894  1.00  0.00    -1.204 OA 
BRANCH  13  15
HETATM   15  N   UNL     1     -10.536  16.329  65.917  1.00  0.00    -0.321 N  
HETATM   16  H   UNL     1     -10.648  15.743  66.744  1.00  0.00     0.000 HD 
BRANCH  15  17
HETATM   17  N   UNL     1      -9.837  17.570  66.043  1.00  0.00    -0.517 NA 
HETATM   18  C   UNL     1     -10.610  18.517  66.868  1.00  0.00    -0.365 C  
HETATM   19  C   UNL     1      -9.990  19.894  67.133  1.00  0.00    -0.557 C  
HETATM   20  C   UNL     1      -8.777  19.833  68.055  1.00  0.00    -0.353 C  
HETATM   21  C   UNL     1      -7.465  19.539  67.336  1.00  0.00    -0.276 C  
HETATM   22  C   UNL     1      -7.546  18.540  66.187  1.00  0.00    -0.273 C  
HETATM   23  C   UNL     1      -8.446  17.341  66.471  1.00  0.00    -0.271 C  
ENDBRANCH  15  17
ENDBRANCH  13  15
ENDBRANCH  11  13
ENDBRANCH   8  11
ENDBRANCH   5   8
TORSDOF 5
ENDMDL
MODEL        2
REMARK 921   NORMALIZED FREE ENERGY PREDICTED BY IDOCK:   -7.10 KCAL/MOL
REMARK 922        TOTAL FREE ENERGY PREDICTED BY IDOCK:   -9.71 KCAL/MOL
REMARK 923 INTER-LIGAND FREE ENERGY PREDICTED BY IDOCK:   -9.25 KCAL/MOL
REMARK 924 INTRA-LIGAND FREE ENERGY PREDICTED BY IDOCK:   -0.46 KCAL/MOL
REMARK 927      BINDING AFFINITY PREDICTED BY RF-SCORE:    0.00 PKD
ROOT
HETATM    1  C   UNL     1     -10.127   9.185  68.447  1.00  0.00    -0.220 C  
HETATM    2  C   UNL     1     -10.549  10.284  67.514  1.00  0.00    -0.320 A  
HETATM    3  C   UNL     1     -11.242  11.403  67.994  1.00  0.00    -0.346 A  
HETATM    4  C   UNL     1     -11.691  12.389  67.112  1.00  0.00    -0.415 A  
HETATM    5  C   UNL     1     -11.436  12.258  65.744  1.00  0.00    -0.367 A  
HETATM    6  C   UNL     1     -10.284  10.177  66.141  1.00  0.00    -0.285 A  
HETATM    7  C   UNL     1     -10.724  11.162  65.254  1.00  0.00    -0.271 A  
ENDROOT
BRANCH   5   8
HETATM    8  S   UNL     1     -12.075  13.485  64.630  1.00  0.00    -0.419 S  
HETATM    9  O   UNL     1     -12.287  12.897  63.325  1.00  0.00    -0.652 OA 
HETATM   10  O   UNL     1     -13.159  14.159  65.322  1.00  0.00    -0.763 OA 
BRANCH   8  11
HETATM   11  N   UNL     1     -10.856  14.611  64.522  1.00  0.00    -0.625 N  
HETATM   12  H   UNL     1      -9.910  14.294  64.311  1.00  0.00     0.000 HD 
BRANCH  11  13
HETATM   13  C   UNL     1     -11.080  15.967  64.707  1.00  0.00    -0.384 C  
HETATM   14  O   UNL     1     -11.666  16.645  63.875  1.00  0.00    -1.153 OA 
BRANCH  13  15
HETATM   15  N   UNL     1     -10.548  16.459  65.887  1.00  0.00    -0.315 N  
HETATM   16  H   UNL     1     -10.682  15.925  66.746  1.00  0.00     0.000 HD 
BRANCH  15  17
HETATM   17  N   UNL     1      -9.820  17.687  65.947  1.00  0.00    -0.545 NA 
HETATM   18  C   UNL     1     -10.642  18.746  66.563  1.00  0.00    -0.374 C  
HETATM   19  C   UNL     1     -10.003  20.128  66.735  1.00  0.00    -0.604 C  
HETATM   20  C   UNL     1      -8.900  20.148  67.789  1.00  0.00    -0.349 C  
HETATM   21  C   UNL     1      -7.530  19.738  67.262  1.00  0.00    -0.285 C  
HETATM   22  C   UNL     1      -7.523  18.611  66.235  1.00  0.00    -0.288 C  
HETATM   23  C   UNL     1      -8.494  17.477  66.552  1.00  0.00    -0.268 C  
ENDBRANCH  15  17
ENDBRANCH  13  15
ENDBRANCH  11  13
ENDBRANCH   8  11
ENDBRANCH   5   8
TORSDOF 5
ENDMDL
MODEL        3
REMARK 921   NORMALIZED FREE ENERGY PREDICTED BY IDOCK:   -6.93 KCAL/MOL
REMARK 922        TOTAL FREE ENERGY PREDICTED BY IDOCK:   -9.49 KCAL/MOL
REMARK 923 INTER-LIGAND FREE ENERGY PREDICTED BY IDOCK:   -8.83 KCAL/MOL
REMARK 924 INTRA-LIGAND FREE ENERGY PREDICTED BY IDOCK:   -0.66 KCAL/MOL
REMARK 927      BINDING AFFINITY PREDICTED BY RF-SCORE:    0.00 PKD
ROOT
HETATM    1  C   UNL     1     -10.485  10.322  69.708  1.00  0.00    -0.300 C  
HETATM    2  C   UNL     1     -10.861  11.123  68.494  1.00  0.00    -0.243 A  
HETATM    3  C   UNL     1     -11.497  12.365  68.625  1.00  0.00    -0.348 A  
HETATM    4  C   UNL     1     -11.905  13.073  67.493  1.00  0.00    -0.408 A  
HETATM    5  C   UNL     1     -11.666  12.540  66.222  1.00  0.00    -0.404 A  
HETATM    6  C   UNL     1     -10.612  10.610  67.213  1.00  0.00    -0.313 A  
HETATM    7  C   UNL     1     -11.011  11.316  66.075  1.00  0.00    -0.237 A  
ENDROOT
BRANCH   5   8
HETATM    8  S   UNL     1     -12.254  13.421  64.797  1.00  0.00    -0.413 S  
HETATM    9  O   UNL     1     -12.423  12.503  63.691  1.00  0.00    -0.610 OA 
HETATM   10  O   UNL     1     -13.357  14.254  65.241  1.00  0.00    -0.660 OA 
BRANCH   8  11
HETATM   11  N   UNL     1     -11.023  14.479  64.435  1.00  0.00    -0.621 N  
HETATM   12  H   UNL     1     -10.185  14.120  63.977  1.00  0.00     0.000 HD 
BRANCH  11  13
HETATM   13  C   UNL     1     -11.094  15.831  64.732  1.00  0.00    -0.400 C  
HETATM   14  O   UNL     1     -11.535  16.646  63.934  1.00  0.00    -1.186 OA 
BRANCH  13  15
HETATM   15  N   UNL     1     -10.591  16.149  65.983  1.00  0.00    -0.315 N  
HETATM   16  H   UNL     1     -10.853  15.569  66.780  1.00  0.00     0.000 HD 
BRANCH  15  17
HETATM   17  N   UNL     1      -9.720  17.261  66.198  1.00  0.00    -0.437 NA 
HETATM   18  C   UNL     1     -10.172  18.055  67.357  1.00  0.00    -0.363 C  
HETATM   19  C   UNL     1      -9.330  19.274  67.751  1.00  0.00    -0.376 C  
HETATM   20  C   UNL     1      -7.973  18.897  68.335  1.00  0.00    -0.373 C  
HETATM   21  C   UNL     1      -6.889  18.665  67.289  1.00  0.00    -0.208 C  
HETATM   22  C   UNL     1      -7.338  17.971  66.008  1.00  0.00    -0.298 C  
HETATM   23  C   UNL     1      -8.315  16.821  66.237  1.00  0.00    -0.318 C  
ENDBRANCH  15  17
ENDBRANCH  13  15
ENDBRANCH  11  13
ENDBRANCH   8  11
ENDBRANCH   5   8
TORSDOF 5
ENDMDL
MODEL        4
REMARK 921   NORMALIZED FREE ENERGY PREDICTED BY IDOCK:   -6.81 KCAL/MOL
REMARK 922        TOTAL FREE ENERGY PREDICTED BY IDOCK:   -9.34 KCAL/MOL
REMARK 923 INTER-LIGAND FREE ENERGY PREDICTED BY IDOCK:   -8.52 KCAL/MOL
REMARK 924 INTRA-LIGAND FREE ENERGY PREDICTED BY IDOCK:   -0.82 KCAL/MOL
REMARK 927      BINDING AFFINITY PREDICTED BY RF-SCORE:    0.00 PKD
ROOT
HETATM    1  C   UNL     1     -12.702  15.648  74.195  1.00  0.00    -0.663 C  
HETATM    2  C   UNL     1     -12.473  15.090  72.820  1.00  0.00    -0.472 A  
HETATM    3  C   UNL     1     -13.044  13.868  72.439  1.00  0.00    -0.532 A  
HETATM    4  C   UNL     1     -12.772  13.320  71.184  1.00  0.00    -0.404 A  
HETATM    5  C   UNL     1     -11.932  14.005  70.300  1.00  0.00    -0.339 A  
HETATM    6  C   UNL     1     -11.647  15.773  71.915  1.00  0.00    -0.545 A  
HETATM    7  C   UNL     1     -11.377  15.235  70.655  1.00  0.00    -0.345 A  
ENDROOT
BRANCH   5   8
HETATM    8  S   UNL     1     -11.542  13.261  68.736  1.00  0.00    -0.333 S  
HETATM    9  O   UNL     1     -10.107  13.232  68.553  1.00  0.00    -0.239 OA 
HETATM   10  O   UNL     1     -12.323  12.040  68.643  1.00  0.00    -0.223 OA 
BRANCH   8  11
HETATM   11  N   UNL     1     -12.207  14.294  67.615  1.00  0.00    -0.597 N  
HETATM   12  H   UNL     1     -13.201  14.512  67.676  1.00  0.00     0.000 HD 
BRANCH  11  13
HETATM   13  C   UNL     1     -11.458  14.870  66.601  1.00  0.00    -0.296 C  
HETATM   14  O   UNL     1     -11.690  14.648  65.420  1.00  0.00    -0.351 OA 
BRANCH  13  15
HETATM   15  N   UNL     1     -10.427  15.672  67.061  1.00  0.00    -0.297 N  
HETATM   16  H   UNL     1      -9.521  15.246  67.252  1.00  0.00     0.000 HD 
BRANCH  15  17
HETATM   17  N   UNL     1     -10.587  17.076  67.279  1.00  0.00    -0.302 NA 
HETATM   18  C   UNL     1      -9.944  17.479  68.544  1.00  0.00    -0.344 C  
HETATM   19  C   UNL     1      -9.993  18.964  68.921  1.00  0.00    -0.437 C  
HETATM   20  C   UNL     1      -9.128  19.836  68.017  1.00  0.00    -0.393 C  
HETATM   21  C   UNL     1      -9.824  20.285  66.737  1.00  0.00    -0.586 C  
HETATM   22  C   UNL     1     -10.739  19.256  66.082  1.00  0.00    -0.478 C  
HETATM   23  C   UNL     1     -10.179  17.837  66.086  1.00  0.00    -0.339 C  
ENDBRANCH  15  17
ENDBRANCH  13  15
ENDBRANCH  11  13
ENDBRANCH   8  11
ENDBRANCH   5   8
TORSDOF 5
ENDMDL
MODEL        5
REMARK 921   NORMALIZED FREE ENERGY PREDICTED BY IDOCK:   -6.77 KCAL/MOL
REMARK 922        TOTAL FREE ENERGY PREDICTED BY IDOCK:   -9.28 KCAL/MOL
REMARK 923 INTER-LIGAND FREE ENERGY PREDICTED BY IDOCK:   -8.65 KCAL/MOL
REMARK 924 INTRA-LIGAND FREE ENERGY PREDICTED BY IDOCK:   -0.63 KCAL/MOL
REMARK 927      BINDING AFFINITY PREDICTED BY RF-SCORE:    0.00 PKD
ROOT
HETATM    1  C   UNL     1     -11.350  10.582  70.388  1.00  0.00    -0.411 C  
HETATM    2  C   UNL     1     -11.413  11.241  69.040  1.00  0.00    -0.369 A  
HETATM    3  C   UNL     1     -11.899  12.548  68.905  1.00  0.00    -0.346 A  
HETATM    4  C   UNL     1     -12.018  13.132  67.642  1.00  0.00    -0.363 A  
HETATM    5  C   UNL     1     -11.639  12.405  66.508  1.00  0.00    -0.387 A  
HETATM    6  C   UNL     1     -11.019  10.533  67.895  1.00  0.00    -0.352 A  
HETATM    7  C   UNL     1     -11.129  11.112  66.629  1.00  0.00    -0.255 A  
ENDROOT
BRANCH   5   8
HETATM    8  S   UNL     1     -11.863  13.136  64.906  1.00  0.00    -0.383 S  
HETATM    9  O   UNL     1     -10.612  13.113  64.179  1.00  0.00    -0.414 OA 
HETATM   10  O   UNL     1     -13.060  12.545  64.335  1.00  0.00    -0.759 OA 
BRANCH   8  11
HETATM   11  N   UNL     1     -12.267  14.717  65.231  1.00  0.00    -0.298 N  
HETATM   12  H   UNL     1     -13.135  14.910  65.730  1.00  0.00     0.000 HD 
BRANCH  11  13
HETATM   13  C   UNL     1     -11.467  15.782  64.847  1.00  0.00    -0.193 C  
HETATM   14  O   UNL     1     -11.740  16.480  63.880  1.00  0.00    -1.148 OA 
BRANCH  13  15
HETATM   15  N   UNL     1     -10.339  15.938  65.635  1.00  0.00    -0.367 N  
HETATM   16  H   UNL     1      -9.541  15.323  65.479  1.00  0.00     0.000 HD 
BRANCH  15  17
HETATM   17  N   UNL     1     -10.252  16.931  66.660  1.00  0.00    -0.304 NA 
HETATM   18  C   UNL     1      -9.054  16.711  67.492  1.00  0.00    -0.202 C  
HETATM   19  C   UNL     1      -8.787  17.707  68.626  1.00  0.00    -0.259 C  
HETATM   20  C   UNL     1      -8.381  19.088  68.122  1.00  0.00    -0.347 C  
HETATM   21  C   UNL     1      -9.558  19.999  67.791  1.00  0.00    -0.509 C  
HETATM   22  C   UNL     1     -10.761  19.322  67.143  1.00  0.00    -0.584 C  
HETATM   23  C   UNL     1     -10.393  18.281  66.090  1.00  0.00    -0.398 C  
ENDBRANCH  15  17
ENDBRANCH  13  15
ENDBRANCH  11  13
ENDBRANCH   8  11
ENDBRANCH   5   8
TORSDOF 5
ENDMDL
MODEL        6
REMARK 921   NORMALIZED FREE ENERGY PREDICTED BY IDOCK:   -6.68 KCAL/MOL
REMARK 922        TOTAL FREE ENERGY PREDICTED BY IDOCK:   -9.17 KCAL/MOL
REMARK 923 INTER-LIGAND FREE ENERGY PREDICTED BY IDOCK:   -8.36 KCAL/MOL
REMARK 924 INTRA-LIGAND FREE ENERGY PREDICTED BY IDOCK:   -0.81 KCAL/MOL
REMARK 927      BINDING AFFINITY PREDICTED BY RF-SCORE:    0.00 PKD
ROOT
HETATM    1  C   UNL     1     -13.043   8.996  71.356  1.00  0.00    -0.337 C  
HETATM    2  C   UNL     1     -12.865  10.479  71.204  1.00  0.00    -0.513 A  
HETATM    3  C   UNL     1     -12.013  11.001  70.221  1.00  0.00    -0.452 A  
HETATM    4  C   UNL     1     -11.798  12.378  70.129  1.00  0.00    -0.341 A  
HETATM    5  C   UNL     1     -12.449  13.238  71.019  1.00  0.00    -0.336 A  
HETATM    6  C   UNL     1     -13.525  11.357  72.076  1.00  0.00    -0.289 A  
HETATM    7  C   UNL     1     -13.321  12.736  71.985  1.00  0.00    -0.565 A  
ENDROOT
BRANCH   5   8
HETATM    8  S   UNL     1     -12.112  14.979  70.932  1.00  0.00    -0.358 S  
HETATM    9  O   UNL     1     -13.310  15.690  70.542  1.00  0.00    -0.426 OA 
HETATM   10  O   UNL     1     -11.405  15.334  72.150  1.00  0.00    -0.442 OA 
BRANCH   8  11
HETATM   11  N   UNL     1     -10.985  15.116  69.716  1.00  0.00    -0.266 N  
HETATM   12  H   UNL     1     -10.036  14.782  69.884  1.00  0.00     0.000 HD 
BRANCH  11  13
HETATM   13  C   UNL     1     -11.289  15.668  68.481  1.00  0.00    -0.360 C  
HETATM   14  O   UNL     1     -10.936  16.798  68.174  1.00  0.00    -0.356 OA 
BRANCH  13  15
HETATM   15  N   UNL     1     -12.045  14.835  67.674  1.00  0.00    -0.548 N  
HETATM   16  H   UNL     1     -12.993  14.597  67.965  1.00  0.00     0.000 HD 
BRANCH  15  17
HETATM   17  N   UNL     1     -11.547  14.298  66.447  1.00  0.00    -0.359 NA 
HETATM   18  C   UNL     1     -10.558  13.235  66.713  1.00  0.00    -0.276 C  
HETATM   19  C   UNL     1      -9.941  12.524  65.503  1.00  0.00    -0.248 C  
HETATM   20  C   UNL     1     -10.936  11.636  64.763  1.00  0.00    -0.351 C  
HETATM   21  C   UNL     1     -11.772  12.372  63.723  1.00  0.00    -0.566 C  
HETATM   22  C   UNL     1     -12.210  13.784  64.100  1.00  0.00    -0.443 C  
HETATM   23  C   UNL     1     -12.656  13.926  65.553  1.00  0.00    -0.526 C  
ENDBRANCH  15  17
ENDBRANCH  13  15
ENDBRANCH  11  13
ENDBRANCH   8  11
ENDBRANCH   5   8
TORSDOF 5
ENDMDL
MODEL        7
REMARK 921   NORMALIZED FREE ENERGY PREDICTED BY IDOCK:   -6.58 KCAL/MOL
REMARK 922        TOTAL FREE ENERGY PREDICTED BY IDOCK:   -9.04 KCAL/MOL
REMARK 923 INTER-LIGAND FREE ENERGY PREDICTED BY IDOCK:   -8.51 KCAL/MOL
REMARK 924 INTRA-LIGAND FREE ENERGY PREDICTED BY IDOCK:   -0.53 KCAL/MOL
REMARK 927      BINDING AFFINITY PREDICTED BY RF-SCORE:    0.00 PKD
ROOT
HETATM    1  C   UNL     1      -9.150   8.448  66.521  1.00  0.00    -0.217 C  
HETATM    2  C   UNL     1      -9.786   9.757  66.151  1.00  0.00    -0.309 A  
HETATM    3  C   UNL     1     -10.511  10.493  67.098  1.00  0.00    -0.302 A  
HETATM    4  C   UNL     1     -11.157  11.675  66.731  1.00  0.00    -0.366 A  
HETATM    5  C   UNL     1     -11.069  12.128  65.411  1.00  0.00    -0.317 A  
HETATM    6  C   UNL     1      -9.690  10.235  64.836  1.00  0.00    -0.385 A  
HETATM    7  C   UNL     1     -10.328  11.420  64.463  1.00  0.00    -0.369 A  
ENDROOT
BRANCH   5   8
HETATM    8  S   UNL     1     -11.953  13.595  64.945  1.00  0.00    -0.407 S  
HETATM    9  O   UNL     1     -12.671  13.362  63.711  1.00  0.00    -0.685 OA 
HETATM   10  O   UNL     1     -12.653  14.060  66.130  1.00  0.00    -0.468 OA 
BRANCH   8  11
HETATM   11  N   UNL     1     -10.761  14.722  64.670  1.00  0.00    -0.606 N  
HETATM   12  H   UNL     1      -9.889  14.419  64.235  1.00  0.00     0.000 HD 
BRANCH  11  13
HETATM   13  C   UNL     1     -10.909  16.058  65.010  1.00  0.00    -0.404 C  
HETATM   14  O   UNL     1     -11.167  16.912  64.174  1.00  0.00    -1.176 OA 
BRANCH  13  15
HETATM   15  N   UNL     1     -10.701  16.312  66.355  1.00  0.00    -0.238 N  
HETATM   16  H   UNL     1     -11.289  15.838  67.041  1.00  0.00     0.000 HD 
BRANCH  15  17
HETATM   17  N   UNL     1      -9.694  17.215  66.818  1.00  0.00    -0.260 NA 
HETATM   18  C   UNL     1      -8.432  17.000  66.085  1.00  0.00    -0.227 C  
HETATM   19  C   UNL     1      -7.248  17.909  66.434  1.00  0.00    -0.298 C  
HETATM   20  C   UNL     1      -7.451  19.351  65.984  1.00  0.00    -0.305 C  
HETATM   21  C   UNL     1      -8.220  20.211  66.981  1.00  0.00    -0.374 C  
HETATM   22  C   UNL     1      -9.365  19.518  67.712  1.00  0.00    -0.405 C  
HETATM   23  C   UNL     1     -10.199  18.598  66.825  1.00  0.00    -0.393 C  
ENDBRANCH  15  17
ENDBRANCH  13  15
ENDBRANCH  11  13
ENDBRANCH   8  11
ENDBRANCH   5   8
TORSDOF 5
ENDMDL
MODEL        8
REMARK 921   NORMALIZED FREE ENERGY PREDICTED BY IDOCK:   -6.55 KCAL/MOL
REMARK 922        TOTAL FREE ENERGY PREDICTED BY IDOCK:   -9.00 KCAL/MOL
REMARK 923 INTER-LIGAND FREE ENERGY PREDICTED BY IDOCK:   -8.33 KCAL/MOL
REMARK 924 INTRA-LIGAND FREE ENERGY PREDICTED BY IDOCK:   -0.67 KCAL/MOL
REMARK 927      BINDING AFFINITY PREDICTED BY RF-SCORE:    0.00 PKD
ROOT
HETATM    1  C   UNL     1     -12.680   9.093  71.546  1.00  0.00    -0.409 C  
HETATM    2  C   UNL     1     -12.640  10.558  71.222  1.00  0.00    -0.531 A  
HETATM    3  C   UNL     1     -11.949  11.025  70.096  1.00  0.00    -0.443 A  
HETATM    4  C   UNL     1     -11.858  12.394  69.838  1.00  0.00    -0.376 A  
HETATM    5  C   UNL     1     -12.472  13.301  70.707  1.00  0.00    -0.324 A  
HETATM    6  C   UNL     1     -13.267  11.480  72.074  1.00  0.00    -0.443 A  
HETATM    7  C   UNL     1     -13.186  12.851  71.818  1.00  0.00    -0.479 A  
ENDROOT
BRANCH   5   8
HETATM    8  S   UNL     1     -12.288  15.040  70.402  1.00  0.00    -0.361 S  
HETATM    9  O   UNL     1     -13.405  15.758  70.979  1.00  0.00    -0.580 OA 
HETATM   10  O   UNL     1     -10.924  15.390  70.756  1.00  0.00    -0.326 OA 
BRANCH   8  11
HETATM   11  N   UNL     1     -12.360  15.175  68.746  1.00  0.00    -0.595 N  
HETATM   12  H   UNL     1     -13.246  14.991  68.275  1.00  0.00     0.000 HD 
BRANCH  11  13
HETATM   13  C   UNL     1     -11.259  15.528  67.981  1.00  0.00    -0.332 C  
HETATM   14  O   UNL     1     -10.761  14.758  67.171  1.00  0.00    -0.287 OA 
BRANCH  13  15
HETATM   15  N   UNL     1     -10.778  16.797  68.256  1.00  0.00    -0.351 N  
HETATM   16  H   UNL     1     -10.949  17.198  69.179  1.00  0.00     0.000 HD 
BRANCH  15  17
HETATM   17  N   UNL     1     -10.053  17.567  67.295  1.00  0.00    -0.316 NA 
HETATM   18  C   UNL     1     -10.613  18.928  67.194  1.00  0.00    -0.458 C  
HETATM   19  C   UNL     1      -9.933  19.903  66.227  1.00  0.00    -0.596 C  
HETATM   20  C   UNL     1      -8.547  20.335  66.694  1.00  0.00    -0.303 C  
HETATM   21  C   UNL     1      -7.429  19.380  66.291  1.00  0.00    -0.285 C  
HETATM   22  C   UNL     1      -7.774  17.895  66.340  1.00  0.00    -0.311 C  
HETATM   23  C   UNL     1      -8.605  17.492  67.555  1.00  0.00    -0.221 C  
ENDBRANCH  15  17
ENDBRANCH  13  15
ENDBRANCH  11  13
ENDBRANCH   8  11
ENDBRANCH   5   8
TORSDOF 5
ENDMDL
MODEL        9
REMARK 921   NORMALIZED FREE ENERGY PREDICTED BY IDOCK:   -6.54 KCAL/MOL
REMARK 922        TOTAL FREE ENERGY PREDICTED BY IDOCK:   -8.98 KCAL/MOL
REMARK 923 INTER-LIGAND FREE ENERGY PREDICTED BY IDOCK:   -8.14 KCAL/MOL
REMARK 924 INTRA-LIGAND FREE ENERGY PREDICTED BY IDOCK:   -0.84 KCAL/MOL
REMARK 927      BINDING AFFINITY PREDICTED BY RF-SCORE:    0.00 PKD
ROOT
HETATM    1  C   UNL     1     -14.086  15.784  72.527  1.00  0.00    -0.491 C  
HETATM    2  C   UNL     1     -13.431  14.579  71.916  1.00  0.00    -0.466 A  
HETATM    3  C   UNL     1     -12.597  14.708  70.797  1.00  0.00    -0.415 A  
HETATM    4  C   UNL     1     -12.045  13.577  70.192  1.00  0.00    -0.425 A  
HETATM    5  C   UNL     1     -12.321  12.311  70.716  1.00  0.00    -0.290 A  
HETATM    6  C   UNL     1     -13.682  13.304  72.442  1.00  0.00    -0.678 A  
HETATM    7  C   UNL     1     -13.127  12.168  71.846  1.00  0.00    -0.475 A  
ENDROOT
BRANCH   5   8
HETATM    8  S   UNL     1     -11.667  10.880  69.893  1.00  0.00    -0.370 S  
HETATM    9  O   UNL     1     -11.566   9.781  70.830  1.00  0.00    -0.290 OA 
HETATM   10  O   UNL     1     -12.410  10.728  68.655  1.00  0.00    -0.430 OA 
BRANCH   8  11
HETATM   11  N   UNL     1     -10.135  11.337  69.433  1.00  0.00    -0.434 N  
HETATM   12  H   UNL     1      -9.535  11.800  70.115  1.00  0.00     0.000 HD 
BRANCH  11  13
HETATM   13  C   UNL     1      -9.646  11.112  68.156  1.00  0.00    -0.179 C  
HETATM   14  O   UNL     1      -9.145  10.043  67.835  1.00  0.00    -0.131 OA 
BRANCH  13  15
HETATM   15  N   UNL     1      -9.751  12.212  67.321  1.00  0.00    -0.189 N  
HETATM   16  H   UNL     1      -9.043  12.943  67.380  1.00  0.00     0.000 HD 
BRANCH  15  17
HETATM   17  N   UNL     1     -10.817  12.360  66.380  1.00  0.00    -0.250 NA 
HETATM   18  C   UNL     1     -11.533  13.630  66.606  1.00  0.00    -0.343 C  
HETATM   19  C   UNL     1     -12.692  13.967  65.662  1.00  0.00    -0.515 C  
HETATM   20  C   UNL     1     -12.231  14.294  64.245  1.00  0.00    -0.451 C  
HETATM   21  C   UNL     1     -12.048  13.070  63.354  1.00  0.00    -0.591 C  
HETATM   22  C   UNL     1     -11.468  11.834  64.033  1.00  0.00    -0.444 C  
HETATM   23  C   UNL     1     -10.333  12.138  65.008  1.00  0.00    -0.287 C  
ENDBRANCH  15  17
ENDBRANCH  13  15
ENDBRANCH  11  13
ENDBRANCH   8  11
ENDBRANCH   5   8
TORSDOF 5
ENDMDL
MODEL       10
REMARK 921   NORMALIZED FREE ENERGY PREDICTED BY IDOCK:   -6.52 KCAL/MOL
REMARK 922        TOTAL FREE ENERGY PREDICTED BY IDOCK:   -8.97 KCAL/MOL
REMARK 923 INTER-LIGAND FREE ENERGY PREDICTED BY IDOCK:   -7.81 KCAL/MOL
REMARK 924 INTRA-LIGAND FREE ENERGY PREDICTED BY IDOCK:   -1.16 KCAL/MOL
REMARK 927      BINDING AFFINITY PREDICTED BY RF-SCORE:    0.00 PKD
ROOT
HETATM    1  C   UNL     1      -9.537   9.135  68.003  1.00  0.00    -0.165 C  
HETATM    2  C   UNL     1     -10.131  10.245  67.185  1.00  0.00    -0.259 A  
HETATM    3  C   UNL     1     -10.902  11.246  67.790  1.00  0.00    -0.284 A  
HETATM    4  C   UNL     1     -11.508  12.238  67.016  1.00  0.00    -0.419 A  
HETATM    5  C   UNL     1     -11.332  12.234  65.629  1.00  0.00    -0.350 A  
HETATM    6  C   UNL     1      -9.948  10.266  65.795  1.00  0.00    -0.337 A  
HETATM    7  C   UNL     1     -10.545  11.259  65.014  1.00  0.00    -0.353 A  
ENDROOT
BRANCH   5   8
HETATM    8  S   UNL     1     -12.166  13.461  64.654  1.00  0.00    -0.404 S  
HETATM    9  O   UNL     1     -12.643  12.866  63.424  1.00  0.00    -0.709 OA 
HETATM   10  O   UNL     1     -13.081  14.156  65.542  1.00  0.00    -0.691 OA 
BRANCH   8  11
HETATM   11  N   UNL     1     -10.980  14.569  64.291  1.00  0.00    -0.587 N  
HETATM   12  H   UNL     1     -10.180  14.269  63.734  1.00  0.00     0.000 HD 
BRANCH  11  13
HETATM   13  C   UNL     1     -11.039  15.887  64.718  1.00  0.00    -0.384 C  
HETATM   14  O   UNL     1     -11.412  16.789  63.982  1.00  0.00    -1.198 OA 
BRANCH  13  15
HETATM   15  N   UNL     1     -10.607  16.065  66.022  1.00  0.00    -0.328 N  
HETATM   16  H   UNL     1     -11.201  16.581  66.670  1.00  0.00     0.000 HD 
BRANCH  15  17
HETATM   17  N   UNL     1      -9.358  15.552  66.492  1.00  0.00    -0.259 NA 
HETATM   18  C   UNL     1      -8.308  16.584  66.400  1.00  0.00    -0.322 C  
HETATM   19  C   UNL     1      -6.905  16.212  66.894  1.00  0.00    -0.148 C  
HETATM   20  C   UNL     1      -6.832  16.044  68.408  1.00  0.00    -0.124 C  
HETATM   21  C   UNL     1      -7.217  14.653  68.898  1.00  0.00    -0.124 C  
HETATM   22  C   UNL     1      -8.367  13.981  68.154  1.00  0.00    -0.164 C  
HETATM   23  C   UNL     1      -9.519  14.923  67.814  1.00  0.00    -0.203 C  
ENDBRANCH  15  17
ENDBRANCH  13  15
ENDBRANCH  11  13
ENDBRANCH   8  11
ENDBRANCH   5   8
TORSDOF 5
ENDMDL
MODEL       11
REMARK 921   NORMALIZED FREE ENERGY PREDICTED BY IDOCK:   -6.52 KCAL/MOL
REMARK 922        TOTAL FREE ENERGY PREDICTED BY IDOCK:   -8.96 KCAL/MOL
REMARK 923 INTER-LIGAND FREE ENERGY PREDICTED BY IDOCK:   -7.99 KCAL/MOL
REMARK 924 INTRA-LIGAND FREE ENERGY PREDICTED BY IDOCK:   -0.97 KCAL/MOL
REMARK 927      BINDING AFFINITY PREDICTED BY RF-SCORE:    0.00 PKD
ROOT
HETATM    1  C   UNL     1     -13.459  15.446  72.836  1.00  0.00    -0.629 C  
HETATM    2  C   UNL     1     -12.859  14.904  71.572  1.00  0.00    -0.411 A  
HETATM    3  C   UNL     1     -12.330  15.767  70.603  1.00  0.00    -0.412 A  
HETATM    4  C   UNL     1     -11.835  15.262  69.399  1.00  0.00    -0.367 A  
HETATM    5  C   UNL     1     -11.861  13.883  69.168  1.00  0.00    -0.358 A  
HETATM    6  C   UNL     1     -12.860  13.522  71.333  1.00  0.00    -0.440 A  
HETATM    7  C   UNL     1     -12.360  13.008  70.134  1.00  0.00    -0.270 A  
ENDROOT
BRANCH   5   8
HETATM    8  S   UNL     1     -11.292  13.264  67.604  1.00  0.00    -0.314 S  
HETATM    9  O   UNL     1      -9.854  13.104  67.636  1.00  0.00    -0.210 OA 
HETATM   10  O   UNL     1     -12.151  12.147  67.253  1.00  0.00    -0.565 OA 
BRANCH   8  11
HETATM   11  N   UNL     1     -11.675  14.469  66.524  1.00  0.00    -0.380 N  
HETATM   12  H   UNL     1     -12.492  15.052  66.706  1.00  0.00     0.000 HD 
BRANCH  11  13
HETATM   13  C   UNL     1     -10.924  14.711  65.384  1.00  0.00    -0.353 C  
HETATM   14  O   UNL     1     -10.855  13.899  64.471  1.00  0.00    -0.398 OA 
BRANCH  13  15
HETATM   15  N   UNL     1     -10.252  15.922  65.410  1.00  0.00    -0.357 N  
HETATM   16  H   UNL     1      -9.794  16.248  64.560  1.00  0.00     0.000 HD 
BRANCH  15  17
HETATM   17  N   UNL     1     -10.179  16.731  66.586  1.00  0.00    -0.301 NA 
HETATM   18  C   UNL     1      -8.945  16.437  67.339  1.00  0.00    -0.191 C  
HETATM   19  C   UNL     1      -8.688  17.241  68.619  1.00  0.00    -0.268 C  
HETATM   20  C   UNL     1      -8.363  18.706  68.346  1.00  0.00    -0.362 C  
HETATM   21  C   UNL     1      -9.590  19.598  68.202  1.00  0.00    -0.474 C  
HETATM   22  C   UNL     1     -10.781  18.979  67.479  1.00  0.00    -0.532 C  
HETATM   23  C   UNL     1     -10.400  18.149  66.256  1.00  0.00    -0.397 C  
ENDBRANCH  15  17
ENDBRANCH  13  15
ENDBRANCH  11  13
ENDBRANCH   8  11
ENDBRANCH   5   8
TORSDOF 5
ENDMDL
MODEL       12
REMARK 921   NORMALIZED FREE ENERGY PREDICTED BY IDOCK:   -6.50 KCAL/MOL
REMARK 922        TOTAL FREE ENERGY PREDICTED BY IDOCK:   -8.93 KCAL/MOL
REMARK 923 INTER-LIGAND FREE ENERGY PREDICTED BY IDOCK:   -8.26 KCAL/MOL
REMARK 924 INTRA-LIGAND FREE ENERGY PREDICTED BY IDOCK:   -0.67 KCAL/MOL
REMARK 927      BINDING AFFINITY PREDICTED BY RF-SCORE:    0.00 PKD
ROOT
HETATM    1  C   UNL     1     -12.296  14.795  72.363  1.00  0.00    -0.398 C  
HETATM    2  C   UNL     1     -12.150  14.518  70.894  1.00  0.00    -0.404 A  
HETATM    3  C   UNL     1     -12.249  13.211  70.399  1.00  0.00    -0.389 A  
HETATM    4  C   UNL     1     -12.045  12.952  69.042  1.00  0.00    -0.198 A  
HETATM    5  C   UNL     1     -11.749  14.008  68.175  1.00  0.00    -0.352 A  
HETATM    6  C   UNL     1     -11.872  15.570  70.008  1.00  0.00    -0.379 A  
HETATM    7  C   UNL     1     -11.673  15.318  68.649  1.00  0.00    -0.367 A  
ENDROOT
BRANCH   5   8
HETATM    8  S   UNL     1     -11.424  13.651  66.466  1.00  0.00    -0.351 S  
HETATM    9  O   UNL     1      -9.996  13.581  66.245  1.00  0.00    -0.285 OA 
HETATM   10  O   UNL     1     -12.284  12.540  66.096  1.00  0.00    -0.609 OA 
BRANCH   8  11
HETATM   11  N   UNL     1     -12.031  14.967  65.651  1.00  0.00    -0.150 N  
HETATM   12  H   UNL     1     -13.042  15.102  65.619  1.00  0.00     0.000 HD 
BRANCH  11  13
HETATM   13  C   UNL     1     -11.214  15.887  65.013  1.00  0.00    -0.290 C  
HETATM   14  O   UNL     1     -11.437  16.267  63.872  1.00  0.00    -0.940 OA 
BRANCH  13  15
HETATM   15  N   UNL     1     -10.130  16.286  65.777  1.00  0.00    -0.351 N  
HETATM   16  H   UNL     1      -9.648  15.592  66.347  1.00  0.00     0.000 HD 
BRANCH  15  17
HETATM   17  N   UNL     1      -9.661  17.637  65.794  1.00  0.00    -0.538 NA 
HETATM   18  C   UNL     1     -10.657  18.520  66.430  1.00  0.00    -0.325 C  
HETATM   19  C   UNL     1     -10.302  20.006  66.562  1.00  0.00    -0.572 C  
HETATM   20  C   UNL     1      -9.190  20.265  67.572  1.00  0.00    -0.491 C  
HETATM   21  C   UNL     1      -7.785  20.128  66.998  1.00  0.00    -0.350 C  
HETATM   22  C   UNL     1      -7.588  19.006  65.983  1.00  0.00    -0.273 C  
HETATM   23  C   UNL     1      -8.300  17.707  66.350  1.00  0.00    -0.253 C  
ENDBRANCH  15  17
ENDBRANCH  13  15
ENDBRANCH  11  13
ENDBRANCH   8  11
ENDBRANCH   5   8
TORSDOF 5
ENDMDL
MODEL       13
REMARK 921   NORMALIZED FREE ENERGY PREDICTED BY IDOCK:   -6.45 KCAL/MOL
REMARK 922        TOTAL FREE ENERGY PREDICTED BY IDOCK:   -8.88 KCAL/MOL
REMARK 923 INTER-LIGAND FREE ENERGY PREDICTED BY IDOCK:   -8.05 KCAL/MOL
REMARK 924 INTRA-LIGAND FREE ENERGY PREDICTED BY IDOCK:   -0.83 KCAL/MOL
REMARK 927      BINDING AFFINITY PREDICTED BY RF-SCORE:    0.00 PKD
ROOT
HETATM    1  C   UNL     1     -12.995  15.894  73.663  1.00  0.00    -0.685 C  
HETATM    2  C   UNL     1     -12.713  15.226  72.348  1.00  0.00    -0.449 A  
HETATM    3  C   UNL     1     -13.088  13.894  72.127  1.00  0.00    -0.497 A  
HETATM    4  C   UNL     1     -12.763  13.257  70.927  1.00  0.00    -0.332 A  
HETATM    5  C   UNL     1     -12.067  13.961  69.940  1.00  0.00    -0.344 A  
HETATM    6  C   UNL     1     -12.032  15.924  71.340  1.00  0.00    -0.515 A  
HETATM    7  C   UNL     1     -11.709  15.295  70.135  1.00  0.00    -0.342 A  
ENDROOT
BRANCH   5   8
HETATM    8  S   UNL     1     -11.601  13.115  68.450  1.00  0.00    -0.360 S  
HETATM    9  O   UNL     1     -10.177  13.251  68.236  1.00  0.00    -0.239 OA 
HETATM   10  O   UNL     1     -12.218  11.801  68.500  1.00  0.00    -0.430 OA 
BRANCH   8  11
HETATM   11  N   UNL     1     -12.407  13.933  67.247  1.00  0.00    -0.495 N  
HETATM   12  H   UNL     1     -12.958  14.754  67.495  1.00  0.00     0.000 HD 
BRANCH  11  13
HETATM   13  C   UNL     1     -12.357  13.538  65.919  1.00  0.00    -0.456 C  
HETATM   14  O   UNL     1     -12.664  14.294  65.008  1.00  0.00    -0.625 OA 
BRANCH  13  15
HETATM   15  N   UNL     1     -11.965  12.221  65.747  1.00  0.00    -0.372 N  
HETATM   16  H   UNL     1     -12.572  11.479  66.096  1.00  0.00     0.000 HD 
BRANCH  15  17
HETATM   17  N   UNL     1     -10.742  11.863  65.101  1.00  0.00    -0.282 NA 
HETATM   18  C   UNL     1      -9.996  10.882  65.912  1.00  0.00    -0.243 C  
HETATM   19  C   UNL     1      -8.668  10.363  65.350  1.00  0.00    -0.193 C  
HETATM   20  C   UNL     1      -8.848   9.460  64.134  1.00  0.00    -0.216 C  
HETATM   21  C   UNL     1      -8.949  10.212  62.812  1.00  0.00    -0.268 C  
HETATM   22  C   UNL     1      -9.720  11.527  62.852  1.00  0.00    -0.302 C  
HETATM   23  C   UNL     1     -10.987  11.476  63.701  1.00  0.00    -0.404 C  
ENDBRANCH  15  17
ENDBRANCH  13  15
ENDBRANCH  11  13
ENDBRANCH   8  11
ENDBRANCH   5   8
TORSDOF 5
ENDMDL
MODEL       14
REMARK 921   NORMALIZED FREE ENERGY PREDICTED BY IDOCK:   -6.38 KCAL/MOL
REMARK 922        TOTAL FREE ENERGY PREDICTED BY IDOCK:   -8.78 KCAL/MOL
REMARK 923 INTER-LIGAND FREE ENERGY PREDICTED BY IDOCK:   -7.31 KCAL/MOL
REMARK 924 INTRA-LIGAND FREE ENERGY PREDICTED BY IDOCK:   -1.47 KCAL/MOL
REMARK 927      BINDING AFFINITY PREDICTED BY RF-SCORE:    0.00 PKD
ROOT
HETATM    1  C   UNL     1      -8.091  15.630  69.007  1.00  0.00    -0.222 C  
HETATM    2  C   UNL     1      -9.122  15.468  67.928  1.00  0.00    -0.175 A  
HETATM    3  C   UNL     1     -10.447  15.140  68.247  1.00  0.00    -0.241 A  
HETATM    4  C   UNL     1     -11.385  14.924  67.236  1.00  0.00    -0.355 A  
HETATM    5  C   UNL     1     -10.997  15.045  65.898  1.00  0.00    -0.343 A  
HETATM    6  C   UNL     1      -8.753  15.604  66.581  1.00  0.00    -0.333 A  
HETATM    7  C   UNL     1      -9.688  15.395  65.565  1.00  0.00    -0.318 A  
ENDROOT
BRANCH   5   8
HETATM    8  S   UNL     1     -12.186  14.697  64.625  1.00  0.00    -0.369 S  
HETATM    9  O   UNL     1     -13.385  14.142  65.215  1.00  0.00    -0.715 OA 
HETATM   10  O   UNL     1     -12.256  15.876  63.780  1.00  0.00    -0.817 OA 
BRANCH   8  11
HETATM   11  N   UNL     1     -11.455  13.531  63.692  1.00  0.00    -0.610 N  
HETATM   12  H   UNL     1     -10.677  13.799  63.089  1.00  0.00     0.000 HD 
BRANCH  11  13
HETATM   13  C   UNL     1     -11.866  12.207  63.702  1.00  0.00    -0.516 C  
HETATM   14  O   UNL     1     -12.902  11.847  63.161  1.00  0.00    -0.636 OA 
BRANCH  13  15
HETATM   15  N   UNL     1     -11.015  11.369  64.404  1.00  0.00    -0.330 N  
HETATM   16  H   UNL     1     -10.747  10.479  63.986  1.00  0.00     0.000 HD 
BRANCH  15  17
HETATM   17  N   UNL     1     -10.498  11.708  65.693  1.00  0.00    -0.259 NA 
HETATM   18  C   UNL     1     -11.402  11.227  66.755  1.00  0.00    -0.111 C  
HETATM   19  C   UNL     1     -10.985  11.478  68.208  1.00  0.00    -0.272 C  
HETATM   20  C   UNL     1      -9.780  10.645  68.634  1.00  0.00    -0.178 C  
HETATM   21  C   UNL     1      -8.436  11.274  68.289  1.00  0.00    -0.152 C  
HETATM   22  C   UNL     1      -8.368  12.006  66.952  1.00  0.00    -0.159 C  
HETATM   23  C   UNL     1      -9.092  11.288  65.816  1.00  0.00    -0.203 C  
ENDBRANCH  15  17
ENDBRANCH  13  15
ENDBRANCH  11  13
ENDBRANCH   8  11
ENDBRANCH   5   8
TORSDOF 5
ENDMDL
MODEL       15
REMARK 921   NORMALIZED FREE ENERGY PREDICTED BY IDOCK:   -6.33 KCAL/MOL
REMARK 922        TOTAL FREE ENERGY PREDICTED BY IDOCK:   -8.72 KCAL/MOL
REMARK 923 INTER-LIGAND FREE ENERGY PREDICTED BY IDOCK:   -8.16 KCAL/MOL
REMARK 924 INTRA-LIGAND FREE ENERGY PREDICTED BY IDOCK:   -0.56 KCAL/MOL
REMARK 927      BINDING AFFINITY PREDICTED BY RF-SCORE:    0.00 PKD
ROOT
HETATM    1  C   UNL     1     -12.730  15.904  74.155  1.00  0.00    -0.661 C  
HETATM    2  C   UNL     1     -12.500  15.371  72.770  1.00  0.00    -0.502 A  
HETATM    3  C   UNL     1     -13.047  14.144  72.375  1.00  0.00    -0.525 A  
HETATM    4  C   UNL     1     -12.774  13.621  71.109  1.00  0.00    -0.432 A  
HETATM    5  C   UNL     1     -11.955  14.337  70.230  1.00  0.00    -0.329 A  
HETATM    6  C   UNL     1     -11.696  16.086  71.870  1.00  0.00    -0.594 A  
HETATM    7  C   UNL     1     -11.423  15.573  70.600  1.00  0.00    -0.383 A  
ENDROOT
BRANCH   5   8
HETATM    8  S   UNL     1     -11.562  13.625  68.652  1.00  0.00    -0.353 S  
HETATM    9  O   UNL     1     -12.280  14.324  67.609  1.00  0.00    -0.337 OA 
HETATM   10  O   UNL     1     -10.116  13.497  68.595  1.00  0.00    -0.226 OA 
BRANCH   8  11
HETATM   11  N   UNL     1     -12.137  12.068  68.751  1.00  0.00    -0.217 N  
HETATM   12  H   UNL     1     -13.146  11.917  68.783  1.00  0.00     0.000 HD 
BRANCH  11  13
HETATM   13  C   UNL     1     -11.296  10.967  68.792  1.00  0.00    -0.292 C  
HETATM   14  O   UNL     1     -11.108  10.261  67.811  1.00  0.00    -0.299 OA 
BRANCH  13  15
HETATM   15  N   UNL     1     -10.739  10.742  70.040  1.00  0.00    -0.465 N  
HETATM   16  H   UNL     1      -9.938  11.304  70.329  1.00  0.00     0.000 HD 
BRANCH  15  17
HETATM   17  N   UNL     1     -11.244   9.752  70.938  1.00  0.00    -0.332 NA 
HETATM   18  C   UNL     1     -12.575  10.142  71.441  1.00  0.00    -0.422 C  
HETATM   19  C   UNL     1     -13.282   9.174  72.397  1.00  0.00    -0.512 C  
HETATM   20  C   UNL     1     -13.739   7.890  71.714  1.00  0.00    -0.417 C  
HETATM   21  C   UNL     1     -12.667   6.809  71.641  1.00  0.00    -0.360 C  
HETATM   22  C   UNL     1     -11.247   7.298  71.376  1.00  0.00    -0.274 C  
HETATM   23  C   UNL     1     -11.159   8.411  70.335  1.00  0.00    -0.231 C  
ENDBRANCH  15  17
ENDBRANCH  13  15
ENDBRANCH  11  13
ENDBRANCH   8  11
ENDBRANCH   5   8
TORSDOF 5
ENDMDL
MODEL       16
REMARK 921   NORMALIZED FREE ENERGY PREDICTED BY IDOCK:   -6.33 KCAL/MOL
REMARK 922        TOTAL FREE ENERGY PREDICTED BY IDOCK:   -8.71 KCAL/MOL
REMARK 923 INTER-LIGAND FREE ENERGY PREDICTED BY IDOCK:   -7.98 KCAL/MOL
REMARK 924 INTRA-LIGAND FREE ENERGY PREDICTED BY IDOCK:   -0.73 KCAL/MOL
REMARK 927      BINDING AFFINITY PREDICTED BY RF-SCORE:    0.00 PKD
ROOT
HETATM    1  C   UNL     1      -8.500   9.274  62.711  1.00  0.00    -0.211 C  
HETATM    2  C   UNL     1      -9.282  10.228  63.567  1.00  0.00    -0.321 A  
HETATM    3  C   UNL     1      -9.622   9.895  64.885  1.00  0.00    -0.356 A  
HETATM    4  C   UNL     1     -10.407  10.757  65.653  1.00  0.00    -0.297 A  
HETATM    5  C   UNL     1     -10.846  11.965  65.102  1.00  0.00    -0.300 A  
HETATM    6  C   UNL     1      -9.714  11.452  63.035  1.00  0.00    -0.393 A  
HETATM    7  C   UNL     1     -10.494  12.323  63.800  1.00  0.00    -0.476 A  
ENDROOT
BRANCH   5   8
HETATM    8  S   UNL     1     -11.901  13.016  66.069  1.00  0.00    -0.436 S  
HETATM    9  O   UNL     1     -12.937  13.575  65.228  1.00  0.00    -0.701 OA 
HETATM   10  O   UNL     1     -12.243  12.280  67.272  1.00  0.00    -0.485 OA 
BRANCH   8  11
HETATM   11  N   UNL     1     -10.900  14.244  66.576  1.00  0.00    -0.300 N  
HETATM   12  H   UNL     1     -10.541  14.903  65.884  1.00  0.00     0.000 HD 
BRANCH  11  13
HETATM   13  C   UNL     1     -10.535  14.404  67.903  1.00  0.00    -0.239 C  
HETATM   14  O   UNL     1      -9.469  13.988  68.335  1.00  0.00    -0.209 OA 
BRANCH  13  15
HETATM   15  N   UNL     1     -11.499  15.037  68.669  1.00  0.00    -0.295 N  
HETATM   16  H   UNL     1     -12.114  15.717  68.222  1.00  0.00     0.000 HD 
BRANCH  15  17
HETATM   17  N   UNL     1     -11.665  14.773  70.064  1.00  0.00    -0.278 NA 
HETATM   18  C   UNL     1     -11.601  16.027  70.839  1.00  0.00    -0.418 C  
HETATM   19  C   UNL     1     -11.792  15.932  72.356  1.00  0.00    -0.618 C  
HETATM   20  C   UNL     1     -13.219  15.570  72.756  1.00  0.00    -0.605 C  
HETATM   21  C   UNL     1     -13.498  14.071  72.771  1.00  0.00    -0.576 C  
HETATM   22  C   UNL     1     -12.833  13.260  71.664  1.00  0.00    -0.397 C  
HETATM   23  C   UNL     1     -12.857  13.940  70.298  1.00  0.00    -0.072 C  
ENDBRANCH  15  17
ENDBRANCH  13  15
ENDBRANCH  11  13
ENDBRANCH   8  11
ENDBRANCH   5   8
TORSDOF 5
ENDMDL
MODEL       17
REMARK 921   NORMALIZED FREE ENERGY PREDICTED BY IDOCK:   -6.32 KCAL/MOL
REMARK 922        TOTAL FREE ENERGY PREDICTED BY IDOCK:   -8.70 KCAL/MOL
REMARK 923 INTER-LIGAND FREE ENERGY PREDICTED BY IDOCK:   -7.81 KCAL/MOL
REMARK 924 INTRA-LIGAND FREE ENERGY PREDICTED BY IDOCK:   -0.89 KCAL/MOL
REMARK 927      BINDING AFFINITY PREDICTED BY RF-SCORE:    0.00 PKD
ROOT
HETATM    1  C   UNL     1     -10.774   7.198  73.424  1.00  0.00    -0.410 C  
HETATM    2  C   UNL     1     -11.020   8.264  72.396  1.00  0.00    -0.438 A  
HETATM    3  C   UNL     1     -10.023   8.615  71.476  1.00  0.00    -0.344 A  
HETATM    4  C   UNL     1     -10.233   9.654  70.567  1.00  0.00    -0.351 A  
HETATM    5  C   UNL     1     -11.452  10.339  70.572  1.00  0.00    -0.343 A  
HETATM    6  C   UNL     1     -12.244   8.949  72.376  1.00  0.00    -0.365 A  
HETATM    7  C   UNL     1     -12.464   9.985  71.465  1.00  0.00    -0.516 A  
ENDROOT
BRANCH   5   8
HETATM    8  S   UNL     1     -11.675  11.702  69.457  1.00  0.00    -0.365 S  
HETATM    9  O   UNL     1     -12.284  11.234  68.230  1.00  0.00    -0.611 OA 
HETATM   10  O   UNL     1     -12.283  12.778  70.220  1.00  0.00    -0.334 OA 
BRANCH   8  11
HETATM   11  N   UNL     1     -10.128  12.218  69.127  1.00  0.00    -0.403 N  
HETATM   12  H   UNL     1      -9.342  11.671  69.479  1.00  0.00     0.000 HD 
BRANCH  11  13
HETATM   13  C   UNL     1      -9.869  13.363  68.390  1.00  0.00    -0.216 C  
HETATM   14  O   UNL     1      -8.798  13.950  68.464  1.00  0.00    -0.181 OA 
BRANCH  13  15
HETATM   15  N   UNL     1     -10.938  13.774  67.612  1.00  0.00    -0.260 N  
HETATM   16  H   UNL     1     -11.764  14.154  68.074  1.00  0.00     0.000 HD 
BRANCH  15  17
HETATM   17  N   UNL     1     -10.927  13.685  66.185  1.00  0.00    -0.283 NA 
HETATM   18  C   UNL     1     -10.247  12.451  65.750  1.00  0.00    -0.260 C  
HETATM   19  C   UNL     1     -10.171  12.178  64.244  1.00  0.00    -0.351 C  
HETATM   20  C   UNL     1     -11.526  11.840  63.630  1.00  0.00    -0.524 C  
HETATM   21  C   UNL     1     -12.346  13.059  63.224  1.00  0.00    -0.392 C  
HETATM   22  C   UNL     1     -12.260  14.260  64.159  1.00  0.00    -0.410 C  
HETATM   23  C   UNL     1     -12.279  13.894  65.641  1.00  0.00    -0.452 C  
ENDBRANCH  15  17
ENDBRANCH  13  15
ENDBRANCH  11  13
ENDBRANCH   8  11
ENDBRANCH   5   8
TORSDOF 5
ENDMDL
MODEL       18
REMARK 921   NORMALIZED FREE ENERGY PREDICTED BY IDOCK:   -6.31 KCAL/MOL
REMARK 922        TOTAL FREE ENERGY PREDICTED BY IDOCK:   -8.69 KCAL/MOL
REMARK 923 INTER-LIGAND FREE ENERGY PREDICTED BY IDOCK:   -7.91 KCAL/MOL
REMARK 924 INTRA-LIGAND FREE ENERGY PREDICTED BY IDOCK:   -0.78 KCAL/MOL
REMARK 927      BINDING AFFINITY PREDICTED BY RF-SCORE:    0.00 PKD
ROOT
HETATM    1  C   UNL     1     -10.209  20.319  67.566  1.00  0.00    -0.486 C  
HETATM    2  C   UNL     1     -10.273  18.844  67.295  1.00  0.00    -0.454 A  
HETATM    3  C   UNL     1     -10.044  17.917  68.320  1.00  0.00    -0.376 A  
HETATM    4  C   UNL     1     -10.038  16.547  68.047  1.00  0.00    -0.255 A  
HETATM    5  C   UNL     1     -10.273  16.103  66.742  1.00  0.00    -0.281 A  
HETATM    6  C   UNL     1     -10.527  18.382  65.995  1.00  0.00    -0.400 A  
HETATM    7  C   UNL     1     -10.529  17.013  65.715  1.00  0.00    -0.261 A  
ENDROOT
BRANCH   5   8
HETATM    8  S   UNL     1     -10.193  14.363  66.400  1.00  0.00    -0.299 S  
HETATM    9  O   UNL     1     -10.322  14.139  64.976  1.00  0.00    -0.389 OA 
HETATM   10  O   UNL     1      -9.050  13.841  67.129  1.00  0.00    -0.220 OA 
BRANCH   8  11
HETATM   11  N   UNL     1     -11.528  13.734  67.167  1.00  0.00    -0.324 N  
HETATM   12  H   UNL     1     -12.416  14.230  67.094  1.00  0.00     0.000 HD 
BRANCH  11  13
HETATM   13  C   UNL     1     -11.477  12.559  67.901  1.00  0.00    -0.315 C  
HETATM   14  O   UNL     1     -11.647  11.465  67.383  1.00  0.00    -0.509 OA 
BRANCH  13  15
HETATM   15  N   UNL     1     -11.255  12.762  69.253  1.00  0.00    -0.397 N  
HETATM   16  H   UNL     1     -10.386  12.422  69.665  1.00  0.00     0.000 HD 
BRANCH  15  17
HETATM   17  N   UNL     1     -12.199  13.430  70.093  1.00  0.00    -0.332 NA 
HETATM   18  C   UNL     1     -12.620  12.549  71.199  1.00  0.00    -0.253 C  
HETATM   19  C   UNL     1     -13.612  13.119  72.219  1.00  0.00    -0.677 C  
HETATM   20  C   UNL     1     -13.003  14.203  73.102  1.00  0.00    -0.312 C  
HETATM   21  C   UNL     1     -13.048  15.599  72.491  1.00  0.00    -0.559 C  
HETATM   22  C   UNL     1     -12.807  15.676  70.988  1.00  0.00    -0.521 C  
HETATM   23  C   UNL     1     -11.695  14.755  70.491  1.00  0.00    -0.293 C  
ENDBRANCH  15  17
ENDBRANCH  13  15
ENDBRANCH  11  13
ENDBRANCH   8  11
ENDBRANCH   5   8
TORSDOF 5
ENDMDL
MODEL       19
REMARK 921   NORMALIZED FREE ENERGY PREDICTED BY IDOCK:   -6.30 KCAL/MOL
REMARK 922        TOTAL FREE ENERGY PREDICTED BY IDOCK:   -8.68 KCAL/MOL
REMARK 923 INTER-LIGAND FREE ENERGY PREDICTED BY IDOCK:   -7.80 KCAL/MOL
REMARK 924 INTRA-LIGAND FREE ENERGY PREDICTED BY IDOCK:   -0.88 KCAL/MOL
REMARK 927      BINDING AFFINITY PREDICTED BY RF-SCORE:    0.00 PKD
ROOT
HETATM    1  C   UNL     1     -12.701  15.866  74.199  1.00  0.00    -0.661 C  
HETATM    2  C   UNL     1     -12.484  15.238  72.853  1.00  0.00    -0.510 A  
HETATM    3  C   UNL     1     -13.044  13.990  72.547  1.00  0.00    -0.547 A  
HETATM    4  C   UNL     1     -12.782  13.379  71.319  1.00  0.00    -0.424 A  
HETATM    5  C   UNL     1     -11.963  14.026  70.388  1.00  0.00    -0.328 A  
HETATM    6  C   UNL     1     -11.680  15.882  71.901  1.00  0.00    -0.590 A  
HETATM    7  C   UNL     1     -11.420  15.280  70.668  1.00  0.00    -0.353 A  
ENDROOT
BRANCH   5   8
HETATM    8  S   UNL     1     -11.585  13.204  68.860  1.00  0.00    -0.330 S  
HETATM    9  O   UNL     1     -11.811  11.781  69.002  1.00  0.00    -0.295 OA 
HETATM   10  O   UNL     1     -12.241  13.953  67.803  1.00  0.00    -0.338 OA 
BRANCH   8  11
HETATM   11  N   UNL     1      -9.958  13.472  68.644  1.00  0.00    -0.366 N  
HETATM   12  H   UNL     1      -9.342  13.437  69.456  1.00  0.00     0.000 HD 
BRANCH  11  13
HETATM   13  C   UNL     1      -9.409  13.740  67.399  1.00  0.00    -0.226 C  
HETATM   14  O   UNL     1      -8.568  13.011  66.893  1.00  0.00    -0.194 OA 
BRANCH  13  15
HETATM   15  N   UNL     1      -9.879  14.911  66.829  1.00  0.00    -0.239 N  
HETATM   16  H   UNL     1     -10.584  14.851  66.094  1.00  0.00     0.000 HD 
BRANCH  15  17
HETATM   17  N   UNL     1      -9.414  16.201  67.232  1.00  0.00    -0.225 NA 
HETATM   18  C   UNL     1      -8.500  16.761  66.218  1.00  0.00    -0.307 C  
HETATM   19  C   UNL     1      -7.928  18.159  66.476  1.00  0.00    -0.290 C  
HETATM   20  C   UNL     1      -8.977  19.261  66.370  1.00  0.00    -0.375 C  
HETATM   21  C   UNL     1      -9.759  19.499  67.656  1.00  0.00    -0.450 C  
HETATM   22  C   UNL     1     -10.103  18.254  68.466  1.00  0.00    -0.419 C  
HETATM   23  C   UNL     1     -10.543  17.064  67.617  1.00  0.00    -0.333 C  
ENDBRANCH  15  17
ENDBRANCH  13  15
ENDBRANCH  11  13
ENDBRANCH   8  11
ENDBRANCH   5   8
TORSDOF 5
ENDMDL
MODEL       20
REMARK 921   NORMALIZED FREE ENERGY PREDICTED BY IDOCK:   -6.25 KCAL/MOL
REMARK 922        TOTAL FREE ENERGY PREDICTED BY IDOCK:   -8.62 KCAL/MOL
REMARK 923 INTER-LIGAND FREE ENERGY PREDICTED BY IDOCK:   -7.88 KCAL/MOL
REMARK 924 INTRA-LIGAND FREE ENERGY PREDICTED BY IDOCK:   -0.74 KCAL/MOL
REMARK 927      BINDING AFFINITY PREDICTED BY RF-SCORE:    0.00 PKD
ROOT
HETATM    1  C   UNL     1     -13.204   9.565  72.251  1.00  0.00    -0.507 C  
HETATM    2  C   UNL     1     -12.874  10.808  71.475  1.00  0.00    -0.567 A  
HETATM    3  C   UNL     1     -12.243  10.726  70.227  1.00  0.00    -0.431 A  
HETATM    4  C   UNL     1     -11.878  11.886  69.541  1.00  0.00    -0.395 A  
HETATM    5  C   UNL     1     -12.156  13.136  70.104  1.00  0.00    -0.321 A  
HETATM    6  C   UNL     1     -13.164  12.068  72.017  1.00  0.00    -0.481 A  
HETATM    7  C   UNL     1     -12.808  13.234  71.334  1.00  0.00    -0.411 A  
ENDROOT
BRANCH   5   8
HETATM    8  S   UNL     1     -11.623  14.598  69.251  1.00  0.00    -0.321 S  
HETATM    9  O   UNL     1     -11.880  14.458  67.834  1.00  0.00    -0.347 OA 
HETATM   10  O   UNL     1     -12.150  15.733  69.988  1.00  0.00    -0.365 OA 
BRANCH   8  11
HETATM   11  N   UNL     1      -9.979  14.640  69.498  1.00  0.00    -0.423 N  
HETATM   12  H   UNL     1      -9.626  14.669  70.455  1.00  0.00     0.000 HD 
BRANCH  11  13
HETATM   13  C   UNL     1      -9.070  14.636  68.451  1.00  0.00    -0.192 C  
HETATM   14  O   UNL     1      -8.139  13.844  68.407  1.00  0.00    -0.137 OA 
BRANCH  13  15
HETATM   15  N   UNL     1      -9.307  15.623  67.510  1.00  0.00    -0.205 N  
HETATM   16  H   UNL     1      -9.356  15.361  66.525  1.00  0.00     0.000 HD 
BRANCH  15  17
HETATM   17  N   UNL     1      -9.485  16.996  67.867  1.00  0.00    -0.241 NA 
HETATM   18  C   UNL     1      -8.213  17.577  68.335  1.00  0.00    -0.278 C  
HETATM   19  C   UNL     1      -8.215  19.057  68.732  1.00  0.00    -0.369 C  
HETATM   20  C   UNL     1      -8.388  19.993  67.540  1.00  0.00    -0.381 C  
HETATM   21  C   UNL     1      -9.841  20.242  67.153  1.00  0.00    -0.606 C  
HETATM   22  C   UNL     1     -10.775  19.042  67.267  1.00  0.00    -0.556 C  
HETATM   23  C   UNL     1     -10.161  17.731  66.784  1.00  0.00    -0.349 C  
ENDBRANCH  15  17
ENDBRANCH  13  15
ENDBRANCH  11  13
ENDBRANCH   8  11
ENDBRANCH   5   8
TORSDOF 5
ENDMDL
MODEL       21
REMARK 921   NORMALIZED FREE ENERGY PREDICTED BY IDOCK:   -6.25 KCAL/MOL
REMARK 922        TOTAL FREE ENERGY PREDICTED BY IDOCK:   -8.61 KCAL/MOL
REMARK 923 INTER-LIGAND FREE ENERGY PREDICTED BY IDOCK:   -7.90 KCAL/MOL
REMARK 924 INTRA-LIGAND FREE ENERGY PREDICTED BY IDOCK:   -0.71 KCAL/MOL
REMARK 927      BINDING AFFINITY PREDICTED BY RF-SCORE:    0.00 PKD
ROOT
HETATM    1  C   UNL     1     -12.558  11.911  63.401  1.00  0.00    -0.555 C  
HETATM    2  C   UNL     1     -11.739  12.924  64.148  1.00  0.00    -0.468 A  
HETATM    3  C   UNL     1     -10.636  12.527  64.916  1.00  0.00    -0.330 A  
HETATM    4  C   UNL     1      -9.919  13.464  65.663  1.00  0.00    -0.249 A  
HETATM    5  C   UNL     1     -10.302  14.809  65.632  1.00  0.00    -0.349 A  
HETATM    6  C   UNL     1     -12.098  14.279  64.112  1.00  0.00    -0.423 A  
HETATM    7  C   UNL     1     -11.382  15.224  64.851  1.00  0.00    -0.387 A  
ENDROOT
BRANCH   5   8
HETATM    8  S   UNL     1      -9.423  15.975  66.641  1.00  0.00    -0.257 S  
HETATM    9  O   UNL     1      -8.604  15.269  67.603  1.00  0.00    -0.159 OA 
HETATM   10  O   UNL     1      -8.830  16.950  65.742  1.00  0.00    -0.522 OA 
BRANCH   8  11
HETATM   11  N   UNL     1     -10.619  16.797  67.453  1.00  0.00    -0.315 N  
HETATM   12  H   UNL     1     -11.403  17.175  66.922  1.00  0.00     0.000 HD 
BRANCH  11  13
HETATM   13  C   UNL     1     -10.589  16.987  68.826  1.00  0.00    -0.346 C  
HETATM   14  O   UNL     1     -10.263  18.055  69.324  1.00  0.00    -0.297 OA 
BRANCH  13  15
HETATM   15  N   UNL     1     -10.926  15.854  69.548  1.00  0.00    -0.284 N  
HETATM   16  H   UNL     1     -10.490  14.966  69.300  1.00  0.00     0.000 HD 
BRANCH  15  17
HETATM   17  N   UNL     1     -11.862  15.883  70.628  1.00  0.00    -0.374 NA 
HETATM   18  C   UNL     1     -13.035  15.044  70.317  1.00  0.00    -0.167 C  
HETATM   19  C   UNL     1     -14.130  14.936  71.384  1.00  0.00    -0.552 C  
HETATM   20  C   UNL     1     -13.690  14.146  72.612  1.00  0.00    -0.568 C  
HETATM   21  C   UNL     1     -12.954  14.980  73.655  1.00  0.00    -0.463 C  
HETATM   22  C   UNL     1     -12.011  16.047  73.110  1.00  0.00    -0.570 C  
HETATM   23  C   UNL     1     -11.191  15.592  71.906  1.00  0.00    -0.268 C  
ENDBRANCH  15  17
ENDBRANCH  13  15
ENDBRANCH  11  13
ENDBRANCH   8  11
ENDBRANCH   5   8
TORSDOF 5
ENDMDL
MODEL       22
REMARK 921   NORMALIZED FREE ENERGY PREDICTED BY IDOCK:   -6.22 KCAL/MOL
REMARK 922        TOTAL FREE ENERGY PREDICTED BY IDOCK:   -8.57 KCAL/MOL
REMARK 923 INTER-LIGAND FREE ENERGY PREDICTED BY IDOCK:   -7.59 KCAL/MOL
REMARK 924 INTRA-LIGAND FREE ENERGY PREDICTED BY IDOCK:   -0.98 KCAL/MOL
REMARK 927      BINDING AFFINITY PREDICTED BY RF-SCORE:    0.00 PKD
ROOT
HETATM    1  C   UNL     1     -12.271  12.135  63.551  1.00  0.00    -0.670 C  
HETATM    2  C   UNL     1     -12.153  12.590  64.977  1.00  0.00    -0.504 A  
HETATM    3  C   UNL     1     -12.583  13.868  65.358  1.00  0.00    -0.538 A  
HETATM    4  C   UNL     1     -12.409  14.311  66.671  1.00  0.00    -0.320 A  
HETATM    5  C   UNL     1     -11.810  13.466  67.610  1.00  0.00    -0.354 A  
HETATM    6  C   UNL     1     -11.572  11.747  65.935  1.00  0.00    -0.200 A  
HETATM    7  C   UNL     1     -11.400  12.181  67.252  1.00  0.00    -0.398 A  
ENDROOT
BRANCH   5   8
HETATM    8  S   UNL     1     -11.534  14.071  69.256  1.00  0.00    -0.312 S  
HETATM    9  O   UNL     1     -12.059  15.414  69.378  1.00  0.00    -0.325 OA 
HETATM   10  O   UNL     1     -11.962  13.025  70.168  1.00  0.00    -0.336 OA 
BRANCH   8  11
HETATM   11  N   UNL     1      -9.877  14.127  69.398  1.00  0.00    -0.391 N  
HETATM   12  H   UNL     1      -9.419  13.494  70.055  1.00  0.00     0.000 HD 
BRANCH  11  13
HETATM   13  C   UNL     1      -9.097  15.001  68.658  1.00  0.00    -0.191 C  
HETATM   14  O   UNL     1      -8.288  14.604  67.832  1.00  0.00    -0.137 OA 
BRANCH  13  15
HETATM   15  N   UNL     1      -9.307  16.333  68.975  1.00  0.00    -0.249 N  
HETATM   16  H   UNL     1      -9.532  16.579  69.939  1.00  0.00     0.000 HD 
BRANCH  15  17
HETATM   17  N   UNL     1      -9.220  17.376  68.001  1.00  0.00    -0.259 NA 
HETATM   18  C   UNL     1     -10.367  17.315  67.076  1.00  0.00    -0.318 C  
HETATM   19  C   UNL     1     -10.450  18.384  65.980  1.00  0.00    -0.400 C  
HETATM   20  C   UNL     1     -10.759  19.774  66.527  1.00  0.00    -0.508 C  
HETATM   21  C   UNL     1      -9.530  20.547  66.990  1.00  0.00    -0.516 C  
HETATM   22  C   UNL     1      -8.450  19.725  67.684  1.00  0.00    -0.361 C  
HETATM   23  C   UNL     1      -8.995  18.677  68.652  1.00  0.00    -0.306 C  
ENDBRANCH  15  17
ENDBRANCH  13  15
ENDBRANCH  11  13
ENDBRANCH   8  11
ENDBRANCH   5   8
TORSDOF 5
ENDMDL
MODEL       23
REMARK 921   NORMALIZED FREE ENERGY PREDICTED BY IDOCK:   -6.20 KCAL/MOL
REMARK 922        TOTAL FREE ENERGY PREDICTED BY IDOCK:   -8.56 KCAL/MOL
REMARK 923 INTER-LIGAND FREE ENERGY PREDICTED BY IDOCK:   -7.81 KCAL/MOL
REMARK 924 INTRA-LIGAND FREE ENERGY PREDICTED BY IDOCK:   -0.75 KCAL/MOL
REMARK 927      BINDING AFFINITY PREDICTED BY RF-SCORE:    0.00 PKD
ROOT
HETATM    1  C   UNL     1     -12.092   8.569  72.267  1.00  0.00    -0.455 C  
HETATM    2  C   UNL     1     -11.878   9.738  71.349  1.00  0.00    -0.488 A  
HETATM    3  C   UNL     1     -12.558  10.946  71.558  1.00  0.00    -0.480 A  
HETATM    4  C   UNL     1     -12.407  12.006  70.662  1.00  0.00    -0.394 A  
HETATM    5  C   UNL     1     -11.563  11.861  69.557  1.00  0.00    -0.327 A  
HETATM    6  C   UNL     1     -11.020   9.614  70.247  1.00  0.00    -0.337 A  
HETATM    7  C   UNL     1     -10.859  10.674  69.350  1.00  0.00    -0.289 A  
ENDROOT
BRANCH   5   8
HETATM    8  S   UNL     1     -11.437  13.194  68.391  1.00  0.00    -0.340 S  
HETATM    9  O   UNL     1     -10.061  13.629  68.293  1.00  0.00    -0.229 OA 
HETATM   10  O   UNL     1     -12.170  12.789  67.205  1.00  0.00    -0.404 OA 
BRANCH   8  11
HETATM   11  N   UNL     1     -12.340  14.416  69.069  1.00  0.00    -0.566 N  
HETATM   12  H   UNL     1     -13.345  14.280  69.181  1.00  0.00     0.000 HD 
BRANCH  11  13
HETATM   13  C   UNL     1     -11.777  15.611  69.487  1.00  0.00    -0.370 C  
HETATM   14  O   UNL     1     -11.678  15.901  70.671  1.00  0.00    -0.343 OA 
BRANCH  13  15
HETATM   15  N   UNL     1     -11.383  16.431  68.442  1.00  0.00    -0.335 N  
HETATM   16  H   UNL     1     -11.814  16.302  67.527  1.00  0.00     0.000 HD 
BRANCH  15  17
HETATM   17  N   UNL     1     -10.395  17.452  68.600  1.00  0.00    -0.353 NA 
HETATM   18  C   UNL     1      -9.042  16.895  68.413  1.00  0.00    -0.243 C  
HETATM   19  C   UNL     1      -7.858  17.863  68.517  1.00  0.00    -0.301 C  
HETATM   20  C   UNL     1      -7.788  18.847  67.354  1.00  0.00    -0.255 C  
HETATM   21  C   UNL     1      -8.641  20.096  67.545  1.00  0.00    -0.404 C  
HETATM   22  C   UNL     1      -9.988  19.883  68.227  1.00  0.00    -0.552 C  
HETATM   23  C   UNL     1     -10.722  18.625  67.771  1.00  0.00    -0.342 C  
ENDBRANCH  15  17
ENDBRANCH  13  15
ENDBRANCH  11  13
ENDBRANCH   8  11
ENDBRANCH   5   8
TORSDOF 5
ENDMDL
MODEL       24
REMARK 921   NORMALIZED FREE ENERGY PREDICTED BY IDOCK:   -6.20 KCAL/MOL
REMARK 922        TOTAL FREE ENERGY PREDICTED BY IDOCK:   -8.54 KCAL/MOL
REMARK 923 INTER-LIGAND FREE ENERGY PREDICTED BY IDOCK:   -7.60 KCAL/MOL
REMARK 924 INTRA-LIGAND FREE ENERGY PREDICTED BY IDOCK:   -0.94 KCAL/MOL
REMARK 927      BINDING AFFINITY PREDICTED BY RF-SCORE:    0.00 PKD
ROOT
HETATM    1  C   UNL     1     -10.637  16.529  69.705  1.00  0.00    -0.302 C  
HETATM    2  C   UNL     1     -10.943  15.778  68.441  1.00  0.00    -0.323 A  
HETATM    3  C   UNL     1     -10.318  16.121  67.235  1.00  0.00    -0.287 A  
HETATM    4  C   UNL     1     -10.657  15.464  66.051  1.00  0.00    -0.330 A  
HETATM    5  C   UNL     1     -11.622  14.452  66.075  1.00  0.00    -0.363 A  
HETATM    6  C   UNL     1     -11.894  14.747  68.453  1.00  0.00    -0.319 A  
HETATM    7  C   UNL     1     -12.234  14.082  67.273  1.00  0.00    -0.325 A  
ENDROOT
BRANCH   5   8
HETATM    8  S   UNL     1     -12.091  13.676  64.549  1.00  0.00    -0.419 S  
HETATM    9  O   UNL     1     -12.920  12.522  64.822  1.00  0.00    -0.827 OA 
HETATM   10  O   UNL     1     -12.559  14.729  63.666  1.00  0.00    -0.749 OA 
BRANCH   8  11
HETATM   11  N   UNL     1     -10.651  13.161  63.893  1.00  0.00    -0.517 N  
HETATM   12  H   UNL     1     -10.072  13.834  63.391  1.00  0.00     0.000 HD 
BRANCH  11  13
HETATM   13  C   UNL     1     -10.211  11.851  64.004  1.00  0.00    -0.361 C  
HETATM   14  O   UNL     1     -10.342  11.046  63.092  1.00  0.00    -0.325 OA 
BRANCH  13  15
HETATM   15  N   UNL     1      -9.657  11.557  65.239  1.00  0.00    -0.251 N  
HETATM   16  H   UNL     1      -8.747  11.950  65.475  1.00  0.00     0.000 HD 
BRANCH  15  17
HETATM   17  N   UNL     1     -10.315  10.722  66.194  1.00  0.00    -0.248 NA 
HETATM   18  C   UNL     1      -9.876   9.321  66.044  1.00  0.00    -0.293 C  
HETATM   19  C   UNL     1     -10.462   8.288  67.014  1.00  0.00    -0.384 C  
HETATM   20  C   UNL     1      -9.958   8.461  68.443  1.00  0.00    -0.208 C  
HETATM   21  C   UNL     1     -10.752   9.471  69.264  1.00  0.00    -0.240 C  
HETATM   22  C   UNL     1     -11.227  10.711  68.513  1.00  0.00    -0.342 C  
HETATM   23  C   UNL     1     -10.193  11.285  67.549  1.00  0.00    -0.189 C  
ENDBRANCH  15  17
ENDBRANCH  13  15
ENDBRANCH  11  13
ENDBRANCH   8  11
ENDBRANCH   5   8
TORSDOF 5
ENDMDL
MODEL       25
REMARK 921   NORMALIZED FREE ENERGY PREDICTED BY IDOCK:   -6.15 KCAL/MOL
REMARK 922        TOTAL FREE ENERGY PREDICTED BY IDOCK:   -8.49 KCAL/MOL
REMARK 923 INTER-LIGAND FREE ENERGY PREDICTED BY IDOCK:   -7.80 KCAL/MOL
REMARK 924 INTRA-LIGAND FREE ENERGY PREDICTED BY IDOCK:   -0.69 KCAL/MOL
REMARK 927      BINDING AFFINITY PREDICTED BY RF-SCORE:    0.00 PKD
ROOT
HETATM    1  C   UNL     1     -12.789  14.948  73.416  1.00  0.00    -0.638 C  
HETATM    2  C   UNL     1     -12.324  14.920  71.988  1.00  0.00    -0.419 A  
HETATM    3  C   UNL     1     -11.741  16.052  71.404  1.00  0.00    -0.536 A  
HETATM    4  C   UNL     1     -11.372  16.043  70.057  1.00  0.00    -0.353 A  
HETATM    5  C   UNL     1     -11.579  14.890  69.294  1.00  0.00    -0.306 A  
HETATM    6  C   UNL     1     -12.506  13.765  71.215  1.00  0.00    -0.428 A  
HETATM    7  C   UNL     1     -12.134  13.746  69.868  1.00  0.00    -0.412 A  
ENDROOT
BRANCH   5   8
HETATM    8  S   UNL     1     -11.168  14.918  67.567  1.00  0.00    -0.335 S  
HETATM    9  O   UNL     1     -11.090  16.288  67.106  1.00  0.00    -0.179 OA 
HETATM   10  O   UNL     1     -10.047  14.013  67.384  1.00  0.00    -0.240 OA 
BRANCH   8  11
HETATM   11  N   UNL     1     -12.459  14.175  66.827  1.00  0.00    -0.553 N  
HETATM   12  H   UNL     1     -13.322  14.048  67.355  1.00  0.00     0.000 HD 
BRANCH  11  13
HETATM   13  C   UNL     1     -12.404  13.720  65.519  1.00  0.00    -0.475 C  
HETATM   14  O   UNL     1     -12.686  14.441  64.572  1.00  0.00    -0.663 OA 
BRANCH  13  15
HETATM   15  N   UNL     1     -12.039  12.388  65.411  1.00  0.00    -0.415 N  
HETATM   16  H   UNL     1     -12.701  11.672  65.708  1.00  0.00     0.000 HD 
BRANCH  15  17
HETATM   17  N   UNL     1     -10.769  11.981  64.898  1.00  0.00    -0.289 NA 
HETATM   18  C   UNL     1     -10.142  10.992  65.796  1.00  0.00    -0.252 C  
HETATM   19  C   UNL     1      -8.781  10.422  65.381  1.00  0.00    -0.193 C  
HETATM   20  C   UNL     1      -8.866   9.503  64.166  1.00  0.00    -0.243 C  
HETATM   21  C   UNL     1      -8.807  10.234  62.830  1.00  0.00    -0.243 C  
HETATM   22  C   UNL     1      -9.535  11.573  62.771  1.00  0.00    -0.226 C  
HETATM   23  C   UNL     1     -10.883  11.577  63.486  1.00  0.00    -0.398 C  
ENDBRANCH  15  17
ENDBRANCH  13  15
ENDBRANCH  11  13
ENDBRANCH   8  11
ENDBRANCH   5   8
TORSDOF 5
ENDMDL
MODEL       26
REMARK 921   NORMALIZED FREE ENERGY PREDICTED BY IDOCK:   -6.12 KCAL/MOL
REMARK 922        TOTAL FREE ENERGY PREDICTED BY IDOCK:   -8.44 KCAL/MOL
REMARK 923 INTER-LIGAND FREE ENERGY PREDICTED BY IDOCK:   -7.70 KCAL/MOL
REMARK 924 INTRA-LIGAND FREE ENERGY PREDICTED BY IDOCK:   -0.74 KCAL/MOL
REMARK 927      BINDING AFFINITY PREDICTED BY RF-SCORE:    0.00 PKD
ROOT
HETATM    1  C   UNL     1     -13.464  15.856  73.174  1.00  0.00    -0.650 C  
HETATM    2  C   UNL     1     -13.046  15.023  71.997  1.00  0.00    -0.440 A  
HETATM    3  C   UNL     1     -13.099  13.624  72.056  1.00  0.00    -0.484 A  
HETATM    4  C   UNL     1     -12.645  12.853  70.984  1.00  0.00    -0.376 A  
HETATM    5  C   UNL     1     -12.144  13.487  69.842  1.00  0.00    -0.341 A  
HETATM    6  C   UNL     1     -12.560  15.644  70.837  1.00  0.00    -0.503 A  
HETATM    7  C   UNL     1     -12.110  14.879  69.758  1.00  0.00    -0.357 A  
ENDROOT
BRANCH   5   8
HETATM    8  S   UNL     1     -11.507  12.491  68.517  1.00  0.00    -0.329 S  
HETATM    9  O   UNL     1     -12.276  11.270  68.411  1.00  0.00    -0.604 OA 
HETATM   10  O   UNL     1     -11.350  13.366  67.369  1.00  0.00    -0.283 OA 
BRANCH   8  11
HETATM   11  N   UNL     1      -9.960  12.114  68.997  1.00  0.00    -0.414 N  
HETATM   12  H   UNL     1      -9.388  12.840  69.428  1.00  0.00     0.000 HD 
BRANCH  11  13
HETATM   13  C   UNL     1      -9.420  10.848  68.833  1.00  0.00    -0.172 C  
HETATM   14  O   UNL     1      -8.920  10.491  67.775  1.00  0.00    -0.131 OA 
BRANCH  13  15
HETATM   15  N   UNL     1      -9.540  10.046  69.956  1.00  0.00    -0.378 N  
HETATM   16  H   UNL     1      -8.870  10.162  70.716  1.00  0.00     0.000 HD 
BRANCH  15  17
HETATM   17  N   UNL     1     -10.567   9.061  70.088  1.00  0.00    -0.216 NA 
HETATM   18  C   UNL     1     -10.098   7.755  69.587  1.00  0.00    -0.196 C  
HETATM   19  C   UNL     1     -11.067   6.571  69.683  1.00  0.00    -0.435 C  
HETATM   20  C   UNL     1     -11.311   6.114  71.117  1.00  0.00    -0.340 C  
HETATM   21  C   UNL     1     -12.409   6.888  71.838  1.00  0.00    -0.364 C  
HETATM   22  C   UNL     1     -12.478   8.381  71.537  1.00  0.00    -0.342 C  
HETATM   23  C   UNL     1     -11.113   9.060  71.456  1.00  0.00    -0.349 C  
ENDBRANCH  15  17
ENDBRANCH  13  15
ENDBRANCH  11  13
ENDBRANCH   8  11
ENDBRANCH   5   8
TORSDOF 5
ENDMDL
MODEL       27
REMARK 921   NORMALIZED FREE ENERGY PREDICTED BY IDOCK:   -6.07 KCAL/MOL
REMARK 922        TOTAL FREE ENERGY PREDICTED BY IDOCK:   -8.39 KCAL/MOL
REMARK 923 INTER-LIGAND FREE ENERGY PREDICTED BY IDOCK:   -7.65 KCAL/MOL
REMARK 924 INTRA-LIGAND FREE ENERGY PREDICTED BY IDOCK:   -0.74 KCAL/MOL
REMARK 927      BINDING AFFINITY PREDICTED BY RF-SCORE:    0.00 PKD
ROOT
HETATM    1  C   UNL     1      -8.909   9.226  64.064  1.00  0.00    -0.168 C  
HETATM    2  C   UNL     1      -9.751  10.422  64.403  1.00  0.00    -0.396 A  
HETATM    3  C   UNL     1     -10.052  11.384  63.430  1.00  0.00    -0.444 A  
HETATM    4  C   UNL     1     -10.778  12.528  63.768  1.00  0.00    -0.483 A  
HETATM    5  C   UNL     1     -11.214  12.705  65.085  1.00  0.00    -0.301 A  
HETATM    6  C   UNL     1     -10.212  10.604  65.715  1.00  0.00    -0.317 A  
HETATM    7  C   UNL     1     -10.944  11.743  66.059  1.00  0.00    -0.355 A  
ENDROOT
BRANCH   5   8
HETATM    8  S   UNL     1     -12.075  14.198  65.511  1.00  0.00    -0.423 S  
HETATM    9  O   UNL     1     -11.481  15.320  64.816  1.00  0.00    -0.401 OA 
HETATM   10  O   UNL     1     -13.494  13.918  65.384  1.00  0.00    -0.672 OA 
BRANCH   8  11
HETATM   11  N   UNL     1     -11.806  14.373  67.143  1.00  0.00    -0.404 N  
HETATM   12  H   UNL     1     -12.489  13.991  67.797  1.00  0.00     0.000 HD 
BRANCH  11  13
HETATM   13  C   UNL     1     -10.688  15.020  67.646  1.00  0.00    -0.274 C  
HETATM   14  O   UNL     1      -9.648  14.422  67.884  1.00  0.00    -0.210 OA 
BRANCH  13  15
HETATM   15  N   UNL     1     -10.887  16.371  67.875  1.00  0.00    -0.340 N  
HETATM   16  H   UNL     1     -11.693  16.662  68.428  1.00  0.00     0.000 HD 
BRANCH  15  17
HETATM   17  N   UNL     1     -10.004  17.373  67.365  1.00  0.00    -0.295 NA 
HETATM   18  C   UNL     1     -10.767  18.431  66.675  1.00  0.00    -0.212 C  
HETATM   19  C   UNL     1      -9.977  19.607  66.091  1.00  0.00    -0.554 C  
HETATM   20  C   UNL     1      -9.379  20.513  67.162  1.00  0.00    -0.513 C  
HETATM   21  C   UNL     1      -8.025  20.048  67.685  1.00  0.00    -0.338 C  
HETATM   22  C   UNL     1      -7.855  18.541  67.841  1.00  0.00    -0.268 C  
HETATM   23  C   UNL     1      -9.081  17.835  68.415  1.00  0.00    -0.278 C  
ENDBRANCH  15  17
ENDBRANCH  13  15
ENDBRANCH  11  13
ENDBRANCH   8  11
ENDBRANCH   5   8
TORSDOF 5
ENDMDL
MODEL       28
REMARK 921   NORMALIZED FREE ENERGY PREDICTED BY IDOCK:   -6.06 KCAL/MOL
REMARK 922        TOTAL FREE ENERGY PREDICTED BY IDOCK:   -8.36 KCAL/MOL
REMARK 923 INTER-LIGAND FREE ENERGY PREDICTED BY IDOCK:   -7.81 KCAL/MOL
REMARK 924 INTRA-LIGAND FREE ENERGY PREDICTED BY IDOCK:   -0.55 KCAL/MOL
REMARK 927      BINDING AFFINITY PREDICTED BY RF-SCORE:    0.00 PKD
ROOT
HETATM    1  C   UNL     1     -13.806  13.488  72.326  1.00  0.00    -0.680 C  
HETATM    2  C   UNL     1     -12.771  14.087  71.418  1.00  0.00    -0.442 A  
HETATM    3  C   UNL     1     -12.391  15.429  71.553  1.00  0.00    -0.443 A  
HETATM    4  C   UNL     1     -11.478  15.999  70.664  1.00  0.00    -0.427 A  
HETATM    5  C   UNL     1     -10.935  15.218  69.638  1.00  0.00    -0.284 A  
HETATM    6  C   UNL     1     -12.203  13.312  70.397  1.00  0.00    -0.404 A  
HETATM    7  C   UNL     1     -11.284  13.873  69.507  1.00  0.00    -0.237 A  
ENDROOT
BRANCH   5   8
HETATM    8  S   UNL     1      -9.830  15.977  68.475  1.00  0.00    -0.223 S  
HETATM    9  O   UNL     1      -9.356  17.238  69.002  1.00  0.00    -0.224 OA 
HETATM   10  O   UNL     1      -8.890  14.953  68.055  1.00  0.00    -0.160 OA 
BRANCH   8  11
HETATM   11  N   UNL     1     -10.780  16.273  67.142  1.00  0.00    -0.288 N  
HETATM   12  H   UNL     1     -11.776  16.446  67.277  1.00  0.00     0.000 HD 
BRANCH  11  13
HETATM   13  C   UNL     1     -10.267  16.294  65.855  1.00  0.00    -0.364 C  
HETATM   14  O   UNL     1      -9.216  16.860  65.587  1.00  0.00    -0.512 OA 
BRANCH  13  15
HETATM   15  N   UNL     1     -11.073  15.654  64.928  1.00  0.00    -0.469 N  
HETATM   16  H   UNL     1     -11.517  16.208  64.196  1.00  0.00     0.000 HD 
BRANCH  15  17
HETATM   17  N   UNL     1     -11.305  14.244  64.959  1.00  0.00    -0.348 NA 
HETATM   18  C   UNL     1     -12.028  13.812  63.748  1.00  0.00    -0.321 C  
HETATM   19  C   UNL     1     -12.334  12.318  63.601  1.00  0.00    -0.664 C  
HETATM   20  C   UNL     1     -11.087  11.476  63.352  1.00  0.00    -0.370 C  
HETATM   21  C   UNL     1     -10.357  11.056  64.622  1.00  0.00    -0.410 C  
HETATM   22  C   UNL     1     -10.312  12.095  65.738  1.00  0.00    -0.289 C  
HETATM   23  C   UNL     1     -10.057  13.518  65.249  1.00  0.00    -0.257 C  
ENDBRANCH  15  17
ENDBRANCH  13  15
ENDBRANCH  11  13
ENDBRANCH   8  11
ENDBRANCH   5   8
TORSDOF 5
ENDMDL
MODEL       29
REMARK 921   NORMALIZED FREE ENERGY PREDICTED BY IDOCK:   -6.01 KCAL/MOL
REMARK 922        TOTAL FREE ENERGY PREDICTED BY IDOCK:   -8.30 KCAL/MOL
REMARK 923 INTER-LIGAND FREE ENERGY PREDICTED BY IDOCK:   -7.41 KCAL/MOL
REMARK 924 INTRA-LIGAND FREE ENERGY PREDICTED BY IDOCK:   -0.90 KCAL/MOL
REMARK 927      BINDING AFFINITY PREDICTED BY RF-SCORE:    0.00 PKD
ROOT
HETATM    1  C   UNL     1     -12.058   8.317  72.456  1.00  0.00    -0.400 C  
HETATM    2  C   UNL     1     -11.946   9.482  71.515  1.00  0.00    -0.475 A  
HETATM    3  C   UNL     1     -11.015   9.469  70.467  1.00  0.00    -0.348 A  
HETATM    4  C   UNL     1     -10.869  10.582  69.637  1.00  0.00    -0.320 A  
HETATM    5  C   UNL     1     -11.666  11.711  69.850  1.00  0.00    -0.337 A  
HETATM    6  C   UNL     1     -12.752  10.614  71.704  1.00  0.00    -0.531 A  
HETATM    7  C   UNL     1     -12.615  11.729  70.873  1.00  0.00    -0.384 A  
ENDROOT
BRANCH   5   8
HETATM    8  S   UNL     1     -11.417  13.142  68.829  1.00  0.00    -0.329 S  
HETATM    9  O   UNL     1     -11.954  12.898  67.508  1.00  0.00    -0.359 OA 
HETATM   10  O   UNL     1     -11.851  14.292  69.602  1.00  0.00    -0.278 OA 
BRANCH   8  11
HETATM   11  N   UNL     1      -9.764  13.284  68.720  1.00  0.00    -0.417 N  
HETATM   12  H   UNL     1      -9.179  12.593  69.190  1.00  0.00     0.000 HD 
BRANCH  11  13
HETATM   13  C   UNL     1      -9.152  14.308  68.014  1.00  0.00    -0.191 C  
HETATM   14  O   UNL     1      -7.937  14.371  67.889  1.00  0.00    -0.123 OA 
BRANCH  13  15
HETATM   15  N   UNL     1     -10.042  15.242  67.512  1.00  0.00    -0.231 N  
HETATM   16  H   UNL     1     -10.977  14.936  67.243  1.00  0.00     0.000 HD 
BRANCH  15  17
HETATM   17  N   UNL     1      -9.699  16.621  67.356  1.00  0.00    -0.247 NA 
HETATM   18  C   UNL     1     -10.511  17.238  66.290  1.00  0.00    -0.268 C  
HETATM   19  C   UNL     1     -10.294  18.729  66.008  1.00  0.00    -0.467 C  
HETATM   20  C   UNL     1     -10.799  19.627  67.133  1.00  0.00    -0.526 C  
HETATM   21  C   UNL     1      -9.792  19.839  68.258  1.00  0.00    -0.537 C  
HETATM   22  C   UNL     1      -8.946  18.626  68.630  1.00  0.00    -0.337 C  
HETATM   23  C   UNL     1      -9.724  17.313  68.656  1.00  0.00    -0.301 C  
ENDBRANCH  15  17
ENDBRANCH  13  15
ENDBRANCH  11  13
ENDBRANCH   8  11
ENDBRANCH   5   8
TORSDOF 5
ENDMDL
MODEL       30
REMARK 921   NORMALIZED FREE ENERGY PREDICTED BY IDOCK:   -6.00 KCAL/MOL
REMARK 922        TOTAL FREE ENERGY PREDICTED BY IDOCK:   -8.29 KCAL/MOL
REMARK 923 INTER-LIGAND FREE ENERGY PREDICTED BY IDOCK:   -7.64 KCAL/MOL
REMARK 924 INTRA-LIGAND FREE ENERGY PREDICTED BY IDOCK:   -0.65 KCAL/MOL
REMARK 927      BINDING AFFINITY PREDICTED BY RF-SCORE:    0.00 PKD
ROOT
HETATM    1  C   UNL     1      -8.194   8.761  63.330  1.00  0.00    -0.170 C  
HETATM    2  C   UNL     1      -9.123   9.853  63.779  1.00  0.00    -0.293 A  
HETATM    3  C   UNL     1      -9.524  10.861  62.892  1.00  0.00    -0.377 A  
HETATM    4  C   UNL     1     -10.333  11.910  63.333  1.00  0.00    -0.481 A  
HETATM    5  C   UNL     1     -10.750  11.945  64.668  1.00  0.00    -0.307 A  
HETATM    6  C   UNL     1      -9.566   9.892  65.109  1.00  0.00    -0.367 A  
HETATM    7  C   UNL     1     -10.380  10.935  65.556  1.00  0.00    -0.316 A  
ENDROOT
BRANCH   5   8
HETATM    8  S   UNL     1     -11.720  13.323  65.227  1.00  0.00    -0.349 S  
HETATM    9  O   UNL     1     -11.194  14.550  64.668  1.00  0.00    -0.377 OA 
HETATM   10  O   UNL     1     -13.114  12.963  65.037  1.00  0.00    -0.794 OA 
BRANCH   8  11
HETATM   11  N   UNL     1     -11.492  13.341  66.875  1.00  0.00    -0.322 N  
HETATM   12  H   UNL     1     -11.339  12.456  67.359  1.00  0.00     0.000 HD 
BRANCH  11  13
HETATM   13  C   UNL     1     -11.503  14.514  67.613  1.00  0.00    -0.353 C  
HETATM   14  O   UNL     1     -12.360  14.740  68.456  1.00  0.00    -0.123 OA 
BRANCH  13  15
HETATM   15  N   UNL     1     -10.485  15.390  67.273  1.00  0.00    -0.276 N  
HETATM   16  H   UNL     1      -9.597  15.009  66.948  1.00  0.00     0.000 HD 
BRANCH  15  17
HETATM   17  N   UNL     1     -10.635  16.809  67.362  1.00  0.00    -0.315 NA 
HETATM   18  C   UNL     1     -10.099  17.305  68.644  1.00  0.00    -0.341 C  
HETATM   19  C   UNL     1     -10.150  18.816  68.895  1.00  0.00    -0.360 C  
HETATM   20  C   UNL     1      -9.190  19.600  68.007  1.00  0.00    -0.409 C  
HETATM   21  C   UNL     1      -9.758  19.953  66.637  1.00  0.00    -0.542 C  
HETATM   22  C   UNL     1     -10.632  18.887  65.985  1.00  0.00    -0.470 C  
HETATM   23  C   UNL     1     -10.105  17.464  66.155  1.00  0.00    -0.300 C  
ENDBRANCH  15  17
ENDBRANCH  13  15
ENDBRANCH  11  13
ENDBRANCH   8  11
ENDBRANCH   5   8
TORSDOF 5
ENDMDL
MODEL       31
REMARK 921   NORMALIZED FREE ENERGY PREDICTED BY IDOCK:   -5.98 KCAL/MOL
REMARK 922        TOTAL FREE ENERGY PREDICTED BY IDOCK:   -8.27 KCAL/MOL
REMARK 923 INTER-LIGAND FREE ENERGY PREDICTED BY IDOCK:   -7.38 KCAL/MOL
REMARK 924 INTRA-LIGAND FREE ENERGY PREDICTED BY IDOCK:   -0.88 KCAL/MOL
REMARK 927      BINDING AFFINITY PREDICTED BY RF-SCORE:    0.00 PKD
ROOT
HETATM    1  C   UNL     1     -11.516  16.028  64.551  1.00  0.00    -0.274 C  
HETATM    2  C   UNL     1     -11.240  14.738  65.267  1.00  0.00    -0.366 A  
HETATM    3  C   UNL     1      -9.936  14.399  65.655  1.00  0.00    -0.365 A  
HETATM    4  C   UNL     1      -9.676  13.168  66.260  1.00  0.00    -0.269 A  
HETATM    5  C   UNL     1     -10.727  12.274  66.486  1.00  0.00    -0.246 A  
HETATM    6  C   UNL     1     -12.287  13.839  65.518  1.00  0.00    -0.507 A  
HETATM    7  C   UNL     1     -12.034  12.608  66.129  1.00  0.00    -0.458 A  
ENDROOT
BRANCH   5   8
HETATM    8  S   UNL     1     -10.367  10.686  67.192  1.00  0.00    -0.240 S  
HETATM    9  O   UNL     1     -10.348   9.681  66.151  1.00  0.00    -0.230 OA 
HETATM   10  O   UNL     1      -9.222  10.863  68.068  1.00  0.00    -0.148 OA 
BRANCH   8  11
HETATM   11  N   UNL     1     -11.652  10.387  68.205  1.00  0.00    -0.479 N  
HETATM   12  H   UNL     1     -12.565  10.191  67.795  1.00  0.00     0.000 HD 
BRANCH  11  13
HETATM   13  C   UNL     1     -11.528  10.397  69.585  1.00  0.00    -0.262 C  
HETATM   14  O   UNL     1     -11.721   9.394  70.258  1.00  0.00    -0.206 OA 
BRANCH  13  15
HETATM   15  N   UNL     1     -11.204  11.640  70.103  1.00  0.00    -0.472 N  
HETATM   16  H   UNL     1     -10.222  11.869  70.254  1.00  0.00     0.000 HD 
BRANCH  15  17
HETATM   17  N   UNL     1     -12.197  12.614  70.434  1.00  0.00    -0.335 NA 
HETATM   18  C   UNL     1     -12.837  12.283  71.721  1.00  0.00    -0.254 C  
HETATM   19  C   UNL     1     -13.909  13.243  72.246  1.00  0.00    -0.637 C  
HETATM   20  C   UNL     1     -13.340  14.586  72.691  1.00  0.00    -0.588 C  
HETATM   21  C   UNL     1     -13.187  15.600  71.564  1.00  0.00    -0.555 C  
HETATM   22  C   UNL     1     -12.736  15.038  70.220  1.00  0.00    -0.319 C  
HETATM   23  C   UNL     1     -11.645  13.975  70.328  1.00  0.00    -0.171 C  
ENDBRANCH  15  17
ENDBRANCH  13  15
ENDBRANCH  11  13
ENDBRANCH   8  11
ENDBRANCH   5   8
TORSDOF 5
ENDMDL
MODEL       32
REMARK 921   NORMALIZED FREE ENERGY PREDICTED BY IDOCK:   -5.98 KCAL/MOL
REMARK 922        TOTAL FREE ENERGY PREDICTED BY IDOCK:   -8.26 KCAL/MOL
REMARK 923 INTER-LIGAND FREE ENERGY PREDICTED BY IDOCK:   -7.57 KCAL/MOL
REMARK 924 INTRA-LIGAND FREE ENERGY PREDICTED BY IDOCK:   -0.69 KCAL/MOL
REMARK 927      BINDING AFFINITY PREDICTED BY RF-SCORE:    0.00 PKD
ROOT
HETATM    1  C   UNL     1     -12.467  11.926  63.423  1.00  0.00    -0.582 C  
HETATM    2  C   UNL     1     -12.133  12.610  64.718  1.00  0.00    -0.495 A  
HETATM    3  C   UNL     1     -11.468  11.921  65.741  1.00  0.00    -0.326 A  
HETATM    4  C   UNL     1     -11.220  12.542  66.967  1.00  0.00    -0.353 A  
HETATM    5  C   UNL     1     -11.632  13.863  67.167  1.00  0.00    -0.364 A  
HETATM    6  C   UNL     1     -12.522  13.942  64.927  1.00  0.00    -0.420 A  
HETATM    7  C   UNL     1     -12.272  14.571  66.148  1.00  0.00    -0.268 A  
ENDROOT
BRANCH   5   8
HETATM    8  S   UNL     1     -11.371  14.612  68.755  1.00  0.00    -0.298 S  
HETATM    9  O   UNL     1     -10.111  14.163  69.306  1.00  0.00    -0.084 OA 
HETATM   10  O   UNL     1     -11.647  16.030  68.603  1.00  0.00    -0.386 OA 
BRANCH   8  11
HETATM   11  N   UNL     1     -12.610  14.022  69.694  1.00  0.00    -0.405 N  
HETATM   12  H   UNL     1     -13.569  14.280  69.461  1.00  0.00     0.000 HD 
BRANCH  11  13
HETATM   13  C   UNL     1     -12.387  13.192  70.781  1.00  0.00    -0.321 C  
HETATM   14  O   UNL     1     -12.573  13.568  71.930  1.00  0.00    -0.230 OA 
BRANCH  13  15
HETATM   15  N   UNL     1     -11.911  11.939  70.432  1.00  0.00    -0.460 N  
HETATM   16  H   UNL     1     -11.490  11.813  69.512  1.00  0.00     0.000 HD 
BRANCH  15  17
HETATM   17  N   UNL     1     -11.988  10.817  71.314  1.00  0.00    -0.261 NA 
HETATM   18  C   UNL     1     -13.393  10.410  71.509  1.00  0.00    -0.310 C  
HETATM   19  C   UNL     1     -13.659   9.196  72.407  1.00  0.00    -0.544 C  
HETATM   20  C   UNL     1     -13.197   7.882  71.785  1.00  0.00    -0.360 C  
HETATM   21  C   UNL     1     -11.727   7.562  72.031  1.00  0.00    -0.333 C  
HETATM   22  C   UNL     1     -10.772   8.751  71.994  1.00  0.00    -0.417 C  
HETATM   23  C   UNL     1     -11.070   9.751  70.880  1.00  0.00    -0.357 C  
ENDBRANCH  15  17
ENDBRANCH  13  15
ENDBRANCH  11  13
ENDBRANCH   8  11
ENDBRANCH   5   8
TORSDOF 5
ENDMDL
MODEL       33
REMARK 921   NORMALIZED FREE ENERGY PREDICTED BY IDOCK:   -5.96 KCAL/MOL
REMARK 922        TOTAL FREE ENERGY PREDICTED BY IDOCK:   -8.24 KCAL/MOL
REMARK 923 INTER-LIGAND FREE ENERGY PREDICTED BY IDOCK:   -7.45 KCAL/MOL
REMARK 924 INTRA-LIGAND FREE ENERGY PREDICTED BY IDOCK:   -0.79 KCAL/MOL
REMARK 927      BINDING AFFINITY PREDICTED BY RF-SCORE:    0.00 PKD
ROOT
HETATM    1  C   UNL     1     -11.150   5.952  73.326  1.00  0.00    -0.216 C  
HETATM    2  C   UNL     1     -10.842   6.811  72.133  1.00  0.00    -0.257 A  
HETATM    3  C   UNL     1     -10.495   8.159  72.293  1.00  0.00    -0.371 A  
HETATM    4  C   UNL     1     -10.277   8.970  71.177  1.00  0.00    -0.363 A  
HETATM    5  C   UNL     1     -10.398   8.426  69.895  1.00  0.00    -0.210 A  
HETATM    6  C   UNL     1     -10.941   6.275  70.841  1.00  0.00    -0.344 A  
HETATM    7  C   UNL     1     -10.718   7.079  69.720  1.00  0.00    -0.265 A  
ENDROOT
BRANCH   5   8
HETATM    8  S   UNL     1     -10.186   9.488  68.488  1.00  0.00    -0.207 S  
HETATM    9  O   UNL     1      -9.159  10.469  68.767  1.00  0.00    -0.150 OA 
HETATM   10  O   UNL     1     -10.089   8.629  67.321  1.00  0.00    -0.200 OA 
BRANCH   8  11
HETATM   11  N   UNL     1     -11.648  10.267  68.340  1.00  0.00    -0.519 N  
HETATM   12  H   UNL     1     -12.497   9.708  68.258  1.00  0.00     0.000 HD 
BRANCH  11  13
HETATM   13  C   UNL     1     -11.754  11.649  68.324  1.00  0.00    -0.304 C  
HETATM   14  O   UNL     1     -12.114  12.258  67.326  1.00  0.00    -0.548 OA 
BRANCH  13  15
HETATM   15  N   UNL     1     -11.384  12.246  69.517  1.00  0.00    -0.438 N  
HETATM   16  H   UNL     1     -10.462  12.043  69.903  1.00  0.00     0.000 HD 
BRANCH  15  17
HETATM   17  N   UNL     1     -12.246  13.137  70.228  1.00  0.00    -0.333 NA 
HETATM   18  C   UNL     1     -12.754  12.494  71.455  1.00  0.00    -0.220 C  
HETATM   19  C   UNL     1     -13.674  13.322  72.359  1.00  0.00    -0.678 C  
HETATM   20  C   UNL     1     -12.947  14.462  73.065  1.00  0.00    -0.571 C  
HETATM   21  C   UNL     1     -12.844  15.739  72.240  1.00  0.00    -0.525 C  
HETATM   22  C   UNL     1     -12.603  15.549  70.747  1.00  0.00    -0.505 C  
HETATM   23  C   UNL     1     -11.600  14.447  70.417  1.00  0.00    -0.226 C  
ENDBRANCH  15  17
ENDBRANCH  13  15
ENDBRANCH  11  13
ENDBRANCH   8  11
ENDBRANCH   5   8
TORSDOF 5
ENDMDL
MODEL       34
REMARK 921   NORMALIZED FREE ENERGY PREDICTED BY IDOCK:   -5.93 KCAL/MOL
REMARK 922        TOTAL FREE ENERGY PREDICTED BY IDOCK:   -8.21 KCAL/MOL
REMARK 923 INTER-LIGAND FREE ENERGY PREDICTED BY IDOCK:   -7.65 KCAL/MOL
REMARK 924 INTRA-LIGAND FREE ENERGY PREDICTED BY IDOCK:   -0.55 KCAL/MOL
REMARK 927      BINDING AFFINITY PREDICTED BY RF-SCORE:    0.00 PKD
ROOT
HETATM    1  C   UNL     1      -7.369  18.808  67.995  1.00  0.00    -0.269 C  
HETATM    2  C   UNL     1      -8.281  17.928  67.189  1.00  0.00    -0.228 A  
HETATM    3  C   UNL     1      -9.543  18.384  66.786  1.00  0.00    -0.308 A  
HETATM    4  C   UNL     1     -10.414  17.539  66.095  1.00  0.00    -0.288 A  
HETATM    5  C   UNL     1     -10.014  16.232  65.797  1.00  0.00    -0.323 A  
HETATM    6  C   UNL     1      -7.887  16.622  66.865  1.00  0.00    -0.261 A  
HETATM    7  C   UNL     1      -8.750  15.772  66.168  1.00  0.00    -0.293 A  
ENDROOT
BRANCH   5   8
HETATM    8  S   UNL     1     -11.159  15.150  64.979  1.00  0.00    -0.419 S  
HETATM    9  O   UNL     1     -11.970  15.908  64.051  1.00  0.00    -0.660 OA 
HETATM   10  O   UNL     1     -10.402  13.997  64.527  1.00  0.00    -0.419 OA 
BRANCH   8  11
HETATM   11  N   UNL     1     -12.132  14.584  66.204  1.00  0.00    -0.335 N  
HETATM   12  H   UNL     1     -13.129  14.463  66.024  1.00  0.00     0.000 HD 
BRANCH  11  13
HETATM   13  C   UNL     1     -11.637  14.270  67.461  1.00  0.00    -0.363 C  
HETATM   14  O   UNL     1     -10.952  13.276  67.656  1.00  0.00    -0.253 OA 
BRANCH  13  15
HETATM   15  N   UNL     1     -12.023  15.164  68.446  1.00  0.00    -0.549 N  
HETATM   16  H   UNL     1     -12.353  16.088  68.169  1.00  0.00     0.000 HD 
BRANCH  15  17
HETATM   17  N   UNL     1     -11.977  14.838  69.837  1.00  0.00    -0.309 NA 
HETATM   18  C   UNL     1     -11.769  16.054  70.646  1.00  0.00    -0.350 C  
HETATM   19  C   UNL     1     -11.725  15.892  72.169  1.00  0.00    -0.586 C  
HETATM   20  C   UNL     1     -13.080  15.531  72.769  1.00  0.00    -0.579 C  
HETATM   21  C   UNL     1     -13.384  14.037  72.762  1.00  0.00    -0.603 C  
HETATM   22  C   UNL     1     -12.915  13.269  71.531  1.00  0.00    -0.426 C  
HETATM   23  C   UNL     1     -13.135  14.012  70.216  1.00  0.00     0.168 C  
ENDBRANCH  15  17
ENDBRANCH  13  15
ENDBRANCH  11  13
ENDBRANCH   8  11
ENDBRANCH   5   8
TORSDOF 5
ENDMDL
MODEL       35
REMARK 921   NORMALIZED FREE ENERGY PREDICTED BY IDOCK:   -5.92 KCAL/MOL
REMARK 922        TOTAL FREE ENERGY PREDICTED BY IDOCK:   -8.19 KCAL/MOL
REMARK 923 INTER-LIGAND FREE ENERGY PREDICTED BY IDOCK:   -7.48 KCAL/MOL
REMARK 924 INTRA-LIGAND FREE ENERGY PREDICTED BY IDOCK:   -0.71 KCAL/MOL
REMARK 927      BINDING AFFINITY PREDICTED BY RF-SCORE:    0.00 PKD
ROOT
HETATM    1  C   UNL     1      -9.699  20.143  67.447  1.00  0.00    -0.563 C  
HETATM    2  C   UNL     1     -10.018  18.677  67.511  1.00  0.00    -0.371 A  
HETATM    3  C   UNL     1     -10.099  17.911  66.341  1.00  0.00    -0.369 A  
HETATM    4  C   UNL     1     -10.463  16.564  66.401  1.00  0.00    -0.275 A  
HETATM    5  C   UNL     1     -10.736  15.978  67.641  1.00  0.00    -0.320 A  
HETATM    6  C   UNL     1     -10.276  18.070  68.749  1.00  0.00    -0.362 A  
HETATM    7  C   UNL     1     -10.634  16.722  68.818  1.00  0.00    -0.348 A  
ENDROOT
BRANCH   5   8
HETATM    8  S   UNL     1     -11.264  14.284  67.692  1.00  0.00    -0.320 S  
HETATM    9  O   UNL     1     -11.904  13.934  66.443  1.00  0.00    -0.369 OA 
HETATM   10  O   UNL     1     -10.143  13.507  68.191  1.00  0.00    -0.235 OA 
BRANCH   8  11
HETATM   11  N   UNL     1     -12.400  14.246  68.907  1.00  0.00    -0.570 N  
HETATM   12  H   UNL     1     -13.218  14.851  68.834  1.00  0.00     0.000 HD 
BRANCH  11  13
HETATM   13  C   UNL     1     -12.274  13.423  70.016  1.00  0.00    -0.298 C  
HETATM   14  O   UNL     1     -12.207  13.874  71.151  1.00  0.00    -0.344 OA 
BRANCH  13  15
HETATM   15  N   UNL     1     -12.199  12.077  69.699  1.00  0.00    -0.194 N  
HETATM   16  H   UNL     1     -12.372  11.788  68.736  1.00  0.00     0.000 HD 
BRANCH  15  17
HETATM   17  N   UNL     1     -11.887  11.077  70.672  1.00  0.00    -0.345 NA 
HETATM   18  C   UNL     1     -13.123  10.511  71.244  1.00  0.00    -0.383 C  
HETATM   19  C   UNL     1     -12.974   9.397  72.287  1.00  0.00    -0.479 C  
HETATM   20  C   UNL     1     -12.459   8.090  71.693  1.00  0.00    -0.347 C  
HETATM   21  C   UNL     1     -10.940   8.007  71.597  1.00  0.00    -0.288 C  
HETATM   22  C   UNL     1     -10.226   9.300  71.217  1.00  0.00    -0.383 C  
HETATM   23  C   UNL     1     -10.932  10.099  70.124  1.00  0.00    -0.316 C  
ENDBRANCH  15  17
ENDBRANCH  13  15
ENDBRANCH  11  13
ENDBRANCH   8  11
ENDBRANCH   5   8
TORSDOF 5
ENDMDL
MODEL       36
REMARK 921   NORMALIZED FREE ENERGY PREDICTED BY IDOCK:   -5.91 KCAL/MOL
REMARK 922        TOTAL FREE ENERGY PREDICTED BY IDOCK:   -8.17 KCAL/MOL
REMARK 923 INTER-LIGAND FREE ENERGY PREDICTED BY IDOCK:   -7.26 KCAL/MOL
REMARK 924 INTRA-LIGAND FREE ENERGY PREDICTED BY IDOCK:   -0.91 KCAL/MOL
REMARK 927      BINDING AFFINITY PREDICTED BY RF-SCORE:    0.00 PKD
ROOT
HETATM    1  C   UNL     1      -9.550  19.944  66.877  1.00  0.00    -0.517 C  
HETATM    2  C   UNL     1      -9.945  18.548  67.264  1.00  0.00    -0.350 A  
HETATM    3  C   UNL     1     -10.150  17.564  66.287  1.00  0.00    -0.341 A  
HETATM    4  C   UNL     1     -10.582  16.287  66.648  1.00  0.00    -0.252 A  
HETATM    5  C   UNL     1     -10.802  15.989  67.997  1.00  0.00    -0.335 A  
HETATM    6  C   UNL     1     -10.151  18.228  68.614  1.00  0.00    -0.407 A  
HETATM    7  C   UNL     1     -10.577  16.950  68.984  1.00  0.00    -0.338 A  
ENDROOT
BRANCH   5   8
HETATM    8  S   UNL     1     -11.419  14.382  68.431  1.00  0.00    -0.319 S  
HETATM    9  O   UNL     1     -12.101  14.449  69.706  1.00  0.00    -0.303 OA 
HETATM   10  O   UNL     1     -12.096  13.858  67.258  1.00  0.00    -0.401 OA 
BRANCH   8  11
HETATM   11  N   UNL     1     -10.050  13.452  68.601  1.00  0.00    -0.363 N  
HETATM   12  H   UNL     1      -9.197  13.891  68.944  1.00  0.00     0.000 HD 
BRANCH  11  13
HETATM   13  C   UNL     1     -10.029  12.100  68.292  1.00  0.00    -0.212 C  
HETATM   14  O   UNL     1      -9.109  11.596  67.663  1.00  0.00    -0.166 OA 
BRANCH  13  15
HETATM   15  N   UNL     1     -11.149  11.415  68.731  1.00  0.00    -0.215 N  
HETATM   16  H   UNL     1     -11.931  11.290  68.089  1.00  0.00     0.000 HD 
BRANCH  15  17
HETATM   17  N   UNL     1     -11.249  10.876  70.051  1.00  0.00    -0.282 NA 
HETATM   18  C   UNL     1     -12.639  10.957  70.538  1.00  0.00    -0.324 C  
HETATM   19  C   UNL     1     -12.935  10.393  71.932  1.00  0.00    -0.555 C  
HETATM   20  C   UNL     1     -12.832   8.872  71.994  1.00  0.00    -0.456 C  
HETATM   21  C   UNL     1     -11.420   8.354  72.239  1.00  0.00    -0.454 C  
HETATM   22  C   UNL     1     -10.300   9.123  71.547  1.00  0.00    -0.414 C  
HETATM   23  C   UNL     1     -10.628   9.542  70.117  1.00  0.00    -0.254 C  
ENDBRANCH  15  17
ENDBRANCH  13  15
ENDBRANCH  11  13
ENDBRANCH   8  11
ENDBRANCH   5   8
TORSDOF 5
ENDMDL
MODEL       37
REMARK 921   NORMALIZED FREE ENERGY PREDICTED BY IDOCK:   -5.90 KCAL/MOL
REMARK 922        TOTAL FREE ENERGY PREDICTED BY IDOCK:   -8.17 KCAL/MOL
REMARK 923 INTER-LIGAND FREE ENERGY PREDICTED BY IDOCK:   -7.40 KCAL/MOL
REMARK 924 INTRA-LIGAND FREE ENERGY PREDICTED BY IDOCK:   -0.77 KCAL/MOL
REMARK 927      BINDING AFFINITY PREDICTED BY RF-SCORE:    0.00 PKD
ROOT
HETATM    1  C   UNL     1     -10.528  17.749  67.355  1.00  0.00    -0.367 C  
HETATM    2  C   UNL     1     -10.653  16.310  67.765  1.00  0.00    -0.314 A  
HETATM    3  C   UNL     1     -10.252  15.282  66.901  1.00  0.00    -0.268 A  
HETATM    4  C   UNL     1     -10.433  13.945  67.261  1.00  0.00    -0.271 A  
HETATM    5  C   UNL     1     -11.010  13.635  68.496  1.00  0.00    -0.267 A  
HETATM    6  C   UNL     1     -11.212  15.983  69.009  1.00  0.00    -0.347 A  
HETATM    7  C   UNL     1     -11.390  14.647  69.378  1.00  0.00    -0.314 A  
ENDROOT
BRANCH   5   8
HETATM    8  S   UNL     1     -11.297  11.931  68.907  1.00  0.00    -0.304 S  
HETATM    9  O   UNL     1     -12.280  11.370  68.005  1.00  0.00    -0.607 OA 
HETATM   10  O   UNL     1      -9.994  11.308  69.058  1.00  0.00    -0.189 OA 
BRANCH   8  11
HETATM   11  N   UNL     1     -11.939  11.983  70.440  1.00  0.00    -0.476 N  
HETATM   12  H   UNL     1     -11.856  12.845  70.979  1.00  0.00     0.000 HD 
BRANCH  11  13
HETATM   13  C   UNL     1     -12.584  10.897  71.011  1.00  0.00    -0.417 C  
HETATM   14  O   UNL     1     -13.223  10.998  72.050  1.00  0.00    -0.499 OA 
BRANCH  13  15
HETATM   15  N   UNL     1     -12.399   9.715  70.315  1.00  0.00    -0.469 N  
HETATM   16  H   UNL     1     -12.855   9.601  69.410  1.00  0.00     0.000 HD 
BRANCH  15  17
HETATM   17  N   UNL     1     -11.592   8.647  70.818  1.00  0.00    -0.270 NA 
HETATM   18  C   UNL     1     -10.473   9.179  71.619  1.00  0.00    -0.332 C  
HETATM   19  C   UNL     1      -9.521   8.166  72.264  1.00  0.00    -0.312 C  
HETATM   20  C   UNL     1     -10.168   7.377  73.397  1.00  0.00    -0.402 C  
HETATM   21  C   UNL     1     -10.937   6.145  72.935  1.00  0.00    -0.294 C  
HETATM   22  C   UNL     1     -11.710   6.294  71.629  1.00  0.00    -0.342 C  
HETATM   23  C   UNL     1     -12.427   7.634  71.484  1.00  0.00    -0.336 C  
ENDBRANCH  15  17
ENDBRANCH  13  15
ENDBRANCH  11  13
ENDBRANCH   8  11
ENDBRANCH   5   8
TORSDOF 5
ENDMDL
MODEL       38
REMARK 921   NORMALIZED FREE ENERGY PREDICTED BY IDOCK:   -5.90 KCAL/MOL
REMARK 922        TOTAL FREE ENERGY PREDICTED BY IDOCK:   -8.16 KCAL/MOL
REMARK 923 INTER-LIGAND FREE ENERGY PREDICTED BY IDOCK:   -7.31 KCAL/MOL
REMARK 924 INTRA-LIGAND FREE ENERGY PREDICTED BY IDOCK:   -0.85 KCAL/MOL
REMARK 927      BINDING AFFINITY PREDICTED BY RF-SCORE:    0.00 PKD
ROOT
HETATM    1  C   UNL     1     -11.143   4.999  73.396  1.00  0.00    -0.404 C  
HETATM    2  C   UNL     1     -11.130   6.168  72.454  1.00  0.00    -0.316 A  
HETATM    3  C   UNL     1     -11.168   5.971  71.067  1.00  0.00    -0.332 A  
HETATM    4  C   UNL     1     -11.088   7.059  70.195  1.00  0.00    -0.323 A  
HETATM    5  C   UNL     1     -10.979   8.352  70.715  1.00  0.00    -0.247 A  
HETATM    6  C   UNL     1     -11.040   7.473  72.960  1.00  0.00    -0.413 A  
HETATM    7  C   UNL     1     -10.966   8.567  72.094  1.00  0.00    -0.427 A  
ENDROOT
BRANCH   5   8
HETATM    8  S   UNL     1     -10.807   9.717  69.592  1.00  0.00    -0.238 S  
HETATM    9  O   UNL     1     -11.865  10.677  69.825  1.00  0.00    -0.278 OA 
HETATM   10  O   UNL     1      -9.415  10.127  69.635  1.00  0.00    -0.222 OA 
BRANCH   8  11
HETATM   11  N   UNL     1     -11.019   9.038  68.088  1.00  0.00    -0.482 N  
HETATM   12  H   UNL     1     -11.654   8.246  67.992  1.00  0.00     0.000 HD 
BRANCH  11  13
HETATM   13  C   UNL     1     -10.362   9.509  66.962  1.00  0.00    -0.250 C  
HETATM   14  O   UNL     1      -9.799   8.756  66.180  1.00  0.00    -0.267 OA 
BRANCH  13  15
HETATM   15  N   UNL     1     -10.385  10.889  66.845  1.00  0.00    -0.228 N  
HETATM   16  H   UNL     1      -9.691  11.436  67.353  1.00  0.00     0.000 HD 
BRANCH  15  17
HETATM   17  N   UNL     1     -11.346  11.574  66.039  1.00  0.00    -0.242 NA 
HETATM   18  C   UNL     1     -11.733  12.850  66.669  1.00  0.00    -0.390 C  
HETATM   19  C   UNL     1     -12.738  13.733  65.921  1.00  0.00    -0.452 C  
HETATM   20  C   UNL     1     -12.159  14.350  64.652  1.00  0.00    -0.485 C  
HETATM   21  C   UNL     1     -12.254  13.449  63.425  1.00  0.00    -0.419 C  
HETATM   22  C   UNL     1     -12.023  11.963  63.672  1.00  0.00    -0.578 C  
HETATM   23  C   UNL     1     -10.884  11.666  64.645  1.00  0.00    -0.314 C  
ENDBRANCH  15  17
ENDBRANCH  13  15
ENDBRANCH  11  13
ENDBRANCH   8  11
ENDBRANCH   5   8
TORSDOF 5
ENDMDL
MODEL       39
REMARK 921   NORMALIZED FREE ENERGY PREDICTED BY IDOCK:   -5.87 KCAL/MOL
REMARK 922        TOTAL FREE ENERGY PREDICTED BY IDOCK:   -8.12 KCAL/MOL
REMARK 923 INTER-LIGAND FREE ENERGY PREDICTED BY IDOCK:   -7.27 KCAL/MOL
REMARK 924 INTRA-LIGAND FREE ENERGY PREDICTED BY IDOCK:   -0.84 KCAL/MOL
REMARK 927      BINDING AFFINITY PREDICTED BY RF-SCORE:    0.00 PKD
ROOT
HETATM    1  C   UNL     1     -10.115  17.784  68.623  1.00  0.00    -0.384 C  
HETATM    2  C   UNL     1     -10.515  16.715  67.648  1.00  0.00    -0.320 A  
HETATM    3  C   UNL     1     -10.183  16.823  66.291  1.00  0.00    -0.341 A  
HETATM    4  C   UNL     1     -10.616  15.860  65.377  1.00  0.00    -0.439 A  
HETATM    5  C   UNL     1     -11.379  14.777  65.826  1.00  0.00    -0.336 A  
HETATM    6  C   UNL     1     -11.264  15.613  68.086  1.00  0.00    -0.345 A  
HETATM    7  C   UNL     1     -11.696  14.642  67.178  1.00  0.00    -0.392 A  
ENDROOT
BRANCH   5   8
HETATM    8  S   UNL     1     -11.980  13.601  64.640  1.00  0.00    -0.429 S  
HETATM    9  O   UNL     1     -12.679  12.533  65.323  1.00  0.00    -0.654 OA 
HETATM   10  O   UNL     1     -12.635  14.358  63.588  1.00  0.00    -0.817 OA 
BRANCH   8  11
HETATM   11  N   UNL     1     -10.602  12.983  63.943  1.00  0.00    -0.508 N  
HETATM   12  H   UNL     1     -10.155  13.506  63.190  1.00  0.00     0.000 HD 
BRANCH  11  13
HETATM   13  C   UNL     1     -10.039  11.783  64.349  1.00  0.00    -0.282 C  
HETATM   14  O   UNL     1     -10.232  10.740  63.739  1.00  0.00    -0.339 OA 
BRANCH  13  15
HETATM   15  N   UNL     1      -9.286  11.888  65.506  1.00  0.00    -0.425 N  
HETATM   16  H   UNL     1      -8.668  12.691  65.619  1.00  0.00     0.000 HD 
BRANCH  15  17
HETATM   17  N   UNL     1      -9.344  10.913  66.549  1.00  0.00    -0.170 NA 
HETATM   18  C   UNL     1      -7.984  10.555  66.998  1.00  0.00    -0.118 C  
HETATM   19  C   UNL     1      -7.860   9.539  68.139  1.00  0.00    -0.083 C  
HETATM   20  C   UNL     1      -8.331  10.090  69.481  1.00  0.00    -0.180 C  
HETATM   21  C   UNL     1      -9.831   9.955  69.715  1.00  0.00    -0.268 C  
HETATM   22  C   UNL     1     -10.718  10.179  68.495  1.00  0.00    -0.264 C  
HETATM   23  C   UNL     1     -10.272  11.339  67.610  1.00  0.00    -0.181 C  
ENDBRANCH  15  17
ENDBRANCH  13  15
ENDBRANCH  11  13
ENDBRANCH   8  11
ENDBRANCH   5   8
TORSDOF 5
ENDMDL
MODEL       40
REMARK 921   NORMALIZED FREE ENERGY PREDICTED BY IDOCK:   -5.85 KCAL/MOL
REMARK 922        TOTAL FREE ENERGY PREDICTED BY IDOCK:   -8.10 KCAL/MOL
REMARK 923 INTER-LIGAND FREE ENERGY PREDICTED BY IDOCK:   -7.52 KCAL/MOL
REMARK 924 INTRA-LIGAND FREE ENERGY PREDICTED BY IDOCK:   -0.58 KCAL/MOL
REMARK 927      BINDING AFFINITY PREDICTED BY RF-SCORE:    0.00 PKD
ROOT
HETATM    1  C   UNL     1      -9.049  19.541  68.925  1.00  0.00    -0.337 C  
HETATM    2  C   UNL     1      -9.625  18.528  67.978  1.00  0.00    -0.337 A  
HETATM    3  C   UNL     1      -9.542  17.158  68.257  1.00  0.00    -0.280 A  
HETATM    4  C   UNL     1     -10.019  16.218  67.341  1.00  0.00    -0.249 A  
HETATM    5  C   UNL     1     -10.591  16.654  66.141  1.00  0.00    -0.215 A  
HETATM    6  C   UNL     1     -10.220  18.950  66.779  1.00  0.00    -0.451 A  
HETATM    7  C   UNL     1     -10.705  18.016  65.860  1.00  0.00    -0.124 A  
ENDROOT
BRANCH   5   8
HETATM    8  S   UNL     1     -11.128  15.444  64.958  1.00  0.00    -0.394 S  
HETATM    9  O   UNL     1     -11.699  16.108  63.806  1.00  0.00    -0.828 OA 
HETATM   10  O   UNL     1     -10.040  14.496  64.799  1.00  0.00    -0.340 OA 
BRANCH   8  11
HETATM   11  N   UNL     1     -12.329  14.606  65.746  1.00  0.00    -0.199 N  
HETATM   12  H   UNL     1     -13.204  15.085  65.960  1.00  0.00     0.000 HD 
BRANCH  11  13
HETATM   13  C   UNL     1     -12.185  13.280  66.123  1.00  0.00    -0.405 C  
HETATM   14  O   UNL     1     -12.553  12.360  65.406  1.00  0.00    -0.637 OA 
BRANCH  13  15
HETATM   15  N   UNL     1     -11.626  13.120  67.380  1.00  0.00    -0.334 N  
HETATM   16  H   UNL     1     -11.100  13.894  67.786  1.00  0.00     0.000 HD 
BRANCH  15  17
HETATM   17  N   UNL     1     -11.760  11.910  68.130  1.00  0.00    -0.425 NA 
HETATM   18  C   UNL     1     -10.688  10.961  67.773  1.00  0.00    -0.235 C  
HETATM   19  C   UNL     1     -10.661   9.616  68.508  1.00  0.00    -0.253 C  
HETATM   20  C   UNL     1     -10.274   9.748  69.978  1.00  0.00    -0.308 C  
HETATM   21  C   UNL     1     -11.444  10.068  70.902  1.00  0.00    -0.452 C  
HETATM   22  C   UNL     1     -12.489  11.028  70.344  1.00  0.00    -0.397 C  
HETATM   23  C   UNL     1     -11.899  12.202  69.567  1.00  0.00    -0.321 C  
ENDBRANCH  15  17
ENDBRANCH  13  15
ENDBRANCH  11  13
ENDBRANCH   8  11
ENDBRANCH   5   8
TORSDOF 5
ENDMDL
MODEL       41
REMARK 921   NORMALIZED FREE ENERGY PREDICTED BY IDOCK:   -5.85 KCAL/MOL
REMARK 922        TOTAL FREE ENERGY PREDICTED BY IDOCK:   -8.10 KCAL/MOL
REMARK 923 INTER-LIGAND FREE ENERGY PREDICTED BY IDOCK:   -7.22 KCAL/MOL
REMARK 924 INTRA-LIGAND FREE ENERGY PREDICTED BY IDOCK:   -0.88 KCAL/MOL
REMARK 927      BINDING AFFINITY PREDICTED BY RF-SCORE:    0.00 PKD
ROOT
HETATM    1  C   UNL     1      -9.371   3.092  68.988  1.00  0.00    -0.226 C  
HETATM    2  C   UNL     1      -9.704   4.506  69.367  1.00  0.00    -0.272 A  
HETATM    3  C   UNL     1     -10.047   4.831  70.687  1.00  0.00    -0.288 A  
HETATM    4  C   UNL     1     -10.422   6.134  71.019  1.00  0.00    -0.281 A  
HETATM    5  C   UNL     1     -10.445   7.120  70.028  1.00  0.00    -0.221 A  
HETATM    6  C   UNL     1      -9.713   5.510  68.388  1.00  0.00    -0.168 A  
HETATM    7  C   UNL     1     -10.081   6.817  68.715  1.00  0.00    -0.165 A  
ENDROOT
BRANCH   5   8
HETATM    8  S   UNL     1     -10.991   8.754  70.454  1.00  0.00    -0.229 S  
HETATM    9  O   UNL     1     -12.289   8.685  71.090  1.00  0.00    -0.288 OA 
HETATM   10  O   UNL     1      -9.878   9.412  71.116  1.00  0.00    -0.282 OA 
BRANCH   8  11
HETATM   11  N   UNL     1     -11.150   9.528  68.990  1.00  0.00    -0.432 N  
HETATM   12  H   UNL     1     -10.948   9.008  68.136  1.00  0.00     0.000 HD 
BRANCH  11  13
HETATM   13  C   UNL     1     -11.546  10.852  68.889  1.00  0.00    -0.309 C  
HETATM   14  O   UNL     1     -11.968  11.322  67.842  1.00  0.00    -0.630 OA 
BRANCH  13  15
HETATM   15  N   UNL     1     -11.382  11.569  70.062  1.00  0.00    -0.492 N  
HETATM   16  H   UNL     1     -10.597  11.340  70.672  1.00  0.00     0.000 HD 
BRANCH  15  17
HETATM   17  N   UNL     1     -12.271  12.619  70.450  1.00  0.00    -0.335 NA 
HETATM   18  C   UNL     1     -12.918  12.300  71.737  1.00  0.00    -0.325 C  
HETATM   19  C   UNL     1     -13.885  13.336  72.319  1.00  0.00    -0.637 C  
HETATM   20  C   UNL     1     -13.182  14.601  72.803  1.00  0.00    -0.591 C  
HETATM   21  C   UNL     1     -12.952  15.639  71.711  1.00  0.00    -0.541 C  
HETATM   22  C   UNL     1     -12.579  15.090  70.338  1.00  0.00    -0.399 C  
HETATM   23  C   UNL     1     -11.594  13.925  70.384  1.00  0.00    -0.108 C  
ENDBRANCH  15  17
ENDBRANCH  13  15
ENDBRANCH  11  13
ENDBRANCH   8  11
ENDBRANCH   5   8
TORSDOF 5
ENDMDL
MODEL       42
REMARK 921   NORMALIZED FREE ENERGY PREDICTED BY IDOCK:   -5.84 KCAL/MOL
REMARK 922        TOTAL FREE ENERGY PREDICTED BY IDOCK:   -8.09 KCAL/MOL
REMARK 923 INTER-LIGAND FREE ENERGY PREDICTED BY IDOCK:   -7.17 KCAL/MOL
REMARK 924 INTRA-LIGAND FREE ENERGY PREDICTED BY IDOCK:   -0.92 KCAL/MOL
REMARK 927      BINDING AFFINITY PREDICTED BY RF-SCORE:    0.00 PKD
ROOT
HETATM    1  C   UNL     1     -11.630   8.213  72.586  1.00  0.00    -0.441 C  
HETATM    2  C   UNL     1     -11.292   9.112  71.432  1.00  0.00    -0.414 A  
HETATM    3  C   UNL     1     -10.077   8.973  70.748  1.00  0.00    -0.303 A  
HETATM    4  C   UNL     1      -9.738   9.855  69.720  1.00  0.00    -0.266 A  
HETATM    5  C   UNL     1     -10.626  10.877  69.368  1.00  0.00    -0.197 A  
HETATM    6  C   UNL     1     -12.180  10.130  71.054  1.00  0.00    -0.474 A  
HETATM    7  C   UNL     1     -11.851  11.012  70.022  1.00  0.00    -0.435 A  
ENDROOT
BRANCH   5   8
HETATM    8  S   UNL     1     -10.149  12.031  68.106  1.00  0.00    -0.204 S  
HETATM    9  O   UNL     1      -9.288  13.046  68.673  1.00  0.00    -0.123 OA 
HETATM   10  O   UNL     1      -9.715  11.250  66.961  1.00  0.00    -0.183 OA 
BRANCH   8  11
HETATM   11  N   UNL     1     -11.580  12.738  67.638  1.00  0.00    -0.337 N  
HETATM   12  H   UNL     1     -12.342  12.141  67.317  1.00  0.00     0.000 HD 
BRANCH  11  13
HETATM   13  C   UNL     1     -11.774  14.111  67.667  1.00  0.00    -0.387 C  
HETATM   14  O   UNL     1     -11.184  14.863  66.904  1.00  0.00    -0.335 OA 
BRANCH  13  15
HETATM   15  N   UNL     1     -12.656  14.524  68.651  1.00  0.00    -0.390 N  
HETATM   16  H   UNL     1     -13.573  14.872  68.373  1.00  0.00     0.000 HD 
BRANCH  15  17
HETATM   17  N   UNL     1     -12.329  14.480  70.041  1.00  0.00    -0.330 NA 
HETATM   18  C   UNL     1     -11.519  15.654  70.419  1.00  0.00    -0.354 C  
HETATM   19  C   UNL     1     -11.104  15.784  71.888  1.00  0.00    -0.031 C  
HETATM   20  C   UNL     1     -12.275  16.093  72.814  1.00  0.00    -0.628 C  
HETATM   21  C   UNL     1     -13.036  14.860  73.287  1.00  0.00    -0.635 C  
HETATM   22  C   UNL     1     -13.207  13.749  72.256  1.00  0.00    -0.563 C  
HETATM   23  C   UNL     1     -13.536  14.251  70.853  1.00  0.00    -0.136 C  
ENDBRANCH  15  17
ENDBRANCH  13  15
ENDBRANCH  11  13
ENDBRANCH   8  11
ENDBRANCH   5   8
TORSDOF 5
ENDMDL
MODEL       43
REMARK 921   NORMALIZED FREE ENERGY PREDICTED BY IDOCK:   -5.84 KCAL/MOL
REMARK 922        TOTAL FREE ENERGY PREDICTED BY IDOCK:   -8.09 KCAL/MOL
REMARK 923 INTER-LIGAND FREE ENERGY PREDICTED BY IDOCK:   -7.11 KCAL/MOL
REMARK 924 INTRA-LIGAND FREE ENERGY PREDICTED BY IDOCK:   -0.98 KCAL/MOL
REMARK 927      BINDING AFFINITY PREDICTED BY RF-SCORE:    0.00 PKD
ROOT
HETATM    1  C   UNL     1      -7.101  21.069  67.286  1.00  0.00    -0.399 C  
HETATM    2  C   UNL     1      -7.934  19.919  67.775  1.00  0.00    -0.326 A  
HETATM    3  C   UNL     1      -7.330  18.778  68.319  1.00  0.00    -0.295 A  
HETATM    4  C   UNL     1      -8.106  17.685  68.710  1.00  0.00    -0.233 A  
HETATM    5  C   UNL     1      -9.496  17.738  68.563  1.00  0.00    -0.304 A  
HETATM    6  C   UNL     1      -9.331  19.965  67.653  1.00  0.00    -0.464 A  
HETATM    7  C   UNL     1     -10.114  18.878  68.047  1.00  0.00    -0.437 A  
ENDROOT
BRANCH   5   8
HETATM    8  S   UNL     1     -10.460  16.313  68.999  1.00  0.00    -0.298 S  
HETATM    9  O   UNL     1     -11.393  16.010  67.935  1.00  0.00    -0.314 OA 
HETATM   10  O   UNL     1      -9.531  15.304  69.476  1.00  0.00    -0.239 OA 
BRANCH   8  11
HETATM   11  N   UNL     1     -11.315  16.793  70.343  1.00  0.00    -0.374 N  
HETATM   12  H   UNL     1     -11.360  17.787  70.568  1.00  0.00     0.000 HD 
BRANCH  11  13
HETATM   13  C   UNL     1     -11.968  15.892  71.169  1.00  0.00    -0.427 C  
HETATM   14  O   UNL     1     -11.972  16.016  72.386  1.00  0.00    -0.461 OA 
BRANCH  13  15
HETATM   15  N   UNL     1     -12.566  14.847  70.484  1.00  0.00    -0.368 N  
HETATM   16  H   UNL     1     -13.276  15.061  69.784  1.00  0.00     0.000 HD 
BRANCH  15  17
HETATM   17  N   UNL     1     -12.224  13.479  70.722  1.00  0.00    -0.356 NA 
HETATM   18  C   UNL     1     -13.223  12.843  71.601  1.00  0.00    -0.324 C  
HETATM   19  C   UNL     1     -13.028  11.360  71.936  1.00  0.00    -0.466 C  
HETATM   20  C   UNL     1     -13.260  10.443  70.740  1.00  0.00    -0.266 C  
HETATM   21  C   UNL     1     -12.035  10.257  69.853  1.00  0.00    -0.222 C  
HETATM   22  C   UNL     1     -11.164  11.493  69.654  1.00  0.00    -0.276 C  
HETATM   23  C   UNL     1     -11.956  12.782  69.453  1.00  0.00    -0.263 C  
ENDBRANCH  15  17
ENDBRANCH  13  15
ENDBRANCH  11  13
ENDBRANCH   8  11
ENDBRANCH   5   8
TORSDOF 5
ENDMDL
MODEL       44
REMARK 921   NORMALIZED FREE ENERGY PREDICTED BY IDOCK:   -5.83 KCAL/MOL
REMARK 922        TOTAL FREE ENERGY PREDICTED BY IDOCK:   -8.07 KCAL/MOL
REMARK 923 INTER-LIGAND FREE ENERGY PREDICTED BY IDOCK:   -7.35 KCAL/MOL
REMARK 924 INTRA-LIGAND FREE ENERGY PREDICTED BY IDOCK:   -0.72 KCAL/MOL
REMARK 927      BINDING AFFINITY PREDICTED BY RF-SCORE:    0.00 PKD
ROOT
HETATM    1  C   UNL     1     -10.921   6.806  73.062  1.00  0.00    -0.293 C  
HETATM    2  C   UNL     1     -11.049   7.938  72.084  1.00  0.00    -0.351 A  
HETATM    3  C   UNL     1     -10.070   8.152  71.104  1.00  0.00    -0.222 A  
HETATM    4  C   UNL     1     -10.160   9.246  70.241  1.00  0.00    -0.262 A  
HETATM    5  C   UNL     1     -11.241  10.126  70.354  1.00  0.00    -0.330 A  
HETATM    6  C   UNL     1     -12.137   8.819  72.171  1.00  0.00    -0.441 A  
HETATM    7  C   UNL     1     -12.237   9.912  71.307  1.00  0.00    -0.480 A  
ENDROOT
BRANCH   5   8
HETATM    8  S   UNL     1     -11.302  11.550  69.296  1.00  0.00    -0.307 S  
HETATM    9  O   UNL     1      -9.973  11.857  68.812  1.00  0.00    -0.184 OA 
HETATM   10  O   UNL     1     -12.396  11.338  68.364  1.00  0.00    -0.545 OA 
BRANCH   8  11
HETATM   11  N   UNL     1     -11.809  12.780  70.294  1.00  0.00    -0.537 N  
HETATM   12  H   UNL     1     -11.687  12.678  71.301  1.00  0.00     0.000 HD 
BRANCH  11  13
HETATM   13  C   UNL     1     -12.392  13.940  69.807  1.00  0.00    -0.275 C  
HETATM   14  O   UNL     1     -13.059  14.677  70.519  1.00  0.00    -0.334 OA 
BRANCH  13  15
HETATM   15  N   UNL     1     -12.171  14.144  68.455  1.00  0.00    -0.569 N  
HETATM   16  H   UNL     1     -12.748  13.641  67.781  1.00  0.00     0.000 HD 
BRANCH  15  17
HETATM   17  N   UNL     1     -11.162  15.032  67.969  1.00  0.00    -0.303 NA 
HETATM   18  C   UNL     1     -11.037  14.920  66.503  1.00  0.00    -0.341 C  
HETATM   19  C   UNL     1     -10.018  15.830  65.808  1.00  0.00    -0.389 C  
HETATM   20  C   UNL     1     -10.425  17.300  65.822  1.00  0.00    -0.237 C  
HETATM   21  C   UNL     1     -10.014  18.046  67.087  1.00  0.00    -0.326 C  
HETATM   22  C   UNL     1     -10.121  17.258  68.388  1.00  0.00    -0.333 C  
HETATM   23  C   UNL     1     -11.375  16.394  68.488  1.00  0.00    -0.289 C  
ENDBRANCH  15  17
ENDBRANCH  13  15
ENDBRANCH  11  13
ENDBRANCH   8  11
ENDBRANCH   5   8
TORSDOF 5
ENDMDL
MODEL       45
REMARK 921   NORMALIZED FREE ENERGY PREDICTED BY IDOCK:   -5.82 KCAL/MOL
REMARK 922        TOTAL FREE ENERGY PREDICTED BY IDOCK:   -8.06 KCAL/MOL
REMARK 923 INTER-LIGAND FREE ENERGY PREDICTED BY IDOCK:   -7.65 KCAL/MOL
REMARK 924 INTRA-LIGAND FREE ENERGY PREDICTED BY IDOCK:   -0.41 KCAL/MOL
REMARK 927      BINDING AFFINITY PREDICTED BY RF-SCORE:    0.00 PKD
ROOT
HETATM    1  C   UNL     1     -10.007  20.101  67.998  1.00  0.00    -0.519 C  
HETATM    2  C   UNL     1     -10.201  18.648  67.671  1.00  0.00    -0.425 A  
HETATM    3  C   UNL     1     -10.230  18.212  66.340  1.00  0.00    -0.405 A  
HETATM    4  C   UNL     1     -10.479  16.871  66.040  1.00  0.00    -0.297 A  
HETATM    5  C   UNL     1     -10.691  15.960  67.079  1.00  0.00    -0.292 A  
HETATM    6  C   UNL     1     -10.397  17.718  68.703  1.00  0.00    -0.351 A  
HETATM    7  C   UNL     1     -10.640  16.374  68.411  1.00  0.00    -0.311 A  
ENDROOT
BRANCH   5   8
HETATM    8  S   UNL     1     -11.075  14.274  66.677  1.00  0.00    -0.329 S  
HETATM    9  O   UNL     1     -12.150  14.235  65.709  1.00  0.00    -0.395 OA 
HETATM   10  O   UNL     1      -9.814  13.606  66.408  1.00  0.00    -0.282 OA 
BRANCH   8  11
HETATM   11  N   UNL     1     -11.618  13.626  68.110  1.00  0.00    -0.311 N  
HETATM   12  H   UNL     1     -11.891  14.257  68.863  1.00  0.00     0.000 HD 
BRANCH  11  13
HETATM   13  C   UNL     1     -11.712  12.258  68.318  1.00  0.00    -0.336 C  
HETATM   14  O   UNL     1     -12.121  11.499  67.450  1.00  0.00    -0.593 OA 
BRANCH  13  15
HETATM   15  N   UNL     1     -11.336  11.866  69.592  1.00  0.00    -0.444 N  
HETATM   16  H   UNL     1     -10.978  12.569  70.237  1.00  0.00     0.000 HD 
BRANCH  15  17
HETATM   17  N   UNL     1     -11.432  10.510  70.035  1.00  0.00    -0.292 NA 
HETATM   18  C   UNL     1     -10.091   9.904  70.139  1.00  0.00    -0.255 C  
HETATM   19  C   UNL     1     -10.005   8.456  70.632  1.00  0.00    -0.212 C  
HETATM   20  C   UNL     1     -10.362   8.307  72.108  1.00  0.00    -0.370 C  
HETATM   21  C   UNL     1     -11.855   8.159  72.374  1.00  0.00    -0.448 C  
HETATM   22  C   UNL     1     -12.774   8.998  71.493  1.00  0.00    -0.399 C  
HETATM   23  C   UNL     1     -12.268  10.416  71.244  1.00  0.00    -0.389 C  
ENDBRANCH  15  17
ENDBRANCH  13  15
ENDBRANCH  11  13
ENDBRANCH   8  11
ENDBRANCH   5   8
TORSDOF 5
ENDMDL
MODEL       46
REMARK 921   NORMALIZED FREE ENERGY PREDICTED BY IDOCK:   -5.81 KCAL/MOL
REMARK 922        TOTAL FREE ENERGY PREDICTED BY IDOCK:   -8.04 KCAL/MOL
REMARK 923 INTER-LIGAND FREE ENERGY PREDICTED BY IDOCK:   -7.25 KCAL/MOL
REMARK 924 INTRA-LIGAND FREE ENERGY PREDICTED BY IDOCK:   -0.79 KCAL/MOL
REMARK 927      BINDING AFFINITY PREDICTED BY RF-SCORE:    0.00 PKD
ROOT
HETATM    1  C   UNL     1     -12.533  11.859  63.127  1.00  0.00    -0.363 C  
HETATM    2  C   UNL     1     -12.145  12.360  64.488  1.00  0.00    -0.492 A  
HETATM    3  C   UNL     1     -11.261  11.631  65.295  1.00  0.00    -0.263 A  
HETATM    4  C   UNL     1     -10.958  12.067  66.586  1.00  0.00    -0.330 A  
HETATM    5  C   UNL     1     -11.535  13.246  67.069  1.00  0.00    -0.339 A  
HETATM    6  C   UNL     1     -12.701  13.550  64.980  1.00  0.00    -0.399 A  
HETATM    7  C   UNL     1     -12.397  13.996  66.269  1.00  0.00    -0.482 A  
ENDROOT
BRANCH   5   8
HETATM    8  S   UNL     1     -11.192  13.748  68.737  1.00  0.00    -0.287 S  
HETATM    9  O   UNL     1     -11.825  12.833  69.663  1.00  0.00    -0.311 OA 
HETATM   10  O   UNL     1      -9.766  14.008  68.815  1.00  0.00    -0.205 OA 
BRANCH   8  11
HETATM   11  N   UNL     1     -11.918  15.238  68.872  1.00  0.00    -0.531 N  
HETATM   12  H   UNL     1     -12.558  15.542  68.138  1.00  0.00     0.000 HD 
BRANCH  11  13
HETATM   13  C   UNL     1     -11.685  16.083  69.947  1.00  0.00    -0.271 C  
HETATM   14  O   UNL     1     -12.249  15.932  71.022  1.00  0.00    -0.404 OA 
BRANCH  13  15
HETATM   15  N   UNL     1     -10.797  17.107  69.662  1.00  0.00    -0.325 N  
HETATM   16  H   UNL     1     -10.509  17.730  70.416  1.00  0.00     0.000 HD 
BRANCH  15  17
HETATM   17  N   UNL     1     -10.271  17.323  68.351  1.00  0.00    -0.335 NA 
HETATM   18  C   UNL     1     -10.834  18.553  67.764  1.00  0.00    -0.247 C  
HETATM   19  C   UNL     1     -10.353  18.955  66.366  1.00  0.00    -0.503 C  
HETATM   20  C   UNL     1      -8.900  19.420  66.347  1.00  0.00    -0.385 C  
HETATM   21  C   UNL     1      -7.888  18.288  66.214  1.00  0.00    -0.279 C  
HETATM   22  C   UNL     1      -8.223  17.004  66.967  1.00  0.00    -0.232 C  
HETATM   23  C   UNL     1      -8.801  17.237  68.360  1.00  0.00    -0.269 C  
ENDBRANCH  15  17
ENDBRANCH  13  15
ENDBRANCH  11  13
ENDBRANCH   8  11
ENDBRANCH   5   8
TORSDOF 5
ENDMDL
MODEL       47
REMARK 921   NORMALIZED FREE ENERGY PREDICTED BY IDOCK:   -5.80 KCAL/MOL
REMARK 922        TOTAL FREE ENERGY PREDICTED BY IDOCK:   -8.04 KCAL/MOL
REMARK 923 INTER-LIGAND FREE ENERGY PREDICTED BY IDOCK:   -7.48 KCAL/MOL
REMARK 924 INTRA-LIGAND FREE ENERGY PREDICTED BY IDOCK:   -0.56 KCAL/MOL
REMARK 927      BINDING AFFINITY PREDICTED BY RF-SCORE:    0.00 PKD
ROOT
HETATM    1  C   UNL     1     -13.750  15.429  72.030  1.00  0.00    -0.613 C  
HETATM    2  C   UNL     1     -13.280  14.063  71.622  1.00  0.00    -0.442 A  
HETATM    3  C   UNL     1     -13.674  12.926  72.341  1.00  0.00    -0.530 A  
HETATM    4  C   UNL     1     -13.180  11.666  71.999  1.00  0.00    -0.443 A  
HETATM    5  C   UNL     1     -12.294  11.541  70.924  1.00  0.00    -0.359 A  
HETATM    6  C   UNL     1     -12.406  13.918  70.535  1.00  0.00    -0.439 A  
HETATM    7  C   UNL     1     -11.913  12.660  70.182  1.00  0.00    -0.375 A  
ENDROOT
BRANCH   5   8
HETATM    8  S   UNL     1     -11.622   9.942  70.547  1.00  0.00    -0.319 S  
HETATM    9  O   UNL     1     -10.205   9.926  70.840  1.00  0.00    -0.210 OA 
HETATM   10  O   UNL     1     -12.510   8.959  71.143  1.00  0.00    -0.291 OA 
BRANCH   8  11
HETATM   11  N   UNL     1     -11.835   9.786  68.905  1.00  0.00    -0.163 N  
HETATM   12  H   UNL     1     -12.780   9.839  68.524  1.00  0.00     0.000 HD 
BRANCH  11  13
HETATM   13  C   UNL     1     -10.775   9.586  68.035  1.00  0.00    -0.212 C  
HETATM   14  O   UNL     1     -10.506   8.480  67.587  1.00  0.00    -0.244 OA 
BRANCH  13  15
HETATM   15  N   UNL     1     -10.054  10.738  67.766  1.00  0.00    -0.170 N  
HETATM   16  H   UNL     1      -9.296  11.000  68.395  1.00  0.00     0.000 HD 
BRANCH  15  17
HETATM   17  N   UNL     1     -10.336  11.573  66.641  1.00  0.00    -0.219 NA 
HETATM   18  C   UNL     1     -10.136  10.829  65.383  1.00  0.00    -0.285 C  
HETATM   19  C   UNL     1     -10.425  11.567  64.071  1.00  0.00    -0.424 C  
HETATM   20  C   UNL     1     -11.909  11.844  63.858  1.00  0.00    -0.509 C  
HETATM   21  C   UNL     1     -12.403  13.125  64.521  1.00  0.00    -0.447 C  
HETATM   22  C   UNL     1     -11.801  13.442  65.885  1.00  0.00    -0.414 C  
HETATM   23  C   UNL     1     -11.648  12.225  66.793  1.00  0.00    -0.369 C  
ENDBRANCH  15  17
ENDBRANCH  13  15
ENDBRANCH  11  13
ENDBRANCH   8  11
ENDBRANCH   5   8
TORSDOF 5
ENDMDL
MODEL       48
REMARK 921   NORMALIZED FREE ENERGY PREDICTED BY IDOCK:   -5.78 KCAL/MOL
REMARK 922        TOTAL FREE ENERGY PREDICTED BY IDOCK:   -8.01 KCAL/MOL
REMARK 923 INTER-LIGAND FREE ENERGY PREDICTED BY IDOCK:   -7.67 KCAL/MOL
REMARK 924 INTRA-LIGAND FREE ENERGY PREDICTED BY IDOCK:   -0.34 KCAL/MOL
REMARK 927      BINDING AFFINITY PREDICTED BY RF-SCORE:    0.00 PKD
ROOT
HETATM    1  C   UNL     1      -6.279  20.709  68.409  1.00  0.00    -0.365 C  
HETATM    2  C   UNL     1      -7.305  19.762  67.856  1.00  0.00    -0.319 A  
HETATM    3  C   UNL     1      -7.448  18.473  68.385  1.00  0.00    -0.315 A  
HETATM    4  C   UNL     1      -8.356  17.573  67.823  1.00  0.00    -0.220 A  
HETATM    5  C   UNL     1      -9.132  17.970  66.730  1.00  0.00    -0.273 A  
HETATM    6  C   UNL     1      -8.105  20.152  66.772  1.00  0.00    -0.350 A  
HETATM    7  C   UNL     1      -9.020  19.259  66.208  1.00  0.00    -0.347 A  
ENDROOT
BRANCH   5   8
HETATM    8  S   UNL     1     -10.230  16.791  65.984  1.00  0.00    -0.317 S  
HETATM    9  O   UNL     1     -10.979  17.426  64.921  1.00  0.00    -0.862 OA 
HETATM   10  O   UNL     1      -9.452  15.593  65.725  1.00  0.00    -0.335 OA 
BRANCH   8  11
HETATM   11  N   UNL     1     -11.278  16.378  67.208  1.00  0.00    -0.008 N  
HETATM   12  H   UNL     1     -11.971  17.062  67.514  1.00  0.00     0.000 HD 
BRANCH  11  13
HETATM   13  C   UNL     1     -11.245  15.138  67.827  1.00  0.00    -0.323 C  
HETATM   14  O   UNL     1     -10.356  14.830  68.608  1.00  0.00    -0.231 OA 
BRANCH  13  15
HETATM   15  N   UNL     1     -12.280  14.302  67.444  1.00  0.00    -0.604 N  
HETATM   16  H   UNL     1     -13.200  14.433  67.866  1.00  0.00     0.000 HD 
BRANCH  15  17
HETATM   17  N   UNL     1     -12.108  13.260  66.481  1.00  0.00    -0.393 NA 
HETATM   18  C   UNL     1     -12.420  13.753  65.126  1.00  0.00    -0.450 C  
HETATM   19  C   UNL     1     -12.257  12.771  63.960  1.00  0.00    -0.518 C  
HETATM   20  C   UNL     1     -10.800  12.424  63.673  1.00  0.00    -0.509 C  
HETATM   21  C   UNL     1     -10.253  11.284  64.523  1.00  0.00    -0.370 C  
HETATM   22  C   UNL     1     -10.729  11.247  65.972  1.00  0.00    -0.301 C  
HETATM   23  C   UNL     1     -10.792  12.619  66.638  1.00  0.00    -0.258 C  
ENDBRANCH  15  17
ENDBRANCH  13  15
ENDBRANCH  11  13
ENDBRANCH   8  11
ENDBRANCH   5   8
TORSDOF 5
ENDMDL
MODEL       49
REMARK 921   NORMALIZED FREE ENERGY PREDICTED BY IDOCK:   -5.75 KCAL/MOL
REMARK 922        TOTAL FREE ENERGY PREDICTED BY IDOCK:   -7.96 KCAL/MOL
REMARK 923 INTER-LIGAND FREE ENERGY PREDICTED BY IDOCK:   -7.03 KCAL/MOL
REMARK 924 INTRA-LIGAND FREE ENERGY PREDICTED BY IDOCK:   -0.93 KCAL/MOL
REMARK 927      BINDING AFFINITY PREDICTED BY RF-SCORE:    0.00 PKD
ROOT
HETATM    1  C   UNL     1     -10.089  18.360  67.942  1.00  0.00    -0.384 C  
HETATM    2  C   UNL     1     -10.212  16.964  67.403  1.00  0.00    -0.298 A  
HETATM    3  C   UNL     1      -9.440  16.548  66.311  1.00  0.00    -0.339 A  
HETATM    4  C   UNL     1      -9.607  15.271  65.771  1.00  0.00    -0.359 A  
HETATM    5  C   UNL     1     -10.548  14.402  66.335  1.00  0.00    -0.297 A  
HETATM    6  C   UNL     1     -11.137  16.075  67.969  1.00  0.00    -0.334 A  
HETATM    7  C   UNL     1     -11.306  14.793  67.439  1.00  0.00    -0.361 A  
ENDROOT
BRANCH   5   8
HETATM    8  S   UNL     1     -10.797  12.809  65.593  1.00  0.00    -0.280 S  
HETATM    9  O   UNL     1     -12.042  12.240  66.063  1.00  0.00    -0.623 OA 
HETATM   10  O   UNL     1     -10.545  12.961  64.171  1.00  0.00    -0.389 OA 
BRANCH   8  11
HETATM   11  N   UNL     1      -9.535  11.889  66.166  1.00  0.00    -0.230 N  
HETATM   12  H   UNL     1      -8.868  11.499  65.500  1.00  0.00     0.000 HD 
BRANCH  11  13
HETATM   13  C   UNL     1      -9.357  11.633  67.517  1.00  0.00    -0.168 C  
HETATM   14  O   UNL     1      -8.498  12.205  68.175  1.00  0.00    -0.162 OA 
BRANCH  13  15
HETATM   15  N   UNL     1     -10.210  10.661  68.013  1.00  0.00    -0.169 N  
HETATM   16  H   UNL     1     -10.530   9.923  67.386  1.00  0.00     0.000 HD 
BRANCH  15  17
HETATM   17  N   UNL     1     -10.657  10.655  69.370  1.00  0.00    -0.231 NA 
HETATM   18  C   UNL     1     -11.897  11.442  69.509  1.00  0.00    -0.357 C  
HETATM   19  C   UNL     1     -12.536  11.516  70.900  1.00  0.00    -0.464 C  
HETATM   20  C   UNL     1     -13.137  10.189  71.352  1.00  0.00    -0.512 C  
HETATM   21  C   UNL     1     -12.138   9.249  72.017  1.00  0.00    -0.406 C  
HETATM   22  C   UNL     1     -10.736   9.237  71.418  1.00  0.00    -0.432 C  
HETATM   23  C   UNL     1     -10.713   9.280  69.893  1.00  0.00    -0.234 C  
ENDBRANCH  15  17
ENDBRANCH  13  15
ENDBRANCH  11  13
ENDBRANCH   8  11
ENDBRANCH   5   8
TORSDOF 5
ENDMDL
MODEL       50
REMARK 921   NORMALIZED FREE ENERGY PREDICTED BY IDOCK:   -5.72 KCAL/MOL
REMARK 922        TOTAL FREE ENERGY PREDICTED BY IDOCK:   -7.93 KCAL/MOL
REMARK 923 INTER-LIGAND FREE ENERGY PREDICTED BY IDOCK:   -7.30 KCAL/MOL
REMARK 924 INTRA-LIGAND FREE ENERGY PREDICTED BY IDOCK:   -0.62 KCAL/MOL
REMARK 927      BINDING AFFINITY PREDICTED BY RF-SCORE:    0.00 PKD
ROOT
HETATM    1  C   UNL     1     -12.973  16.001  73.435  1.00  0.00    -0.676 C  
HETATM    2  C   UNL     1     -12.614  15.278  72.169  1.00  0.00    -0.428 A  
HETATM    3  C   UNL     1     -12.003  15.957  71.106  1.00  0.00    -0.472 A  
HETATM    4  C   UNL     1     -11.732  15.297  69.906  1.00  0.00    -0.349 A  
HETATM    5  C   UNL     1     -12.067  13.945  69.773  1.00  0.00    -0.345 A  
HETATM    6  C   UNL     1     -12.925  13.918  72.026  1.00  0.00    -0.438 A  
HETATM    7  C   UNL     1     -12.652  13.249  70.831  1.00  0.00    -0.386 A  
ENDROOT
BRANCH   5   8
HETATM    8  S   UNL     1     -11.780  13.140  68.217  1.00  0.00    -0.354 S  
HETATM    9  O   UNL     1     -12.116  11.736  68.324  1.00  0.00    -0.525 OA 
HETATM   10  O   UNL     1     -12.391  13.969  67.193  1.00  0.00    -0.373 OA 
BRANCH   8  11
HETATM   11  N   UNL     1     -10.140  13.284  67.978  1.00  0.00    -0.229 N  
HETATM   12  H   UNL     1      -9.547  13.521  68.774  1.00  0.00     0.000 HD 
BRANCH  11  13
HETATM   13  C   UNL     1      -9.551  13.095  66.738  1.00  0.00    -0.249 C  
HETATM   14  O   UNL     1      -8.886  12.100  66.483  1.00  0.00    -0.204 OA 
BRANCH  13  15
HETATM   15  N   UNL     1      -9.763  14.144  65.859  1.00  0.00    -0.455 N  
HETATM   16  H   UNL     1     -10.377  13.997  65.058  1.00  0.00     0.000 HD 
BRANCH  15  17
HETATM   17  N   UNL     1      -9.154  15.425  66.034  1.00  0.00    -0.309 NA 
HETATM   18  C   UNL     1     -10.167  16.433  66.402  1.00  0.00    -0.316 C  
HETATM   19  C   UNL     1      -9.681  17.863  66.660  1.00  0.00    -0.319 C  
HETATM   20  C   UNL     1      -8.856  17.991  67.936  1.00  0.00    -0.269 C  
HETATM   21  C   UNL     1      -7.376  17.674  67.754  1.00  0.00    -0.193 C  
HETATM   22  C   UNL     1      -7.055  16.527  66.802  1.00  0.00    -0.253 C  
HETATM   23  C   UNL     1      -7.993  15.330  66.934  1.00  0.00    -0.159 C  
ENDBRANCH  15  17
ENDBRANCH  13  15
ENDBRANCH  11  13
ENDBRANCH   8  11
ENDBRANCH   5   8
TORSDOF 5
ENDMDL
MODEL       51
REMARK 921   NORMALIZED FREE ENERGY PREDICTED BY IDOCK:   -5.71 KCAL/MOL
REMARK 922        TOTAL FREE ENERGY PREDICTED BY IDOCK:   -7.92 KCAL/MOL
REMARK 923 INTER-LIGAND FREE ENERGY PREDICTED BY IDOCK:   -7.16 KCAL/MOL
REMARK 924 INTRA-LIGAND FREE ENERGY PREDICTED BY IDOCK:   -0.75 KCAL/MOL
REMARK 927      BINDING AFFINITY PREDICTED BY RF-SCORE:    0.00 PKD
ROOT
HETATM    1  C   UNL     1     -13.841  15.711  72.915  1.00  0.00    -0.571 C  
HETATM    2  C   UNL     1     -13.288  14.656  72.000  1.00  0.00    -0.459 A  
HETATM    3  C   UNL     1     -13.465  13.296  72.286  1.00  0.00    -0.679 A  
HETATM    4  C   UNL     1     -12.890  12.320  71.469  1.00  0.00    -0.384 A  
HETATM    5  C   UNL     1     -12.142  12.709  70.354  1.00  0.00    -0.300 A  
HETATM    6  C   UNL     1     -12.551  15.029  70.867  1.00  0.00    -0.419 A  
HETATM    7  C   UNL     1     -11.979  14.059  70.041  1.00  0.00    -0.404 A  
ENDROOT
BRANCH   5   8
HETATM    8  S   UNL     1     -11.361  11.457  69.366  1.00  0.00    -0.312 S  
HETATM    9  O   UNL     1     -10.881  10.391  70.219  1.00  0.00    -0.292 OA 
HETATM   10  O   UNL     1     -12.257  11.171  68.260  1.00  0.00    -0.613 OA 
BRANCH   8  11
HETATM   11  N   UNL     1     -10.055  12.230  68.685  1.00  0.00    -0.360 N  
HETATM   12  H   UNL     1      -9.890  13.210  68.913  1.00  0.00     0.000 HD 
BRANCH  11  13
HETATM   13  C   UNL     1      -9.183  11.590  67.818  1.00  0.00    -0.165 C  
HETATM   14  O   UNL     1      -8.081  12.050  67.553  1.00  0.00    -0.141 OA 
BRANCH  13  15
HETATM   15  N   UNL     1      -9.698  10.424  67.276  1.00  0.00    -0.162 N  
HETATM   16  H   UNL     1      -9.958   9.663  67.903  1.00  0.00     0.000 HD 
BRANCH  15  17
HETATM   17  N   UNL     1      -9.880  10.249  65.869  1.00  0.00    -0.222 NA 
HETATM   18  C   UNL     1     -10.585  11.409  65.291  1.00  0.00    -0.277 C  
HETATM   19  C   UNL     1     -10.837  11.402  63.779  1.00  0.00    -0.468 C  
HETATM   20  C   UNL     1      -9.560  11.567  62.961  1.00  0.00    -0.371 C  
HETATM   21  C   UNL     1      -8.817  10.263  62.699  1.00  0.00    -0.249 C  
HETATM   22  C   UNL     1      -8.811   9.259  63.847  1.00  0.00    -0.160 C  
HETATM   23  C   UNL     1      -8.607   9.890  65.221  1.00  0.00    -0.156 C  
ENDBRANCH  15  17
ENDBRANCH  13  15
ENDBRANCH  11  13
ENDBRANCH   8  11
ENDBRANCH   5   8
TORSDOF 5
ENDMDL
MODEL       52
REMARK 921   NORMALIZED FREE ENERGY PREDICTED BY IDOCK:   -5.71 KCAL/MOL
REMARK 922        TOTAL FREE ENERGY PREDICTED BY IDOCK:   -7.91 KCAL/MOL
REMARK 923 INTER-LIGAND FREE ENERGY PREDICTED BY IDOCK:   -7.27 KCAL/MOL
REMARK 924 INTRA-LIGAND FREE ENERGY PREDICTED BY IDOCK:   -0.64 KCAL/MOL
REMARK 927      BINDING AFFINITY PREDICTED BY RF-SCORE:    0.00 PKD
ROOT
HETATM    1  C   UNL     1      -8.857   8.567  65.635  1.00  0.00    -0.214 C  
HETATM    2  C   UNL     1      -9.651   9.788  65.271  1.00  0.00    -0.368 A  
HETATM    3  C   UNL     1      -9.587  10.326  63.979  1.00  0.00    -0.365 A  
HETATM    4  C   UNL     1     -10.274  11.500  63.665  1.00  0.00    -0.450 A  
HETATM    5  C   UNL     1     -11.038  12.135  64.649  1.00  0.00    -0.317 A  
HETATM    6  C   UNL     1     -10.438  10.426  66.242  1.00  0.00    -0.229 A  
HETATM    7  C   UNL     1     -11.133  11.598  65.934  1.00  0.00    -0.320 A  
ENDROOT
BRANCH   5   8
HETATM    8  S   UNL     1     -11.849  13.664  64.253  1.00  0.00    -0.421 S  
HETATM    9  O   UNL     1     -12.353  13.612  62.897  1.00  0.00    -0.549 OA 
HETATM   10  O   UNL     1     -12.737  13.971  65.360  1.00  0.00    -0.561 OA 
BRANCH   8  11
HETATM   11  N   UNL     1     -10.638  14.801  64.333  1.00  0.00    -0.482 N  
HETATM   12  H   UNL     1      -9.969  14.863  63.565  1.00  0.00     0.000 HD 
BRANCH  11  13
HETATM   13  C   UNL     1     -10.504  15.669  65.406  1.00  0.00    -0.411 C  
HETATM   14  O   UNL     1     -10.608  16.881  65.274  1.00  0.00    -0.633 OA 
BRANCH  13  15
HETATM   15  N   UNL     1     -10.214  15.031  66.600  1.00  0.00    -0.262 N  
HETATM   16  H   UNL     1      -9.393  14.428  66.648  1.00  0.00     0.000 HD 
BRANCH  15  17
HETATM   17  N   UNL     1     -11.023  15.187  67.769  1.00  0.00    -0.296 NA 
HETATM   18  C   UNL     1     -11.367  13.870  68.338  1.00  0.00    -0.285 C  
HETATM   19  C   UNL     1     -12.209  13.851  69.619  1.00  0.00    -0.374 C  
HETATM   20  C   UNL     1     -11.448  14.358  70.839  1.00  0.00    -0.105 C  
HETATM   21  C   UNL     1     -11.484  15.873  71.008  1.00  0.00    -0.461 C  
HETATM   22  C   UNL     1     -11.406  16.687  69.721  1.00  0.00     0.083 C  
HETATM   23  C   UNL     1     -10.407  16.143  68.704  1.00  0.00    -0.252 C  
ENDBRANCH  15  17
ENDBRANCH  13  15
ENDBRANCH  11  13
ENDBRANCH   8  11
ENDBRANCH   5   8
TORSDOF 5
ENDMDL
MODEL       53
REMARK 921   NORMALIZED FREE ENERGY PREDICTED BY IDOCK:   -5.70 KCAL/MOL
REMARK 922        TOTAL FREE ENERGY PREDICTED BY IDOCK:   -7.91 KCAL/MOL
REMARK 923 INTER-LIGAND FREE ENERGY PREDICTED BY IDOCK:   -7.21 KCAL/MOL
REMARK 924 INTRA-LIGAND FREE ENERGY PREDICTED BY IDOCK:   -0.70 KCAL/MOL
REMARK 927      BINDING AFFINITY PREDICTED BY RF-SCORE:    0.00 PKD
ROOT
HETATM    1  C   UNL     1     -10.803   9.157  71.611  1.00  0.00    -0.442 C  
HETATM    2  C   UNL     1     -10.943  10.152  70.495  1.00  0.00    -0.380 A  
HETATM    3  C   UNL     1     -11.923  11.152  70.545  1.00  0.00    -0.475 A  
HETATM    4  C   UNL     1     -12.093  12.031  69.474  1.00  0.00    -0.273 A  
HETATM    5  C   UNL     1     -11.270  11.915  68.349  1.00  0.00    -0.258 A  
HETATM    6  C   UNL     1     -10.113  10.061  69.368  1.00  0.00    -0.235 A  
HETATM    7  C   UNL     1     -10.272  10.941  68.295  1.00  0.00    -0.191 A  
ENDROOT
BRANCH   5   8
HETATM    8  S   UNL     1     -11.546  12.996  66.969  1.00  0.00    -0.378 S  
HETATM    9  O   UNL     1     -12.301  12.302  65.948  1.00  0.00    -0.618 OA 
HETATM   10  O   UNL     1     -12.022  14.258  67.508  1.00  0.00    -0.389 OA 
BRANCH   8  11
HETATM   11  N   UNL     1     -10.021  13.315  66.388  1.00  0.00    -0.282 N  
HETATM   12  H   UNL     1      -9.658  12.747  65.621  1.00  0.00     0.000 HD 
BRANCH  11  13
HETATM   13  C   UNL     1      -9.224  14.323  66.907  1.00  0.00    -0.254 C  
HETATM   14  O   UNL     1      -8.627  14.194  67.967  1.00  0.00    -0.154 OA 
BRANCH  13  15
HETATM   15  N   UNL     1      -9.209  15.471  66.131  1.00  0.00    -0.328 N  
HETATM   16  H   UNL     1      -9.245  15.378  65.116  1.00  0.00     0.000 HD 
BRANCH  15  17
HETATM   17  N   UNL     1      -9.144  16.780  66.701  1.00  0.00    -0.234 NA 
HETATM   18  C   UNL     1      -7.890  17.452  66.311  1.00  0.00    -0.295 C  
HETATM   19  C   UNL     1      -7.669  18.884  66.811  1.00  0.00    -0.252 C  
HETATM   20  C   UNL     1      -8.604  19.895  66.155  1.00  0.00    -0.348 C  
HETATM   21  C   UNL     1      -9.962  20.019  66.837  1.00  0.00    -0.584 C  
HETATM   22  C   UNL     1     -10.563  18.719  67.362  1.00  0.00    -0.505 C  
HETATM   23  C   UNL     1     -10.381  17.529  66.425  1.00  0.00    -0.334 C  
ENDBRANCH  15  17
ENDBRANCH  13  15
ENDBRANCH  11  13
ENDBRANCH   8  11
ENDBRANCH   5   8
TORSDOF 5
ENDMDL
MODEL       54
REMARK 921   NORMALIZED FREE ENERGY PREDICTED BY IDOCK:   -5.69 KCAL/MOL
REMARK 922        TOTAL FREE ENERGY PREDICTED BY IDOCK:   -7.89 KCAL/MOL
REMARK 923 INTER-LIGAND FREE ENERGY PREDICTED BY IDOCK:   -7.35 KCAL/MOL
REMARK 924 INTRA-LIGAND FREE ENERGY PREDICTED BY IDOCK:   -0.54 KCAL/MOL
REMARK 927      BINDING AFFINITY PREDICTED BY RF-SCORE:    0.00 PKD
ROOT
HETATM    1  C   UNL     1     -13.896  15.762  72.805  1.00  0.00    -0.600 C  
HETATM    2  C   UNL     1     -13.334  14.711  71.891  1.00  0.00    -0.453 A  
HETATM    3  C   UNL     1     -13.472  13.350  72.195  1.00  0.00    -0.646 A  
HETATM    4  C   UNL     1     -12.889  12.380  71.377  1.00  0.00    -0.360 A  
HETATM    5  C   UNL     1     -12.172  12.774  70.243  1.00  0.00    -0.277 A  
HETATM    6  C   UNL     1     -12.628  15.090  70.740  1.00  0.00    -0.429 A  
HETATM    7  C   UNL     1     -12.048  14.125  69.913  1.00  0.00    -0.405 A  
ENDROOT
BRANCH   5   8
HETATM    8  S   UNL     1     -11.379  11.532  69.254  1.00  0.00    -0.307 S  
HETATM    9  O   UNL     1     -11.102  10.365  70.065  1.00  0.00    -0.272 OA 
HETATM   10  O   UNL     1     -12.148  11.413  68.028  1.00  0.00    -0.629 OA 
BRANCH   8  11
HETATM   11  N   UNL     1      -9.937  12.227  68.803  1.00  0.00    -0.408 N  
HETATM   12  H   UNL     1      -9.453  12.831  69.467  1.00  0.00     0.000 HD 
BRANCH  11  13
HETATM   13  C   UNL     1      -9.369  12.016  67.556  1.00  0.00    -0.179 C  
HETATM   14  O   UNL     1      -8.320  11.402  67.420  1.00  0.00    -0.135 OA 
BRANCH  13  15
HETATM   15  N   UNL     1     -10.083  12.591  66.518  1.00  0.00    -0.234 N  
HETATM   16  H   UNL     1     -10.825  12.051  66.074  1.00  0.00     0.000 HD 
BRANCH  15  17
HETATM   17  N   UNL     1      -9.818  13.915  66.048  1.00  0.00    -0.302 NA 
HETATM   18  C   UNL     1     -11.074  14.590  65.670  1.00  0.00    -0.327 C  
HETATM   19  C   UNL     1     -10.978  16.035  65.171  1.00  0.00    -0.360 C  
HETATM   20  C   UNL     1     -10.591  17.021  66.268  1.00  0.00    -0.185 C  
HETATM   21  C   UNL     1      -9.087  17.147  66.487  1.00  0.00    -0.294 C  
HETATM   22  C   UNL     1      -8.287  15.855  66.365  1.00  0.00    -0.310 C  
HETATM   23  C   UNL     1      -8.964  14.644  67.000  1.00  0.00    -0.240 C  
ENDBRANCH  15  17
ENDBRANCH  13  15
ENDBRANCH  11  13
ENDBRANCH   8  11
ENDBRANCH   5   8
TORSDOF 5
ENDMDL
MODEL       55
REMARK 921   NORMALIZED FREE ENERGY PREDICTED BY IDOCK:   -5.68 KCAL/MOL
REMARK 922        TOTAL FREE ENERGY PREDICTED BY IDOCK:   -7.88 KCAL/MOL
REMARK 923 INTER-LIGAND FREE ENERGY PREDICTED BY IDOCK:   -7.50 KCAL/MOL
REMARK 924 INTRA-LIGAND FREE ENERGY PREDICTED BY IDOCK:   -0.38 KCAL/MOL
REMARK 927      BINDING AFFINITY PREDICTED BY RF-SCORE:    0.00 PKD
ROOT
HETATM    1  C   UNL     1      -7.497  19.128  69.095  1.00  0.00    -0.298 C  
HETATM    2  C   UNL     1      -8.296  18.353  68.087  1.00  0.00    -0.301 A  
HETATM    3  C   UNL     1      -9.661  18.612  67.903  1.00  0.00    -0.350 A  
HETATM    4  C   UNL     1     -10.414  17.843  67.014  1.00  0.00    -0.345 A  
HETATM    5  C   UNL     1      -9.795  16.814  66.297  1.00  0.00    -0.309 A  
HETATM    6  C   UNL     1      -7.686  17.331  67.345  1.00  0.00    -0.194 A  
HETATM    7  C   UNL     1      -8.431  16.562  66.449  1.00  0.00    -0.357 A  
ENDROOT
BRANCH   5   8
HETATM    8  S   UNL     1     -10.782  15.802  65.223  1.00  0.00    -0.411 S  
HETATM    9  O   UNL     1     -11.486  16.638  64.274  1.00  0.00    -1.075 OA 
HETATM   10  O   UNL     1      -9.931  14.719  64.763  1.00  0.00    -0.229 OA 
BRANCH   8  11
HETATM   11  N   UNL     1     -11.890  15.089  66.238  1.00  0.00    -0.116 N  
HETATM   12  H   UNL     1     -12.229  15.616  67.043  1.00  0.00     0.000 HD 
BRANCH  11  13
HETATM   13  C   UNL     1     -12.369  13.805  66.029  1.00  0.00    -0.457 C  
HETATM   14  O   UNL     1     -13.170  13.551  65.140  1.00  0.00    -0.720 OA 
BRANCH  13  15
HETATM   15  N   UNL     1     -11.882  12.879  66.935  1.00  0.00    -0.385 N  
HETATM   16  H   UNL     1     -11.816  13.141  67.919  1.00  0.00     0.000 HD 
BRANCH  15  17
HETATM   17  N   UNL     1     -11.466  11.569  66.543  1.00  0.00    -0.417 NA 
HETATM   18  C   UNL     1     -10.628  11.634  65.331  1.00  0.00    -0.280 C  
HETATM   19  C   UNL     1     -10.067  10.316  64.786  1.00  0.00    -0.336 C  
HETATM   20  C   UNL     1      -8.998   9.706  65.687  1.00  0.00    -0.208 C  
HETATM   21  C   UNL     1      -9.552   8.841  66.812  1.00  0.00    -0.267 C  
HETATM   22  C   UNL     1     -10.840   9.337  67.460  1.00  0.00    -0.182 C  
HETATM   23  C   UNL     1     -10.879  10.846  67.684  1.00  0.00    -0.266 C  
ENDBRANCH  15  17
ENDBRANCH  13  15
ENDBRANCH  11  13
ENDBRANCH   8  11
ENDBRANCH   5   8
TORSDOF 5
ENDMDL
MODEL       56
REMARK 921   NORMALIZED FREE ENERGY PREDICTED BY IDOCK:   -5.68 KCAL/MOL
REMARK 922        TOTAL FREE ENERGY PREDICTED BY IDOCK:   -7.88 KCAL/MOL
REMARK 923 INTER-LIGAND FREE ENERGY PREDICTED BY IDOCK:   -7.10 KCAL/MOL
REMARK 924 INTRA-LIGAND FREE ENERGY PREDICTED BY IDOCK:   -0.78 KCAL/MOL
REMARK 927      BINDING AFFINITY PREDICTED BY RF-SCORE:    0.00 PKD
ROOT
HETATM    1  C   UNL     1     -12.243   8.560  72.262  1.00  0.00    -0.454 C  
HETATM    2  C   UNL     1     -11.830   9.486  71.154  1.00  0.00    -0.436 A  
HETATM    3  C   UNL     1     -10.745   9.171  70.325  1.00  0.00    -0.268 A  
HETATM    4  C   UNL     1     -10.324  10.068  69.341  1.00  0.00    -0.245 A  
HETATM    5  C   UNL     1     -11.000  11.281  69.179  1.00  0.00    -0.240 A  
HETATM    6  C   UNL     1     -12.510  10.698  70.967  1.00  0.00    -0.515 A  
HETATM    7  C   UNL     1     -12.098  11.597  69.980  1.00  0.00    -0.395 A  
ENDROOT
BRANCH   5   8
HETATM    8  S   UNL     1     -10.408  12.438  67.970  1.00  0.00    -0.222 S  
HETATM    9  O   UNL     1      -9.372  13.265  68.551  1.00  0.00    -0.182 OA 
HETATM   10  O   UNL     1     -10.156  11.686  66.753  1.00  0.00    -0.208 OA 
BRANCH   8  11
HETATM   11  N   UNL     1     -11.730  13.389  67.632  1.00  0.00    -0.340 N  
HETATM   12  H   UNL     1     -12.531  13.359  68.263  1.00  0.00     0.000 HD 
BRANCH  11  13
HETATM   13  C   UNL     1     -11.783  14.221  66.524  1.00  0.00    -0.394 C  
HETATM   14  O   UNL     1     -12.691  14.153  65.708  1.00  0.00    -0.508 OA 
BRANCH  13  15
HETATM   15  N   UNL     1     -10.705  15.086  66.430  1.00  0.00    -0.315 N  
HETATM   16  H   UNL     1      -9.822  14.732  66.061  1.00  0.00     0.000 HD 
BRANCH  15  17
HETATM   17  N   UNL     1     -10.784  16.455  66.831  1.00  0.00    -0.258 NA 
HETATM   18  C   UNL     1     -10.275  16.621  68.206  1.00  0.00    -0.281 C  
HETATM   19  C   UNL     1     -10.257  18.039  68.787  1.00  0.00    -0.362 C  
HETATM   20  C   UNL     1      -9.223  18.943  68.124  1.00  0.00    -0.361 C  
HETATM   21  C   UNL     1      -9.718  19.624  66.853  1.00  0.00    -0.482 C  
HETATM   22  C   UNL     1     -10.620  18.783  65.956  1.00  0.00    -0.442 C  
HETATM   23  C   UNL     1     -10.174  17.330  65.816  1.00  0.00    -0.198 C  
ENDBRANCH  15  17
ENDBRANCH  13  15
ENDBRANCH  11  13
ENDBRANCH   8  11
ENDBRANCH   5   8
TORSDOF 5
ENDMDL
MODEL       57
REMARK 921   NORMALIZED FREE ENERGY PREDICTED BY IDOCK:   -5.61 KCAL/MOL
REMARK 922        TOTAL FREE ENERGY PREDICTED BY IDOCK:   -7.79 KCAL/MOL
REMARK 923 INTER-LIGAND FREE ENERGY PREDICTED BY IDOCK:   -7.03 KCAL/MOL
REMARK 924 INTRA-LIGAND FREE ENERGY PREDICTED BY IDOCK:   -0.76 KCAL/MOL
REMARK 927      BINDING AFFINITY PREDICTED BY RF-SCORE:    0.00 PKD
ROOT
HETATM    1  C   UNL     1     -12.557  11.793  63.465  1.00  0.00    -0.485 C  
HETATM    2  C   UNL     1     -11.912  12.610  64.547  1.00  0.00    -0.464 A  
HETATM    3  C   UNL     1     -12.661  13.530  65.292  1.00  0.00    -0.517 A  
HETATM    4  C   UNL     1     -12.042  14.336  66.250  1.00  0.00    -0.433 A  
HETATM    5  C   UNL     1     -10.667  14.212  66.471  1.00  0.00    -0.289 A  
HETATM    6  C   UNL     1     -10.537  12.483  64.794  1.00  0.00    -0.333 A  
HETATM    7  C   UNL     1      -9.912  13.281  65.755  1.00  0.00    -0.261 A  
ENDROOT
BRANCH   5   8
HETATM    8  S   UNL     1      -9.885  15.292  67.643  1.00  0.00    -0.216 S  
HETATM    9  O   UNL     1     -10.013  14.742  68.975  1.00  0.00    -0.228 OA 
HETATM   10  O   UNL     1      -8.578  15.625  67.104  1.00  0.00    -0.181 OA 
BRANCH   8  11
HETATM   11  N   UNL     1     -10.768  16.699  67.554  1.00  0.00    -0.310 N  
HETATM   12  H   UNL     1     -11.624  16.777  68.105  1.00  0.00     0.000 HD 
BRANCH  11  13
HETATM   13  C   UNL     1     -10.384  17.768  66.760  1.00  0.00    -0.343 C  
HETATM   14  O   UNL     1     -10.562  17.771  65.550  1.00  0.00    -0.632 OA 
BRANCH  13  15
HETATM   15  N   UNL     1      -9.763  18.785  67.465  1.00  0.00    -0.300 N  
HETATM   16  H   UNL     1     -10.336  19.410  68.033  1.00  0.00     0.000 HD 
BRANCH  15  17
HETATM   17  N   UNL     1      -8.350  18.993  67.427  1.00  0.00    -0.274 NA 
HETATM   18  C   UNL     1      -8.041  20.362  66.972  1.00  0.00    -0.300 C  
HETATM   19  C   UNL     1      -6.564  20.767  66.900  1.00  0.00    -0.353 C  
HETATM   20  C   UNL     1      -5.918  20.906  68.274  1.00  0.00    -0.388 C  
HETATM   21  C   UNL     1      -5.383  19.597  68.844  1.00  0.00    -0.214 C  
HETATM   22  C   UNL     1      -6.227  18.358  68.568  1.00  0.00    -0.203 C  
HETATM   23  C   UNL     1      -7.730  18.590  68.700  1.00  0.00    -0.308 C  
ENDBRANCH  15  17
ENDBRANCH  13  15
ENDBRANCH  11  13
ENDBRANCH   8  11
ENDBRANCH   5   8
TORSDOF 5
ENDMDL
MODEL       58
REMARK 921   NORMALIZED FREE ENERGY PREDICTED BY IDOCK:   -5.61 KCAL/MOL
REMARK 922        TOTAL FREE ENERGY PREDICTED BY IDOCK:   -7.78 KCAL/MOL
REMARK 923 INTER-LIGAND FREE ENERGY PREDICTED BY IDOCK:   -7.15 KCAL/MOL
REMARK 924 INTRA-LIGAND FREE ENERGY PREDICTED BY IDOCK:   -0.64 KCAL/MOL
REMARK 927      BINDING AFFINITY PREDICTED BY RF-SCORE:    0.00 PKD
ROOT
HETATM    1  C   UNL     1     -11.408   5.645  72.646  1.00  0.00    -0.356 C  
HETATM    2  C   UNL     1     -11.385   6.981  71.961  1.00  0.00    -0.300 A  
HETATM    3  C   UNL     1     -11.999   8.097  72.546  1.00  0.00    -0.410 A  
HETATM    4  C   UNL     1     -12.033   9.320  71.873  1.00  0.00    -0.433 A  
HETATM    5  C   UNL     1     -11.440   9.430  70.612  1.00  0.00    -0.284 A  
HETATM    6  C   UNL     1     -10.777   7.113  70.704  1.00  0.00    -0.255 A  
HETATM    7  C   UNL     1     -10.802   8.335  70.028  1.00  0.00    -0.232 A  
ENDROOT
BRANCH   5   8
HETATM    8  S   UNL     1     -11.554  10.973  69.742  1.00  0.00    -0.355 S  
HETATM    9  O   UNL     1     -12.191  10.765  68.459  1.00  0.00    -0.470 OA 
HETATM   10  O   UNL     1     -12.081  11.949  70.679  1.00  0.00    -0.373 OA 
BRANCH   8  11
HETATM   11  N   UNL     1      -9.971  11.417  69.490  1.00  0.00    -0.340 N  
HETATM   12  H   UNL     1      -9.403  11.689  70.292  1.00  0.00     0.000 HD 
BRANCH  11  13
HETATM   13  C   UNL     1      -9.396  11.432  68.228  1.00  0.00    -0.187 C  
HETATM   14  O   UNL     1      -8.656  10.537  67.845  1.00  0.00    -0.121 OA 
BRANCH  13  15
HETATM   15  N   UNL     1      -9.714  12.559  67.489  1.00  0.00    -0.193 N  
HETATM   16  H   UNL     1      -9.200  13.423  67.663  1.00  0.00     0.000 HD 
BRANCH  15  17
HETATM   17  N   UNL     1     -10.737  12.557  66.491  1.00  0.00    -0.237 NA 
HETATM   18  C   UNL     1     -11.604  13.741  66.637  1.00  0.00    -0.369 C  
HETATM   19  C   UNL     1     -12.741  13.915  65.624  1.00  0.00    -0.534 C  
HETATM   20  C   UNL     1     -12.244  14.253  64.222  1.00  0.00    -0.451 C  
HETATM   21  C   UNL     1     -11.875  13.034  63.384  1.00  0.00    -0.543 C  
HETATM   22  C   UNL     1     -11.195  11.893  64.132  1.00  0.00    -0.446 C  
HETATM   23  C   UNL     1     -10.157  12.353  65.153  1.00  0.00    -0.256 C  
ENDBRANCH  15  17
ENDBRANCH  13  15
ENDBRANCH  11  13
ENDBRANCH   8  11
ENDBRANCH   5   8
TORSDOF 5
ENDMDL
MODEL       59
REMARK 921   NORMALIZED FREE ENERGY PREDICTED BY IDOCK:   -5.60 KCAL/MOL
REMARK 922        TOTAL FREE ENERGY PREDICTED BY IDOCK:   -7.77 KCAL/MOL
REMARK 923 INTER-LIGAND FREE ENERGY PREDICTED BY IDOCK:   -7.14 KCAL/MOL
REMARK 924 INTRA-LIGAND FREE ENERGY PREDICTED BY IDOCK:   -0.64 KCAL/MOL
REMARK 927      BINDING AFFINITY PREDICTED BY RF-SCORE:    0.00 PKD
ROOT
HETATM    1  C   UNL     1     -12.899  15.710  73.785  1.00  0.00    -0.695 C  
HETATM    2  C   UNL     1     -12.675  15.056  72.451  1.00  0.00    -0.426 A  
HETATM    3  C   UNL     1     -12.839  13.673  72.295  1.00  0.00    -0.332 A  
HETATM    4  C   UNL     1     -12.563  13.061  71.071  1.00  0.00    -0.386 A  
HETATM    5  C   UNL     1     -12.130  13.840  69.993  1.00  0.00    -0.349 A  
HETATM    6  C   UNL     1     -12.258  15.826  71.356  1.00  0.00    -0.500 A  
HETATM    7  C   UNL     1     -11.986  15.222  70.126  1.00  0.00    -0.373 A  
ENDROOT
BRANCH   5   8
HETATM    8  S   UNL     1     -11.717  13.037  68.465  1.00  0.00    -0.347 S  
HETATM    9  O   UNL     1     -12.236  11.686  68.468  1.00  0.00    -0.485 OA 
HETATM   10  O   UNL     1     -12.062  13.958  67.397  1.00  0.00    -0.392 OA 
BRANCH   8  11
HETATM   11  N   UNL     1     -10.055  12.975  68.471  1.00  0.00    -0.326 N  
HETATM   12  H   UNL     1      -9.592  12.245  69.013  1.00  0.00     0.000 HD 
BRANCH  11  13
HETATM   13  C   UNL     1      -9.276  13.880  67.767  1.00  0.00    -0.197 C  
HETATM   14  O   UNL     1      -8.732  14.828  68.315  1.00  0.00    -0.157 OA 
BRANCH  13  15
HETATM   15  N   UNL     1      -9.215  13.617  66.409  1.00  0.00    -0.453 N  
HETATM   16  H   UNL     1      -8.885  14.350  65.781  1.00  0.00     0.000 HD 
BRANCH  15  17
HETATM   17  N   UNL     1      -9.597  12.356  65.854  1.00  0.00    -0.225 NA 
HETATM   18  C   UNL     1     -10.127  12.532  64.489  1.00  0.00    -0.247 C  
HETATM   19  C   UNL     1     -10.558  11.272  63.729  1.00  0.00    -0.455 C  
HETATM   20  C   UNL     1      -9.383  10.385  63.332  1.00  0.00    -0.334 C  
HETATM   21  C   UNL     1      -8.947   9.408  64.418  1.00  0.00    -0.215 C  
HETATM   22  C   UNL     1      -8.998   9.937  65.847  1.00  0.00    -0.183 C  
HETATM   23  C   UNL     1      -8.508  11.375  65.993  1.00  0.00    -0.058 C  
ENDBRANCH  15  17
ENDBRANCH  13  15
ENDBRANCH  11  13
ENDBRANCH   8  11
ENDBRANCH   5   8
TORSDOF 5
ENDMDL
MODEL       60
REMARK 921   NORMALIZED FREE ENERGY PREDICTED BY IDOCK:   -5.60 KCAL/MOL
REMARK 922        TOTAL FREE ENERGY PREDICTED BY IDOCK:   -7.77 KCAL/MOL
REMARK 923 INTER-LIGAND FREE ENERGY PREDICTED BY IDOCK:   -7.07 KCAL/MOL
REMARK 924 INTRA-LIGAND FREE ENERGY PREDICTED BY IDOCK:   -0.70 KCAL/MOL
REMARK 927      BINDING AFFINITY PREDICTED BY RF-SCORE:    0.00 PKD
ROOT
HETATM    1  C   UNL     1      -5.302  21.093  67.639  1.00  0.00    -0.336 C  
HETATM    2  C   UNL     1      -6.448  20.127  67.552  1.00  0.00    -0.250 A  
HETATM    3  C   UNL     1      -7.192  19.793  68.691  1.00  0.00    -0.358 A  
HETATM    4  C   UNL     1      -8.213  18.843  68.617  1.00  0.00    -0.380 A  
HETATM    5  C   UNL     1      -8.497  18.231  67.393  1.00  0.00    -0.249 A  
HETATM    6  C   UNL     1      -6.759  19.518  66.327  1.00  0.00    -0.218 A  
HETATM    7  C   UNL     1      -7.783  18.572  66.244  1.00  0.00    -0.283 A  
ENDROOT
BRANCH   5   8
HETATM    8  S   UNL     1      -9.751  16.975  67.332  1.00  0.00    -0.257 S  
HETATM    9  O   UNL     1      -9.311  15.810  68.069  1.00  0.00    -0.195 OA 
HETATM   10  O   UNL     1     -11.011  17.621  67.654  1.00  0.00    -0.296 OA 
BRANCH   8  11
HETATM   11  N   UNL     1      -9.858  16.583  65.719  1.00  0.00    -0.285 N  
HETATM   12  H   UNL     1      -9.050  16.746  65.119  1.00  0.00     0.000 HD 
BRANCH  11  13
HETATM   13  C   UNL     1     -11.006  16.043  65.161  1.00  0.00    -0.348 C  
HETATM   14  O   UNL     1     -11.451  16.435  64.091  1.00  0.00    -0.951 OA 
BRANCH  13  15
HETATM   15  N   UNL     1     -11.595  15.065  65.945  1.00  0.00    -0.236 N  
HETATM   16  H   UNL     1     -12.079  15.344  66.798  1.00  0.00     0.000 HD 
BRANCH  15  17
HETATM   17  N   UNL     1     -11.548  13.678  65.603  1.00  0.00    -0.320 NA 
HETATM   18  C   UNL     1     -12.359  13.416  64.398  1.00  0.00    -0.341 C  
HETATM   19  C   UNL     1     -12.396  11.977  63.870  1.00  0.00    -0.553 C  
HETATM   20  C   UNL     1     -11.068  11.529  63.269  1.00  0.00    -0.273 C  
HETATM   21  C   UNL     1     -10.080  10.977  64.290  1.00  0.00    -0.398 C  
HETATM   22  C   UNL     1     -10.056  11.682  65.642  1.00  0.00    -0.278 C  
HETATM   23  C   UNL     1     -10.156  13.202  65.549  1.00  0.00    -0.261 C  
ENDBRANCH  15  17
ENDBRANCH  13  15
ENDBRANCH  11  13
ENDBRANCH   8  11
ENDBRANCH   5   8
TORSDOF 5
ENDMDL
MODEL       61
REMARK 921   NORMALIZED FREE ENERGY PREDICTED BY IDOCK:   -5.58 KCAL/MOL
REMARK 922        TOTAL FREE ENERGY PREDICTED BY IDOCK:   -7.75 KCAL/MOL
REMARK 923 INTER-LIGAND FREE ENERGY PREDICTED BY IDOCK:   -7.39 KCAL/MOL
REMARK 924 INTRA-LIGAND FREE ENERGY PREDICTED BY IDOCK:   -0.36 KCAL/MOL
REMARK 927      BINDING AFFINITY PREDICTED BY RF-SCORE:    0.00 PKD
ROOT
HETATM    1  C   UNL     1      -8.390   9.277  64.671  1.00  0.00    -0.167 C  
HETATM    2  C   UNL     1      -9.191  10.529  64.879  1.00  0.00    -0.254 A  
HETATM    3  C   UNL     1      -8.892  11.404  65.932  1.00  0.00    -0.149 A  
HETATM    4  C   UNL     1      -9.683  12.531  66.162  1.00  0.00    -0.259 A  
HETATM    5  C   UNL     1     -10.774  12.791  65.326  1.00  0.00    -0.294 A  
HETATM    6  C   UNL     1     -10.277  10.813  64.037  1.00  0.00    -0.390 A  
HETATM    7  C   UNL     1     -11.068  11.943  64.257  1.00  0.00    -0.418 A  
ENDROOT
BRANCH   5   8
HETATM    8  S   UNL     1     -11.809  14.190  65.675  1.00  0.00    -0.390 S  
HETATM    9  O   UNL     1     -10.987  15.344  65.970  1.00  0.00    -0.325 OA 
HETATM   10  O   UNL     1     -12.811  14.246  64.626  1.00  0.00    -0.658 OA 
BRANCH   8  11
HETATM   11  N   UNL     1     -12.636  13.753  67.050  1.00  0.00    -0.362 N  
HETATM   12  H   UNL     1     -13.616  13.480  66.968  1.00  0.00     0.000 HD 
BRANCH  11  13
HETATM   13  C   UNL     1     -12.044  13.748  68.303  1.00  0.00    -0.279 C  
HETATM   14  O   UNL     1     -11.738  12.708  68.869  1.00  0.00    -0.290 OA 
BRANCH  13  15
HETATM   15  N   UNL     1     -11.875  15.014  68.840  1.00  0.00    -0.438 N  
HETATM   16  H   UNL     1     -11.334  15.701  68.317  1.00  0.00     0.000 HD 
BRANCH  15  17
HETATM   17  N   UNL     1     -12.432  15.391  70.102  1.00  0.00    -0.364 NA 
HETATM   18  C   UNL     1     -13.656  14.617  70.378  1.00  0.00     0.398 C  
HETATM   19  C   UNL     1     -14.370  14.873  71.710  1.00  0.00    -0.668 C  
HETATM   20  C   UNL     1     -13.584  14.365  72.915  1.00  0.00    -0.420 C  
HETATM   21  C   UNL     1     -12.549  15.352  73.443  1.00  0.00    -0.645 C  
HETATM   22  C   UNL     1     -11.804  16.162  72.387  1.00  0.00    -0.637 C  
HETATM   23  C   UNL     1     -11.404  15.355  71.155  1.00  0.00    -0.378 C  
ENDBRANCH  15  17
ENDBRANCH  13  15
ENDBRANCH  11  13
ENDBRANCH   8  11
ENDBRANCH   5   8
TORSDOF 5
ENDMDL
MODEL       62
REMARK 921   NORMALIZED FREE ENERGY PREDICTED BY IDOCK:   -5.58 KCAL/MOL
REMARK 922        TOTAL FREE ENERGY PREDICTED BY IDOCK:   -7.74 KCAL/MOL
REMARK 923 INTER-LIGAND FREE ENERGY PREDICTED BY IDOCK:   -6.81 KCAL/MOL
REMARK 924 INTRA-LIGAND FREE ENERGY PREDICTED BY IDOCK:   -0.93 KCAL/MOL
REMARK 927      BINDING AFFINITY PREDICTED BY RF-SCORE:    0.00 PKD
ROOT
HETATM    1  C   UNL     1     -13.236  15.466  71.182  1.00  0.00    -0.583 C  
HETATM    2  C   UNL     1     -13.014  13.981  71.154  1.00  0.00    -0.402 A  
HETATM    3  C   UNL     1     -13.605  13.151  72.116  1.00  0.00    -0.637 A  
HETATM    4  C   UNL     1     -13.340  11.780  72.126  1.00  0.00    -0.334 A  
HETATM    5  C   UNL     1     -12.486  11.236  71.161  1.00  0.00    -0.373 A  
HETATM    6  C   UNL     1     -12.176  13.417  70.181  1.00  0.00    -0.385 A  
HETATM    7  C   UNL     1     -11.911  12.046  70.181  1.00  0.00    -0.401 A  
ENDROOT
BRANCH   5   8
HETATM    8  S   UNL     1     -12.106   9.503  71.231  1.00  0.00    -0.384 S  
HETATM    9  O   UNL     1     -11.001   9.282  72.139  1.00  0.00    -0.228 OA 
HETATM   10  O   UNL     1     -13.364   8.801  71.415  1.00  0.00    -0.319 OA 
BRANCH   8  11
HETATM   11  N   UNL     1     -11.616   9.129  69.686  1.00  0.00    -0.389 N  
HETATM   12  H   UNL     1     -11.778   9.807  68.942  1.00  0.00     0.000 HD 
BRANCH  11  13
HETATM   13  C   UNL     1     -10.996   7.929  69.374  1.00  0.00    -0.020 C  
HETATM   14  O   UNL     1     -10.122   7.856  68.521  1.00  0.00    -0.186 OA 
BRANCH  13  15
HETATM   15  N   UNL     1     -11.488   6.850  70.089  1.00  0.00    -0.451 N  
HETATM   16  H   UNL     1     -12.458   6.568  69.947  1.00  0.00     0.000 HD 
BRANCH  15  17
HETATM   17  N   UNL     1     -10.687   6.118  71.019  1.00  0.00    -0.248 NA 
HETATM   18  C   UNL     1     -11.432   5.885  72.271  1.00  0.00    -0.297 C  
HETATM   19  C   UNL     1     -10.731   5.083  73.373  1.00  0.00    -0.330 C  
HETATM   20  C   UNL     1     -10.553   3.611  73.017  1.00  0.00    -0.252 C  
HETATM   21  C   UNL     1      -9.299   3.316  72.202  1.00  0.00    -0.181 C  
HETATM   22  C   UNL     1      -8.926   4.360  71.154  1.00  0.00    -0.167 C  
HETATM   23  C   UNL     1     -10.119   4.917  70.383  1.00  0.00    -0.245 C  
ENDBRANCH  15  17
ENDBRANCH  13  15
ENDBRANCH  11  13
ENDBRANCH   8  11
ENDBRANCH   5   8
TORSDOF 5
ENDMDL
MODEL       63
REMARK 921   NORMALIZED FREE ENERGY PREDICTED BY IDOCK:   -5.56 KCAL/MOL
REMARK 922        TOTAL FREE ENERGY PREDICTED BY IDOCK:   -7.73 KCAL/MOL
REMARK 923 INTER-LIGAND FREE ENERGY PREDICTED BY IDOCK:   -6.77 KCAL/MOL
REMARK 924 INTRA-LIGAND FREE ENERGY PREDICTED BY IDOCK:   -0.96 KCAL/MOL
REMARK 927      BINDING AFFINITY PREDICTED BY RF-SCORE:    0.00 PKD
ROOT
HETATM    1  C   UNL     1     -10.556   4.864  66.273  1.00  0.00    -0.307 C  
HETATM    2  C   UNL     1     -10.587   6.061  67.178  1.00  0.00    -0.374 A  
HETATM    3  C   UNL     1     -10.369   7.349  66.670  1.00  0.00    -0.241 A  
HETATM    4  C   UNL     1     -10.331   8.451  67.527  1.00  0.00    -0.333 A  
HETATM    5  C   UNL     1     -10.522   8.263  68.900  1.00  0.00    -0.191 A  
HETATM    6  C   UNL     1     -10.796   5.892  68.555  1.00  0.00    -0.323 A  
HETATM    7  C   UNL     1     -10.767   6.991  69.417  1.00  0.00    -0.259 A  
ENDROOT
BRANCH   5   8
HETATM    8  S   UNL     1     -10.402   9.665  69.982  1.00  0.00    -0.277 S  
HETATM    9  O   UNL     1     -10.546   9.235  71.356  1.00  0.00    -0.314 OA 
HETATM   10  O   UNL     1      -9.236  10.423  69.564  1.00  0.00    -0.194 OA 
BRANCH   8  11
HETATM   11  N   UNL     1     -11.709  10.610  69.574  1.00  0.00    -0.348 N  
HETATM   12  H   UNL     1     -12.556  10.156  69.234  1.00  0.00     0.000 HD 
BRANCH  11  13
HETATM   13  C   UNL     1     -11.687  11.992  69.680  1.00  0.00    -0.335 C  
HETATM   14  O   UNL     1     -12.238  12.579  70.601  1.00  0.00    -0.369 OA 
BRANCH  13  15
HETATM   15  N   UNL     1     -11.023  12.616  68.637  1.00  0.00    -0.247 N  
HETATM   16  H   UNL     1     -10.173  13.142  68.840  1.00  0.00     0.000 HD 
BRANCH  15  17
HETATM   17  N   UNL     1     -11.484  12.549  67.285  1.00  0.00    -0.331 NA 
HETATM   18  C   UNL     1     -12.220  13.777  66.930  1.00  0.00    -0.366 C  
HETATM   19  C   UNL     1     -12.761  13.889  65.500  1.00  0.00    -0.536 C  
HETATM   20  C   UNL     1     -11.661  14.055  64.458  1.00  0.00    -0.403 C  
HETATM   21  C   UNL     1     -11.059  12.741  63.975  1.00  0.00    -0.458 C  
HETATM   22  C   UNL     1     -10.888  11.658  65.035  1.00  0.00    -0.346 C  
HETATM   23  C   UNL     1     -10.384  12.181  66.378  1.00  0.00    -0.218 C  
ENDBRANCH  15  17
ENDBRANCH  13  15
ENDBRANCH  11  13
ENDBRANCH   8  11
ENDBRANCH   5   8
TORSDOF 5
ENDMDL
MODEL       64
REMARK 921   NORMALIZED FREE ENERGY PREDICTED BY IDOCK:   -5.55 KCAL/MOL
REMARK 922        TOTAL FREE ENERGY PREDICTED BY IDOCK:   -7.71 KCAL/MOL
REMARK 923 INTER-LIGAND FREE ENERGY PREDICTED BY IDOCK:   -6.91 KCAL/MOL
REMARK 924 INTRA-LIGAND FREE ENERGY PREDICTED BY IDOCK:   -0.81 KCAL/MOL
REMARK 927      BINDING AFFINITY PREDICTED BY RF-SCORE:    0.00 PKD
ROOT
HETATM    1  C   UNL     1      -8.056  20.571  67.305  1.00  0.00    -0.362 C  
HETATM    2  C   UNL     1      -8.690  19.217  67.444  1.00  0.00    -0.326 A  
HETATM    3  C   UNL     1      -8.592  18.272  66.414  1.00  0.00    -0.262 A  
HETATM    4  C   UNL     1      -9.241  17.040  66.519  1.00  0.00    -0.296 A  
HETATM    5  C   UNL     1      -9.985  16.749  67.667  1.00  0.00    -0.262 A  
HETATM    6  C   UNL     1      -9.423  18.902  68.597  1.00  0.00    -0.427 A  
HETATM    7  C   UNL     1     -10.070  17.669  68.713  1.00  0.00    -0.377 A  
ENDROOT
BRANCH   5   8
HETATM    8  S   UNL     1     -10.860  15.207  67.754  1.00  0.00    -0.300 S  
HETATM    9  O   UNL     1      -9.954  14.154  68.161  1.00  0.00    -0.220 OA 
HETATM   10  O   UNL     1     -12.083  15.456  68.497  1.00  0.00    -0.249 OA 
BRANCH   8  11
HETATM   11  N   UNL     1     -11.347  14.924  66.189  1.00  0.00    -0.335 N  
HETATM   12  H   UNL     1     -11.079  15.589  65.463  1.00  0.00     0.000 HD 
BRANCH  11  13
HETATM   13  C   UNL     1     -12.102  13.817  65.835  1.00  0.00    -0.433 C  
HETATM   14  O   UNL     1     -13.220  13.926  65.350  1.00  0.00    -0.750 OA 
BRANCH  13  15
HETATM   15  N   UNL     1     -11.483  12.611  66.119  1.00  0.00    -0.343 N  
HETATM   16  H   UNL     1     -11.809  12.067  66.917  1.00  0.00     0.000 HD 
BRANCH  15  17
HETATM   17  N   UNL     1     -10.404  12.101  65.333  1.00  0.00    -0.261 NA 
HETATM   18  C   UNL     1      -9.636  11.100  66.098  1.00  0.00    -0.210 C  
HETATM   19  C   UNL     1      -8.455  10.424  65.393  1.00  0.00    -0.173 C  
HETATM   20  C   UNL     1      -8.889   9.477  64.279  1.00  0.00    -0.247 C  
HETATM   21  C   UNL     1      -9.115  10.160  62.936  1.00  0.00    -0.299 C  
HETATM   22  C   UNL     1      -9.754  11.543  62.992  1.00  0.00    -0.382 C  
HETATM   23  C   UNL     1     -10.884  11.662  64.012  1.00  0.00    -0.392 C  
ENDBRANCH  15  17
ENDBRANCH  13  15
ENDBRANCH  11  13
ENDBRANCH   8  11
ENDBRANCH   5   8
TORSDOF 5
ENDMDL
MODEL       65
REMARK 921   NORMALIZED FREE ENERGY PREDICTED BY IDOCK:   -5.54 KCAL/MOL
REMARK 922        TOTAL FREE ENERGY PREDICTED BY IDOCK:   -7.70 KCAL/MOL
REMARK 923 INTER-LIGAND FREE ENERGY PREDICTED BY IDOCK:   -6.82 KCAL/MOL
REMARK 924 INTRA-LIGAND FREE ENERGY PREDICTED BY IDOCK:   -0.88 KCAL/MOL
REMARK 927      BINDING AFFINITY PREDICTED BY RF-SCORE:    0.00 PKD
ROOT
HETATM    1  C   UNL     1      -7.430  19.251  68.422  1.00  0.00    -0.346 C  
HETATM    2  C   UNL     1      -8.231  18.370  67.506  1.00  0.00    -0.255 A  
HETATM    3  C   UNL     1      -9.474  18.791  67.014  1.00  0.00    -0.322 A  
HETATM    4  C   UNL     1     -10.244  17.941  66.218  1.00  0.00    -0.363 A  
HETATM    5  C   UNL     1      -9.764  16.666  65.905  1.00  0.00    -0.237 A  
HETATM    6  C   UNL     1      -7.754  17.096  67.167  1.00  0.00    -0.205 A  
HETATM    7  C   UNL     1      -8.516  16.243  66.365  1.00  0.00    -0.365 A  
ENDROOT
BRANCH   5   8
HETATM    8  S   UNL     1     -10.787  15.574  64.950  1.00  0.00    -0.364 S  
HETATM    9  O   UNL     1     -11.598  16.343  64.031  1.00  0.00    -1.071 OA 
HETATM   10  O   UNL     1      -9.928  14.509  64.463  1.00  0.00    -0.116 OA 
BRANCH   8  11
HETATM   11  N   UNL     1     -11.780  14.857  66.075  1.00  0.00    -0.241 N  
HETATM   12  H   UNL     1     -11.873  15.288  66.995  1.00  0.00     0.000 HD 
BRANCH  11  13
HETATM   13  C   UNL     1     -12.487  13.695  65.808  1.00  0.00    -0.477 C  
HETATM   14  O   UNL     1     -13.650  13.718  65.431  1.00  0.00    -0.517 OA 
BRANCH  13  15
HETATM   15  N   UNL     1     -11.760  12.539  66.044  1.00  0.00    -0.402 N  
HETATM   16  H   UNL     1     -11.746  11.814  65.327  1.00  0.00     0.000 HD 
BRANCH  15  17
HETATM   17  N   UNL     1     -11.031  12.327  67.254  1.00  0.00    -0.244 NA 
HETATM   18  C   UNL     1     -11.855  11.591  68.232  1.00  0.00    -0.256 C  
HETATM   19  C   UNL     1     -11.216  11.248  69.581  1.00  0.00    -0.321 C  
HETATM   20  C   UNL     1     -10.119  10.193  69.471  1.00  0.00    -0.258 C  
HETATM   21  C   UNL     1      -8.747  10.758  69.125  1.00  0.00    -0.101 C  
HETATM   22  C   UNL     1      -8.735  11.915  68.131  1.00  0.00    -0.173 C  
HETATM   23  C   UNL     1      -9.709  11.744  66.969  1.00  0.00    -0.185 C  
ENDBRANCH  15  17
ENDBRANCH  13  15
ENDBRANCH  11  13
ENDBRANCH   8  11
ENDBRANCH   5   8
TORSDOF 5
ENDMDL
MODEL       66
REMARK 921   NORMALIZED FREE ENERGY PREDICTED BY IDOCK:   -5.52 KCAL/MOL
REMARK 922        TOTAL FREE ENERGY PREDICTED BY IDOCK:   -7.67 KCAL/MOL
REMARK 923 INTER-LIGAND FREE ENERGY PREDICTED BY IDOCK:   -6.77 KCAL/MOL
REMARK 924 INTRA-LIGAND FREE ENERGY PREDICTED BY IDOCK:   -0.90 KCAL/MOL
REMARK 927      BINDING AFFINITY PREDICTED BY RF-SCORE:    0.00 PKD
ROOT
HETATM    1  C   UNL     1     -13.772  15.728  72.836  1.00  0.00    -0.631 C  
HETATM    2  C   UNL     1     -13.335  14.561  71.999  1.00  0.00    -0.461 A  
HETATM    3  C   UNL     1     -13.598  13.247  72.409  1.00  0.00    -0.694 A  
HETATM    4  C   UNL     1     -13.129  12.165  71.661  1.00  0.00    -0.413 A  
HETATM    5  C   UNL     1     -12.402  12.399  70.490  1.00  0.00    -0.262 A  
HETATM    6  C   UNL     1     -12.621  14.780  70.811  1.00  0.00    -0.412 A  
HETATM    7  C   UNL     1     -12.155  13.702  70.054  1.00  0.00    -0.417 A  
ENDROOT
BRANCH   5   8
HETATM    8  S   UNL     1     -11.755  11.013  69.590  1.00  0.00    -0.360 S  
HETATM    9  O   UNL     1     -11.968   9.797  70.345  1.00  0.00    -0.235 OA 
HETATM   10  O   UNL     1     -12.242  11.130  68.227  1.00  0.00    -0.613 OA 
BRANCH   8  11
HETATM   11  N   UNL     1     -10.121  11.311  69.499  1.00  0.00    -0.418 N  
HETATM   12  H   UNL     1      -9.729  12.072  70.053  1.00  0.00     0.000 HD 
BRANCH  11  13
HETATM   13  C   UNL     1      -9.274  10.562  68.697  1.00  0.00    -0.172 C  
HETATM   14  O   UNL     1      -8.074  10.793  68.633  1.00  0.00    -0.120 OA 
BRANCH  13  15
HETATM   15  N   UNL     1      -9.924   9.577  67.973  1.00  0.00    -0.159 N  
HETATM   16  H   UNL     1     -10.735   9.836  67.411  1.00  0.00     0.000 HD 
BRANCH  15  17
HETATM   17  N   UNL     1      -9.501   8.212  67.984  1.00  0.00    -0.142 NA 
HETATM   18  C   UNL     1      -9.434   7.703  69.367  1.00  0.00    -0.152 C  
HETATM   19  C   UNL     1      -9.025   6.239  69.564  1.00  0.00    -0.134 C  
HETATM   20  C   UNL     1     -10.086   5.255  69.082  1.00  0.00    -0.289 C  
HETATM   21  C   UNL     1     -10.003   4.930  67.596  1.00  0.00    -0.192 C  
HETATM   22  C   UNL     1      -9.633   6.092  66.680  1.00  0.00    -0.179 C  
HETATM   23  C   UNL     1     -10.308   7.410  67.049  1.00  0.00    -0.314 C  
ENDBRANCH  15  17
ENDBRANCH  13  15
ENDBRANCH  11  13
ENDBRANCH   8  11
ENDBRANCH   5   8
TORSDOF 5
ENDMDL
MODEL       67
REMARK 921   NORMALIZED FREE ENERGY PREDICTED BY IDOCK:   -5.50 KCAL/MOL
REMARK 922        TOTAL FREE ENERGY PREDICTED BY IDOCK:   -7.64 KCAL/MOL
REMARK 923 INTER-LIGAND FREE ENERGY PREDICTED BY IDOCK:   -6.86 KCAL/MOL
REMARK 924 INTRA-LIGAND FREE ENERGY PREDICTED BY IDOCK:   -0.78 KCAL/MOL
REMARK 927      BINDING AFFINITY PREDICTED BY RF-SCORE:    0.00 PKD
ROOT
HETATM    1  C   UNL     1     -13.858  15.708  72.466  1.00  0.00    -0.642 C  
HETATM    2  C   UNL     1     -13.394  14.475  71.745  1.00  0.00    -0.445 A  
HETATM    3  C   UNL     1     -13.726  13.200  72.221  1.00  0.00    -0.647 A  
HETATM    4  C   UNL     1     -13.236  12.057  71.586  1.00  0.00    -0.361 A  
HETATM    5  C   UNL     1     -12.417  12.192  70.460  1.00  0.00    -0.198 A  
HETATM    6  C   UNL     1     -12.588  14.593  70.603  1.00  0.00    -0.419 A  
HETATM    7  C   UNL     1     -12.099  13.454  69.958  1.00  0.00    -0.404 A  
ENDROOT
BRANCH   5   8
HETATM    8  S   UNL     1     -11.747  10.731  69.707  1.00  0.00    -0.347 S  
HETATM    9  O   UNL     1     -12.262  10.595  68.362  1.00  0.00    -0.372 OA 
HETATM   10  O   UNL     1     -10.315  10.748  69.951  1.00  0.00    -0.127 OA 
BRANCH   8  11
HETATM   11  N   UNL     1     -12.336   9.484  70.637  1.00  0.00    -0.483 N  
HETATM   12  H   UNL     1     -13.228   9.607  71.117  1.00  0.00     0.000 HD 
BRANCH  11  13
HETATM   13  C   UNL     1     -11.658   8.284  70.785  1.00  0.00    -0.236 C  
HETATM   14  O   UNL     1     -11.802   7.578  71.774  1.00  0.00    -0.275 OA 
BRANCH  13  15
HETATM   15  N   UNL     1     -10.800   8.001  69.736  1.00  0.00    -0.343 N  
HETATM   16  H   UNL     1     -10.148   8.721  69.426  1.00  0.00     0.000 HD 
BRANCH  15  17
HETATM   17  N   UNL     1     -10.795   6.736  69.070  1.00  0.00    -0.249 NA 
HETATM   18  C   UNL     1     -10.785   6.922  67.607  1.00  0.00    -0.274 C  
HETATM   19  C   UNL     1     -10.747   5.663  66.733  1.00  0.00    -0.358 C  
HETATM   20  C   UNL     1      -9.414   4.925  66.810  1.00  0.00    -0.154 C  
HETATM   21  C   UNL     1      -9.311   3.947  67.974  1.00  0.00    -0.226 C  
HETATM   22  C   UNL     1      -9.960   4.396  69.279  1.00  0.00    -0.144 C  
HETATM   23  C   UNL     1      -9.733   5.869  69.609  1.00  0.00    -0.158 C  
ENDBRANCH  15  17
ENDBRANCH  13  15
ENDBRANCH  11  13
ENDBRANCH   8  11
ENDBRANCH   5   8
TORSDOF 5
ENDMDL
MODEL       68
REMARK 921   NORMALIZED FREE ENERGY PREDICTED BY IDOCK:   -5.49 KCAL/MOL
REMARK 922        TOTAL FREE ENERGY PREDICTED BY IDOCK:   -7.64 KCAL/MOL
REMARK 923 INTER-LIGAND FREE ENERGY PREDICTED BY IDOCK:   -6.76 KCAL/MOL
REMARK 924 INTRA-LIGAND FREE ENERGY PREDICTED BY IDOCK:   -0.88 KCAL/MOL
REMARK 927      BINDING AFFINITY PREDICTED BY RF-SCORE:    0.00 PKD
ROOT
HETATM    1  C   UNL     1     -12.888  11.850  63.160  1.00  0.00    -0.160 C  
HETATM    2  C   UNL     1     -11.890  12.122  64.249  1.00  0.00    -0.460 A  
HETATM    3  C   UNL     1     -10.719  11.360  64.354  1.00  0.00    -0.405 A  
HETATM    4  C   UNL     1      -9.829  11.572  65.408  1.00  0.00    -0.271 A  
HETATM    5  C   UNL     1     -10.108  12.560  66.358  1.00  0.00    -0.243 A  
HETATM    6  C   UNL     1     -12.146  13.123  65.198  1.00  0.00    -0.463 A  
HETATM    7  C   UNL     1     -11.256  13.345  66.252  1.00  0.00    -0.322 A  
ENDROOT
BRANCH   5   8
HETATM    8  S   UNL     1      -9.000  12.769  67.729  1.00  0.00    -0.201 S  
HETATM    9  O   UNL     1      -9.585  12.195  68.922  1.00  0.00    -0.030 OA 
HETATM   10  O   UNL     1      -7.685  12.351  67.278  1.00  0.00    -0.160 OA 
BRANCH   8  11
HETATM   11  N   UNL     1      -8.895  14.418  67.922  1.00  0.00    -0.171 N  
HETATM   12  H   UNL     1      -8.577  14.985  67.136  1.00  0.00     0.000 HD 
BRANCH  11  13
HETATM   13  C   UNL     1      -9.222  15.049  69.112  1.00  0.00    -0.183 C  
HETATM   14  O   UNL     1      -8.371  15.361  69.933  1.00  0.00    -0.134 OA 
BRANCH  13  15
HETATM   15  N   UNL     1     -10.583  15.246  69.277  1.00  0.00    -0.243 N  
HETATM   16  H   UNL     1     -11.118  15.647  68.506  1.00  0.00     0.000 HD 
BRANCH  15  17
HETATM   17  N   UNL     1     -11.265  14.910  70.487  1.00  0.00    -0.234 NA 
HETATM   18  C   UNL     1     -11.597  16.129  71.249  1.00  0.00    -0.413 C  
HETATM   19  C   UNL     1     -12.362  15.955  72.565  1.00  0.00    -0.575 C  
HETATM   20  C   UNL     1     -13.802  15.497  72.361  1.00  0.00    -0.662 C  
HETATM   21  C   UNL     1     -13.962  13.987  72.234  1.00  0.00    -0.651 C  
HETATM   22  C   UNL     1     -12.862  13.265  71.463  1.00  0.00    -0.419 C  
HETATM   23  C   UNL     1     -12.393  14.004  70.213  1.00  0.00    -0.358 C  
ENDBRANCH  15  17
ENDBRANCH  13  15
ENDBRANCH  11  13
ENDBRANCH   8  11
ENDBRANCH   5   8
TORSDOF 5
ENDMDL
MODEL       69
REMARK 921   NORMALIZED FREE ENERGY PREDICTED BY IDOCK:   -5.47 KCAL/MOL
REMARK 922        TOTAL FREE ENERGY PREDICTED BY IDOCK:   -7.61 KCAL/MOL
REMARK 923 INTER-LIGAND FREE ENERGY PREDICTED BY IDOCK:   -6.69 KCAL/MOL
REMARK 924 INTRA-LIGAND FREE ENERGY PREDICTED BY IDOCK:   -0.92 KCAL/MOL
REMARK 927      BINDING AFFINITY PREDICTED BY RF-SCORE:    0.00 PKD
ROOT
HETATM    1  C   UNL     1     -13.740   9.245  72.538  1.00  0.00    -0.475 C  
HETATM    2  C   UNL     1     -12.510   9.420  71.694  1.00  0.00    -0.460 A  
HETATM    3  C   UNL     1     -11.343   8.696  71.971  1.00  0.00    -0.432 A  
HETATM    4  C   UNL     1     -10.182   8.913  71.227  1.00  0.00    -0.361 A  
HETATM    5  C   UNL     1     -10.192   9.854  70.192  1.00  0.00    -0.273 A  
HETATM    6  C   UNL     1     -12.510  10.346  70.641  1.00  0.00    -0.437 A  
HETATM    7  C   UNL     1     -11.354  10.564  69.888  1.00  0.00    -0.380 A  
ENDROOT
BRANCH   5   8
HETATM    8  S   UNL     1      -8.689  10.167  69.302  1.00  0.00    -0.181 S  
HETATM    9  O   UNL     1      -8.738  11.485  68.707  1.00  0.00    -0.137 OA 
HETATM   10  O   UNL     1      -7.593   9.793  70.179  1.00  0.00    -0.141 OA 
BRANCH   8  11
HETATM   11  N   UNL     1      -8.687   9.029  68.089  1.00  0.00    -0.130 N  
HETATM   12  H   UNL     1      -8.623   8.042  68.341  1.00  0.00     0.000 HD 
BRANCH  11  13
HETATM   13  C   UNL     1      -8.770   9.372  66.749  1.00  0.00    -0.127 C  
HETATM   14  O   UNL     1      -7.794   9.342  66.012  1.00  0.00    -0.100 OA 
BRANCH  13  15
HETATM   15  N   UNL     1     -10.036   9.775  66.358  1.00  0.00    -0.245 N  
HETATM   16  H   UNL     1     -10.824   9.149  66.524  1.00  0.00     0.000 HD 
BRANCH  15  17
HETATM   17  N   UNL     1     -10.279  11.037  65.732  1.00  0.00    -0.252 NA 
HETATM   18  C   UNL     1     -10.380  10.877  64.269  1.00  0.00    -0.368 C  
HETATM   19  C   UNL     1     -10.671  12.131  63.438  1.00  0.00    -0.461 C  
HETATM   20  C   UNL     1     -12.086  12.663  63.638  1.00  0.00    -0.632 C  
HETATM   21  C   UNL     1     -12.237  13.594  64.835  1.00  0.00    -0.447 C  
HETATM   22  C   UNL     1     -11.426  13.223  66.072  1.00  0.00    -0.360 C  
HETATM   23  C   UNL     1     -11.409  11.728  66.376  1.00  0.00    -0.297 C  
ENDBRANCH  15  17
ENDBRANCH  13  15
ENDBRANCH  11  13
ENDBRANCH   8  11
ENDBRANCH   5   8
TORSDOF 5
ENDMDL
MODEL       70
REMARK 921   NORMALIZED FREE ENERGY PREDICTED BY IDOCK:   -5.47 KCAL/MOL
REMARK 922        TOTAL FREE ENERGY PREDICTED BY IDOCK:   -7.60 KCAL/MOL
REMARK 923 INTER-LIGAND FREE ENERGY PREDICTED BY IDOCK:   -6.80 KCAL/MOL
REMARK 924 INTRA-LIGAND FREE ENERGY PREDICTED BY IDOCK:   -0.80 KCAL/MOL
REMARK 927      BINDING AFFINITY PREDICTED BY RF-SCORE:    0.00 PKD
ROOT
HETATM    1  C   UNL     1     -10.555  18.056  68.049  1.00  0.00    -0.361 C  
HETATM    2  C   UNL     1     -10.883  16.613  68.303  1.00  0.00    -0.356 A  
HETATM    3  C   UNL     1     -11.083  16.144  69.608  1.00  0.00    -0.344 A  
HETATM    4  C   UNL     1     -11.320  14.788  69.845  1.00  0.00    -0.310 A  
HETATM    5  C   UNL     1     -11.366  13.898  68.767  1.00  0.00    -0.277 A  
HETATM    6  C   UNL     1     -10.951  15.711  67.231  1.00  0.00    -0.275 A  
HETATM    7  C   UNL     1     -11.194  14.354  67.460  1.00  0.00    -0.329 A  
ENDROOT
BRANCH   5   8
HETATM    8  S   UNL     1     -11.599  12.168  69.092  1.00  0.00    -0.337 S  
HETATM    9  O   UNL     1     -12.286  11.996  70.354  1.00  0.00    -0.334 OA 
HETATM   10  O   UNL     1     -12.130  11.578  67.876  1.00  0.00    -0.630 OA 
BRANCH   8  11
HETATM   11  N   UNL     1     -10.054  11.568  69.234  1.00  0.00    -0.423 N  
HETATM   12  H   UNL     1      -9.283  12.221  69.370  1.00  0.00     0.000 HD 
BRANCH  11  13
HETATM   13  C   UNL     1      -9.777  10.211  69.174  1.00  0.00    -0.215 C  
HETATM   14  O   UNL     1      -8.632   9.788  69.092  1.00  0.00    -0.133 OA 
BRANCH  13  15
HETATM   15  N   UNL     1     -10.910   9.414  69.179  1.00  0.00    -0.356 N  
HETATM   16  H   UNL     1     -11.590   9.522  68.428  1.00  0.00     0.000 HD 
BRANCH  15  17
HETATM   17  N   UNL     1     -11.161   8.446  70.201  1.00  0.00    -0.223 NA 
HETATM   18  C   UNL     1     -10.474   7.178  69.890  1.00  0.00    -0.223 C  
HETATM   19  C   UNL     1     -10.610   6.033  70.901  1.00  0.00    -0.310 C  
HETATM   20  C   UNL     1      -9.869   6.301  72.207  1.00  0.00    -0.175 C  
HETATM   21  C   UNL     1     -10.673   7.104  73.223  1.00  0.00    -0.403 C  
HETATM   22  C   UNL     1     -11.547   8.215  72.652  1.00  0.00    -0.441 C  
HETATM   23  C   UNL     1     -10.884   9.011  71.532  1.00  0.00    -0.346 C  
ENDBRANCH  15  17
ENDBRANCH  13  15
ENDBRANCH  11  13
ENDBRANCH   8  11
ENDBRANCH   5   8
TORSDOF 5
ENDMDL
MODEL       71
REMARK 921   NORMALIZED FREE ENERGY PREDICTED BY IDOCK:   -5.45 KCAL/MOL
REMARK 922        TOTAL FREE ENERGY PREDICTED BY IDOCK:   -7.58 KCAL/MOL
REMARK 923 INTER-LIGAND FREE ENERGY PREDICTED BY IDOCK:   -7.14 KCAL/MOL
REMARK 924 INTRA-LIGAND FREE ENERGY PREDICTED BY IDOCK:   -0.44 KCAL/MOL
REMARK 927      BINDING AFFINITY PREDICTED BY RF-SCORE:    0.00 PKD
ROOT
HETATM    1  C   UNL     1      -8.934   3.627  68.842  1.00  0.00    -0.182 C  
HETATM    2  C   UNL     1      -9.815   4.644  69.509  1.00  0.00    -0.286 A  
HETATM    3  C   UNL     1     -10.510   5.595  68.751  1.00  0.00    -0.289 A  
HETATM    4  C   UNL     1     -11.274   6.581  69.380  1.00  0.00    -0.418 A  
HETATM    5  C   UNL     1     -11.348   6.608  70.776  1.00  0.00    -0.336 A  
HETATM    6  C   UNL     1      -9.915   4.673  70.907  1.00  0.00    -0.273 A  
HETATM    7  C   UNL     1     -10.682   5.652  71.544  1.00  0.00    -0.306 A  
ENDROOT
BRANCH   5   8
HETATM    8  S   UNL     1     -12.266   7.910  71.561  1.00  0.00    -0.319 S  
HETATM    9  O   UNL     1     -13.643   7.499  71.736  1.00  0.00    -0.353 OA 
HETATM   10  O   UNL     1     -11.479   8.357  72.696  1.00  0.00    -0.380 OA 
BRANCH   8  11
HETATM   11  N   UNL     1     -12.213   9.163  70.469  1.00  0.00    -0.477 N  
HETATM   12  H   UNL     1     -12.089   8.948  69.480  1.00  0.00     0.000 HD 
BRANCH  11  13
HETATM   13  C   UNL     1     -12.331  10.489  70.855  1.00  0.00    -0.390 C  
HETATM   14  O   UNL     1     -13.195  10.860  71.637  1.00  0.00    -0.411 OA 
BRANCH  13  15
HETATM   15  N   UNL     1     -11.411  11.327  70.246  1.00  0.00    -0.478 N  
HETATM   16  H   UNL     1     -10.430  11.255  70.512  1.00  0.00     0.000 HD 
BRANCH  15  17
HETATM   17  N   UNL     1     -11.788  12.288  69.257  1.00  0.00    -0.313 NA 
HETATM   18  C   UNL     1     -11.663  13.656  69.793  1.00  0.00    -0.297 C  
HETATM   19  C   UNL     1     -11.999  14.819  68.852  1.00  0.00    -0.298 C  
HETATM   20  C   UNL     1     -10.978  14.992  67.733  1.00  0.00    -0.298 C  
HETATM   21  C   UNL     1     -11.238  14.117  66.513  1.00  0.00    -0.333 C  
HETATM   22  C   UNL     1     -11.757  12.712  66.801  1.00  0.00    -0.460 C  
HETATM   23  C   UNL     1     -11.081  12.034  67.990  1.00  0.00    -0.241 C  
ENDBRANCH  15  17
ENDBRANCH  13  15
ENDBRANCH  11  13
ENDBRANCH   8  11
ENDBRANCH   5   8
TORSDOF 5
ENDMDL
MODEL       72
REMARK 921   NORMALIZED FREE ENERGY PREDICTED BY IDOCK:   -5.45 KCAL/MOL
REMARK 922        TOTAL FREE ENERGY PREDICTED BY IDOCK:   -7.58 KCAL/MOL
REMARK 923 INTER-LIGAND FREE ENERGY PREDICTED BY IDOCK:   -6.76 KCAL/MOL
REMARK 924 INTRA-LIGAND FREE ENERGY PREDICTED BY IDOCK:   -0.81 KCAL/MOL
REMARK 927      BINDING AFFINITY PREDICTED BY RF-SCORE:    0.00 PKD
ROOT
HETATM    1  C   UNL     1      -5.167  19.937  68.371  1.00  0.00    -0.210 C  
HETATM    2  C   UNL     1      -6.445  19.308  67.896  1.00  0.00    -0.254 A  
HETATM    3  C   UNL     1      -7.616  19.399  68.661  1.00  0.00    -0.398 A  
HETATM    4  C   UNL     1      -8.783  18.754  68.247  1.00  0.00    -0.363 A  
HETATM    5  C   UNL     1      -8.782  18.022  67.056  1.00  0.00    -0.247 A  
HETATM    6  C   UNL     1      -6.465  18.586  66.693  1.00  0.00    -0.209 A  
HETATM    7  C   UNL     1      -7.631  17.944  66.270  1.00  0.00    -0.315 A  
ENDROOT
BRANCH   5   8
HETATM    8  S   UNL     1     -10.254  17.152  66.581  1.00  0.00    -0.310 S  
HETATM    9  O   UNL     1     -11.154  17.062  67.711  1.00  0.00    -0.263 OA 
HETATM   10  O   UNL     1     -10.701  17.731  65.326  1.00  0.00    -0.649 OA 
BRANCH   8  11
HETATM   11  N   UNL     1      -9.720  15.625  66.195  1.00  0.00    -0.292 N  
HETATM   12  H   UNL     1      -8.722  15.425  66.251  1.00  0.00     0.000 HD 
BRANCH  11  13
HETATM   13  C   UNL     1     -10.583  14.614  65.801  1.00  0.00    -0.320 C  
HETATM   14  O   UNL     1     -10.509  14.095  64.697  1.00  0.00    -0.434 OA 
BRANCH  13  15
HETATM   15  N   UNL     1     -11.534  14.295  66.757  1.00  0.00    -0.352 N  
HETATM   16  H   UNL     1     -12.501  14.578  66.602  1.00  0.00     0.000 HD 
BRANCH  15  17
HETATM   17  N   UNL     1     -11.208  13.583  67.953  1.00  0.00    -0.263 NA 
HETATM   18  C   UNL     1     -12.145  13.937  69.036  1.00  0.00    -0.329 C  
HETATM   19  C   UNL     1     -11.960  13.238  70.388  1.00  0.00    -0.350 C  
HETATM   20  C   UNL     1     -12.316  11.756  70.346  1.00  0.00    -0.362 C  
HETATM   21  C   UNL     1     -11.175  10.855  69.886  1.00  0.00    -0.355 C  
HETATM   22  C   UNL     1     -10.294  11.415  68.775  1.00  0.00    -0.222 C  
HETATM   23  C   UNL     1     -11.066  12.143  67.678  1.00  0.00    -0.268 C  
ENDBRANCH  15  17
ENDBRANCH  13  15
ENDBRANCH  11  13
ENDBRANCH   8  11
ENDBRANCH   5   8
TORSDOF 5
ENDMDL
MODEL       73
REMARK 921   NORMALIZED FREE ENERGY PREDICTED BY IDOCK:   -5.45 KCAL/MOL
REMARK 922        TOTAL FREE ENERGY PREDICTED BY IDOCK:   -7.57 KCAL/MOL
REMARK 923 INTER-LIGAND FREE ENERGY PREDICTED BY IDOCK:   -6.65 KCAL/MOL
REMARK 924 INTRA-LIGAND FREE ENERGY PREDICTED BY IDOCK:   -0.93 KCAL/MOL
REMARK 927      BINDING AFFINITY PREDICTED BY RF-SCORE:    0.00 PKD
ROOT
HETATM    1  C   UNL     1     -11.957  16.052  72.539  1.00  0.00    -0.649 C  
HETATM    2  C   UNL     1     -11.897  15.378  71.198  1.00  0.00    -0.422 A  
HETATM    3  C   UNL     1     -12.363  14.067  71.035  1.00  0.00    -0.443 A  
HETATM    4  C   UNL     1     -12.243  13.421  69.803  1.00  0.00    -0.307 A  
HETATM    5  C   UNL     1     -11.662  14.096  68.725  1.00  0.00    -0.345 A  
HETATM    6  C   UNL     1     -11.335  16.049  70.102  1.00  0.00    -0.369 A  
HETATM    7  C   UNL     1     -11.217  15.411  68.864  1.00  0.00    -0.296 A  
ENDROOT
BRANCH   5   8
HETATM    8  S   UNL     1     -11.454  13.236  67.186  1.00  0.00    -0.361 S  
HETATM    9  O   UNL     1     -12.072  11.930  67.268  1.00  0.00    -0.582 OA 
HETATM   10  O   UNL     1     -11.825  14.163  66.131  1.00  0.00    -0.374 OA 
BRANCH   8  11
HETATM   11  N   UNL     1      -9.808  13.045  67.043  1.00  0.00    -0.233 N  
HETATM   12  H   UNL     1      -9.333  13.457  66.240  1.00  0.00     0.000 HD 
BRANCH  11  13
HETATM   13  C   UNL     1      -9.059  12.345  67.976  1.00  0.00    -0.195 C  
HETATM   14  O   UNL     1      -8.060  12.826  68.494  1.00  0.00    -0.142 OA 
BRANCH  13  15
HETATM   15  N   UNL     1      -9.533  11.067  68.221  1.00  0.00    -0.165 N  
HETATM   16  H   UNL     1      -9.868  10.509  67.436  1.00  0.00     0.000 HD 
BRANCH  15  17
HETATM   17  N   UNL     1      -9.570  10.502  69.533  1.00  0.00    -0.154 NA 
HETATM   18  C   UNL     1     -10.965  10.288  69.964  1.00  0.00    -0.311 C  
HETATM   19  C   UNL     1     -11.190   9.656  71.342  1.00  0.00    -0.426 C  
HETATM   20  C   UNL     1     -10.778   8.189  71.400  1.00  0.00    -0.280 C  
HETATM   21  C   UNL     1      -9.300   7.970  71.700  1.00  0.00    -0.208 C  
HETATM   22  C   UNL     1      -8.337   8.963  71.057  1.00  0.00    -0.233 C  
HETATM   23  C   UNL     1      -8.690   9.325  69.617  1.00  0.00    -0.153 C  
ENDBRANCH  15  17
ENDBRANCH  13  15
ENDBRANCH  11  13
ENDBRANCH   8  11
ENDBRANCH   5   8
TORSDOF 5
ENDMDL
MODEL       74
REMARK 921   NORMALIZED FREE ENERGY PREDICTED BY IDOCK:   -5.45 KCAL/MOL
REMARK 922        TOTAL FREE ENERGY PREDICTED BY IDOCK:   -7.57 KCAL/MOL
REMARK 923 INTER-LIGAND FREE ENERGY PREDICTED BY IDOCK:   -6.88 KCAL/MOL
REMARK 924 INTRA-LIGAND FREE ENERGY PREDICTED BY IDOCK:   -0.70 KCAL/MOL
REMARK 927      BINDING AFFINITY PREDICTED BY RF-SCORE:    0.00 PKD
ROOT
HETATM    1  C   UNL     1     -12.013  14.089  69.229  1.00  0.00    -0.396 C  
HETATM    2  C   UNL     1     -12.157  12.792  69.972  1.00  0.00    -0.355 A  
HETATM    3  C   UNL     1     -11.610  11.609  69.459  1.00  0.00    -0.397 A  
HETATM    4  C   UNL     1     -11.805  10.394  70.119  1.00  0.00    -0.379 A  
HETATM    5  C   UNL     1     -12.544  10.366  71.306  1.00  0.00    -0.419 A  
HETATM    6  C   UNL     1     -12.880  12.750  71.173  1.00  0.00    -0.315 A  
HETATM    7  C   UNL     1     -13.073  11.540  71.843  1.00  0.00    -0.492 A  
ENDROOT
BRANCH   5   8
HETATM    8  S   UNL     1     -12.841   8.803  72.095  1.00  0.00    -0.415 S  
HETATM    9  O   UNL     1     -11.716   8.461  72.938  1.00  0.00    -0.300 OA 
HETATM   10  O   UNL     1     -14.186   8.855  72.642  1.00  0.00    -0.563 OA 
BRANCH   8  11
HETATM   11  N   UNL     1     -12.921   7.719  70.836  1.00  0.00    -0.540 N  
HETATM   12  H   UNL     1     -13.591   7.884  70.086  1.00  0.00     0.000 HD 
BRANCH  11  13
HETATM   13  C   UNL     1     -12.108   6.597  70.771  1.00  0.00    -0.304 C  
HETATM   14  O   UNL     1     -11.988   5.830  71.716  1.00  0.00    -0.056 OA 
BRANCH  13  15
HETATM   15  N   UNL     1     -11.442   6.467  69.564  1.00  0.00    -0.606 N  
HETATM   16  H   UNL     1     -11.495   5.578  69.067  1.00  0.00     0.000 HD 
BRANCH  15  17
HETATM   17  N   UNL     1     -10.683   7.533  68.989  1.00  0.00    -0.179 NA 
HETATM   18  C   UNL     1      -9.415   7.718  69.722  1.00  0.00    -0.160 C  
HETATM   19  C   UNL     1      -8.459   8.804  69.218  1.00  0.00    -0.122 C  
HETATM   20  C   UNL     1      -7.819   8.461  67.877  1.00  0.00    -0.107 C  
HETATM   21  C   UNL     1      -8.665   8.846  66.669  1.00  0.00    -0.140 C  
HETATM   22  C   UNL     1     -10.170   8.648  66.820  1.00  0.00    -0.361 C  
HETATM   23  C   UNL     1     -10.556   7.355  67.533  1.00  0.00    -0.269 C  
ENDBRANCH  15  17
ENDBRANCH  13  15
ENDBRANCH  11  13
ENDBRANCH   8  11
ENDBRANCH   5   8
TORSDOF 5
ENDMDL
MODEL       75
REMARK 921   NORMALIZED FREE ENERGY PREDICTED BY IDOCK:   -5.44 KCAL/MOL
REMARK 922        TOTAL FREE ENERGY PREDICTED BY IDOCK:   -7.56 KCAL/MOL
REMARK 923 INTER-LIGAND FREE ENERGY PREDICTED BY IDOCK:   -6.75 KCAL/MOL
REMARK 924 INTRA-LIGAND FREE ENERGY PREDICTED BY IDOCK:   -0.81 KCAL/MOL
REMARK 927      BINDING AFFINITY PREDICTED BY RF-SCORE:    0.00 PKD
ROOT
HETATM    1  C   UNL     1     -12.471  13.091  63.096  1.00  0.00    -0.138 C  
HETATM    2  C   UNL     1     -11.543  12.805  64.241  1.00  0.00    -0.433 A  
HETATM    3  C   UNL     1     -10.775  11.633  64.264  1.00  0.00    -0.398 A  
HETATM    4  C   UNL     1      -9.965  11.339  65.362  1.00  0.00    -0.297 A  
HETATM    5  C   UNL     1      -9.916  12.228  66.441  1.00  0.00    -0.228 A  
HETATM    6  C   UNL     1     -11.468  13.696  65.321  1.00  0.00    -0.320 A  
HETATM    7  C   UNL     1     -10.655  13.412  66.421  1.00  0.00    -0.285 A  
ENDROOT
BRANCH   5   8
HETATM    8  S   UNL     1      -8.935  11.805  67.859  1.00  0.00    -0.187 S  
HETATM    9  O   UNL     1      -7.717  11.151  67.432  1.00  0.00    -0.111 OA 
HETATM   10  O   UNL     1      -8.883  12.985  68.704  1.00  0.00    -0.082 OA 
BRANCH   8  11
HETATM   11  N   UNL     1      -9.871  10.710  68.691  1.00  0.00    -0.172 N  
HETATM   12  H   UNL     1      -9.465   9.809  68.942  1.00  0.00     0.000 HD 
BRANCH  11  13
HETATM   13  C   UNL     1     -11.181  10.978  69.054  1.00  0.00    -0.258 C  
HETATM   14  O   UNL     1     -12.122  10.727  68.313  1.00  0.00    -0.496 OA 
BRANCH  13  15
HETATM   15  N   UNL     1     -11.299  11.577  70.297  1.00  0.00    -0.491 N  
HETATM   16  H   UNL     1     -10.666  11.289  71.043  1.00  0.00     0.000 HD 
BRANCH  15  17
HETATM   17  N   UNL     1     -12.274  12.585  70.574  1.00  0.00    -0.352 NA 
HETATM   18  C   UNL     1     -12.946  12.314  71.859  1.00  0.00    -0.305 C  
HETATM   19  C   UNL     1     -14.006  13.317  72.328  1.00  0.00    -0.559 C  
HETATM   20  C   UNL     1     -13.414  14.662  72.737  1.00  0.00    -0.570 C  
HETATM   21  C   UNL     1     -13.215  15.631  71.578  1.00  0.00    -0.555 C  
HETATM   22  C   UNL     1     -12.752  15.011  70.264  1.00  0.00    -0.319 C  
HETATM   23  C   UNL     1     -11.689  13.928  70.431  1.00  0.00    -0.199 C  
ENDBRANCH  15  17
ENDBRANCH  13  15
ENDBRANCH  11  13
ENDBRANCH   8  11
ENDBRANCH   5   8
TORSDOF 5
ENDMDL
MODEL       76
REMARK 921   NORMALIZED FREE ENERGY PREDICTED BY IDOCK:   -5.41 KCAL/MOL
REMARK 922        TOTAL FREE ENERGY PREDICTED BY IDOCK:   -7.53 KCAL/MOL
REMARK 923 INTER-LIGAND FREE ENERGY PREDICTED BY IDOCK:   -7.10 KCAL/MOL
REMARK 924 INTRA-LIGAND FREE ENERGY PREDICTED BY IDOCK:   -0.43 KCAL/MOL
REMARK 927      BINDING AFFINITY PREDICTED BY RF-SCORE:    0.00 PKD
ROOT
HETATM    1  C   UNL     1      -9.494  10.089  62.475  1.00  0.00    -0.232 C  
HETATM    2  C   UNL     1      -9.775  10.458  63.903  1.00  0.00    -0.367 A  
HETATM    3  C   UNL     1      -9.149   9.777  64.955  1.00  0.00    -0.280 A  
HETATM    4  C   UNL     1      -9.465  10.078  66.282  1.00  0.00    -0.241 A  
HETATM    5  C   UNL     1     -10.408  11.075  66.556  1.00  0.00    -0.245 A  
HETATM    6  C   UNL     1     -10.704  11.468  64.195  1.00  0.00    -0.428 A  
HETATM    7  C   UNL     1     -11.021  11.780  65.519  1.00  0.00    -0.344 A  
ENDROOT
BRANCH   5   8
HETATM    8  S   UNL     1     -10.849  11.396  68.245  1.00  0.00    -0.228 S  
HETATM    9  O   UNL     1     -12.286  11.319  68.398  1.00  0.00    -0.604 OA 
HETATM   10  O   UNL     1      -9.974  10.585  69.073  1.00  0.00    -0.193 OA 
BRANCH   8  11
HETATM   11  N   UNL     1     -10.364  12.966  68.502  1.00  0.00    -0.278 N  
HETATM   12  H   UNL     1      -9.426  13.138  68.865  1.00  0.00     0.000 HD 
BRANCH  11  13
HETATM   13  C   UNL     1     -11.188  14.050  68.242  1.00  0.00    -0.268 C  
HETATM   14  O   UNL     1     -10.847  14.957  67.495  1.00  0.00    -0.278 OA 
BRANCH  13  15
HETATM   15  N   UNL     1     -12.390  14.009  68.929  1.00  0.00    -0.508 N  
HETATM   16  H   UNL     1     -13.121  13.377  68.602  1.00  0.00     0.000 HD 
BRANCH  15  17
HETATM   17  N   UNL     1     -12.643  14.819  70.079  1.00  0.00    -0.269 NA 
HETATM   18  C   UNL     1     -13.770  14.271  70.858  1.00  0.00     0.029 C  
HETATM   19  C   UNL     1     -14.159  15.002  72.148  1.00  0.00    -0.629 C  
HETATM   20  C   UNL     1     -13.116  14.860  73.252  1.00  0.00    -0.585 C  
HETATM   21  C   UNL     1     -11.991  15.886  73.179  1.00  0.00    -0.572 C  
HETATM   22  C   UNL     1     -11.511  16.248  71.778  1.00  0.00    -0.317 C  
HETATM   23  C   UNL     1     -11.401  15.054  70.833  1.00  0.00    -0.265 C  
ENDBRANCH  15  17
ENDBRANCH  13  15
ENDBRANCH  11  13
ENDBRANCH   8  11
ENDBRANCH   5   8
TORSDOF 5
ENDMDL
MODEL       77
REMARK 921   NORMALIZED FREE ENERGY PREDICTED BY IDOCK:   -5.37 KCAL/MOL
REMARK 922        TOTAL FREE ENERGY PREDICTED BY IDOCK:   -7.48 KCAL/MOL
REMARK 923 INTER-LIGAND FREE ENERGY PREDICTED BY IDOCK:   -6.58 KCAL/MOL
REMARK 924 INTRA-LIGAND FREE ENERGY PREDICTED BY IDOCK:   -0.90 KCAL/MOL
REMARK 927      BINDING AFFINITY PREDICTED BY RF-SCORE:    0.00 PKD
ROOT
HETATM    1  C   UNL     1      -5.181  14.192  68.707  1.00  0.00    -0.088 C  
HETATM    2  C   UNL     1      -6.371  15.068  68.440  1.00  0.00    -0.107 A  
HETATM    3  C   UNL     1      -7.415  15.159  69.370  1.00  0.00    -0.204 A  
HETATM    4  C   UNL     1      -8.550  15.921  69.086  1.00  0.00    -0.252 A  
HETATM    5  C   UNL     1      -8.635  16.605  67.869  1.00  0.00    -0.196 A  
HETATM    6  C   UNL     1      -6.462  15.775  67.232  1.00  0.00    -0.139 A  
HETATM    7  C   UNL     1      -7.592  16.545  66.945  1.00  0.00    -0.272 A  
ENDROOT
BRANCH   5   8
HETATM    8  S   UNL     1     -10.115  17.513  67.496  1.00  0.00    -0.339 S  
HETATM    9  O   UNL     1     -11.260  16.835  68.065  1.00  0.00    -0.295 OA 
HETATM   10  O   UNL     1      -9.848  18.905  67.813  1.00  0.00    -0.313 OA 
BRANCH   8  11
HETATM   11  N   UNL     1     -10.223  17.454  65.838  1.00  0.00    -0.300 N  
HETATM   12  H   UNL     1      -9.735  18.161  65.287  1.00  0.00     0.000 HD 
BRANCH  11  13
HETATM   13  C   UNL     1     -10.953  16.479  65.176  1.00  0.00    -0.191 C  
HETATM   14  O   UNL     1     -11.479  16.689  64.092  1.00  0.00    -1.131 OA 
BRANCH  13  15
HETATM   15  N   UNL     1     -11.047  15.287  65.876  1.00  0.00    -0.320 N  
HETATM   16  H   UNL     1     -11.610  15.260  66.726  1.00  0.00     0.000 HD 
BRANCH  15  17
HETATM   17  N   UNL     1     -10.384  14.095  65.451  1.00  0.00    -0.344 NA 
HETATM   18  C   UNL     1      -9.896  13.332  66.616  1.00  0.00    -0.276 C  
HETATM   19  C   UNL     1      -9.183  12.002  66.343  1.00  0.00    -0.216 C  
HETATM   20  C   UNL     1     -10.123  10.919  65.825  1.00  0.00    -0.308 C  
HETATM   21  C   UNL     1     -10.335  10.950  64.316  1.00  0.00    -0.436 C  
HETATM   22  C   UNL     1     -10.418  12.336  63.685  1.00  0.00    -0.483 C  
HETATM   23  C   UNL     1     -11.223  13.342  64.504  1.00  0.00    -0.372 C  
ENDBRANCH  15  17
ENDBRANCH  13  15
ENDBRANCH  11  13
ENDBRANCH   8  11
ENDBRANCH   5   8
TORSDOF 5
ENDMDL
MODEL       78
REMARK 921   NORMALIZED FREE ENERGY PREDICTED BY IDOCK:   -5.37 KCAL/MOL
REMARK 922        TOTAL FREE ENERGY PREDICTED BY IDOCK:   -7.47 KCAL/MOL
REMARK 923 INTER-LIGAND FREE ENERGY PREDICTED BY IDOCK:   -7.29 KCAL/MOL
REMARK 924 INTRA-LIGAND FREE ENERGY PREDICTED BY IDOCK:   -0.19 KCAL/MOL
REMARK 927      BINDING AFFINITY PREDICTED BY RF-SCORE:    0.00 PKD
ROOT
HETATM    1  C   UNL     1      -8.811  10.457  62.385  1.00  0.00    -0.279 C  
HETATM    2  C   UNL     1      -9.668  11.177  63.386  1.00  0.00    -0.382 A  
HETATM    3  C   UNL     1     -10.937  11.653  63.030  1.00  0.00    -0.086 A  
HETATM    4  C   UNL     1     -11.701  12.382  63.944  1.00  0.00    -0.529 A  
HETATM    5  C   UNL     1     -11.196  12.626  65.225  1.00  0.00    -0.300 A  
HETATM    6  C   UNL     1      -9.184  11.414  64.681  1.00  0.00    -0.030 A  
HETATM    7  C   UNL     1      -9.946  12.136  65.602  1.00  0.00    -0.271 A  
ENDROOT
BRANCH   5   8
HETATM    8  S   UNL     1     -12.152  13.612  66.350  1.00  0.00    -0.425 S  
HETATM    9  O   UNL     1     -13.356  14.074  65.694  1.00  0.00    -0.636 OA 
HETATM   10  O   UNL     1     -12.228  12.875  67.599  1.00  0.00    -0.268 OA 
BRANCH   8  11
HETATM   11  N   UNL     1     -11.179  14.922  66.672  1.00  0.00    -0.345 N  
HETATM   12  H   UNL     1     -11.082  15.237  67.638  1.00  0.00     0.000 HD 
BRANCH  11  13
HETATM   13  C   UNL     1     -10.494  15.602  65.677  1.00  0.00    -0.382 C  
HETATM   14  O   UNL     1     -10.902  15.642  64.524  1.00  0.00    -0.394 OA 
BRANCH  13  15
HETATM   15  N   UNL     1      -9.314  16.181  66.113  1.00  0.00    -0.312 N  
HETATM   16  H   UNL     1      -8.428  15.764  65.829  1.00  0.00     0.000 HD 
BRANCH  15  17
HETATM   17  N   UNL     1      -9.293  17.342  66.947  1.00  0.00    -0.247 NA 
HETATM   18  C   UNL     1      -7.916  17.852  67.087  1.00  0.00    -0.210 C  
HETATM   19  C   UNL     1      -7.712  19.117  67.928  1.00  0.00    -0.308 C  
HETATM   20  C   UNL     1      -8.280  20.369  67.267  1.00  0.00    -0.390 C  
HETATM   21  C   UNL     1      -9.762  20.598  67.540  1.00  0.00    -0.509 C  
HETATM   22  C   UNL     1     -10.633  19.347  67.577  1.00  0.00    -0.591 C  
HETATM   23  C   UNL     1     -10.293  18.324  66.496  1.00  0.00    -0.392 C  
ENDBRANCH  15  17
ENDBRANCH  13  15
ENDBRANCH  11  13
ENDBRANCH   8  11
ENDBRANCH   5   8
TORSDOF 5
ENDMDL
MODEL       79
REMARK 921   NORMALIZED FREE ENERGY PREDICTED BY IDOCK:   -5.35 KCAL/MOL
REMARK 922        TOTAL FREE ENERGY PREDICTED BY IDOCK:   -7.45 KCAL/MOL
REMARK 923 INTER-LIGAND FREE ENERGY PREDICTED BY IDOCK:   -6.40 KCAL/MOL
REMARK 924 INTRA-LIGAND FREE ENERGY PREDICTED BY IDOCK:   -1.05 KCAL/MOL
REMARK 927      BINDING AFFINITY PREDICTED BY RF-SCORE:    0.00 PKD
ROOT
HETATM    1  C   UNL     1     -12.024  13.143  63.447  1.00  0.00    -0.552 C  
HETATM    2  C   UNL     1     -11.552  12.349  64.631  1.00  0.00    -0.400 A  
HETATM    3  C   UNL     1     -11.997  12.658  65.923  1.00  0.00    -0.497 A  
HETATM    4  C   UNL     1     -11.503  11.960  67.027  1.00  0.00    -0.384 A  
HETATM    5  C   UNL     1     -10.564  10.942  66.836  1.00  0.00    -0.261 A  
HETATM    6  C   UNL     1     -10.625  11.312  64.453  1.00  0.00    -0.410 A  
HETATM    7  C   UNL     1     -10.131  10.605  65.553  1.00  0.00    -0.343 A  
ENDROOT
BRANCH   5   8
HETATM    8  S   UNL     1      -9.895  10.113  68.256  1.00  0.00    -0.149 S  
HETATM    9  O   UNL     1     -10.962   9.772  69.171  1.00  0.00    -0.222 OA 
HETATM   10  O   UNL     1      -8.991   9.089  67.761  1.00  0.00    -0.128 OA 
BRANCH   8  11
HETATM   11  N   UNL     1      -8.917  11.253  68.971  1.00  0.00    -0.381 N  
HETATM   12  H   UNL     1      -8.907  11.324  69.988  1.00  0.00     0.000 HD 
BRANCH  11  13
HETATM   13  C   UNL     1      -8.114  12.110  68.234  1.00  0.00    -0.166 C  
HETATM   14  O   UNL     1      -7.305  11.695  67.416  1.00  0.00    -0.110 OA 
BRANCH  13  15
HETATM   15  N   UNL     1      -8.302  13.447  68.544  1.00  0.00    -0.286 N  
HETATM   16  H   UNL     1      -7.721  13.870  69.267  1.00  0.00     0.000 HD 
BRANCH  15  17
HETATM   17  N   UNL     1      -9.282  14.255  67.888  1.00  0.00    -0.187 NA 
HETATM   18  C   UNL     1     -10.092  14.991  68.879  1.00  0.00    -0.234 C  
HETATM   19  C   UNL     1     -11.175  15.935  68.346  1.00  0.00    -0.368 C  
HETATM   20  C   UNL     1     -10.603  17.170  67.658  1.00  0.00    -0.343 C  
HETATM   21  C   UNL     1     -10.264  16.960  66.187  1.00  0.00    -0.352 C  
HETATM   22  C   UNL     1      -9.676  15.600  65.827  1.00  0.00    -0.380 C  
HETATM   23  C   UNL     1      -8.659  15.078  66.838  1.00  0.00    -0.249 C  
ENDBRANCH  15  17
ENDBRANCH  13  15
ENDBRANCH  11  13
ENDBRANCH   8  11
ENDBRANCH   5   8
TORSDOF 5
ENDMDL
MODEL       80
REMARK 921   NORMALIZED FREE ENERGY PREDICTED BY IDOCK:   -5.33 KCAL/MOL
REMARK 922        TOTAL FREE ENERGY PREDICTED BY IDOCK:   -7.43 KCAL/MOL
REMARK 923 INTER-LIGAND FREE ENERGY PREDICTED BY IDOCK:   -6.85 KCAL/MOL
REMARK 924 INTRA-LIGAND FREE ENERGY PREDICTED BY IDOCK:   -0.58 KCAL/MOL
REMARK 927      BINDING AFFINITY PREDICTED BY RF-SCORE:    0.00 PKD
ROOT
HETATM    1  C   UNL     1      -8.261   7.365  65.128  1.00  0.00    -0.115 C  
HETATM    2  C   UNL     1      -8.987   8.648  65.412  1.00  0.00    -0.181 A  
HETATM    3  C   UNL     1      -9.619   8.855  66.645  1.00  0.00    -0.281 A  
HETATM    4  C   UNL     1     -10.350  10.021  66.879  1.00  0.00    -0.297 A  
HETATM    5  C   UNL     1     -10.440  10.991  65.876  1.00  0.00    -0.240 A  
HETATM    6  C   UNL     1      -9.070   9.639  64.423  1.00  0.00    -0.279 A  
HETATM    7  C   UNL     1      -9.794  10.812  64.652  1.00  0.00    -0.366 A  
ENDROOT
BRANCH   5   8
HETATM    8  S   UNL     1     -11.431  12.436  66.165  1.00  0.00    -0.394 S  
HETATM    9  O   UNL     1     -10.581  13.605  66.232  1.00  0.00    -0.283 OA 
HETATM   10  O   UNL     1     -12.540  12.382  65.230  1.00  0.00    -0.636 OA 
BRANCH   8  11
HETATM   11  N   UNL     1     -12.106  12.175  67.663  1.00  0.00    -0.089 N  
HETATM   12  H   UNL     1     -12.770  11.410  67.776  1.00  0.00     0.000 HD 
BRANCH  11  13
HETATM   13  C   UNL     1     -11.799  12.961  68.763  1.00  0.00    -0.315 C  
HETATM   14  O   UNL     1     -12.005  14.167  68.774  1.00  0.00    -0.334 OA 
BRANCH  13  15
HETATM   15  N   UNL     1     -11.217  12.254  69.802  1.00  0.00    -0.486 N  
HETATM   16  H   UNL     1     -10.466  12.693  70.335  1.00  0.00     0.000 HD 
BRANCH  15  17
HETATM   17  N   UNL     1     -11.629  10.932  70.155  1.00  0.00    -0.314 NA 
HETATM   18  C   UNL     1     -10.455  10.064  70.367  1.00  0.00    -0.240 C  
HETATM   19  C   UNL     1     -10.715   8.612  70.784  1.00  0.00    -0.260 C  
HETATM   20  C   UNL     1     -11.263   8.488  72.202  1.00  0.00    -0.432 C  
HETATM   21  C   UNL     1     -12.777   8.637  72.297  1.00  0.00    -0.450 C  
HETATM   22  C   UNL     1     -13.404   9.674  71.372  1.00  0.00    -0.444 C  
HETATM   23  C   UNL     1     -12.602  10.968  71.259  1.00  0.00    -0.412 C  
ENDBRANCH  15  17
ENDBRANCH  13  15
ENDBRANCH  11  13
ENDBRANCH   8  11
ENDBRANCH   5   8
TORSDOF 5
ENDMDL
MODEL       81
REMARK 921   NORMALIZED FREE ENERGY PREDICTED BY IDOCK:   -5.33 KCAL/MOL
REMARK 922        TOTAL FREE ENERGY PREDICTED BY IDOCK:   -7.43 KCAL/MOL
REMARK 923 INTER-LIGAND FREE ENERGY PREDICTED BY IDOCK:   -6.88 KCAL/MOL
REMARK 924 INTRA-LIGAND FREE ENERGY PREDICTED BY IDOCK:   -0.55 KCAL/MOL
REMARK 927      BINDING AFFINITY PREDICTED BY RF-SCORE:    0.00 PKD
ROOT
HETATM    1  C   UNL     1     -13.782  13.193  72.306  1.00  0.00    -0.647 C  
HETATM    2  C   UNL     1     -12.811  13.976  71.469  1.00  0.00    -0.440 A  
HETATM    3  C   UNL     1     -12.480  15.296  71.805  1.00  0.00    -0.431 A  
HETATM    4  C   UNL     1     -11.630  16.042  70.987  1.00  0.00    -0.472 A  
HETATM    5  C   UNL     1     -11.101  15.461  69.830  1.00  0.00    -0.288 A  
HETATM    6  C   UNL     1     -12.258  13.401  70.316  1.00  0.00    -0.405 A  
HETATM    7  C   UNL     1     -11.401  14.140  69.496  1.00  0.00    -0.308 A  
ENDROOT
BRANCH   5   8
HETATM    8  S   UNL     1     -10.079  16.447  68.764  1.00  0.00    -0.263 S  
HETATM    9  O   UNL     1     -10.430  17.843  68.906  1.00  0.00    -0.322 OA 
HETATM   10  O   UNL     1      -8.710  16.005  68.966  1.00  0.00    -0.219 OA 
BRANCH   8  11
HETATM   11  N   UNL     1     -10.481  15.943  67.231  1.00  0.00    -0.305 N  
HETATM   12  H   UNL     1     -11.468  15.850  66.987  1.00  0.00     0.000 HD 
BRANCH  11  13
HETATM   13  C   UNL     1      -9.526  15.646  66.272  1.00  0.00    -0.319 C  
HETATM   14  O   UNL     1      -8.493  16.293  66.167  1.00  0.00    -0.325 OA 
BRANCH  13  15
HETATM   15  N   UNL     1      -9.878  14.589  65.449  1.00  0.00    -0.520 N  
HETATM   16  H   UNL     1     -10.213  14.790  64.508  1.00  0.00     0.000 HD 
BRANCH  15  17
HETATM   17  N   UNL     1      -9.789  13.227  65.872  1.00  0.00    -0.262 NA 
HETATM   18  C   UNL     1      -8.799  13.086  66.957  1.00  0.00    -0.212 C  
HETATM   19  C   UNL     1      -8.598  11.688  67.554  1.00  0.00    -0.149 C  
HETATM   20  C   UNL     1      -9.795  11.210  68.367  1.00  0.00    -0.188 C  
HETATM   21  C   UNL     1     -10.884  10.541  67.535  1.00  0.00    -0.357 C  
HETATM   22  C   UNL     1     -11.145  11.156  66.165  1.00  0.00    -0.152 C  
HETATM   23  C   UNL     1     -11.127  12.682  66.156  1.00  0.00    -0.292 C  
ENDBRANCH  15  17
ENDBRANCH  13  15
ENDBRANCH  11  13
ENDBRANCH   8  11
ENDBRANCH   5   8
TORSDOF 5
ENDMDL
MODEL       82
REMARK 921   NORMALIZED FREE ENERGY PREDICTED BY IDOCK:   -5.33 KCAL/MOL
REMARK 922        TOTAL FREE ENERGY PREDICTED BY IDOCK:   -7.42 KCAL/MOL
REMARK 923 INTER-LIGAND FREE ENERGY PREDICTED BY IDOCK:   -6.66 KCAL/MOL
REMARK 924 INTRA-LIGAND FREE ENERGY PREDICTED BY IDOCK:   -0.76 KCAL/MOL
REMARK 927      BINDING AFFINITY PREDICTED BY RF-SCORE:    0.00 PKD
ROOT
HETATM    1  C   UNL     1     -14.022  15.110  72.073  1.00  0.00    -0.629 C  
HETATM    2  C   UNL     1     -13.156  14.295  71.157  1.00  0.00    -0.412 A  
HETATM    3  C   UNL     1     -12.428  14.907  70.128  1.00  0.00    -0.353 A  
HETATM    4  C   UNL     1     -11.678  14.138  69.237  1.00  0.00    -0.368 A  
HETATM    5  C   UNL     1     -11.648  12.747  69.382  1.00  0.00    -0.298 A  
HETATM    6  C   UNL     1     -13.100  12.901  71.302  1.00  0.00    -0.253 A  
HETATM    7  C   UNL     1     -12.346  12.125  70.418  1.00  0.00    -0.315 A  
ENDROOT
BRANCH   5   8
HETATM    8  S   UNL     1     -10.745  11.779  68.199  1.00  0.00    -0.226 S  
HETATM    9  O   UNL     1     -10.875  12.370  66.884  1.00  0.00    -0.239 OA 
HETATM   10  O   UNL     1      -9.433  11.530  68.770  1.00  0.00    -0.175 OA 
BRANCH   8  11
HETATM   11  N   UNL     1     -11.515  10.305  68.205  1.00  0.00    -0.525 N  
HETATM   12  H   UNL     1     -12.488  10.259  68.506  1.00  0.00     0.000 HD 
BRANCH  11  13
HETATM   13  C   UNL     1     -10.880   9.135  67.816  1.00  0.00    -0.092 C  
HETATM   14  O   UNL     1     -10.398   9.002  66.700  1.00  0.00    -0.263 OA 
BRANCH  13  15
HETATM   15  N   UNL     1     -10.887   8.152  68.792  1.00  0.00    -0.421 N  
HETATM   16  H   UNL     1     -11.105   7.193  68.522  1.00  0.00     0.000 HD 
BRANCH  15  17
HETATM   17  N   UNL     1     -10.599   8.432  70.164  1.00  0.00    -0.229 NA 
HETATM   18  C   UNL     1     -11.768   8.127  71.010  1.00  0.00    -0.274 C  
HETATM   19  C   UNL     1     -11.623   8.341  72.521  1.00  0.00    -0.454 C  
HETATM   20  C   UNL     1     -10.684   7.335  73.177  1.00  0.00    -0.411 C  
HETATM   21  C   UNL     1      -9.213   7.731  73.125  1.00  0.00    -0.302 C  
HETATM   22  C   UNL     1      -8.754   8.411  71.839  1.00  0.00    -0.258 C  
HETATM   23  C   UNL     1      -9.335   7.794  70.570  1.00  0.00    -0.163 C  
ENDBRANCH  15  17
ENDBRANCH  13  15
ENDBRANCH  11  13
ENDBRANCH   8  11
ENDBRANCH   5   8
TORSDOF 5
ENDMDL
MODEL       83
REMARK 921   NORMALIZED FREE ENERGY PREDICTED BY IDOCK:   -5.32 KCAL/MOL
REMARK 922        TOTAL FREE ENERGY PREDICTED BY IDOCK:   -7.41 KCAL/MOL
REMARK 923 INTER-LIGAND FREE ENERGY PREDICTED BY IDOCK:   -6.73 KCAL/MOL
REMARK 924 INTRA-LIGAND FREE ENERGY PREDICTED BY IDOCK:   -0.68 KCAL/MOL
REMARK 927      BINDING AFFINITY PREDICTED BY RF-SCORE:    0.00 PKD
ROOT
HETATM    1  C   UNL     1     -11.630   4.868  73.229  1.00  0.00    -0.276 C  
HETATM    2  C   UNL     1     -11.045   6.002  72.438  1.00  0.00    -0.321 A  
HETATM    3  C   UNL     1     -11.109   7.317  72.917  1.00  0.00    -0.369 A  
HETATM    4  C   UNL     1     -10.624   8.375  72.146  1.00  0.00    -0.400 A  
HETATM    5  C   UNL     1     -10.063   8.115  70.892  1.00  0.00    -0.188 A  
HETATM    6  C   UNL     1     -10.462   5.754  71.186  1.00  0.00    -0.301 A  
HETATM    7  C   UNL     1      -9.969   6.808  70.413  1.00  0.00    -0.193 A  
ENDROOT
BRANCH   5   8
HETATM    8  S   UNL     1      -9.516   9.479  69.897  1.00  0.00    -0.236 S  
HETATM    9  O   UNL     1      -8.232   9.947  70.374  1.00  0.00    -0.172 OA 
HETATM   10  O   UNL     1      -9.689   9.086  68.510  1.00  0.00    -0.154 OA 
BRANCH   8  11
HETATM   11  N   UNL     1     -10.654  10.662  70.163  1.00  0.00    -0.458 N  
HETATM   12  H   UNL     1     -10.784  11.014  71.112  1.00  0.00     0.000 HD 
BRANCH  11  13
HETATM   13  C   UNL     1     -11.431  11.187  69.143  1.00  0.00    -0.298 C  
HETATM   14  O   UNL     1     -12.652  11.105  69.153  1.00  0.00    -0.358 OA 
BRANCH  13  15
HETATM   15  N   UNL     1     -10.691  11.766  68.126  1.00  0.00    -0.204 N  
HETATM   16  H   UNL     1      -9.862  12.308  68.369  1.00  0.00     0.000 HD 
BRANCH  15  17
HETATM   17  N   UNL     1     -11.047  11.632  66.748  1.00  0.00    -0.298 NA 
HETATM   18  C   UNL     1     -11.839  12.795  66.303  1.00  0.00    -0.423 C  
HETATM   19  C   UNL     1     -12.280  12.831  64.836  1.00  0.00    -0.519 C  
HETATM   20  C   UNL     1     -11.121  13.049  63.870  1.00  0.00    -0.411 C  
HETATM   21  C   UNL     1     -10.395  11.769  63.472  1.00  0.00    -0.490 C  
HETATM   22  C   UNL     1     -10.227  10.730  64.574  1.00  0.00    -0.428 C  
HETATM   23  C   UNL     1      -9.860  11.321  65.933  1.00  0.00    -0.232 C  
ENDBRANCH  15  17
ENDBRANCH  13  15
ENDBRANCH  11  13
ENDBRANCH   8  11
ENDBRANCH   5   8
TORSDOF 5
ENDMDL
MODEL       84
REMARK 921   NORMALIZED FREE ENERGY PREDICTED BY IDOCK:   -5.29 KCAL/MOL
REMARK 922        TOTAL FREE ENERGY PREDICTED BY IDOCK:   -7.37 KCAL/MOL
REMARK 923 INTER-LIGAND FREE ENERGY PREDICTED BY IDOCK:   -6.61 KCAL/MOL
REMARK 924 INTRA-LIGAND FREE ENERGY PREDICTED BY IDOCK:   -0.75 KCAL/MOL
REMARK 927      BINDING AFFINITY PREDICTED BY RF-SCORE:    0.00 PKD
ROOT
HETATM    1  C   UNL     1      -7.807   7.130  65.709  1.00  0.00    -0.109 C  
HETATM    2  C   UNL     1      -8.576   8.368  65.351  1.00  0.00    -0.193 A  
HETATM    3  C   UNL     1      -9.481   8.936  66.258  1.00  0.00    -0.304 A  
HETATM    4  C   UNL     1     -10.243  10.048  65.895  1.00  0.00    -0.275 A  
HETATM    5  C   UNL     1     -10.093  10.601  64.619  1.00  0.00    -0.349 A  
HETATM    6  C   UNL     1      -8.422   8.946  64.082  1.00  0.00    -0.156 A  
HETATM    7  C   UNL     1      -9.177  10.063  63.714  1.00  0.00    -0.314 A  
ENDROOT
BRANCH   5   8
HETATM    8  S   UNL     1     -11.120  11.971  64.151  1.00  0.00    -0.402 S  
HETATM    9  O   UNL     1     -10.294  13.125  63.866  1.00  0.00    -0.354 OA 
HETATM   10  O   UNL     1     -12.061  11.474  63.163  1.00  0.00    -0.254 OA 
BRANCH   8  11
HETATM   11  N   UNL     1     -12.030  12.282  65.507  1.00  0.00    -0.386 N  
HETATM   12  H   UNL     1     -12.443  11.498  66.012  1.00  0.00     0.000 HD 
BRANCH  11  13
HETATM   13  C   UNL     1     -12.248  13.568  65.976  1.00  0.00    -0.445 C  
HETATM   14  O   UNL     1     -13.264  14.192  65.704  1.00  0.00    -0.615 OA 
BRANCH  13  15
HETATM   15  N   UNL     1     -11.201  14.065  66.735  1.00  0.00    -0.307 N  
HETATM   16  H   UNL     1     -10.501  13.414  67.092  1.00  0.00     0.000 HD 
BRANCH  15  17
HETATM   17  N   UNL     1     -11.065  15.455  67.036  1.00  0.00    -0.307 NA 
HETATM   18  C   UNL     1     -10.694  15.643  68.452  1.00  0.00    -0.271 C  
HETATM   19  C   UNL     1     -10.476  17.079  68.941  1.00  0.00    -0.347 C  
HETATM   20  C   UNL     1      -9.221  17.722  68.360  1.00  0.00    -0.285 C  
HETATM   21  C   UNL     1      -9.429  18.371  66.997  1.00  0.00    -0.281 C  
HETATM   22  C   UNL     1     -10.365  17.633  66.046  1.00  0.00    -0.305 C  
HETATM   23  C   UNL     1     -10.188  16.116  66.055  1.00  0.00    -0.356 C  
ENDBRANCH  15  17
ENDBRANCH  13  15
ENDBRANCH  11  13
ENDBRANCH   8  11
ENDBRANCH   5   8
TORSDOF 5
ENDMDL
MODEL       85
REMARK 921   NORMALIZED FREE ENERGY PREDICTED BY IDOCK:   -5.28 KCAL/MOL
REMARK 922        TOTAL FREE ENERGY PREDICTED BY IDOCK:   -7.36 KCAL/MOL
REMARK 923 INTER-LIGAND FREE ENERGY PREDICTED BY IDOCK:   -7.31 KCAL/MOL
REMARK 924 INTRA-LIGAND FREE ENERGY PREDICTED BY IDOCK:   -0.05 KCAL/MOL
REMARK 927      BINDING AFFINITY PREDICTED BY RF-SCORE:    0.00 PKD
ROOT
HETATM    1  C   UNL     1      -9.255   3.444  70.224  1.00  0.00    -0.226 C  
HETATM    2  C   UNL     1     -10.113   4.625  70.577  1.00  0.00    -0.263 A  
HETATM    3  C   UNL     1     -10.481   4.869  71.907  1.00  0.00    -0.233 A  
HETATM    4  C   UNL     1     -11.335   5.929  72.222  1.00  0.00    -0.351 A  
HETATM    5  C   UNL     1     -11.815   6.754  71.200  1.00  0.00    -0.360 A  
HETATM    6  C   UNL     1     -10.587   5.473  69.566  1.00  0.00    -0.366 A  
HETATM    7  C   UNL     1     -11.436   6.539  69.874  1.00  0.00    -0.467 A  
ENDROOT
BRANCH   5   8
HETATM    8  S   UNL     1     -12.954   8.052  71.609  1.00  0.00    -0.313 S  
HETATM    9  O   UNL     1     -14.312   7.581  71.444  1.00  0.00    -0.441 OA 
HETATM   10  O   UNL     1     -12.516   8.615  72.875  1.00  0.00    -0.278 OA 
BRANCH   8  11
HETATM   11  N   UNL     1     -12.653   9.233  70.477  1.00  0.00    -0.466 N  
HETATM   12  H   UNL     1     -12.797   9.016  69.491  1.00  0.00     0.000 HD 
BRANCH  11  13
HETATM   13  C   UNL     1     -12.213  10.500  70.825  1.00  0.00    -0.369 C  
HETATM   14  O   UNL     1     -12.886  11.250  71.518  1.00  0.00    -0.416 OA 
BRANCH  13  15
HETATM   15  N   UNL     1     -10.979  10.825  70.285  1.00  0.00    -0.463 N  
HETATM   16  H   UNL     1     -10.139  10.434  70.710  1.00  0.00     0.000 HD 
BRANCH  15  17
HETATM   17  N   UNL     1     -10.840  11.689  69.155  1.00  0.00    -0.211 NA 
HETATM   18  C   UNL     1     -10.889  10.911  67.902  1.00  0.00    -0.247 C  
HETATM   19  C   UNL     1     -10.786  11.687  66.584  1.00  0.00    -0.327 C  
HETATM   20  C   UNL     1     -12.020  12.535  66.293  1.00  0.00    -0.410 C  
HETATM   21  C   UNL     1     -11.992  13.914  66.942  1.00  0.00    -0.467 C  
HETATM   22  C   UNL     1     -11.386  13.980  68.340  1.00  0.00    -0.321 C  
HETATM   23  C   UNL     1     -11.785  12.815  69.242  1.00  0.00    -0.319 C  
ENDBRANCH  15  17
ENDBRANCH  13  15
ENDBRANCH  11  13
ENDBRANCH   8  11
ENDBRANCH   5   8
TORSDOF 5
ENDMDL
MODEL       86
REMARK 921   NORMALIZED FREE ENERGY PREDICTED BY IDOCK:   -5.28 KCAL/MOL
REMARK 922        TOTAL FREE ENERGY PREDICTED BY IDOCK:   -7.36 KCAL/MOL
REMARK 923 INTER-LIGAND FREE ENERGY PREDICTED BY IDOCK:   -6.42 KCAL/MOL
REMARK 924 INTRA-LIGAND FREE ENERGY PREDICTED BY IDOCK:   -0.94 KCAL/MOL
REMARK 927      BINDING AFFINITY PREDICTED BY RF-SCORE:    0.00 PKD
ROOT
HETATM    1  C   UNL     1     -11.683  13.626  67.229  1.00  0.00    -0.416 C  
HETATM    2  C   UNL     1     -11.688  12.594  68.319  1.00  0.00    -0.389 A  
HETATM    3  C   UNL     1     -11.322  11.268  68.050  1.00  0.00    -0.372 A  
HETATM    4  C   UNL     1     -11.394  10.298  69.052  1.00  0.00    -0.237 A  
HETATM    5  C   UNL     1     -11.824  10.659  70.332  1.00  0.00    -0.349 A  
HETATM    6  C   UNL     1     -12.099  12.944  69.613  1.00  0.00    -0.290 A  
HETATM    7  C   UNL     1     -12.167  11.980  70.622  1.00  0.00    -0.409 A  
ENDROOT
BRANCH   5   8
HETATM    8  S   UNL     1     -11.976   9.399  71.574  1.00  0.00    -0.405 S  
HETATM    9  O   UNL     1     -10.670   9.087  72.114  1.00  0.00    -0.332 OA 
HETATM   10  O   UNL     1     -13.062   9.798  72.451  1.00  0.00    -0.388 OA 
BRANCH   8  11
HETATM   11  N   UNL     1     -12.545   8.074  70.745  1.00  0.00    -0.496 N  
HETATM   12  H   UNL     1     -13.265   8.211  70.035  1.00  0.00     0.000 HD 
BRANCH  11  13
HETATM   13  C   UNL     1     -12.078   6.791  70.984  1.00  0.00    -0.372 C  
HETATM   14  O   UNL     1     -12.141   6.277  72.092  1.00  0.00    -0.333 OA 
BRANCH  13  15
HETATM   15  N   UNL     1     -11.516   6.191  69.870  1.00  0.00    -0.394 N  
HETATM   16  H   UNL     1     -11.785   5.235  69.639  1.00  0.00     0.000 HD 
BRANCH  15  17
HETATM   17  N   UNL     1     -10.573   6.863  69.031  1.00  0.00    -0.207 NA 
HETATM   18  C   UNL     1      -9.236   6.863  69.655  1.00  0.00    -0.146 C  
HETATM   19  C   UNL     1      -8.091   7.518  68.874  1.00  0.00    -0.127 C  
HETATM   20  C   UNL     1      -7.688   6.728  67.633  1.00  0.00    -0.111 C  
HETATM   21  C   UNL     1      -8.522   7.045  66.397  1.00  0.00    -0.130 C  
HETATM   22  C   UNL     1     -10.007   7.291  66.642  1.00  0.00    -0.246 C  
HETATM   23  C   UNL     1     -10.634   6.339  67.657  1.00  0.00    -0.271 C  
ENDBRANCH  15  17
ENDBRANCH  13  15
ENDBRANCH  11  13
ENDBRANCH   8  11
ENDBRANCH   5   8
TORSDOF 5
ENDMDL
MODEL       87
REMARK 921   NORMALIZED FREE ENERGY PREDICTED BY IDOCK:   -5.26 KCAL/MOL
REMARK 922        TOTAL FREE ENERGY PREDICTED BY IDOCK:   -7.33 KCAL/MOL
REMARK 923 INTER-LIGAND FREE ENERGY PREDICTED BY IDOCK:   -6.42 KCAL/MOL
REMARK 924 INTRA-LIGAND FREE ENERGY PREDICTED BY IDOCK:   -0.91 KCAL/MOL
REMARK 927      BINDING AFFINITY PREDICTED BY RF-SCORE:    0.00 PKD
ROOT
HETATM    1  C   UNL     1      -8.637   8.881  64.963  1.00  0.00    -0.202 C  
HETATM    2  C   UNL     1      -9.169  10.175  65.510  1.00  0.00    -0.237 A  
HETATM    3  C   UNL     1      -8.508  10.836  66.554  1.00  0.00    -0.147 A  
HETATM    4  C   UNL     1      -9.043  12.002  67.104  1.00  0.00    -0.186 A  
HETATM    5  C   UNL     1     -10.242  12.515  66.600  1.00  0.00    -0.230 A  
HETATM    6  C   UNL     1     -10.360  10.713  65.002  1.00  0.00    -0.341 A  
HETATM    7  C   UNL     1     -10.898  11.883  65.543  1.00  0.00    -0.343 A  
ENDROOT
BRANCH   5   8
HETATM    8  S   UNL     1     -10.943  13.960  67.357  1.00  0.00    -0.294 S  
HETATM    9  O   UNL     1     -10.182  15.130  66.976  1.00  0.00    -0.255 OA 
HETATM   10  O   UNL     1     -12.376  13.904  67.127  1.00  0.00    -0.372 OA 
BRANCH   8  11
HETATM   11  N   UNL     1     -10.751  13.700  68.989  1.00  0.00    -0.377 N  
HETATM   12  H   UNL     1      -9.831  13.847  69.405  1.00  0.00     0.000 HD 
BRANCH  11  13
HETATM   13  C   UNL     1     -11.795  13.292  69.804  1.00  0.00    -0.325 C  
HETATM   14  O   UNL     1     -12.310  14.044  70.620  1.00  0.00    -0.330 OA 
BRANCH  13  15
HETATM   15  N   UNL     1     -12.154  11.967  69.621  1.00  0.00    -0.270 N  
HETATM   16  H   UNL     1     -12.633  11.702  68.760  1.00  0.00     0.000 HD 
BRANCH  15  17
HETATM   17  N   UNL     1     -11.878  10.957  70.594  1.00  0.00    -0.347 NA 
HETATM   18  C   UNL     1     -13.129  10.316  71.042  1.00  0.00    -0.373 C  
HETATM   19  C   UNL     1     -13.016   9.182  72.067  1.00  0.00    -0.496 C  
HETATM   20  C   UNL     1     -12.386   7.918  71.490  1.00  0.00    -0.340 C  
HETATM   21  C   UNL     1     -10.862   7.911  71.526  1.00  0.00    -0.268 C  
HETATM   22  C   UNL     1     -10.184   9.247  71.241  1.00  0.00    -0.383 C  
HETATM   23  C   UNL     1     -10.831  10.041  70.110  1.00  0.00    -0.311 C  
ENDBRANCH  15  17
ENDBRANCH  13  15
ENDBRANCH  11  13
ENDBRANCH   8  11
ENDBRANCH   5   8
TORSDOF 5
ENDMDL
MODEL       88
REMARK 921   NORMALIZED FREE ENERGY PREDICTED BY IDOCK:   -5.25 KCAL/MOL
REMARK 922        TOTAL FREE ENERGY PREDICTED BY IDOCK:   -7.32 KCAL/MOL
REMARK 923 INTER-LIGAND FREE ENERGY PREDICTED BY IDOCK:   -6.50 KCAL/MOL
REMARK 924 INTRA-LIGAND FREE ENERGY PREDICTED BY IDOCK:   -0.82 KCAL/MOL
REMARK 927      BINDING AFFINITY PREDICTED BY RF-SCORE:    0.00 PKD
ROOT
HETATM    1  C   UNL     1     -12.759  14.207  65.256  1.00  0.00    -0.425 C  
HETATM    2  C   UNL     1     -11.928  13.007  65.607  1.00  0.00    -0.479 A  
HETATM    3  C   UNL     1     -11.219  12.313  64.618  1.00  0.00    -0.363 A  
HETATM    4  C   UNL     1     -10.503  11.158  64.939  1.00  0.00    -0.372 A  
HETATM    5  C   UNL     1     -10.487  10.702  66.261  1.00  0.00    -0.203 A  
HETATM    6  C   UNL     1     -11.886  12.548  66.932  1.00  0.00    -0.404 A  
HETATM    7  C   UNL     1     -11.166  11.397  67.262  1.00  0.00    -0.370 A  
ENDROOT
BRANCH   5   8
HETATM    8  S   UNL     1      -9.629   9.194  66.638  1.00  0.00    -0.224 S  
HETATM    9  O   UNL     1      -9.017   8.667  65.437  1.00  0.00    -0.189 OA 
HETATM   10  O   UNL     1      -8.830   9.448  67.824  1.00  0.00    -0.123 OA 
BRANCH   8  11
HETATM   11  N   UNL     1     -10.829   8.153  67.132  1.00  0.00    -0.465 N  
HETATM   12  H   UNL     1     -11.782   8.507  67.217  1.00  0.00     0.000 HD 
BRANCH  11  13
HETATM   13  C   UNL     1     -10.580   6.823  67.432  1.00  0.00    -0.302 C  
HETATM   14  O   UNL     1     -10.970   5.914  66.712  1.00  0.00    -0.299 OA 
BRANCH  13  15
HETATM   15  N   UNL     1      -9.893   6.644  68.621  1.00  0.00    -0.135 N  
HETATM   16  H   UNL     1      -9.031   6.098  68.613  1.00  0.00     0.000 HD 
BRANCH  15  17
HETATM   17  N   UNL     1     -10.346   7.195  69.859  1.00  0.00    -0.207 NA 
HETATM   18  C   UNL     1     -11.392   6.341  70.453  1.00  0.00    -0.372 C  
HETATM   19  C   UNL     1     -11.973   6.769  71.805  1.00  0.00    -0.382 C  
HETATM   20  C   UNL     1     -10.978   6.624  72.952  1.00  0.00    -0.286 C  
HETATM   21  C   UNL     1     -10.055   7.825  73.130  1.00  0.00    -0.390 C  
HETATM   22  C   UNL     1      -9.578   8.492  71.844  1.00  0.00    -0.353 C  
HETATM   23  C   UNL     1      -9.207   7.509  70.737  1.00  0.00    -0.158 C  
ENDBRANCH  15  17
ENDBRANCH  13  15
ENDBRANCH  11  13
ENDBRANCH   8  11
ENDBRANCH   5   8
TORSDOF 5
ENDMDL
MODEL       89
REMARK 921   NORMALIZED FREE ENERGY PREDICTED BY IDOCK:   -5.22 KCAL/MOL
REMARK 922        TOTAL FREE ENERGY PREDICTED BY IDOCK:   -7.28 KCAL/MOL
REMARK 923 INTER-LIGAND FREE ENERGY PREDICTED BY IDOCK:   -6.50 KCAL/MOL
REMARK 924 INTRA-LIGAND FREE ENERGY PREDICTED BY IDOCK:   -0.78 KCAL/MOL
REMARK 927      BINDING AFFINITY PREDICTED BY RF-SCORE:    0.00 PKD
ROOT
HETATM    1  C   UNL     1      -9.327   8.046  66.074  1.00  0.00    -0.158 C  
HETATM    2  C   UNL     1      -9.601   9.506  66.294  1.00  0.00    -0.287 A  
HETATM    3  C   UNL     1      -9.493  10.071  67.572  1.00  0.00    -0.169 A  
HETATM    4  C   UNL     1      -9.814  11.413  67.782  1.00  0.00    -0.186 A  
HETATM    5  C   UNL     1     -10.238  12.198  66.705  1.00  0.00    -0.203 A  
HETATM    6  C   UNL     1     -10.008  10.311  65.220  1.00  0.00    -0.387 A  
HETATM    7  C   UNL     1     -10.325  11.657  65.422  1.00  0.00    -0.313 A  
ENDROOT
BRANCH   5   8
HETATM    8  S   UNL     1     -10.709  13.883  67.004  1.00  0.00    -0.285 S  
HETATM    9  O   UNL     1     -12.114  13.944  67.344  1.00  0.00    -0.392 OA 
HETATM   10  O   UNL     1      -9.709  14.451  67.891  1.00  0.00    -0.215 OA 
BRANCH   8  11
HETATM   11  N   UNL     1     -10.477  14.638  65.540  1.00  0.00    -0.331 N  
HETATM   12  H   UNL     1     -10.116  14.092  64.757  1.00  0.00     0.000 HD 
BRANCH  11  13
HETATM   13  C   UNL     1     -10.756  15.982  65.345  1.00  0.00    -0.383 C  
HETATM   14  O   UNL     1     -11.038  16.430  64.243  1.00  0.00    -0.845 OA 
BRANCH  13  15
HETATM   15  N   UNL     1     -10.647  16.742  66.498  1.00  0.00    -0.250 N  
HETATM   16  H   UNL     1     -11.360  16.644  67.220  1.00  0.00     0.000 HD 
BRANCH  15  17
HETATM   17  N   UNL     1      -9.571  17.658  66.712  1.00  0.00    -0.283 NA 
HETATM   18  C   UNL     1      -9.660  18.252  68.060  1.00  0.00    -0.304 C  
HETATM   19  C   UNL     1      -8.562  19.240  68.472  1.00  0.00    -0.400 C  
HETATM   20  C   UNL     1      -7.207  18.572  68.680  1.00  0.00    -0.306 C  
HETATM   21  C   UNL     1      -6.389  18.415  67.403  1.00  0.00    -0.189 C  
HETATM   22  C   UNL     1      -7.178  18.065  66.147  1.00  0.00    -0.325 C  
HETATM   23  C   UNL     1      -8.281  17.034  66.375  1.00  0.00    -0.291 C  
ENDBRANCH  15  17
ENDBRANCH  13  15
ENDBRANCH  11  13
ENDBRANCH   8  11
ENDBRANCH   5   8
TORSDOF 5
ENDMDL
MODEL       90
REMARK 921   NORMALIZED FREE ENERGY PREDICTED BY IDOCK:   -5.20 KCAL/MOL
REMARK 922        TOTAL FREE ENERGY PREDICTED BY IDOCK:   -7.26 KCAL/MOL
REMARK 923 INTER-LIGAND FREE ENERGY PREDICTED BY IDOCK:   -6.47 KCAL/MOL
REMARK 924 INTRA-LIGAND FREE ENERGY PREDICTED BY IDOCK:   -0.79 KCAL/MOL
REMARK 927      BINDING AFFINITY PREDICTED BY RF-SCORE:    0.00 PKD
ROOT
HETATM    1  C   UNL     1     -11.321  15.713  64.582  1.00  0.00    -0.355 C  
HETATM    2  C   UNL     1     -11.104  14.473  65.401  1.00  0.00    -0.345 A  
HETATM    3  C   UNL     1     -11.588  13.233  64.965  1.00  0.00    -0.342 A  
HETATM    4  C   UNL     1     -11.442  12.096  65.762  1.00  0.00    -0.414 A  
HETATM    5  C   UNL     1     -10.800  12.200  67.000  1.00  0.00    -0.247 A  
HETATM    6  C   UNL     1     -10.444  14.557  66.636  1.00  0.00    -0.274 A  
HETATM    7  C   UNL     1     -10.290  13.423  67.437  1.00  0.00    -0.240 A  
ENDROOT
BRANCH   5   8
HETATM    8  S   UNL     1     -10.686  10.759  68.031  1.00  0.00    -0.249 S  
HETATM    9  O   UNL     1     -10.752   9.567  67.214  1.00  0.00    -0.263 OA 
HETATM   10  O   UNL     1      -9.569  10.974  68.935  1.00  0.00    -0.196 OA 
BRANCH   8  11
HETATM   11  N   UNL     1     -12.045  10.832  68.988  1.00  0.00    -0.510 N  
HETATM   12  H   UNL     1     -12.890  10.353  68.678  1.00  0.00     0.000 HD 
BRANCH  11  13
HETATM   13  C   UNL     1     -12.070  11.522  70.190  1.00  0.00    -0.351 C  
HETATM   14  O   UNL     1     -12.265  12.728  70.240  1.00  0.00    -0.334 OA 
BRANCH  13  15
HETATM   15  N   UNL     1     -11.822  10.720  71.292  1.00  0.00    -0.197 N  
HETATM   16  H   UNL     1     -11.787  11.152  72.216  1.00  0.00     0.000 HD 
BRANCH  15  17
HETATM   17  N   UNL     1     -11.613   9.311  71.183  1.00  0.00    -0.301 NA 
HETATM   18  C   UNL     1     -10.271   8.947  71.677  1.00  0.00    -0.345 C  
HETATM   19  C   UNL     1      -9.889   7.463  71.662  1.00  0.00    -0.181 C  
HETATM   20  C   UNL     1     -10.664   6.638  72.683  1.00  0.00    -0.265 C  
HETATM   21  C   UNL     1     -12.019   6.148  72.186  1.00  0.00    -0.314 C  
HETATM   22  C   UNL     1     -12.798   7.122  71.309  1.00  0.00    -0.399 C  
HETATM   23  C   UNL     1     -12.735   8.570  71.785  1.00  0.00    -0.349 C  
ENDBRANCH  15  17
ENDBRANCH  13  15
ENDBRANCH  11  13
ENDBRANCH   8  11
ENDBRANCH   5   8
TORSDOF 5
ENDMDL
MODEL       91
REMARK 921   NORMALIZED FREE ENERGY PREDICTED BY IDOCK:   -5.20 KCAL/MOL
REMARK 922        TOTAL FREE ENERGY PREDICTED BY IDOCK:   -7.26 KCAL/MOL
REMARK 923 INTER-LIGAND FREE ENERGY PREDICTED BY IDOCK:   -6.86 KCAL/MOL
REMARK 924 INTRA-LIGAND FREE ENERGY PREDICTED BY IDOCK:   -0.40 KCAL/MOL
REMARK 927      BINDING AFFINITY PREDICTED BY RF-SCORE:    0.00 PKD
ROOT
HETATM    1  C   UNL     1     -11.500   8.477  72.027  1.00  0.00    -0.431 C  
HETATM    2  C   UNL     1     -11.427   9.258  70.746  1.00  0.00    -0.351 A  
HETATM    3  C   UNL     1     -10.630   8.815  69.682  1.00  0.00    -0.220 A  
HETATM    4  C   UNL     1     -10.513   9.581  68.520  1.00  0.00    -0.247 A  
HETATM    5  C   UNL     1     -11.205  10.792  68.419  1.00  0.00    -0.284 A  
HETATM    6  C   UNL     1     -12.130  10.466  70.622  1.00  0.00    -0.443 A  
HETATM    7  C   UNL     1     -12.023  11.233  69.460  1.00  0.00    -0.421 A  
ENDROOT
BRANCH   5   8
HETATM    8  S   UNL     1     -10.989  11.785  66.963  1.00  0.00    -0.300 S  
HETATM    9  O   UNL     1     -10.307  11.016  65.944  1.00  0.00    -0.249 OA 
HETATM   10  O   UNL     1     -12.270  12.409  66.684  1.00  0.00    -0.562 OA 
BRANCH   8  11
HETATM   11  N   UNL     1      -9.995  13.024  67.457  1.00  0.00    -0.209 N  
HETATM   12  H   UNL     1      -9.415  12.888  68.285  1.00  0.00     0.000 HD 
BRANCH  11  13
HETATM   13  C   UNL     1      -9.927  14.234  66.785  1.00  0.00    -0.265 C  
HETATM   14  O   UNL     1      -9.899  14.294  65.564  1.00  0.00    -0.315 OA 
BRANCH  13  15
HETATM   15  N   UNL     1      -9.861  15.331  67.627  1.00  0.00    -0.217 N  
HETATM   16  H   UNL     1      -9.961  15.187  68.632  1.00  0.00     0.000 HD 
BRANCH  15  17
HETATM   17  N   UNL     1      -9.657  16.660  67.140  1.00  0.00    -0.237 NA 
HETATM   18  C   UNL     1     -10.574  17.602  67.811  1.00  0.00    -0.378 C  
HETATM   19  C   UNL     1     -10.470  19.083  67.429  1.00  0.00    -0.539 C  
HETATM   20  C   UNL     1      -9.182  19.735  67.921  1.00  0.00    -0.427 C  
HETATM   21  C   UNL     1      -7.996  19.557  66.979  1.00  0.00    -0.294 C  
HETATM   22  C   UNL     1      -7.897  18.203  66.285  1.00  0.00    -0.280 C  
HETATM   23  C   UNL     1      -8.230  17.018  67.187  1.00  0.00    -0.191 C  
ENDBRANCH  15  17
ENDBRANCH  13  15
ENDBRANCH  11  13
ENDBRANCH   8  11
ENDBRANCH   5   8
TORSDOF 5
ENDMDL
MODEL       92
REMARK 921   NORMALIZED FREE ENERGY PREDICTED BY IDOCK:   -5.20 KCAL/MOL
REMARK 922        TOTAL FREE ENERGY PREDICTED BY IDOCK:   -7.25 KCAL/MOL
REMARK 923 INTER-LIGAND FREE ENERGY PREDICTED BY IDOCK:   -7.24 KCAL/MOL
REMARK 924 INTRA-LIGAND FREE ENERGY PREDICTED BY IDOCK:   -0.01 KCAL/MOL
REMARK 927      BINDING AFFINITY PREDICTED BY RF-SCORE:    0.00 PKD
ROOT
HETATM    1  C   UNL     1     -12.449  13.413  70.996  1.00  0.00    -0.437 C  
HETATM    2  C   UNL     1     -12.103  13.774  69.580  1.00  0.00    -0.386 A  
HETATM    3  C   UNL     1     -11.786  12.780  68.645  1.00  0.00    -0.360 A  
HETATM    4  C   UNL     1     -11.398  13.125  67.349  1.00  0.00    -0.344 A  
HETATM    5  C   UNL     1     -11.338  14.473  66.983  1.00  0.00    -0.349 A  
HETATM    6  C   UNL     1     -12.056  15.121  69.193  1.00  0.00    -0.258 A  
HETATM    7  C   UNL     1     -11.676  15.474  67.895  1.00  0.00    -0.149 A  
ENDROOT
BRANCH   5   8
HETATM    8  S   UNL     1     -10.777  14.897  65.353  1.00  0.00    -0.408 S  
HETATM    9  O   UNL     1     -10.603  16.330  65.253  1.00  0.00    -0.508 OA 
HETATM   10  O   UNL     1      -9.682  13.996  65.036  1.00  0.00    -0.134 OA 
BRANCH   8  11
HETATM   11  N   UNL     1     -12.027  14.435  64.358  1.00  0.00    -0.554 N  
HETATM   12  H   UNL     1     -12.639  15.154  63.972  1.00  0.00     0.000 HD 
BRANCH  11  13
HETATM   13  C   UNL     1     -12.268  13.109  64.034  1.00  0.00    -0.414 C  
HETATM   14  O   UNL     1     -13.170  12.470  64.558  1.00  0.00    -0.832 OA 
BRANCH  13  15
HETATM   15  N   UNL     1     -11.378  12.596  63.106  1.00  0.00    -0.769 N  
HETATM   16  H   UNL     1     -11.252  13.087  62.222  1.00  0.00     0.000 HD 
BRANCH  15  17
HETATM   17  N   UNL     1     -10.628  11.402  63.343  1.00  0.00    -0.388 NA 
HETATM   18  C   UNL     1      -9.363  11.427  62.584  1.00  0.00    -0.204 C  
HETATM   19  C   UNL     1      -8.417  10.233  62.746  1.00  0.00    -0.188 C  
HETATM   20  C   UNL     1      -7.774  10.164  64.127  1.00  0.00    -0.133 C  
HETATM   21  C   UNL     1      -8.623   9.451  65.173  1.00  0.00    -0.188 C  
HETATM   22  C   UNL     1     -10.125   9.698  65.091  1.00  0.00     0.083 C  
HETATM   23  C   UNL     1     -10.499  11.146  64.787  1.00  0.00    -0.323 C  
ENDBRANCH  15  17
ENDBRANCH  13  15
ENDBRANCH  11  13
ENDBRANCH   8  11
ENDBRANCH   5   8
TORSDOF 5
ENDMDL
MODEL       93
REMARK 921   NORMALIZED FREE ENERGY PREDICTED BY IDOCK:   -5.19 KCAL/MOL
REMARK 922        TOTAL FREE ENERGY PREDICTED BY IDOCK:   -7.25 KCAL/MOL
REMARK 923 INTER-LIGAND FREE ENERGY PREDICTED BY IDOCK:   -5.89 KCAL/MOL
REMARK 924 INTRA-LIGAND FREE ENERGY PREDICTED BY IDOCK:   -1.35 KCAL/MOL
REMARK 927      BINDING AFFINITY PREDICTED BY RF-SCORE:    0.00 PKD
ROOT
HETATM    1  C   UNL     1      -9.384   3.828  68.625  1.00  0.00    -0.226 C  
HETATM    2  C   UNL     1      -9.594   5.307  68.473  1.00  0.00    -0.180 A  
HETATM    3  C   UNL     1     -10.635   5.804  67.677  1.00  0.00    -0.313 A  
HETATM    4  C   UNL     1     -10.784   7.179  67.484  1.00  0.00    -0.344 A  
HETATM    5  C   UNL     1      -9.892   8.062  68.099  1.00  0.00    -0.170 A  
HETATM    6  C   UNL     1      -8.719   6.207  69.098  1.00  0.00    -0.121 A  
HETATM    7  C   UNL     1      -8.866   7.584  68.915  1.00  0.00    -0.135 A  
ENDROOT
BRANCH   5   8
HETATM    8  S   UNL     1     -10.054   9.802  67.786  1.00  0.00    -0.193 S  
HETATM    9  O   UNL     1      -9.121  10.536  68.614  1.00  0.00    -0.143 OA 
HETATM   10  O   UNL     1     -10.054   9.974  66.344  1.00  0.00    -0.227 OA 
BRANCH   8  11
HETATM   11  N   UNL     1     -11.603  10.162  68.272  1.00  0.00    -0.500 N  
HETATM   12  H   UNL     1     -12.377   9.957  67.639  1.00  0.00     0.000 HD 
BRANCH  11  13
HETATM   13  C   UNL     1     -11.882  10.731  69.505  1.00  0.00    -0.308 C  
HETATM   14  O   UNL     1     -11.688  11.918  69.727  1.00  0.00    -0.308 OA 
BRANCH  13  15
HETATM   15  N   UNL     1     -12.356   9.825  70.438  1.00  0.00    -0.484 N  
HETATM   16  H   UNL     1     -13.280   9.974  70.842  1.00  0.00     0.000 HD 
BRANCH  15  17
HETATM   17  N   UNL     1     -11.597   8.688  70.856  1.00  0.00    -0.278 NA 
HETATM   18  C   UNL     1     -10.561   9.087  71.827  1.00  0.00    -0.356 C  
HETATM   19  C   UNL     1      -9.671   7.982  72.406  1.00  0.00    -0.305 C  
HETATM   20  C   UNL     1     -10.420   7.045  73.348  1.00  0.00    -0.383 C  
HETATM   21  C   UNL     1     -11.138   5.900  72.643  1.00  0.00    -0.322 C  
HETATM   22  C   UNL     1     -11.785   6.244  71.306  1.00  0.00    -0.300 C  
HETATM   23  C   UNL     1     -12.488   7.598  71.287  1.00  0.00    -0.298 C  
ENDBRANCH  15  17
ENDBRANCH  13  15
ENDBRANCH  11  13
ENDBRANCH   8  11
ENDBRANCH   5   8
TORSDOF 5
ENDMDL
MODEL       94
REMARK 921   NORMALIZED FREE ENERGY PREDICTED BY IDOCK:   -5.18 KCAL/MOL
REMARK 922        TOTAL FREE ENERGY PREDICTED BY IDOCK:   -7.23 KCAL/MOL
REMARK 923 INTER-LIGAND FREE ENERGY PREDICTED BY IDOCK:   -6.40 KCAL/MOL
REMARK 924 INTRA-LIGAND FREE ENERGY PREDICTED BY IDOCK:   -0.83 KCAL/MOL
REMARK 927      BINDING AFFINITY PREDICTED BY RF-SCORE:    0.00 PKD
ROOT
HETATM    1  C   UNL     1      -9.063   6.811  74.557  1.00  0.00    -0.227 C  
HETATM    2  C   UNL     1      -9.483   7.573  73.333  1.00  0.00    -0.306 A  
HETATM    3  C   UNL     1      -8.526   8.125  72.470  1.00  0.00    -0.244 A  
HETATM    4  C   UNL     1      -8.923   8.890  71.371  1.00  0.00    -0.300 A  
HETATM    5  C   UNL     1     -10.284   9.096  71.129  1.00  0.00    -0.314 A  
HETATM    6  C   UNL     1     -10.845   7.772  73.065  1.00  0.00    -0.451 A  
HETATM    7  C   UNL     1     -11.249   8.530  71.964  1.00  0.00    -0.418 A  
ENDROOT
BRANCH   5   8
HETATM    8  S   UNL     1     -10.768  10.128  69.768  1.00  0.00    -0.297 S  
HETATM    9  O   UNL     1     -11.110   9.305  68.628  1.00  0.00    -0.054 OA 
HETATM   10  O   UNL     1     -11.714  11.098  70.289  1.00  0.00    -0.311 OA 
BRANCH   8  11
HETATM   11  N   UNL     1      -9.397  11.000  69.410  1.00  0.00    -0.403 N  
HETATM   12  H   UNL     1      -8.652  11.052  70.104  1.00  0.00     0.000 HD 
BRANCH  11  13
HETATM   13  C   UNL     1      -9.232  11.659  68.201  1.00  0.00    -0.184 C  
HETATM   14  O   UNL     1      -8.160  11.668  67.612  1.00  0.00    -0.128 OA 
BRANCH  13  15
HETATM   15  N   UNL     1     -10.372  12.316  67.769  1.00  0.00    -0.204 N  
HETATM   16  H   UNL     1     -11.205  12.291  68.356  1.00  0.00     0.000 HD 
BRANCH  15  17
HETATM   17  N   UNL     1     -10.423  13.026  66.529  1.00  0.00    -0.274 NA 
HETATM   18  C   UNL     1     -11.413  12.413  65.623  1.00  0.00    -0.367 C  
HETATM   19  C   UNL     1     -11.621  13.069  64.254  1.00  0.00    -0.437 C  
HETATM   20  C   UNL     1     -12.307  14.429  64.344  1.00  0.00    -0.428 C  
HETATM   21  C   UNL     1     -11.352  15.590  64.596  1.00  0.00    -0.363 C  
HETATM   22  C   UNL     1     -10.194  15.305  65.547  1.00  0.00    -0.417 C  
HETATM   23  C   UNL     1     -10.584  14.470  66.764  1.00  0.00    -0.276 C  
ENDBRANCH  15  17
ENDBRANCH  13  15
ENDBRANCH  11  13
ENDBRANCH   8  11
ENDBRANCH   5   8
TORSDOF 5
ENDMDL
MODEL       95
REMARK 921   NORMALIZED FREE ENERGY PREDICTED BY IDOCK:   -5.17 KCAL/MOL
REMARK 922        TOTAL FREE ENERGY PREDICTED BY IDOCK:   -7.22 KCAL/MOL
REMARK 923 INTER-LIGAND FREE ENERGY PREDICTED BY IDOCK:   -6.37 KCAL/MOL
REMARK 924 INTRA-LIGAND FREE ENERGY PREDICTED BY IDOCK:   -0.85 KCAL/MOL
REMARK 927      BINDING AFFINITY PREDICTED BY RF-SCORE:    0.00 PKD
ROOT
HETATM    1  C   UNL     1     -11.285  15.797  64.501  1.00  0.00    -0.334 C  
HETATM    2  C   UNL     1     -11.313  14.836  65.654  1.00  0.00    -0.343 A  
HETATM    3  C   UNL     1     -11.692  13.500  65.463  1.00  0.00    -0.361 A  
HETATM    4  C   UNL     1     -11.782  12.629  66.550  1.00  0.00    -0.463 A  
HETATM    5  C   UNL     1     -11.481  13.094  67.834  1.00  0.00    -0.308 A  
HETATM    6  C   UNL     1     -10.996  15.283  66.945  1.00  0.00    -0.315 A  
HETATM    7  C   UNL     1     -11.077  14.414  68.036  1.00  0.00    -0.287 A  
ENDROOT
BRANCH   5   8
HETATM    8  S   UNL     1     -11.668  11.991  69.213  1.00  0.00    -0.332 S  
HETATM    9  O   UNL     1     -12.089  12.735  70.380  1.00  0.00    -0.363 OA 
HETATM   10  O   UNL     1     -12.440  10.854  68.743  1.00  0.00    -0.431 OA 
BRANCH   8  11
HETATM   11  N   UNL     1     -10.135  11.401  69.474  1.00  0.00    -0.393 N  
HETATM   12  H   UNL     1      -9.565  11.821  70.209  1.00  0.00     0.000 HD 
BRANCH  11  13
HETATM   13  C   UNL     1      -9.603  10.359  68.730  1.00  0.00    -0.177 C  
HETATM   14  O   UNL     1      -8.988  10.556  67.691  1.00  0.00    -0.137 OA 
BRANCH  13  15
HETATM   15  N   UNL     1      -9.869   9.108  69.261  1.00  0.00    -0.170 N  
HETATM   16  H   UNL     1      -9.880   8.302  68.637  1.00  0.00     0.000 HD 
BRANCH  15  17
HETATM   17  N   UNL     1     -10.128   8.905  70.652  1.00  0.00    -0.198 NA 
HETATM   18  C   UNL     1     -11.462   8.306  70.847  1.00  0.00    -0.274 C  
HETATM   19  C   UNL     1     -11.893   7.990  72.283  1.00  0.00    -0.424 C  
HETATM   20  C   UNL     1     -11.108   6.838  72.901  1.00  0.00    -0.277 C  
HETATM   21  C   UNL     1      -9.789   7.256  73.540  1.00  0.00    -0.347 C  
HETATM   22  C   UNL     1      -9.012   8.346  72.809  1.00  0.00    -0.291 C  
HETATM   23  C   UNL     1      -9.010   8.191  71.290  1.00  0.00    -0.146 C  
ENDBRANCH  15  17
ENDBRANCH  13  15
ENDBRANCH  11  13
ENDBRANCH   8  11
ENDBRANCH   5   8
TORSDOF 5
ENDMDL
MODEL       96
REMARK 921   NORMALIZED FREE ENERGY PREDICTED BY IDOCK:   -5.17 KCAL/MOL
REMARK 922        TOTAL FREE ENERGY PREDICTED BY IDOCK:   -7.22 KCAL/MOL
REMARK 923 INTER-LIGAND FREE ENERGY PREDICTED BY IDOCK:   -6.69 KCAL/MOL
REMARK 924 INTRA-LIGAND FREE ENERGY PREDICTED BY IDOCK:   -0.53 KCAL/MOL
REMARK 927      BINDING AFFINITY PREDICTED BY RF-SCORE:    0.00 PKD
ROOT
HETATM    1  C   UNL     1     -10.140  18.396  66.367  1.00  0.00    -0.420 C  
HETATM    2  C   UNL     1     -10.502  16.946  66.227  1.00  0.00    -0.263 A  
HETATM    3  C   UNL     1     -10.855  16.413  64.980  1.00  0.00    -0.289 A  
HETATM    4  C   UNL     1     -11.257  15.080  64.868  1.00  0.00    -0.423 A  
HETATM    5  C   UNL     1     -11.297  14.274  66.010  1.00  0.00    -0.335 A  
HETATM    6  C   UNL     1     -10.529  16.118  67.360  1.00  0.00    -0.310 A  
HETATM    7  C   UNL     1     -10.923  14.783  67.254  1.00  0.00    -0.318 A  
ENDROOT
BRANCH   5   8
HETATM    8  S   UNL     1     -11.877  12.602  65.860  1.00  0.00    -0.438 S  
HETATM    9  O   UNL     1     -12.098  12.042  67.176  1.00  0.00    -0.587 OA 
HETATM   10  O   UNL     1     -12.942  12.612  64.873  1.00  0.00    -0.830 OA 
BRANCH   8  11
HETATM   11  N   UNL     1     -10.615  11.795  65.137  1.00  0.00    -0.273 N  
HETATM   12  H   UNL     1     -10.460  11.920  64.136  1.00  0.00     0.000 HD 
BRANCH  11  13
HETATM   13  C   UNL     1      -9.766  10.959  65.844  1.00  0.00    -0.224 C  
HETATM   14  O   UNL     1      -8.681  11.341  66.260  1.00  0.00    -0.179 OA 
BRANCH  13  15
HETATM   15  N   UNL     1     -10.254   9.671  65.991  1.00  0.00    -0.235 N  
HETATM   16  H   UNL     1     -10.868   9.293  65.270  1.00  0.00     0.000 HD 
BRANCH  15  17
HETATM   17  N   UNL     1      -9.930   8.853  67.118  1.00  0.00    -0.204 NA 
HETATM   18  C   UNL     1     -10.264   9.549  68.375  1.00  0.00    -0.194 C  
HETATM   19  C   UNL     1     -10.009   8.800  69.688  1.00  0.00    -0.191 C  
HETATM   20  C   UNL     1     -10.959   7.627  69.898  1.00  0.00    -0.208 C  
HETATM   21  C   UNL     1     -10.503   6.331  69.237  1.00  0.00    -0.298 C  
HETATM   22  C   UNL     1      -9.835   6.480  67.874  1.00  0.00    -0.134 C  
HETATM   23  C   UNL     1     -10.505   7.506  66.964  1.00  0.00    -0.338 C  
ENDBRANCH  15  17
ENDBRANCH  13  15
ENDBRANCH  11  13
ENDBRANCH   8  11
ENDBRANCH   5   8
TORSDOF 5
ENDMDL
MODEL       97
REMARK 921   NORMALIZED FREE ENERGY PREDICTED BY IDOCK:   -5.15 KCAL/MOL
REMARK 922        TOTAL FREE ENERGY PREDICTED BY IDOCK:   -7.20 KCAL/MOL
REMARK 923 INTER-LIGAND FREE ENERGY PREDICTED BY IDOCK:   -6.54 KCAL/MOL
REMARK 924 INTRA-LIGAND FREE ENERGY PREDICTED BY IDOCK:   -0.66 KCAL/MOL
REMARK 927      BINDING AFFINITY PREDICTED BY RF-SCORE:    0.00 PKD
ROOT
HETATM    1  C   UNL     1     -12.205  12.895  63.265  1.00  0.00    -0.481 C  
HETATM    2  C   UNL     1     -11.879  12.634  64.707  1.00  0.00    -0.434 A  
HETATM    3  C   UNL     1     -11.102  11.529  65.078  1.00  0.00    -0.268 A  
HETATM    4  C   UNL     1     -10.860  11.253  66.425  1.00  0.00    -0.306 A  
HETATM    5  C   UNL     1     -11.391  12.095  67.407  1.00  0.00    -0.326 A  
HETATM    6  C   UNL     1     -12.388  13.480  65.704  1.00  0.00    -0.522 A  
HETATM    7  C   UNL     1     -12.145  13.215  67.053  1.00  0.00    -0.366 A  
ENDROOT
BRANCH   5   8
HETATM    8  S   UNL     1     -11.131  11.691  69.116  1.00  0.00    -0.236 S  
HETATM    9  O   UNL     1      -9.852  11.033  69.273  1.00  0.00    -0.156 OA 
HETATM   10  O   UNL     1     -11.449  12.881  69.885  1.00  0.00    -0.200 OA 
BRANCH   8  11
HETATM   11  N   UNL     1     -12.341  10.605  69.467  1.00  0.00    -0.548 N  
HETATM   12  H   UNL     1     -13.117  10.505  68.813  1.00  0.00     0.000 HD 
BRANCH  11  13
HETATM   13  C   UNL     1     -12.332   9.830  70.617  1.00  0.00    -0.168 C  
HETATM   14  O   UNL     1     -13.038  10.095  71.580  1.00  0.00    -0.387 OA 
BRANCH  13  15
HETATM   15  N   UNL     1     -11.435   8.776  70.567  1.00  0.00    -0.382 N  
HETATM   16  H   UNL     1     -10.960   8.577  69.687  1.00  0.00     0.000 HD 
BRANCH  15  17
HETATM   17  N   UNL     1     -11.151   7.956  71.703  1.00  0.00    -0.239 NA 
HETATM   18  C   UNL     1     -11.496   6.549  71.424  1.00  0.00    -0.309 C  
HETATM   19  C   UNL     1     -11.225   5.522  72.529  1.00  0.00    -0.330 C  
HETATM   20  C   UNL     1      -9.738   5.279  72.765  1.00  0.00    -0.171 C  
HETATM   21  C   UNL     1      -9.092   6.270  73.726  1.00  0.00    -0.136 C  
HETATM   22  C   UNL     1      -9.577   7.712  73.619  1.00  0.00    -0.333 C  
HETATM   23  C   UNL     1      -9.780   8.193  72.185  1.00  0.00    -0.244 C  
ENDBRANCH  15  17
ENDBRANCH  13  15
ENDBRANCH  11  13
ENDBRANCH   8  11
ENDBRANCH   5   8
TORSDOF 5
ENDMDL
MODEL       98
REMARK 921   NORMALIZED FREE ENERGY PREDICTED BY IDOCK:   -5.14 KCAL/MOL
REMARK 922        TOTAL FREE ENERGY PREDICTED BY IDOCK:   -7.18 KCAL/MOL
REMARK 923 INTER-LIGAND FREE ENERGY PREDICTED BY IDOCK:   -6.95 KCAL/MOL
REMARK 924 INTRA-LIGAND FREE ENERGY PREDICTED BY IDOCK:   -0.23 KCAL/MOL
REMARK 927      BINDING AFFINITY PREDICTED BY RF-SCORE:    0.00 PKD
ROOT
HETATM    1  C   UNL     1     -13.764  13.342  72.278  1.00  0.00    -0.705 C  
HETATM    2  C   UNL     1     -12.784  14.125  71.452  1.00  0.00    -0.439 A  
HETATM    3  C   UNL     1     -12.394  15.415  71.836  1.00  0.00    -0.446 A  
HETATM    4  C   UNL     1     -11.536  16.164  71.028  1.00  0.00    -0.424 A  
HETATM    5  C   UNL     1     -11.057  15.614  69.835  1.00  0.00    -0.319 A  
HETATM    6  C   UNL     1     -12.280  13.580  70.262  1.00  0.00    -0.417 A  
HETATM    7  C   UNL     1     -11.416  14.321  69.453  1.00  0.00    -0.337 A  
ENDROOT
BRANCH   5   8
HETATM    8  S   UNL     1     -10.023  16.606  68.787  1.00  0.00    -0.280 S  
HETATM    9  O   UNL     1     -10.709  17.834  68.444  1.00  0.00    -0.316 OA 
HETATM   10  O   UNL     1      -8.708  16.643  69.404  1.00  0.00    -0.104 OA 
BRANCH   8  11
HETATM   11  N   UNL     1      -9.837  15.691  67.411  1.00  0.00    -0.224 N  
HETATM   12  H   UNL     1      -9.943  14.679  67.476  1.00  0.00     0.000 HD 
BRANCH  11  13
HETATM   13  C   UNL     1      -9.543  16.254  66.179  1.00  0.00    -0.331 C  
HETATM   14  O   UNL     1     -10.415  16.511  65.361  1.00  0.00    -0.543 OA 
BRANCH  13  15
HETATM   15  N   UNL     1      -8.188  16.454  65.972  1.00  0.00    -0.205 N  
HETATM   16  H   UNL     1      -7.580  15.640  65.877  1.00  0.00     0.000 HD 
BRANCH  15  17
HETATM   17  N   UNL     1      -7.610  17.758  65.885  1.00  0.00    -0.532 NA 
HETATM   18  C   UNL     1      -8.611  18.790  66.216  1.00  0.00    -0.234 C  
HETATM   19  C   UNL     1      -8.152  20.252  66.203  1.00  0.00    -0.168 C  
HETATM   20  C   UNL     1      -7.196  20.586  67.343  1.00  0.00    -0.370 C  
HETATM   21  C   UNL     1      -5.735  20.273  67.041  1.00  0.00    -0.191 C  
HETATM   22  C   UNL     1      -5.479  19.003  66.237  1.00  0.00    -0.175 C  
HETATM   23  C   UNL     1      -6.353  17.822  66.650  1.00  0.00    -0.190 C  
ENDBRANCH  15  17
ENDBRANCH  13  15
ENDBRANCH  11  13
ENDBRANCH   8  11
ENDBRANCH   5   8
TORSDOF 5
ENDMDL
MODEL       99
REMARK 921   NORMALIZED FREE ENERGY PREDICTED BY IDOCK:   -5.14 KCAL/MOL
REMARK 922        TOTAL FREE ENERGY PREDICTED BY IDOCK:   -7.18 KCAL/MOL
REMARK 923 INTER-LIGAND FREE ENERGY PREDICTED BY IDOCK:   -6.65 KCAL/MOL
REMARK 924 INTRA-LIGAND FREE ENERGY PREDICTED BY IDOCK:   -0.53 KCAL/MOL
REMARK 927      BINDING AFFINITY PREDICTED BY RF-SCORE:    0.00 PKD
ROOT
HETATM    1  C   UNL     1     -10.074   5.144  66.733  1.00  0.00    -0.264 C  
HETATM    2  C   UNL     1     -10.305   6.182  67.793  1.00  0.00    -0.247 A  
HETATM    3  C   UNL     1     -11.017   5.869  68.958  1.00  0.00    -0.359 A  
HETATM    4  C   UNL     1     -11.287   6.855  69.909  1.00  0.00    -0.321 A  
HETATM    5  C   UNL     1     -10.834   8.161  69.696  1.00  0.00    -0.158 A  
HETATM    6  C   UNL     1      -9.841   7.492  67.603  1.00  0.00    -0.203 A  
HETATM    7  C   UNL     1     -10.102   8.482  68.553  1.00  0.00    -0.214 A  
ENDROOT
BRANCH   5   8
HETATM    8  S   UNL     1     -11.247   9.416  70.881  1.00  0.00    -0.355 S  
HETATM    9  O   UNL     1     -12.683   9.479  71.046  1.00  0.00    -0.303 OA 
HETATM   10  O   UNL     1     -10.380   9.215  72.029  1.00  0.00    -0.307 OA 
BRANCH   8  11
HETATM   11  N   UNL     1     -10.723  10.830  70.179  1.00  0.00    -0.458 N  
HETATM   12  H   UNL     1      -9.720  11.008  70.121  1.00  0.00     0.000 HD 
BRANCH  11  13
HETATM   13  C   UNL     1     -11.600  11.774  69.668  1.00  0.00    -0.323 C  
HETATM   14  O   UNL     1     -12.223  12.537  70.393  1.00  0.00    -0.348 OA 
BRANCH  13  15
HETATM   15  N   UNL     1     -11.715  11.733  68.288  1.00  0.00    -0.316 N  
HETATM   16  H   UNL     1     -11.805  10.827  67.830  1.00  0.00     0.000 HD 
BRANCH  15  17
HETATM   17  N   UNL     1     -11.710  12.915  67.483  1.00  0.00    -0.358 NA 
HETATM   18  C   UNL     1     -10.442  13.649  67.652  1.00  0.00    -0.238 C  
HETATM   19  C   UNL     1     -10.253  14.932  66.834  1.00  0.00    -0.254 C  
HETATM   20  C   UNL     1     -10.087  14.667  65.341  1.00  0.00    -0.403 C  
HETATM   21  C   UNL     1     -11.404  14.547  64.582  1.00  0.00    -0.372 C  
HETATM   22  C   UNL     1     -12.533  13.834  65.318  1.00  0.00    -0.512 C  
HETATM   23  C   UNL     1     -12.083  12.599  66.095  1.00  0.00    -0.333 C  
ENDBRANCH  15  17
ENDBRANCH  13  15
ENDBRANCH  11  13
ENDBRANCH   8  11
ENDBRANCH   5   8
TORSDOF 5
ENDMDL
MODEL      100
REMARK 921   NORMALIZED FREE ENERGY PREDICTED BY IDOCK:   -5.14 KCAL/MOL
REMARK 922        TOTAL FREE ENERGY PREDICTED BY IDOCK:   -7.17 KCAL/MOL
REMARK 923 INTER-LIGAND FREE ENERGY PREDICTED BY IDOCK:   -6.29 KCAL/MOL
REMARK 924 INTRA-LIGAND FREE ENERGY PREDICTED BY IDOCK:   -0.88 KCAL/MOL
REMARK 927      BINDING AFFINITY PREDICTED BY RF-SCORE:    0.00 PKD
ROOT
HETATM    1  C   UNL     1      -9.908  11.880  65.544  1.00  0.00    -0.257 C  
HETATM    2  C   UNL     1     -10.392  12.701  66.704  1.00  0.00    -0.249 A  
HETATM    3  C   UNL     1      -9.484  13.357  67.546  1.00  0.00    -0.219 A  
HETATM    4  C   UNL     1      -9.936  14.063  68.663  1.00  0.00    -0.203 A  
HETATM    5  C   UNL     1     -11.307  14.121  68.933  1.00  0.00    -0.277 A  
HETATM    6  C   UNL     1     -11.766  12.786  66.977  1.00  0.00    -0.440 A  
HETATM    7  C   UNL     1     -12.226  13.496  68.089  1.00  0.00    -0.141 A  
ENDROOT
BRANCH   5   8
HETATM    8  S   UNL     1     -11.859  14.964  70.394  1.00  0.00    -0.323 S  
HETATM    9  O   UNL     1     -10.853  15.914  70.819  1.00  0.00    -0.286 OA 
HETATM   10  O   UNL     1     -13.223  15.395  70.144  1.00  0.00    -0.109 OA 
BRANCH   8  11
HETATM   11  N   UNL     1     -11.981  13.763  71.538  1.00  0.00    -0.247 N  
HETATM   12  H   UNL     1     -11.153  13.510  72.076  1.00  0.00     0.000 HD 
BRANCH  11  13
HETATM   13  C   UNL     1     -13.169  13.091  71.785  1.00  0.00    -0.392 C  
HETATM   14  O   UNL     1     -14.021  13.542  72.537  1.00  0.00    -0.701 OA 
BRANCH  13  15
HETATM   15  N   UNL     1     -13.262  11.873  71.132  1.00  0.00    -0.023 N  
HETATM   16  H   UNL     1     -14.048  11.712  70.503  1.00  0.00     0.000 HD 
BRANCH  15  17
HETATM   17  N   UNL     1     -12.296  10.834  71.308  1.00  0.00    -0.370 NA 
HETATM   18  C   UNL     1     -12.887   9.699  72.042  1.00  0.00    -0.410 C  
HETATM   19  C   UNL     1     -11.996   8.477  72.292  1.00  0.00    -0.454 C  
HETATM   20  C   UNL     1     -11.681   7.699  71.019  1.00  0.00    -0.306 C  
HETATM   21  C   UNL     1     -10.484   8.235  70.243  1.00  0.00    -0.221 C  
HETATM   22  C   UNL     1     -10.336   9.752  70.213  1.00  0.00    -0.348 C  
HETATM   23  C   UNL     1     -11.654  10.499  70.026  1.00  0.00    -0.313 C  
ENDBRANCH  15  17
ENDBRANCH  13  15
ENDBRANCH  11  13
ENDBRANCH   8  11
ENDBRANCH   5   8
TORSDOF 5
ENDMDL
MODEL      101
REMARK 921   NORMALIZED FREE ENERGY PREDICTED BY IDOCK:   -5.13 KCAL/MOL
REMARK 922        TOTAL FREE ENERGY PREDICTED BY IDOCK:   -7.17 KCAL/MOL
REMARK 923 INTER-LIGAND FREE ENERGY PREDICTED BY IDOCK:   -6.49 KCAL/MOL
REMARK 924 INTRA-LIGAND FREE ENERGY PREDICTED BY IDOCK:   -0.68 KCAL/MOL
REMARK 927      BINDING AFFINITY PREDICTED BY RF-SCORE:    0.00 PKD
ROOT
HETATM    1  C   UNL     1     -10.592  12.727  64.171  1.00  0.00    -0.441 C  
HETATM    2  C   UNL     1     -10.351  13.745  65.248  1.00  0.00    -0.378 A  
HETATM    3  C   UNL     1      -9.394  13.517  66.246  1.00  0.00    -0.143 A  
HETATM    4  C   UNL     1      -9.222  14.435  67.284  1.00  0.00    -0.214 A  
HETATM    5  C   UNL     1     -10.006  15.593  67.318  1.00  0.00    -0.236 A  
HETATM    6  C   UNL     1     -11.116  14.920  65.286  1.00  0.00    -0.382 A  
HETATM    7  C   UNL     1     -10.945  15.846  66.317  1.00  0.00    -0.112 A  
ENDROOT
BRANCH   5   8
HETATM    8  S   UNL     1      -9.823  16.714  68.682  1.00  0.00    -0.263 S  
HETATM    9  O   UNL     1      -8.444  17.142  68.781  1.00  0.00    -0.256 OA 
HETATM   10  O   UNL     1     -10.892  17.690  68.573  1.00  0.00    -0.253 OA 
BRANCH   8  11
HETATM   11  N   UNL     1     -10.199  15.798  70.018  1.00  0.00    -0.284 N  
HETATM   12  H   UNL     1      -9.491  15.170  70.399  1.00  0.00     0.000 HD 
BRANCH  11  13
HETATM   13  C   UNL     1     -11.440  15.856  70.633  1.00  0.00    -0.400 C  
HETATM   14  O   UNL     1     -11.593  16.367  71.733  1.00  0.00    -0.453 OA 
BRANCH  13  15
HETATM   15  N   UNL     1     -12.449  15.255  69.898  1.00  0.00    -0.565 N  
HETATM   16  H   UNL     1     -13.034  15.838  69.300  1.00  0.00     0.000 HD 
BRANCH  15  17
HETATM   17  N   UNL     1     -12.701  13.849  69.949  1.00  0.00    -0.111 NA 
HETATM   18  C   UNL     1     -11.809  13.131  69.019  1.00  0.00    -0.313 C  
HETATM   19  C   UNL     1     -11.922  11.604  68.967  1.00  0.00    -0.368 C  
HETATM   20  C   UNL     1     -11.412  10.925  70.234  1.00  0.00    -0.391 C  
HETATM   21  C   UNL     1     -12.451  10.822  71.345  1.00  0.00    -0.478 C  
HETATM   22  C   UNL     1     -13.384  12.018  71.496  1.00  0.00    -0.123 C  
HETATM   23  C   UNL     1     -12.690  13.369  71.341  1.00  0.00    -0.322 C  
ENDBRANCH  15  17
ENDBRANCH  13  15
ENDBRANCH  11  13
ENDBRANCH   8  11
ENDBRANCH   5   8
TORSDOF 5
ENDMDL
MODEL      102
REMARK 921   NORMALIZED FREE ENERGY PREDICTED BY IDOCK:   -5.13 KCAL/MOL
REMARK 922        TOTAL FREE ENERGY PREDICTED BY IDOCK:   -7.17 KCAL/MOL
REMARK 923 INTER-LIGAND FREE ENERGY PREDICTED BY IDOCK:   -6.51 KCAL/MOL
REMARK 924 INTRA-LIGAND FREE ENERGY PREDICTED BY IDOCK:   -0.65 KCAL/MOL
REMARK 927      BINDING AFFINITY PREDICTED BY RF-SCORE:    0.00 PKD
ROOT
HETATM    1  C   UNL     1     -11.129   6.230  69.258  1.00  0.00    -0.461 C  
HETATM    2  C   UNL     1     -10.766   7.629  68.853  1.00  0.00    -0.117 A  
HETATM    3  C   UNL     1     -10.874   8.689  69.764  1.00  0.00    -0.185 A  
HETATM    4  C   UNL     1     -10.600   9.998  69.362  1.00  0.00    -0.256 A  
HETATM    5  C   UNL     1     -10.206  10.246  68.044  1.00  0.00    -0.169 A  
HETATM    6  C   UNL     1     -10.350   7.892  67.540  1.00  0.00    -0.329 A  
HETATM    7  C   UNL     1     -10.068   9.199  67.132  1.00  0.00    -0.301 A  
ENDROOT
BRANCH   5   8
HETATM    8  S   UNL     1      -9.929  11.924  67.532  1.00  0.00    -0.189 S  
HETATM    9  O   UNL     1      -8.858  12.503  68.314  1.00  0.00    -0.186 OA 
HETATM   10  O   UNL     1      -9.864  11.918  66.081  1.00  0.00    -0.220 OA 
BRANCH   8  11
HETATM   11  N   UNL     1     -11.350  12.704  67.905  1.00  0.00    -0.268 N  
HETATM   12  H   UNL     1     -12.203  12.153  68.003  1.00  0.00     0.000 HD 
BRANCH  11  13
HETATM   13  C   UNL     1     -11.418  14.077  68.087  1.00  0.00    -0.309 C  
HETATM   14  O   UNL     1     -11.798  14.828  67.200  1.00  0.00    -0.374 OA 
BRANCH  13  15
HETATM   15  N   UNL     1     -10.985  14.491  69.335  1.00  0.00    -0.264 N  
HETATM   16  H   UNL     1     -10.002  14.371  69.579  1.00  0.00     0.000 HD 
BRANCH  15  17
HETATM   17  N   UNL     1     -11.865  15.080  70.295  1.00  0.00    -0.287 NA 
HETATM   18  C   UNL     1     -13.078  14.256  70.457  1.00  0.00    -0.112 C  
HETATM   19  C   UNL     1     -14.122  14.726  71.476  1.00  0.00    -0.566 C  
HETATM   20  C   UNL     1     -13.647  14.596  72.919  1.00  0.00    -0.463 C  
HETATM   21  C   UNL     1     -12.835  15.787  73.415  1.00  0.00    -0.680 C  
HETATM   22  C   UNL     1     -11.887  16.415  72.399  1.00  0.00    -0.548 C  
HETATM   23  C   UNL     1     -11.142  15.400  71.537  1.00  0.00    -0.230 C  
ENDBRANCH  15  17
ENDBRANCH  13  15
ENDBRANCH  11  13
ENDBRANCH   8  11
ENDBRANCH   5   8
TORSDOF 5
ENDMDL
MODEL      103
REMARK 921   NORMALIZED FREE ENERGY PREDICTED BY IDOCK:   -5.12 KCAL/MOL
REMARK 922        TOTAL FREE ENERGY PREDICTED BY IDOCK:   -7.15 KCAL/MOL
REMARK 923 INTER-LIGAND FREE ENERGY PREDICTED BY IDOCK:   -6.23 KCAL/MOL
REMARK 924 INTRA-LIGAND FREE ENERGY PREDICTED BY IDOCK:   -0.93 KCAL/MOL
REMARK 927      BINDING AFFINITY PREDICTED BY RF-SCORE:    0.00 PKD
ROOT
HETATM    1  C   UNL     1     -12.101  13.185  63.363  1.00  0.00    -0.558 C  
HETATM    2  C   UNL     1     -11.215  12.724  64.484  1.00  0.00    -0.373 A  
HETATM    3  C   UNL     1     -10.816  11.385  64.577  1.00  0.00    -0.375 A  
HETATM    4  C   UNL     1     -10.048  10.948  65.658  1.00  0.00    -0.318 A  
HETATM    5  C   UNL     1      -9.671  11.860  66.649  1.00  0.00    -0.205 A  
HETATM    6  C   UNL     1     -10.812  13.631  65.475  1.00  0.00    -0.295 A  
HETATM    7  C   UNL     1     -10.039  13.203  66.557  1.00  0.00    -0.280 A  
ENDROOT
BRANCH   5   8
HETATM    8  S   UNL     1      -8.755  11.274  68.052  1.00  0.00    -0.150 S  
HETATM    9  O   UNL     1      -8.401   9.884  67.858  1.00  0.00    -0.113 OA 
HETATM   10  O   UNL     1      -7.731  12.264  68.332  1.00  0.00    -0.130 OA 
BRANCH   8  11
HETATM   11  N   UNL     1      -9.830  11.384  69.317  1.00  0.00    -0.413 N  
HETATM   12  H   UNL     1      -9.521  11.815  70.188  1.00  0.00     0.000 HD 
BRANCH  11  13
HETATM   13  C   UNL     1     -11.130  10.910  69.230  1.00  0.00    -0.248 C  
HETATM   14  O   UNL     1     -12.096  11.656  69.305  1.00  0.00    -0.311 OA 
BRANCH  13  15
HETATM   15  N   UNL     1     -11.209   9.535  69.088  1.00  0.00    -0.447 N  
HETATM   16  H   UNL     1     -11.509   9.149  68.193  1.00  0.00     0.000 HD 
BRANCH  15  17
HETATM   17  N   UNL     1     -10.884   8.635  70.150  1.00  0.00    -0.235 NA 
HETATM   18  C   UNL     1     -11.925   8.673  71.195  1.00  0.00    -0.279 C  
HETATM   19  C   UNL     1     -11.753   7.742  72.400  1.00  0.00    -0.394 C  
HETATM   20  C   UNL     1     -11.935   6.270  72.046  1.00  0.00    -0.353 C  
HETATM   21  C   UNL     1     -10.671   5.595  71.525  1.00  0.00    -0.306 C  
HETATM   22  C   UNL     1      -9.787   6.448  70.622  1.00  0.00    -0.206 C  
HETATM   23  C   UNL     1     -10.562   7.299  69.620  1.00  0.00    -0.235 C  
ENDBRANCH  15  17
ENDBRANCH  13  15
ENDBRANCH  11  13
ENDBRANCH   8  11
ENDBRANCH   5   8
TORSDOF 5
ENDMDL
MODEL      104
REMARK 921   NORMALIZED FREE ENERGY PREDICTED BY IDOCK:   -5.12 KCAL/MOL
REMARK 922        TOTAL FREE ENERGY PREDICTED BY IDOCK:   -7.15 KCAL/MOL
REMARK 923 INTER-LIGAND FREE ENERGY PREDICTED BY IDOCK:   -6.36 KCAL/MOL
REMARK 924 INTRA-LIGAND FREE ENERGY PREDICTED BY IDOCK:   -0.79 KCAL/MOL
REMARK 927      BINDING AFFINITY PREDICTED BY RF-SCORE:    0.00 PKD
ROOT
HETATM    1  C   UNL     1     -10.836   6.318  73.126  1.00  0.00    -0.281 C  
HETATM    2  C   UNL     1     -10.968   7.319  72.015  1.00  0.00    -0.271 A  
HETATM    3  C   UNL     1     -10.636   6.974  70.698  1.00  0.00    -0.246 A  
HETATM    4  C   UNL     1     -10.696   7.928  69.680  1.00  0.00    -0.218 A  
HETATM    5  C   UNL     1     -11.100   9.233  69.981  1.00  0.00    -0.205 A  
HETATM    6  C   UNL     1     -11.390   8.627  72.297  1.00  0.00    -0.411 A  
HETATM    7  C   UNL     1     -11.458   9.585  71.282  1.00  0.00    -0.447 A  
ENDROOT
BRANCH   5   8
HETATM    8  S   UNL     1     -11.103  10.449  68.688  1.00  0.00    -0.251 S  
HETATM    9  O   UNL     1     -10.736   9.830  67.433  1.00  0.00    -0.268 OA 
HETATM   10  O   UNL     1     -12.345  11.192  68.809  1.00  0.00    -0.539 OA 
BRANCH   8  11
HETATM   11  N   UNL     1      -9.907  11.518  69.130  1.00  0.00    -0.418 N  
HETATM   12  H   UNL     1      -9.602  11.540  70.103  1.00  0.00     0.000 HD 
BRANCH  11  13
HETATM   13  C   UNL     1      -9.311  12.381  68.224  1.00  0.00    -0.199 C  
HETATM   14  O   UNL     1      -8.156  12.762  68.357  1.00  0.00    -0.149 OA 
BRANCH  13  15
HETATM   15  N   UNL     1     -10.156  12.780  67.201  1.00  0.00    -0.232 N  
HETATM   16  H   UNL     1     -10.483  12.081  66.534  1.00  0.00     0.000 HD 
BRANCH  15  17
HETATM   17  N   UNL     1     -10.586  14.134  67.046  1.00  0.00    -0.275 NA 
HETATM   18  C   UNL     1     -10.934  14.718  68.355  1.00  0.00    -0.252 C  
HETATM   19  C   UNL     1     -11.388  16.182  68.378  1.00  0.00    -0.345 C  
HETATM   20  C   UNL     1     -10.262  17.160  68.061  1.00  0.00    -0.332 C  
HETATM   21  C   UNL     1     -10.048  17.399  66.571  1.00  0.00    -0.320 C  
HETATM   22  C   UNL     1     -10.216  16.180  65.671  1.00  0.00    -0.390 C  
HETATM   23  C   UNL     1      -9.616  14.899  66.245  1.00  0.00    -0.307 C  
ENDBRANCH  15  17
ENDBRANCH  13  15
ENDBRANCH  11  13
ENDBRANCH   8  11
ENDBRANCH   5   8
TORSDOF 5
ENDMDL
MODEL      105
REMARK 921   NORMALIZED FREE ENERGY PREDICTED BY IDOCK:   -5.12 KCAL/MOL
REMARK 922        TOTAL FREE ENERGY PREDICTED BY IDOCK:   -7.15 KCAL/MOL
REMARK 923 INTER-LIGAND FREE ENERGY PREDICTED BY IDOCK:   -6.12 KCAL/MOL
REMARK 924 INTRA-LIGAND FREE ENERGY PREDICTED BY IDOCK:   -1.03 KCAL/MOL
REMARK 927      BINDING AFFINITY PREDICTED BY RF-SCORE:    0.00 PKD
ROOT
HETATM    1  C   UNL     1      -8.475   5.983  66.563  1.00  0.00    -0.115 C  
HETATM    2  C   UNL     1      -9.269   6.472  67.740  1.00  0.00    -0.113 A  
HETATM    3  C   UNL     1      -8.738   7.431  68.613  1.00  0.00    -0.128 A  
HETATM    4  C   UNL     1      -9.453   7.832  69.743  1.00  0.00    -0.160 A  
HETATM    5  C   UNL     1     -10.712   7.277  69.995  1.00  0.00    -0.245 A  
HETATM    6  C   UNL     1     -10.541   5.940  67.996  1.00  0.00    -0.321 A  
HETATM    7  C   UNL     1     -11.265   6.341  69.121  1.00  0.00    -0.439 A  
ENDROOT
BRANCH   5   8
HETATM    8  S   UNL     1     -11.576   7.746  71.473  1.00  0.00    -0.280 S  
HETATM    9  O   UNL     1     -12.989   7.474  71.320  1.00  0.00    -0.331 OA 
HETATM   10  O   UNL     1     -10.834   7.192  72.591  1.00  0.00    -0.242 OA 
BRANCH   8  11
HETATM   11  N   UNL     1     -11.354   9.392  71.572  1.00  0.00    -0.379 N  
HETATM   12  H   UNL     1     -10.470   9.747  71.938  1.00  0.00     0.000 HD 
BRANCH  11  13
HETATM   13  C   UNL     1     -12.325  10.298  71.175  1.00  0.00    -0.395 C  
HETATM   14  O   UNL     1     -13.040  10.874  71.983  1.00  0.00    -0.491 OA 
BRANCH  13  15
HETATM   15  N   UNL     1     -12.416  10.444  69.801  1.00  0.00    -0.545 N  
HETATM   16  H   UNL     1     -13.212  10.034  69.314  1.00  0.00     0.000 HD 
BRANCH  15  17
HETATM   17  N   UNL     1     -11.433  11.149  69.039  1.00  0.00    -0.267 NA 
HETATM   18  C   UNL     1     -11.095  10.401  67.813  1.00  0.00    -0.299 C  
HETATM   19  C   UNL     1     -10.074  11.031  66.858  1.00  0.00    -0.248 C  
HETATM   20  C   UNL     1     -10.609  12.269  66.147  1.00  0.00    -0.281 C  
HETATM   21  C   UNL     1     -10.448  13.560  66.942  1.00  0.00    -0.271 C  
HETATM   22  C   UNL     1     -10.664  13.445  68.447  1.00  0.00    -0.271 C  
HETATM   23  C   UNL     1     -11.838  12.551  68.838  1.00  0.00    -0.301 C  
ENDBRANCH  15  17
ENDBRANCH  13  15
ENDBRANCH  11  13
ENDBRANCH   8  11
ENDBRANCH   5   8
TORSDOF 5
ENDMDL
MODEL      106
REMARK 921   NORMALIZED FREE ENERGY PREDICTED BY IDOCK:   -5.11 KCAL/MOL
REMARK 922        TOTAL FREE ENERGY PREDICTED BY IDOCK:   -7.15 KCAL/MOL
REMARK 923 INTER-LIGAND FREE ENERGY PREDICTED BY IDOCK:   -6.20 KCAL/MOL
REMARK 924 INTRA-LIGAND FREE ENERGY PREDICTED BY IDOCK:   -0.95 KCAL/MOL
REMARK 927      BINDING AFFINITY PREDICTED BY RF-SCORE:    0.00 PKD
ROOT
HETATM    1  C   UNL     1     -12.339  12.025  63.212  1.00  0.00    -0.553 C  
HETATM    2  C   UNL     1     -11.878  12.922  64.324  1.00  0.00    -0.457 A  
HETATM    3  C   UNL     1     -10.511  13.130  64.556  1.00  0.00    -0.425 A  
HETATM    4  C   UNL     1     -10.087  13.910  65.634  1.00  0.00    -0.332 A  
HETATM    5  C   UNL     1     -11.037  14.492  66.479  1.00  0.00    -0.332 A  
HETATM    6  C   UNL     1     -12.818  13.529  65.170  1.00  0.00    -0.381 A  
HETATM    7  C   UNL     1     -12.401  14.315  66.246  1.00  0.00    -0.399 A  
ENDROOT
BRANCH   5   8
HETATM    8  S   UNL     1     -10.478  15.423  67.884  1.00  0.00    -0.262 S  
HETATM    9  O   UNL     1      -9.265  16.136  67.547  1.00  0.00    -0.206 OA 
HETATM   10  O   UNL     1     -11.632  16.134  68.406  1.00  0.00    -0.355 OA 
BRANCH   8  11
HETATM   11  N   UNL     1     -10.123  14.266  69.025  1.00  0.00    -0.381 N  
HETATM   12  H   UNL     1      -9.260  14.353  69.562  1.00  0.00     0.000 HD 
BRANCH  11  13
HETATM   13  C   UNL     1     -10.958  13.188  69.274  1.00  0.00    -0.078 C  
HETATM   14  O   UNL     1     -12.126  13.337  69.603  1.00  0.00    -0.306 OA 
BRANCH  13  15
HETATM   15  N   UNL     1     -10.328  11.960  69.148  1.00  0.00    -0.420 N  
HETATM   16  H   UNL     1     -10.288  11.343  69.958  1.00  0.00     0.000 HD 
BRANCH  15  17
HETATM   17  N   UNL     1      -9.732  11.528  67.923  1.00  0.00    -0.178 NA 
HETATM   18  C   UNL     1      -8.261  11.529  68.036  1.00  0.00    -0.143 C  
HETATM   19  C   UNL     1      -7.457  11.060  66.818  1.00  0.00    -0.139 C  
HETATM   20  C   UNL     1      -7.596   9.565  66.552  1.00  0.00    -0.094 C  
HETATM   21  C   UNL     1      -8.813   9.194  65.713  1.00  0.00    -0.210 C  
HETATM   22  C   UNL     1     -10.080   9.996  65.988  1.00  0.00    -0.318 C  
HETATM   23  C   UNL     1     -10.334  10.264  67.469  1.00  0.00    -0.229 C  
ENDBRANCH  15  17
ENDBRANCH  13  15
ENDBRANCH  11  13
ENDBRANCH   8  11
ENDBRANCH   5   8
TORSDOF 5
ENDMDL
MODEL      107
REMARK 921   NORMALIZED FREE ENERGY PREDICTED BY IDOCK:   -5.11 KCAL/MOL
REMARK 922        TOTAL FREE ENERGY PREDICTED BY IDOCK:   -7.14 KCAL/MOL
REMARK 923 INTER-LIGAND FREE ENERGY PREDICTED BY IDOCK:   -5.77 KCAL/MOL
REMARK 924 INTRA-LIGAND FREE ENERGY PREDICTED BY IDOCK:   -1.37 KCAL/MOL
REMARK 927      BINDING AFFINITY PREDICTED BY RF-SCORE:    0.00 PKD
ROOT
HETATM    1  C   UNL     1      -8.991   3.817  68.933  1.00  0.00    -0.178 C  
HETATM    2  C   UNL     1      -9.923   4.774  69.618  1.00  0.00    -0.297 A  
HETATM    3  C   UNL     1     -10.772   5.604  68.874  1.00  0.00    -0.280 A  
HETATM    4  C   UNL     1     -11.588   6.539  69.514  1.00  0.00    -0.298 A  
HETATM    5  C   UNL     1     -11.560   6.638  70.909  1.00  0.00    -0.361 A  
HETATM    6  C   UNL     1      -9.921   4.872  71.018  1.00  0.00    -0.282 A  
HETATM    7  C   UNL     1     -10.739   5.801  71.665  1.00  0.00    -0.314 A  
ENDROOT
BRANCH   5   8
HETATM    8  S   UNL     1     -12.551   7.880  71.701  1.00  0.00    -0.325 S  
HETATM    9  O   UNL     1     -13.884   7.367  71.931  1.00  0.00    -0.316 OA 
HETATM   10  O   UNL     1     -11.764   8.411  72.800  1.00  0.00    -0.367 OA 
BRANCH   8  11
HETATM   11  N   UNL     1     -12.632   9.111  70.585  1.00  0.00    -0.484 N  
HETATM   12  H   UNL     1     -13.093   8.935  69.692  1.00  0.00     0.000 HD 
BRANCH  11  13
HETATM   13  C   UNL     1     -12.097  10.367  70.824  1.00  0.00    -0.364 C  
HETATM   14  O   UNL     1     -12.792  11.309  71.177  1.00  0.00    -0.376 OA 
BRANCH  13  15
HETATM   15  N   UNL     1     -10.734  10.440  70.591  1.00  0.00    -0.383 N  
HETATM   16  H   UNL     1     -10.174  11.084  71.149  1.00  0.00     0.000 HD 
BRANCH  15  17
HETATM   17  N   UNL     1     -10.083   9.647  69.595  1.00  0.00    -0.209 NA 
HETATM   18  C   UNL     1     -10.323  10.207  68.251  1.00  0.00    -0.186 C  
HETATM   19  C   UNL     1      -9.669   9.495  67.062  1.00  0.00    -0.229 C  
HETATM   20  C   UNL     1      -8.152   9.654  67.033  1.00  0.00    -0.113 C  
HETATM   21  C   UNL     1      -7.404   8.627  67.875  1.00  0.00    -0.092 C  
HETATM   22  C   UNL     1      -8.062   8.244  69.197  1.00  0.00    -0.120 C  
HETATM   23  C   UNL     1      -8.671   9.424  69.950  1.00  0.00    -0.197 C  
ENDBRANCH  15  17
ENDBRANCH  13  15
ENDBRANCH  11  13
ENDBRANCH   8  11
ENDBRANCH   5   8
TORSDOF 5
ENDMDL
MODEL      108
REMARK 921   NORMALIZED FREE ENERGY PREDICTED BY IDOCK:   -5.10 KCAL/MOL
REMARK 922        TOTAL FREE ENERGY PREDICTED BY IDOCK:   -7.13 KCAL/MOL
REMARK 923 INTER-LIGAND FREE ENERGY PREDICTED BY IDOCK:   -6.56 KCAL/MOL
REMARK 924 INTRA-LIGAND FREE ENERGY PREDICTED BY IDOCK:   -0.57 KCAL/MOL
REMARK 927      BINDING AFFINITY PREDICTED BY RF-SCORE:    0.00 PKD
ROOT
HETATM    1  C   UNL     1     -12.892  11.879  63.274  1.00  0.00    -0.303 C  
HETATM    2  C   UNL     1     -12.010  12.172  64.454  1.00  0.00    -0.443 A  
HETATM    3  C   UNL     1     -12.417  13.076  65.444  1.00  0.00    -0.531 A  
HETATM    4  C   UNL     1     -11.565  13.396  66.503  1.00  0.00    -0.394 A  
HETATM    5  C   UNL     1     -10.302  12.800  66.576  1.00  0.00    -0.251 A  
HETATM    6  C   UNL     1     -10.748  11.568  64.551  1.00  0.00    -0.390 A  
HETATM    7  C   UNL     1      -9.893  11.878  65.611  1.00  0.00    -0.266 A  
ENDROOT
BRANCH   5   8
HETATM    8  S   UNL     1      -9.205  13.271  67.890  1.00  0.00    -0.221 S  
HETATM    9  O   UNL     1      -9.869  14.212  68.766  1.00  0.00    -0.224 OA 
HETATM   10  O   UNL     1      -8.631  12.047  68.420  1.00  0.00    -0.168 OA 
BRANCH   8  11
HETATM   11  N   UNL     1      -7.952  14.046  67.119  1.00  0.00    -0.351 N  
HETATM   12  H   UNL     1      -7.636  13.691  66.216  1.00  0.00     0.000 HD 
BRANCH  11  13
HETATM   13  C   UNL     1      -7.320  15.155  67.658  1.00  0.00    -0.183 C  
HETATM   14  O   UNL     1      -6.753  15.113  68.741  1.00  0.00    -0.094 OA 
BRANCH  13  15
HETATM   15  N   UNL     1      -7.432  16.291  66.874  1.00  0.00    -0.220 N  
HETATM   16  H   UNL     1      -7.193  16.231  65.885  1.00  0.00     0.000 HD 
BRANCH  15  17
HETATM   17  N   UNL     1      -7.871  17.546  67.401  1.00  0.00    -0.200 NA 
HETATM   18  C   UNL     1      -7.617  18.629  66.432  1.00  0.00    -0.259 C  
HETATM   19  C   UNL     1      -8.056  20.045  66.823  1.00  0.00    -0.356 C  
HETATM   20  C   UNL     1      -9.572  20.211  66.855  1.00  0.00    -0.564 C  
HETATM   21  C   UNL     1     -10.214  19.801  68.176  1.00  0.00    -0.577 C  
HETATM   22  C   UNL     1      -9.609  18.578  68.858  1.00  0.00    -0.307 C  
HETATM   23  C   UNL     1      -9.253  17.447  67.897  1.00  0.00    -0.256 C  
ENDBRANCH  15  17
ENDBRANCH  13  15
ENDBRANCH  11  13
ENDBRANCH   8  11
ENDBRANCH   5   8
TORSDOF 5
ENDMDL
MODEL      109
REMARK 921   NORMALIZED FREE ENERGY PREDICTED BY IDOCK:   -5.10 KCAL/MOL
REMARK 922        TOTAL FREE ENERGY PREDICTED BY IDOCK:   -7.12 KCAL/MOL
REMARK 923 INTER-LIGAND FREE ENERGY PREDICTED BY IDOCK:   -6.28 KCAL/MOL
REMARK 924 INTRA-LIGAND FREE ENERGY PREDICTED BY IDOCK:   -0.85 KCAL/MOL
REMARK 927      BINDING AFFINITY PREDICTED BY RF-SCORE:    0.00 PKD
ROOT
HETATM    1  C   UNL     1     -10.192   4.578  66.536  1.00  0.00    -0.224 C  
HETATM    2  C   UNL     1     -10.290   5.792  67.414  1.00  0.00    -0.279 A  
HETATM    3  C   UNL     1     -10.337   7.077  66.856  1.00  0.00    -0.338 A  
HETATM    4  C   UNL     1     -10.360   8.205  67.678  1.00  0.00    -0.313 A  
HETATM    5  C   UNL     1     -10.346   8.046  69.068  1.00  0.00    -0.218 A  
HETATM    6  C   UNL     1     -10.296   5.649  68.809  1.00  0.00    -0.288 A  
HETATM    7  C   UNL     1     -10.325   6.773  69.638  1.00  0.00    -0.223 A  
ENDROOT
BRANCH   5   8
HETATM    8  S   UNL     1     -10.305   9.492  70.097  1.00  0.00    -0.276 S  
HETATM    9  O   UNL     1     -10.126   9.103  71.479  1.00  0.00    -0.319 OA 
HETATM   10  O   UNL     1      -9.391  10.431  69.470  1.00  0.00    -0.198 OA 
BRANCH   8  11
HETATM   11  N   UNL     1     -11.816  10.164  69.918  1.00  0.00    -0.436 N  
HETATM   12  H   UNL     1     -12.635   9.597  70.139  1.00  0.00     0.000 HD 
BRANCH  11  13
HETATM   13  C   UNL     1     -12.003  11.465  69.479  1.00  0.00    -0.341 C  
HETATM   14  O   UNL     1     -12.056  12.408  70.257  1.00  0.00    -0.348 OA 
BRANCH  13  15
HETATM   15  N   UNL     1     -12.153  11.570  68.106  1.00  0.00    -0.118 N  
HETATM   16  H   UNL     1     -12.869  11.007  67.646  1.00  0.00     0.000 HD 
BRANCH  15  17
HETATM   17  N   UNL     1     -11.342  12.436  67.310  1.00  0.00    -0.302 NA 
HETATM   18  C   UNL     1     -10.813  11.716  66.137  1.00  0.00    -0.294 C  
HETATM   19  C   UNL     1      -9.944  12.506  65.153  1.00  0.00    -0.212 C  
HETATM   20  C   UNL     1     -10.732  13.544  64.361  1.00  0.00    -0.402 C  
HETATM   21  C   UNL     1     -10.891  14.881  65.075  1.00  0.00    -0.439 C  
HETATM   22  C   UNL     1     -11.109  14.809  66.583  1.00  0.00    -0.333 C  
HETATM   23  C   UNL     1     -12.054  13.692  67.019  1.00  0.00    -0.380 C  
ENDBRANCH  15  17
ENDBRANCH  13  15
ENDBRANCH  11  13
ENDBRANCH   8  11
ENDBRANCH   5   8
TORSDOF 5
ENDMDL
MODEL      110
REMARK 921   NORMALIZED FREE ENERGY PREDICTED BY IDOCK:   -5.08 KCAL/MOL
REMARK 922        TOTAL FREE ENERGY PREDICTED BY IDOCK:   -7.10 KCAL/MOL
REMARK 923 INTER-LIGAND FREE ENERGY PREDICTED BY IDOCK:   -6.18 KCAL/MOL
REMARK 924 INTRA-LIGAND FREE ENERGY PREDICTED BY IDOCK:   -0.92 KCAL/MOL
REMARK 927      BINDING AFFINITY PREDICTED BY RF-SCORE:    0.00 PKD
ROOT
HETATM    1  C   UNL     1      -8.840  10.094  69.269  1.00  0.00    -0.191 C  
HETATM    2  C   UNL     1      -9.078  10.281  67.798  1.00  0.00    -0.138 A  
HETATM    3  C   UNL     1      -8.237  11.103  67.037  1.00  0.00    -0.146 A  
HETATM    4  C   UNL     1      -8.502  11.328  65.684  1.00  0.00     0.022 A  
HETATM    5  C   UNL     1      -9.611  10.718  65.089  1.00  0.00    -0.245 A  
HETATM    6  C   UNL     1     -10.174   9.661  67.182  1.00  0.00    -0.305 A  
HETATM    7  C   UNL     1     -10.442   9.875  65.828  1.00  0.00    -0.033 A  
ENDROOT
BRANCH   5   8
HETATM    8  S   UNL     1      -9.973  11.070  63.387  1.00  0.00    -0.391 S  
HETATM    9  O   UNL     1      -9.290  12.280  62.982  1.00  0.00    -0.053 OA 
HETATM   10  O   UNL     1      -9.781   9.833  62.650  1.00  0.00    -0.015 OA 
BRANCH   8  11
HETATM   11  N   UNL     1     -11.613  11.344  63.366  1.00  0.00    -0.785 N  
HETATM   12  H   UNL     1     -12.231  10.601  63.040  1.00  0.00     0.000 HD 
BRANCH  11  13
HETATM   13  C   UNL     1     -12.170  12.545  63.775  1.00  0.00    -0.525 C  
HETATM   14  O   UNL     1     -12.467  13.425  62.978  1.00  0.00    -0.667 OA 
BRANCH  13  15
HETATM   15  N   UNL     1     -12.315  12.648  65.149  1.00  0.00    -0.492 N  
HETATM   16  H   UNL     1     -12.877  11.951  65.637  1.00  0.00     0.000 HD 
BRANCH  15  17
HETATM   17  N   UNL     1     -11.706  13.696  65.907  1.00  0.00    -0.340 NA 
HETATM   18  C   UNL     1     -11.420  13.240  67.280  1.00  0.00    -0.338 C  
HETATM   19  C   UNL     1     -10.735  14.232  68.227  1.00  0.00    -0.253 C  
HETATM   20  C   UNL     1      -9.285  14.514  67.846  1.00  0.00    -0.196 C  
HETATM   21  C   UNL     1      -9.120  15.614  66.804  1.00  0.00    -0.281 C  
HETATM   22  C   UNL     1     -10.173  15.649  65.701  1.00  0.00    -0.402 C  
HETATM   23  C   UNL     1     -10.565  14.271  65.176  1.00  0.00    -0.406 C  
ENDBRANCH  15  17
ENDBRANCH  13  15
ENDBRANCH  11  13
ENDBRANCH   8  11
ENDBRANCH   5   8
TORSDOF 5
ENDMDL
MODEL      111
REMARK 921   NORMALIZED FREE ENERGY PREDICTED BY IDOCK:   -5.07 KCAL/MOL
REMARK 922        TOTAL FREE ENERGY PREDICTED BY IDOCK:   -7.09 KCAL/MOL
REMARK 923 INTER-LIGAND FREE ENERGY PREDICTED BY IDOCK:   -6.29 KCAL/MOL
REMARK 924 INTRA-LIGAND FREE ENERGY PREDICTED BY IDOCK:   -0.80 KCAL/MOL
REMARK 927      BINDING AFFINITY PREDICTED BY RF-SCORE:    0.00 PKD
ROOT
HETATM    1  C   UNL     1     -10.436   5.486  69.828  1.00  0.00    -0.389 C  
HETATM    2  C   UNL     1     -10.587   6.936  69.469  1.00  0.00    -0.261 A  
HETATM    3  C   UNL     1     -10.365   7.375  68.157  1.00  0.00    -0.235 A  
HETATM    4  C   UNL     1     -10.439   8.734  67.844  1.00  0.00    -0.275 A  
HETATM    5  C   UNL     1     -10.748   9.657  68.848  1.00  0.00    -0.206 A  
HETATM    6  C   UNL     1     -10.914   7.872  70.461  1.00  0.00    -0.250 A  
HETATM    7  C   UNL     1     -10.997   9.232  70.153  1.00  0.00    -0.278 A  
ENDROOT
BRANCH   5   8
HETATM    8  S   UNL     1     -10.770  11.386  68.446  1.00  0.00    -0.218 S  
HETATM    9  O   UNL     1     -11.685  12.080  69.326  1.00  0.00    -0.287 OA 
HETATM   10  O   UNL     1      -9.386  11.813  68.336  1.00  0.00    -0.191 OA 
BRANCH   8  11
HETATM   11  N   UNL     1     -11.370  11.438  66.896  1.00  0.00    -0.275 N  
HETATM   12  H   UNL     1     -11.567  10.560  66.416  1.00  0.00     0.000 HD 
BRANCH  11  13
HETATM   13  C   UNL     1     -11.611  12.632  66.233  1.00  0.00    -0.386 C  
HETATM   14  O   UNL     1     -12.616  12.804  65.558  1.00  0.00    -0.611 OA 
BRANCH  13  15
HETATM   15  N   UNL     1     -10.598  13.564  66.386  1.00  0.00    -0.280 N  
HETATM   16  H   UNL     1      -9.629  13.253  66.311  1.00  0.00     0.000 HD 
BRANCH  15  17
HETATM   17  N   UNL     1     -10.860  14.945  66.645  1.00  0.00    -0.314 NA 
HETATM   18  C   UNL     1     -10.904  15.198  68.098  1.00  0.00    -0.266 C  
HETATM   19  C   UNL     1     -11.146  16.640  68.558  1.00  0.00    -0.301 C  
HETATM   20  C   UNL     1      -9.966  17.562  68.271  1.00  0.00    -0.330 C  
HETATM   21  C   UNL     1      -9.972  18.160  66.868  1.00  0.00    -0.345 C  
HETATM   22  C   UNL     1     -10.450  17.235  65.754  1.00  0.00    -0.237 C  
HETATM   23  C   UNL     1      -9.942  15.802  65.877  1.00  0.00    -0.352 C  
ENDBRANCH  15  17
ENDBRANCH  13  15
ENDBRANCH  11  13
ENDBRANCH   8  11
ENDBRANCH   5   8
TORSDOF 5
ENDMDL
MODEL      112
REMARK 921   NORMALIZED FREE ENERGY PREDICTED BY IDOCK:   -5.06 KCAL/MOL
REMARK 922        TOTAL FREE ENERGY PREDICTED BY IDOCK:   -7.08 KCAL/MOL
REMARK 923 INTER-LIGAND FREE ENERGY PREDICTED BY IDOCK:   -6.51 KCAL/MOL
REMARK 924 INTRA-LIGAND FREE ENERGY PREDICTED BY IDOCK:   -0.57 KCAL/MOL
REMARK 927      BINDING AFFINITY PREDICTED BY RF-SCORE:    0.00 PKD
ROOT
HETATM    1  C   UNL     1     -12.393  14.620  64.334  1.00  0.00    -0.420 C  
HETATM    2  C   UNL     1     -11.653  13.493  64.995  1.00  0.00    -0.345 A  
HETATM    3  C   UNL     1     -10.607  12.837  64.332  1.00  0.00    -0.402 A  
HETATM    4  C   UNL     1      -9.967  11.747  64.925  1.00  0.00    -0.280 A  
HETATM    5  C   UNL     1     -10.371  11.316  66.192  1.00  0.00    -0.251 A  
HETATM    6  C   UNL     1     -12.033  13.061  66.274  1.00  0.00    -0.477 A  
HETATM    7  C   UNL     1     -11.393  11.975  66.876  1.00  0.00    -0.400 A  
ENDROOT
BRANCH   5   8
HETATM    8  S   UNL     1      -9.594   9.885  66.900  1.00  0.00    -0.187 S  
HETATM    9  O   UNL     1     -10.605   8.963  67.370  1.00  0.00    -0.277 OA 
HETATM   10  O   UNL     1      -8.576   9.448  65.960  1.00  0.00    -0.133 OA 
BRANCH   8  11
HETATM   11  N   UNL     1      -8.757  10.479  68.209  1.00  0.00    -0.130 N  
HETATM   12  H   UNL     1      -7.929  11.051  68.044  1.00  0.00     0.000 HD 
BRANCH  11  13
HETATM   13  C   UNL     1      -9.145  10.226  69.515  1.00  0.00    -0.167 C  
HETATM   14  O   UNL     1      -8.364   9.786  70.347  1.00  0.00    -0.185 OA 
BRANCH  13  15
HETATM   15  N   UNL     1     -10.484  10.485  69.755  1.00  0.00    -0.376 N  
HETATM   16  H   UNL     1     -10.960  11.180  69.181  1.00  0.00     0.000 HD 
BRANCH  15  17
HETATM   17  N   UNL     1     -11.223   9.814  70.778  1.00  0.00    -0.320 NA 
HETATM   18  C   UNL     1     -12.465  10.549  71.084  1.00  0.00    -0.412 C  
HETATM   19  C   UNL     1     -13.399   9.951  72.142  1.00  0.00    -0.498 C  
HETATM   20  C   UNL     1     -14.082   8.669  71.678  1.00  0.00    -0.468 C  
HETATM   21  C   UNL     1     -13.254   7.408  71.901  1.00  0.00    -0.292 C  
HETATM   22  C   UNL     1     -11.754   7.548  71.670  1.00  0.00    -0.313 C  
HETATM   23  C   UNL     1     -11.391   8.389  70.449  1.00  0.00    -0.172 C  
ENDBRANCH  15  17
ENDBRANCH  13  15
ENDBRANCH  11  13
ENDBRANCH   8  11
ENDBRANCH   5   8
TORSDOF 5
ENDMDL
MODEL      113
REMARK 921   NORMALIZED FREE ENERGY PREDICTED BY IDOCK:   -5.05 KCAL/MOL
REMARK 922        TOTAL FREE ENERGY PREDICTED BY IDOCK:   -7.06 KCAL/MOL
REMARK 923 INTER-LIGAND FREE ENERGY PREDICTED BY IDOCK:   -6.40 KCAL/MOL
REMARK 924 INTRA-LIGAND FREE ENERGY PREDICTED BY IDOCK:   -0.66 KCAL/MOL
REMARK 927      BINDING AFFINITY PREDICTED BY RF-SCORE:    0.00 PKD
ROOT
HETATM    1  C   UNL     1      -5.727  16.876  68.703  1.00  0.00    -0.136 C  
HETATM    2  C   UNL     1      -6.989  16.501  67.981  1.00  0.00    -0.153 A  
HETATM    3  C   UNL     1      -7.150  15.218  67.442  1.00  0.00    -0.223 A  
HETATM    4  C   UNL     1      -8.296  14.895  66.713  1.00  0.00    -0.158 A  
HETATM    5  C   UNL     1      -9.292  15.860  66.531  1.00  0.00    -0.277 A  
HETATM    6  C   UNL     1      -8.005  17.452  67.807  1.00  0.00    -0.208 A  
HETATM    7  C   UNL     1      -9.158  17.134  67.085  1.00  0.00    -0.237 A  
ENDROOT
BRANCH   5   8
HETATM    8  S   UNL     1     -10.710  15.455  65.544  1.00  0.00    -0.406 S  
HETATM    9  O   UNL     1     -11.746  14.892  66.383  1.00  0.00    -0.307 OA 
HETATM   10  O   UNL     1     -10.986  16.609  64.706  1.00  0.00    -0.705 OA 
BRANCH   8  11
HETATM   11  N   UNL     1     -10.162  14.279  64.504  1.00  0.00    -0.587 N  
HETATM   12  H   UNL     1      -9.502  14.539  63.770  1.00  0.00     0.000 HD 
BRANCH  11  13
HETATM   13  C   UNL     1     -10.568  12.957  64.597  1.00  0.00    -0.363 C  
HETATM   14  O   UNL     1     -11.470  12.507  63.904  1.00  0.00    -0.366 OA 
BRANCH  13  15
HETATM   15  N   UNL     1      -9.883  12.234  65.560  1.00  0.00    -0.316 N  
HETATM   16  H   UNL     1      -8.863  12.257  65.558  1.00  0.00     0.000 HD 
BRANCH  15  17
HETATM   17  N   UNL     1     -10.552  11.459  66.557  1.00  0.00    -0.253 NA 
HETATM   18  C   UNL     1      -9.921  10.132  66.689  1.00  0.00    -0.216 C  
HETATM   19  C   UNL     1     -10.495   9.176  67.741  1.00  0.00    -0.306 C  
HETATM   20  C   UNL     1     -10.219   9.629  69.171  1.00  0.00    -0.212 C  
HETATM   21  C   UNL     1     -11.242  10.618  69.718  1.00  0.00    -0.363 C  
HETATM   22  C   UNL     1     -11.765  11.651  68.726  1.00  0.00    -0.392 C  
HETATM   23  C   UNL     1     -10.691  12.226  67.806  1.00  0.00    -0.217 C  
ENDBRANCH  15  17
ENDBRANCH  13  15
ENDBRANCH  11  13
ENDBRANCH   8  11
ENDBRANCH   5   8
TORSDOF 5
ENDMDL
MODEL      114
REMARK 921   NORMALIZED FREE ENERGY PREDICTED BY IDOCK:   -5.03 KCAL/MOL
REMARK 922        TOTAL FREE ENERGY PREDICTED BY IDOCK:   -7.04 KCAL/MOL
REMARK 923 INTER-LIGAND FREE ENERGY PREDICTED BY IDOCK:   -5.96 KCAL/MOL
REMARK 924 INTRA-LIGAND FREE ENERGY PREDICTED BY IDOCK:   -1.08 KCAL/MOL
REMARK 927      BINDING AFFINITY PREDICTED BY RF-SCORE:    0.00 PKD
ROOT
HETATM    1  C   UNL     1     -10.502   9.575  69.950  1.00  0.00    -0.269 C  
HETATM    2  C   UNL     1      -9.784   9.350  68.651  1.00  0.00    -0.160 A  
HETATM    3  C   UNL     1      -8.630  10.080  68.334  1.00  0.00    -0.113 A  
HETATM    4  C   UNL     1      -8.006   9.915  67.096  1.00  0.00    -0.109 A  
HETATM    5  C   UNL     1      -8.533   9.007  66.174  1.00  0.00    -0.127 A  
HETATM    6  C   UNL     1     -10.289   8.428  67.722  1.00  0.00    -0.297 A  
HETATM    7  C   UNL     1      -9.666   8.253  66.484  1.00  0.00    -0.323 A  
ENDROOT
BRANCH   5   8
HETATM    8  S   UNL     1      -7.767   8.861  64.579  1.00  0.00    -0.126 S  
HETATM    9  O   UNL     1      -6.795   9.919  64.405  1.00  0.00    -0.115 OA 
HETATM   10  O   UNL     1      -7.381   7.470  64.421  1.00  0.00    -0.076 OA 
BRANCH   8  11
HETATM   11  N   UNL     1      -9.015   9.095  63.503  1.00  0.00    -0.422 N  
HETATM   12  H   UNL     1      -9.450   8.280  63.071  1.00  0.00     0.000 HD 
BRANCH  11  13
HETATM   13  C   UNL     1      -9.484  10.357  63.174  1.00  0.00    -0.327 C  
HETATM   14  O   UNL     1      -8.903  11.073  62.370  1.00  0.00    -0.289 OA 
BRANCH  13  15
HETATM   15  N   UNL     1     -10.630  10.718  63.864  1.00  0.00    -0.493 N  
HETATM   16  H   UNL     1     -11.421  10.075  63.872  1.00  0.00     0.000 HD 
BRANCH  15  17
HETATM   17  N   UNL     1     -10.743  11.959  64.564  1.00  0.00    -0.294 NA 
HETATM   18  C   UNL     1     -11.659  12.871  63.853  1.00  0.00    -0.453 C  
HETATM   19  C   UNL     1     -11.922  14.243  64.485  1.00  0.00    -0.478 C  
HETATM   20  C   UNL     1     -12.742  14.161  65.768  1.00  0.00    -0.443 C  
HETATM   21  C   UNL     1     -11.912  13.903  67.020  1.00  0.00    -0.459 C  
HETATM   22  C   UNL     1     -10.738  12.943  66.854  1.00  0.00    -0.272 C  
HETATM   23  C   UNL     1     -11.051  11.727  65.985  1.00  0.00    -0.312 C  
ENDBRANCH  15  17
ENDBRANCH  13  15
ENDBRANCH  11  13
ENDBRANCH   8  11
ENDBRANCH   5   8
TORSDOF 5
ENDMDL
MODEL      115
REMARK 921   NORMALIZED FREE ENERGY PREDICTED BY IDOCK:   -5.02 KCAL/MOL
REMARK 922        TOTAL FREE ENERGY PREDICTED BY IDOCK:   -7.03 KCAL/MOL
REMARK 923 INTER-LIGAND FREE ENERGY PREDICTED BY IDOCK:   -6.61 KCAL/MOL
REMARK 924 INTRA-LIGAND FREE ENERGY PREDICTED BY IDOCK:   -0.42 KCAL/MOL
REMARK 927      BINDING AFFINITY PREDICTED BY RF-SCORE:    0.00 PKD
ROOT
HETATM    1  C   UNL     1     -10.065  18.357  66.556  1.00  0.00    -0.406 C  
HETATM    2  C   UNL     1     -10.379  16.891  66.636  1.00  0.00    -0.299 A  
HETATM    3  C   UNL     1     -10.375  16.094  65.483  1.00  0.00    -0.391 A  
HETATM    4  C   UNL     1     -10.734  14.747  65.554  1.00  0.00    -0.369 A  
HETATM    5  C   UNL     1     -11.090  14.191  66.787  1.00  0.00    -0.310 A  
HETATM    6  C   UNL     1     -10.719  16.315  67.868  1.00  0.00    -0.329 A  
HETATM    7  C   UNL     1     -11.073  14.966  67.948  1.00  0.00    -0.304 A  
ENDROOT
BRANCH   5   8
HETATM    8  S   UNL     1     -11.610  12.495  66.846  1.00  0.00    -0.368 S  
HETATM    9  O   UNL     1     -12.255  12.226  68.113  1.00  0.00    -0.349 OA 
HETATM   10  O   UNL     1     -12.296  12.219  65.596  1.00  0.00    -0.619 OA 
BRANCH   8  11
HETATM   11  N   UNL     1     -10.192  11.629  66.769  1.00  0.00    -0.213 N  
HETATM   12  H   UNL     1      -9.789  11.426  65.854  1.00  0.00     0.000 HD 
BRANCH  11  13
HETATM   13  C   UNL     1      -9.538  11.174  67.903  1.00  0.00    -0.175 C  
HETATM   14  O   UNL     1      -8.888  11.924  68.619  1.00  0.00    -0.139 OA 
BRANCH  13  15
HETATM   15  N   UNL     1      -9.669   9.811  68.108  1.00  0.00    -0.143 N  
HETATM   16  H   UNL     1      -9.042   9.177  67.614  1.00  0.00     0.000 HD 
BRANCH  15  17
HETATM   17  N   UNL     1     -10.653   9.259  68.986  1.00  0.00    -0.219 NA 
HETATM   18  C   UNL     1     -10.391   7.827  69.220  1.00  0.00    -0.219 C  
HETATM   19  C   UNL     1     -11.337   7.080  70.168  1.00  0.00    -0.321 C  
HETATM   20  C   UNL     1     -11.183   7.511  71.623  1.00  0.00    -0.275 C  
HETATM   21  C   UNL     1     -12.007   8.738  71.998  1.00  0.00    -0.446 C  
HETATM   22  C   UNL     1     -12.103   9.825  70.933  1.00  0.00    -0.407 C  
HETATM   23  C   UNL     1     -10.793  10.087  70.196  1.00  0.00    -0.311 C  
ENDBRANCH  15  17
ENDBRANCH  13  15
ENDBRANCH  11  13
ENDBRANCH   8  11
ENDBRANCH   5   8
TORSDOF 5
ENDMDL
MODEL      116
REMARK 921   NORMALIZED FREE ENERGY PREDICTED BY IDOCK:   -5.02 KCAL/MOL
REMARK 922        TOTAL FREE ENERGY PREDICTED BY IDOCK:   -7.03 KCAL/MOL
REMARK 923 INTER-LIGAND FREE ENERGY PREDICTED BY IDOCK:   -6.64 KCAL/MOL
REMARK 924 INTRA-LIGAND FREE ENERGY PREDICTED BY IDOCK:   -0.38 KCAL/MOL
REMARK 927      BINDING AFFINITY PREDICTED BY RF-SCORE:    0.00 PKD
ROOT
HETATM    1  C   UNL     1     -12.147  14.689  64.470  1.00  0.00    -0.490 C  
HETATM    2  C   UNL     1     -11.850  13.640  65.502  1.00  0.00    -0.382 A  
HETATM    3  C   UNL     1     -12.127  13.870  66.857  1.00  0.00    -0.467 A  
HETATM    4  C   UNL     1     -11.786  12.919  67.820  1.00  0.00    -0.412 A  
HETATM    5  C   UNL     1     -11.173  11.725  67.425  1.00  0.00    -0.297 A  
HETATM    6  C   UNL     1     -11.253  12.430  65.119  1.00  0.00    -0.356 A  
HETATM    7  C   UNL     1     -10.915  11.470  66.077  1.00  0.00    -0.316 A  
ENDROOT
BRANCH   5   8
HETATM    8  S   UNL     1     -10.684  10.558  68.669  1.00  0.00    -0.233 S  
HETATM    9  O   UNL     1      -9.332  10.841  69.100  1.00  0.00    -0.190 OA 
HETATM   10  O   UNL     1     -11.767  10.491  69.634  1.00  0.00    -0.258 OA 
BRANCH   8  11
HETATM   11  N   UNL     1     -10.704   9.091  67.885  1.00  0.00    -0.438 N  
HETATM   12  H   UNL     1     -10.966   9.065  66.899  1.00  0.00     0.000 HD 
BRANCH  11  13
HETATM   13  C   UNL     1     -10.378   7.904  68.521  1.00  0.00    -0.200 C  
HETATM   14  O   UNL     1      -9.245   7.444  68.490  1.00  0.00    -0.143 OA 
BRANCH  13  15
HETATM   15  N   UNL     1     -11.454   7.299  69.148  1.00  0.00    -0.362 N  
HETATM   16  H   UNL     1     -12.298   7.113  68.605  1.00  0.00     0.000 HD 
BRANCH  15  17
HETATM   17  N   UNL     1     -11.427   6.924  70.527  1.00  0.00    -0.322 NA 
HETATM   18  C   UNL     1     -10.754   5.622  70.695  1.00  0.00    -0.263 C  
HETATM   19  C   UNL     1     -10.608   5.081  72.122  1.00  0.00    -0.259 C  
HETATM   20  C   UNL     1      -9.621   5.881  72.965  1.00  0.00    -0.158 C  
HETATM   21  C   UNL     1     -10.231   7.102  73.644  1.00  0.00    -0.402 C  
HETATM   22  C   UNL     1     -11.267   7.868  72.828  1.00  0.00    -0.466 C  
HETATM   23  C   UNL     1     -10.903   8.024  71.354  1.00  0.00    -0.231 C  
ENDBRANCH  15  17
ENDBRANCH  13  15
ENDBRANCH  11  13
ENDBRANCH   8  11
ENDBRANCH   5   8
TORSDOF 5
ENDMDL
MODEL      117
REMARK 921   NORMALIZED FREE ENERGY PREDICTED BY IDOCK:   -4.99 KCAL/MOL
REMARK 922        TOTAL FREE ENERGY PREDICTED BY IDOCK:   -6.99 KCAL/MOL
REMARK 923 INTER-LIGAND FREE ENERGY PREDICTED BY IDOCK:   -6.10 KCAL/MOL
REMARK 924 INTRA-LIGAND FREE ENERGY PREDICTED BY IDOCK:   -0.89 KCAL/MOL
REMARK 927      BINDING AFFINITY PREDICTED BY RF-SCORE:    0.00 PKD
ROOT
HETATM    1  C   UNL     1     -13.441  13.253  72.460  1.00  0.00    -0.620 C  
HETATM    2  C   UNL     1     -12.787  12.997  71.133  1.00  0.00    -0.331 A  
HETATM    3  C   UNL     1     -12.364  11.709  70.780  1.00  0.00    -0.454 A  
HETATM    4  C   UNL     1     -11.695  11.489  69.574  1.00  0.00    -0.413 A  
HETATM    5  C   UNL     1     -11.456  12.564  68.712  1.00  0.00    -0.310 A  
HETATM    6  C   UNL     1     -12.557  14.062  70.249  1.00  0.00    -0.354 A  
HETATM    7  C   UNL     1     -11.894  13.848  69.038  1.00  0.00    -0.397 A  
ENDROOT
BRANCH   5   8
HETATM    8  S   UNL     1     -10.544  12.279  67.216  1.00  0.00    -0.228 S  
HETATM    9  O   UNL     1     -11.131  11.175  66.489  1.00  0.00    -0.263 OA 
HETATM   10  O   UNL     1     -10.363  13.571  66.578  1.00  0.00    -0.272 OA 
BRANCH   8  11
HETATM   11  N   UNL     1      -9.029  11.832  67.740  1.00  0.00    -0.167 N  
HETATM   12  H   UNL     1      -8.573  12.393  68.459  1.00  0.00     0.000 HD 
BRANCH  11  13
HETATM   13  C   UNL     1      -8.365  10.725  67.235  1.00  0.00    -0.124 C  
HETATM   14  O   UNL     1      -7.885  10.717  66.110  1.00  0.00    -0.150 OA 
BRANCH  13  15
HETATM   15  N   UNL     1      -8.339   9.650  68.108  1.00  0.00    -0.117 N  
HETATM   16  H   UNL     1      -7.481   9.457  68.624  1.00  0.00     0.000 HD 
BRANCH  15  17
HETATM   17  N   UNL     1      -9.471   8.801  68.312  1.00  0.00    -0.140 NA 
HETATM   18  C   UNL     1      -9.571   7.806  67.227  1.00  0.00    -0.161 C  
HETATM   19  C   UNL     1     -10.716   6.789  67.304  1.00  0.00    -0.423 C  
HETATM   20  C   UNL     1     -10.540   5.778  68.433  1.00  0.00    -0.289 C  
HETATM   21  C   UNL     1     -11.065   6.256  69.782  1.00  0.00    -0.473 C  
HETATM   22  C   UNL     1     -10.843   7.732  70.097  1.00  0.00    -0.248 C  
HETATM   23  C   UNL     1      -9.471   8.255  69.679  1.00  0.00    -0.163 C  
ENDBRANCH  15  17
ENDBRANCH  13  15
ENDBRANCH  11  13
ENDBRANCH   8  11
ENDBRANCH   5   8
TORSDOF 5
ENDMDL
MODEL      118
REMARK 921   NORMALIZED FREE ENERGY PREDICTED BY IDOCK:   -4.98 KCAL/MOL
REMARK 922        TOTAL FREE ENERGY PREDICTED BY IDOCK:   -6.98 KCAL/MOL
REMARK 923 INTER-LIGAND FREE ENERGY PREDICTED BY IDOCK:   -5.72 KCAL/MOL
REMARK 924 INTRA-LIGAND FREE ENERGY PREDICTED BY IDOCK:   -1.25 KCAL/MOL
REMARK 927      BINDING AFFINITY PREDICTED BY RF-SCORE:    0.00 PKD
ROOT
HETATM    1  C   UNL     1      -9.860  18.428  68.445  1.00  0.00    -0.396 C  
HETATM    2  C   UNL     1     -10.381  17.156  67.840  1.00  0.00    -0.350 A  
HETATM    3  C   UNL     1     -11.272  16.339  68.549  1.00  0.00    -0.359 A  
HETATM    4  C   UNL     1     -11.700  15.124  68.009  1.00  0.00    -0.304 A  
HETATM    5  C   UNL     1     -11.240  14.729  66.749  1.00  0.00    -0.344 A  
HETATM    6  C   UNL     1      -9.944  16.755  66.569  1.00  0.00    -0.308 A  
HETATM    7  C   UNL     1     -10.373  15.544  66.020  1.00  0.00    -0.342 A  
ENDROOT
BRANCH   5   8
HETATM    8  S   UNL     1     -11.739  13.150  66.110  1.00  0.00    -0.401 S  
HETATM    9  O   UNL     1     -12.042  12.253  67.204  1.00  0.00    -0.560 OA 
HETATM   10  O   UNL     1     -12.722  13.406  65.071  1.00  0.00    -0.623 OA 
BRANCH   8  11
HETATM   11  N   UNL     1     -10.393  12.589  65.311  1.00  0.00    -0.283 N  
HETATM   12  H   UNL     1     -10.030  13.124  64.522  1.00  0.00     0.000 HD 
BRANCH  11  13
HETATM   13  C   UNL     1      -9.746  11.419  65.678  1.00  0.00    -0.231 C  
HETATM   14  O   UNL     1      -9.734  10.433  64.954  1.00  0.00    -0.258 OA 
BRANCH  13  15
HETATM   15  N   UNL     1      -9.165  11.479  66.933  1.00  0.00    -0.172 N  
HETATM   16  H   UNL     1      -9.453  10.803  67.641  1.00  0.00     0.000 HD 
BRANCH  15  17
HETATM   17  N   UNL     1      -8.176  12.453  67.274  1.00  0.00    -0.177 NA 
HETATM   18  C   UNL     1      -8.641  13.291  68.396  1.00  0.00    -0.130 C  
HETATM   19  C   UNL     1      -7.687  14.373  68.914  1.00  0.00    -0.128 C  
HETATM   20  C   UNL     1      -6.471  13.800  69.635  1.00  0.00    -0.094 C  
HETATM   21  C   UNL     1      -5.318  13.428  68.709  1.00  0.00    -0.071 C  
HETATM   22  C   UNL     1      -5.712  12.819  67.368  1.00  0.00    -0.077 C  
HETATM   23  C   UNL     1      -6.860  11.817  67.456  1.00  0.00    -0.113 C  
ENDBRANCH  15  17
ENDBRANCH  13  15
ENDBRANCH  11  13
ENDBRANCH   8  11
ENDBRANCH   5   8
TORSDOF 5
ENDMDL
MODEL      119
REMARK 921   NORMALIZED FREE ENERGY PREDICTED BY IDOCK:   -4.97 KCAL/MOL
REMARK 922        TOTAL FREE ENERGY PREDICTED BY IDOCK:   -6.96 KCAL/MOL
REMARK 923 INTER-LIGAND FREE ENERGY PREDICTED BY IDOCK:   -6.71 KCAL/MOL
REMARK 924 INTRA-LIGAND FREE ENERGY PREDICTED BY IDOCK:   -0.25 KCAL/MOL
REMARK 927      BINDING AFFINITY PREDICTED BY RF-SCORE:    0.00 PKD
ROOT
HETATM    1  C   UNL     1     -13.351  15.831  72.798  1.00  0.00    -0.636 C  
HETATM    2  C   UNL     1     -13.090  14.573  72.021  1.00  0.00    -0.425 A  
HETATM    3  C   UNL     1     -13.441  13.322  72.546  1.00  0.00    -0.620 A  
HETATM    4  C   UNL     1     -13.135  12.151  71.849  1.00  0.00    -0.475 A  
HETATM    5  C   UNL     1     -12.482  12.234  70.615  1.00  0.00    -0.236 A  
HETATM    6  C   UNL     1     -12.453  14.640  70.773  1.00  0.00    -0.407 A  
HETATM    7  C   UNL     1     -12.150  13.473  70.067  1.00  0.00    -0.411 A  
ENDROOT
BRANCH   5   8
HETATM    8  S   UNL     1     -12.038  10.733  69.777  1.00  0.00    -0.285 S  
HETATM    9  O   UNL     1     -12.585   9.597  70.487  1.00  0.00    -0.117 OA 
HETATM   10  O   UNL     1     -12.330  10.934  68.369  1.00  0.00    -0.477 OA 
BRANCH   8  11
HETATM   11  N   UNL     1     -10.379  10.684  69.878  1.00  0.00    -0.444 N  
HETATM   12  H   UNL     1      -9.900  11.376  70.455  1.00  0.00     0.000 HD 
BRANCH  11  13
HETATM   13  C   UNL     1      -9.622   9.735  69.208  1.00  0.00    -0.197 C  
HETATM   14  O   UNL     1      -9.786   9.500  68.019  1.00  0.00    -0.143 OA 
BRANCH  13  15
HETATM   15  N   UNL     1      -8.712   9.079  70.020  1.00  0.00    -0.143 N  
HETATM   16  H   UNL     1      -7.724   9.319  69.946  1.00  0.00     0.000 HD 
BRANCH  15  17
HETATM   17  N   UNL     1      -9.108   8.076  70.959  1.00  0.00    -0.145 NA 
HETATM   18  C   UNL     1      -9.455   8.690  72.255  1.00  0.00    -0.265 C  
HETATM   19  C   UNL     1      -9.933   7.758  73.374  1.00  0.00    -0.348 C  
HETATM   20  C   UNL     1     -11.311   7.162  73.104  1.00  0.00    -0.133 C  
HETATM   21  C   UNL     1     -11.286   5.896  72.256  1.00  0.00    -0.343 C  
HETATM   22  C   UNL     1     -10.259   5.872  71.128  1.00  0.00    -0.266 C  
HETATM   23  C   UNL     1     -10.133   7.194  70.377  1.00  0.00    -0.191 C  
ENDBRANCH  15  17
ENDBRANCH  13  15
ENDBRANCH  11  13
ENDBRANCH   8  11
ENDBRANCH   5   8
TORSDOF 5
ENDMDL
MODEL      120
REMARK 921   NORMALIZED FREE ENERGY PREDICTED BY IDOCK:   -4.97 KCAL/MOL
REMARK 922        TOTAL FREE ENERGY PREDICTED BY IDOCK:   -6.96 KCAL/MOL
REMARK 923 INTER-LIGAND FREE ENERGY PREDICTED BY IDOCK:   -6.39 KCAL/MOL
REMARK 924 INTRA-LIGAND FREE ENERGY PREDICTED BY IDOCK:   -0.57 KCAL/MOL
REMARK 927      BINDING AFFINITY PREDICTED BY RF-SCORE:    0.00 PKD
ROOT
HETATM    1  C   UNL     1     -11.735  15.616  72.197  1.00  0.00    -0.576 C  
HETATM    2  C   UNL     1     -11.822  15.113  70.785  1.00  0.00    -0.371 A  
HETATM    3  C   UNL     1     -11.987  13.746  70.521  1.00  0.00    -0.367 A  
HETATM    4  C   UNL     1     -11.998  13.276  69.207  1.00  0.00    -0.354 A  
HETATM    5  C   UNL     1     -11.853  14.179  68.150  1.00  0.00    -0.352 A  
HETATM    6  C   UNL     1     -11.697  16.009  69.713  1.00  0.00    -0.267 A  
HETATM    7  C   UNL     1     -11.714  15.546  68.395  1.00  0.00    -0.323 A  
ENDROOT
BRANCH   5   8
HETATM    8  S   UNL     1     -11.800  13.556  66.489  1.00  0.00    -0.415 S  
HETATM    9  O   UNL     1     -12.088  12.137  66.490  1.00  0.00    -0.627 OA 
HETATM   10  O   UNL     1     -12.580  14.467  65.670  1.00  0.00    -0.408 OA 
BRANCH   8  11
HETATM   11  N   UNL     1     -10.221  13.783  66.017  1.00  0.00    -0.301 N  
HETATM   12  H   UNL     1      -9.988  14.606  65.461  1.00  0.00     0.000 HD 
BRANCH  11  13
HETATM   13  C   UNL     1      -9.211  12.895  66.351  1.00  0.00    -0.137 C  
HETATM   14  O   UNL     1      -8.249  13.234  67.025  1.00  0.00    -0.148 OA 
BRANCH  13  15
HETATM   15  N   UNL     1      -9.391  11.628  65.820  1.00  0.00    -0.280 N  
HETATM   16  H   UNL     1      -9.661  11.540  64.841  1.00  0.00     0.000 HD 
BRANCH  15  17
HETATM   17  N   UNL     1      -9.211  10.440  66.595  1.00  0.00    -0.154 NA 
HETATM   18  C   UNL     1      -9.423  10.722  68.028  1.00  0.00    -0.160 C  
HETATM   19  C   UNL     1      -9.300   9.547  69.005  1.00  0.00    -0.155 C  
HETATM   20  C   UNL     1     -10.437   8.539  68.870  1.00  0.00    -0.207 C  
HETATM   21  C   UNL     1     -10.206   7.483  67.796  1.00  0.00    -0.257 C  
HETATM   22  C   UNL     1      -9.521   7.968  66.523  1.00  0.00    -0.278 C  
HETATM   23  C   UNL     1     -10.006   9.332  66.039  1.00  0.00    -0.255 C  
ENDBRANCH  15  17
ENDBRANCH  13  15
ENDBRANCH  11  13
ENDBRANCH   8  11
ENDBRANCH   5   8
TORSDOF 5
ENDMDL
MODEL      121
REMARK 921   NORMALIZED FREE ENERGY PREDICTED BY IDOCK:   -4.95 KCAL/MOL
REMARK 922        TOTAL FREE ENERGY PREDICTED BY IDOCK:   -6.94 KCAL/MOL
REMARK 923 INTER-LIGAND FREE ENERGY PREDICTED BY IDOCK:   -6.30 KCAL/MOL
REMARK 924 INTRA-LIGAND FREE ENERGY PREDICTED BY IDOCK:   -0.64 KCAL/MOL
REMARK 927      BINDING AFFINITY PREDICTED BY RF-SCORE:    0.00 PKD
ROOT
HETATM    1  C   UNL     1      -7.076  20.315  65.751  1.00  0.00    -0.284 C  
HETATM    2  C   UNL     1      -7.815  19.064  66.131  1.00  0.00    -0.283 A  
HETATM    3  C   UNL     1      -7.192  17.812  66.046  1.00  0.00    -0.322 A  
HETATM    4  C   UNL     1      -7.905  16.646  66.335  1.00  0.00    -0.347 A  
HETATM    5  C   UNL     1      -9.246  16.736  66.720  1.00  0.00    -0.243 A  
HETATM    6  C   UNL     1      -9.155  19.139  66.538  1.00  0.00    -0.365 A  
HETATM    7  C   UNL     1      -9.872  17.978  66.835  1.00  0.00    -0.330 A  
ENDROOT
BRANCH   5   8
HETATM    8  S   UNL     1     -10.156  15.241  67.016  1.00  0.00    -0.252 S  
HETATM    9  O   UNL     1     -10.484  15.139  68.422  1.00  0.00    -0.226 OA 
HETATM   10  O   UNL     1     -11.199  15.174  66.008  1.00  0.00    -0.338 OA 
BRANCH   8  11
HETATM   11  N   UNL     1      -9.088  14.028  66.624  1.00  0.00    -0.392 N  
HETATM   12  H   UNL     1      -8.222  14.272  66.143  1.00  0.00     0.000 HD 
BRANCH  11  13
HETATM   13  C   UNL     1      -9.331  12.697  66.927  1.00  0.00    -0.228 C  
HETATM   14  O   UNL     1      -8.509  11.821  66.697  1.00  0.00    -0.176 OA 
BRANCH  13  15
HETATM   15  N   UNL     1     -10.586  12.474  67.468  1.00  0.00    -0.218 N  
HETATM   16  H   UNL     1     -11.409  12.707  66.913  1.00  0.00     0.000 HD 
BRANCH  15  17
HETATM   17  N   UNL     1     -10.770  11.930  68.777  1.00  0.00    -0.225 NA 
HETATM   18  C   UNL     1     -12.008  12.455  69.385  1.00  0.00    -0.260 C  
HETATM   19  C   UNL     1     -12.378  11.950  70.784  1.00  0.00    -0.416 C  
HETATM   20  C   UNL     1     -12.803  10.485  70.795  1.00  0.00    -0.454 C  
HETATM   21  C   UNL     1     -11.643   9.502  70.903  1.00  0.00    -0.398 C  
HETATM   22  C   UNL     1     -10.380   9.879  70.137  1.00  0.00    -0.336 C  
HETATM   23  C   UNL     1     -10.646  10.463  68.752  1.00  0.00    -0.208 C  
ENDBRANCH  15  17
ENDBRANCH  13  15
ENDBRANCH  11  13
ENDBRANCH   8  11
ENDBRANCH   5   8
TORSDOF 5
ENDMDL
MODEL      122
REMARK 921   NORMALIZED FREE ENERGY PREDICTED BY IDOCK:   -4.95 KCAL/MOL
REMARK 922        TOTAL FREE ENERGY PREDICTED BY IDOCK:   -6.93 KCAL/MOL
REMARK 923 INTER-LIGAND FREE ENERGY PREDICTED BY IDOCK:   -6.05 KCAL/MOL
REMARK 924 INTRA-LIGAND FREE ENERGY PREDICTED BY IDOCK:   -0.89 KCAL/MOL
REMARK 927      BINDING AFFINITY PREDICTED BY RF-SCORE:    0.00 PKD
ROOT
HETATM    1  C   UNL     1      -5.215  14.602  69.624  1.00  0.00    -0.091 C  
HETATM    2  C   UNL     1      -6.587  14.950  69.122  1.00  0.00    -0.117 A  
HETATM    3  C   UNL     1      -7.415  13.967  68.562  1.00  0.00    -0.124 A  
HETATM    4  C   UNL     1      -8.662  14.309  68.036  1.00  0.00    -0.177 A  
HETATM    5  C   UNL     1      -9.086  15.641  68.078  1.00  0.00    -0.183 A  
HETATM    6  C   UNL     1      -7.035  16.278  69.174  1.00  0.00    -0.206 A  
HETATM    7  C   UNL     1      -8.284  16.626  68.655  1.00  0.00    -0.245 A  
ENDROOT
BRANCH   5   8
HETATM    8  S   UNL     1     -10.644  16.069  67.341  1.00  0.00    -0.306 S  
HETATM    9  O   UNL     1     -11.675  16.089  68.356  1.00  0.00    -0.346 OA 
HETATM   10  O   UNL     1     -10.410  17.231  66.503  1.00  0.00    -0.321 OA 
BRANCH   8  11
HETATM   11  N   UNL     1     -10.953  14.821  66.285  1.00  0.00    -0.325 N  
HETATM   12  H   UNL     1     -10.218  14.529  65.642  1.00  0.00     0.000 HD 
BRANCH  11  13
HETATM   13  C   UNL     1     -12.173  14.165  66.248  1.00  0.00    -0.449 C  
HETATM   14  O   UNL     1     -12.858  14.131  65.234  1.00  0.00    -0.670 OA 
BRANCH  13  15
HETATM   15  N   UNL     1     -12.536  13.602  67.460  1.00  0.00    -0.292 N  
HETATM   16  H   UNL     1     -13.152  14.126  68.080  1.00  0.00     0.000 HD 
BRANCH  15  17
HETATM   17  N   UNL     1     -12.078  12.312  67.873  1.00  0.00    -0.434 NA 
HETATM   18  C   UNL     1     -11.118  11.767  66.893  1.00  0.00    -0.307 C  
HETATM   19  C   UNL     1     -10.499  10.398  67.196  1.00  0.00    -0.311 C  
HETATM   20  C   UNL     1      -9.528  10.429  68.371  1.00  0.00    -0.151 C  
HETATM   21  C   UNL     1     -10.194  10.270  69.732  1.00  0.00    -0.262 C  
HETATM   22  C   UNL     1     -11.544  10.959  69.897  1.00  0.00    -0.410 C  
HETATM   23  C   UNL     1     -11.611  12.349  69.269  1.00  0.00    -0.319 C  
ENDBRANCH  15  17
ENDBRANCH  13  15
ENDBRANCH  11  13
ENDBRANCH   8  11
ENDBRANCH   5   8
TORSDOF 5
ENDMDL
MODEL      123
REMARK 921   NORMALIZED FREE ENERGY PREDICTED BY IDOCK:   -4.94 KCAL/MOL
REMARK 922        TOTAL FREE ENERGY PREDICTED BY IDOCK:   -6.92 KCAL/MOL
REMARK 923 INTER-LIGAND FREE ENERGY PREDICTED BY IDOCK:   -6.76 KCAL/MOL
REMARK 924 INTRA-LIGAND FREE ENERGY PREDICTED BY IDOCK:   -0.16 KCAL/MOL
REMARK 927      BINDING AFFINITY PREDICTED BY RF-SCORE:    0.00 PKD
ROOT
HETATM    1  C   UNL     1     -12.261  14.029  70.567  1.00  0.00    -0.435 C  
HETATM    2  C   UNL     1     -12.381  12.540  70.727  1.00  0.00    -0.376 A  
HETATM    3  C   UNL     1     -13.117  11.992  71.786  1.00  0.00    -0.460 A  
HETATM    4  C   UNL     1     -13.169  10.608  71.970  1.00  0.00    -0.473 A  
HETATM    5  C   UNL     1     -12.487   9.769  71.083  1.00  0.00    -0.350 A  
HETATM    6  C   UNL     1     -11.719  11.685  69.835  1.00  0.00    -0.414 A  
HETATM    7  C   UNL     1     -11.771  10.299  70.009  1.00  0.00    -0.330 A  
ENDROOT
BRANCH   5   8
HETATM    8  S   UNL     1     -12.507   8.018  71.372  1.00  0.00    -0.273 S  
HETATM    9  O   UNL     1     -13.859   7.517  71.250  1.00  0.00    -0.347 OA 
HETATM   10  O   UNL     1     -11.434   7.446  70.578  1.00  0.00    -0.282 OA 
BRANCH   8  11
HETATM   11  N   UNL     1     -12.015   7.859  72.953  1.00  0.00    -0.619 N  
HETATM   12  H   UNL     1     -12.677   8.077  73.698  1.00  0.00     0.000 HD 
BRANCH  11  13
HETATM   13  C   UNL     1     -10.738   7.442  73.295  1.00  0.00    -0.391 C  
HETATM   14  O   UNL     1      -9.743   8.083  72.984  1.00  0.00    -0.259 OA 
BRANCH  13  15
HETATM   15  N   UNL     1     -10.714   6.236  73.976  1.00  0.00    -0.414 N  
HETATM   16  H   UNL     1     -11.198   6.168  74.871  1.00  0.00     0.000 HD 
BRANCH  15  17
HETATM   17  N   UNL     1     -10.035   5.084  73.471  1.00  0.00    -0.151 NA 
HETATM   18  C   UNL     1     -10.391   3.888  74.258  1.00  0.00    -0.206 C  
HETATM   19  C   UNL     1      -9.774   2.551  73.832  1.00  0.00    -0.129 C  
HETATM   20  C   UNL     1     -10.322   2.038  72.505  1.00  0.00    -0.228 C  
HETATM   21  C   UNL     1      -9.606   2.596  71.280  1.00  0.00    -0.226 C  
HETATM   22  C   UNL     1      -9.182   4.058  71.366  1.00  0.00    -0.193 C  
HETATM   23  C   UNL     1     -10.222   4.967  72.015  1.00  0.00    -0.201 C  
ENDBRANCH  15  17
ENDBRANCH  13  15
ENDBRANCH  11  13
ENDBRANCH   8  11
ENDBRANCH   5   8
TORSDOF 5
ENDMDL
MODEL      124
REMARK 921   NORMALIZED FREE ENERGY PREDICTED BY IDOCK:   -4.94 KCAL/MOL
REMARK 922        TOTAL FREE ENERGY PREDICTED BY IDOCK:   -6.92 KCAL/MOL
REMARK 923 INTER-LIGAND FREE ENERGY PREDICTED BY IDOCK:   -6.27 KCAL/MOL
REMARK 924 INTRA-LIGAND FREE ENERGY PREDICTED BY IDOCK:   -0.65 KCAL/MOL
REMARK 927      BINDING AFFINITY PREDICTED BY RF-SCORE:    0.00 PKD
ROOT
HETATM    1  C   UNL     1     -11.810  13.033  65.542  1.00  0.00    -0.438 C  
HETATM    2  C   UNL     1     -11.552  12.233  66.786  1.00  0.00    -0.434 A  
HETATM    3  C   UNL     1     -11.005  10.945  66.709  1.00  0.00    -0.248 A  
HETATM    4  C   UNL     1     -10.831  10.180  67.864  1.00  0.00    -0.336 A  
HETATM    5  C   UNL     1     -11.198  10.711  69.105  1.00  0.00    -0.265 A  
HETATM    6  C   UNL     1     -11.898  12.759  68.040  1.00  0.00    -0.386 A  
HETATM    7  C   UNL     1     -11.720  12.002  69.200  1.00  0.00    -0.389 A  
ENDROOT
BRANCH   5   8
HETATM    8  S   UNL     1     -11.035   9.698  70.554  1.00  0.00    -0.338 S  
HETATM    9  O   UNL     1      -9.638   9.401  70.787  1.00  0.00    -0.261 OA 
HETATM   10  O   UNL     1     -11.842  10.314  71.593  1.00  0.00    -0.300 OA 
BRANCH   8  11
HETATM   11  N   UNL     1     -11.827   8.290  70.160  1.00  0.00    -0.396 N  
HETATM   12  H   UNL     1     -12.016   8.091  69.177  1.00  0.00     0.000 HD 
BRANCH  11  13
HETATM   13  C   UNL     1     -12.238   7.377  71.118  1.00  0.00    -0.324 C  
HETATM   14  O   UNL     1     -13.421   7.145  71.323  1.00  0.00    -0.362 OA 
BRANCH  13  15
HETATM   15  N   UNL     1     -11.192   6.801  71.819  1.00  0.00    -0.248 N  
HETATM   16  H   UNL     1     -10.520   7.409  72.286  1.00  0.00     0.000 HD 
BRANCH  15  17
HETATM   17  N   UNL     1     -11.018   5.385  71.911  1.00  0.00    -0.195 NA 
HETATM   18  C   UNL     1      -9.982   4.929  70.964  1.00  0.00    -0.212 C  
HETATM   19  C   UNL     1      -9.644   3.434  70.952  1.00  0.00    -0.239 C  
HETATM   20  C   UNL     1      -8.920   2.977  72.214  1.00  0.00    -0.131 C  
HETATM   21  C   UNL     1      -9.849   2.611  73.365  1.00  0.00    -0.156 C  
HETATM   22  C   UNL     1     -11.088   3.487  73.524  1.00  0.00    -0.317 C  
HETATM   23  C   UNL     1     -10.825   4.975  73.312  1.00  0.00    -0.295 C  
ENDBRANCH  15  17
ENDBRANCH  13  15
ENDBRANCH  11  13
ENDBRANCH   8  11
ENDBRANCH   5   8
TORSDOF 5
ENDMDL
MODEL      125
REMARK 921   NORMALIZED FREE ENERGY PREDICTED BY IDOCK:   -4.94 KCAL/MOL
REMARK 922        TOTAL FREE ENERGY PREDICTED BY IDOCK:   -6.92 KCAL/MOL
REMARK 923 INTER-LIGAND FREE ENERGY PREDICTED BY IDOCK:   -6.46 KCAL/MOL
REMARK 924 INTRA-LIGAND FREE ENERGY PREDICTED BY IDOCK:   -0.46 KCAL/MOL
REMARK 927      BINDING AFFINITY PREDICTED BY RF-SCORE:    0.00 PKD
ROOT
HETATM    1  C   UNL     1     -10.655   5.874  68.627  1.00  0.00    -0.323 C  
HETATM    2  C   UNL     1     -10.454   7.328  68.310  1.00  0.00    -0.239 A  
HETATM    3  C   UNL     1     -10.390   8.282  69.335  1.00  0.00    -0.223 A  
HETATM    4  C   UNL     1     -10.271   9.640  69.032  1.00  0.00    -0.209 A  
HETATM    5  C   UNL     1     -10.206  10.045  67.695  1.00  0.00    -0.204 A  
HETATM    6  C   UNL     1     -10.368   7.749  66.975  1.00  0.00    -0.405 A  
HETATM    7  C   UNL     1     -10.242   9.105  66.664  1.00  0.00    -0.328 A  
ENDROOT
BRANCH   5   8
HETATM    8  S   UNL     1     -10.126  11.779  67.326  1.00  0.00    -0.193 S  
HETATM    9  O   UNL     1      -9.412  12.470  68.379  1.00  0.00    -0.214 OA 
HETATM   10  O   UNL     1      -9.699  11.898  65.943  1.00  0.00    -0.231 OA 
BRANCH   8  11
HETATM   11  N   UNL     1     -11.714  12.274  67.339  1.00  0.00    -0.356 N  
HETATM   12  H   UNL     1     -12.390  11.743  67.889  1.00  0.00     0.000 HD 
BRANCH  11  13
HETATM   13  C   UNL     1     -12.152  13.382  66.630  1.00  0.00    -0.373 C  
HETATM   14  O   UNL     1     -12.514  13.301  65.465  1.00  0.00    -0.458 OA 
BRANCH  13  15
HETATM   15  N   UNL     1     -12.101  14.559  67.357  1.00  0.00    -0.579 N  
HETATM   16  H   UNL     1     -12.959  14.913  67.780  1.00  0.00     0.000 HD 
BRANCH  15  17
HETATM   17  N   UNL     1     -10.890  15.298  67.536  1.00  0.00    -0.297 NA 
HETATM   18  C   UNL     1     -10.207  15.489  66.242  1.00  0.00    -0.294 C  
HETATM   19  C   UNL     1      -8.901  16.291  66.244  1.00  0.00    -0.367 C  
HETATM   20  C   UNL     1      -9.112  17.774  66.535  1.00  0.00    -0.281 C  
HETATM   21  C   UNL     1      -9.158  18.116  68.019  1.00  0.00    -0.289 C  
HETATM   22  C   UNL     1      -9.860  17.100  68.914  1.00  0.00    -0.273 C  
HETATM   23  C   UNL     1     -11.138  16.523  68.313  1.00  0.00    -0.321 C  
ENDBRANCH  15  17
ENDBRANCH  13  15
ENDBRANCH  11  13
ENDBRANCH   8  11
ENDBRANCH   5   8
TORSDOF 5
ENDMDL
MODEL      126
REMARK 921   NORMALIZED FREE ENERGY PREDICTED BY IDOCK:   -4.92 KCAL/MOL
REMARK 922        TOTAL FREE ENERGY PREDICTED BY IDOCK:   -6.90 KCAL/MOL
REMARK 923 INTER-LIGAND FREE ENERGY PREDICTED BY IDOCK:   -6.17 KCAL/MOL
REMARK 924 INTRA-LIGAND FREE ENERGY PREDICTED BY IDOCK:   -0.73 KCAL/MOL
REMARK 927      BINDING AFFINITY PREDICTED BY RF-SCORE:    0.00 PKD
ROOT
HETATM    1  C   UNL     1     -12.720  12.091  62.992  1.00  0.00    -0.064 C  
HETATM    2  C   UNL     1     -12.093  12.294  64.341  1.00  0.00    -0.481 A  
HETATM    3  C   UNL     1     -12.650  13.191  65.262  1.00  0.00    -0.531 A  
HETATM    4  C   UNL     1     -12.024  13.425  66.488  1.00  0.00    -0.452 A  
HETATM    5  C   UNL     1     -10.839  12.751  66.798  1.00  0.00    -0.264 A  
HETATM    6  C   UNL     1     -10.914  11.611  64.674  1.00  0.00    -0.363 A  
HETATM    7  C   UNL     1     -10.286  11.835  65.902  1.00  0.00    -0.272 A  
ENDROOT
BRANCH   5   8
HETATM    8  S   UNL     1     -10.020  13.114  68.331  1.00  0.00    -0.190 S  
HETATM    9  O   UNL     1      -8.740  12.440  68.372  1.00  0.00    -0.181 OA 
HETATM   10  O   UNL     1     -10.105  14.550  68.526  1.00  0.00    -0.228 OA 
BRANCH   8  11
HETATM   11  N   UNL     1     -11.013  12.454  69.491  1.00  0.00    -0.461 N  
HETATM   12  H   UNL     1     -11.402  13.065  70.210  1.00  0.00     0.000 HD 
BRANCH  11  13
HETATM   13  C   UNL     1     -11.332  11.105  69.515  1.00  0.00    -0.290 C  
HETATM   14  O   UNL     1     -12.391  10.683  69.073  1.00  0.00    -0.355 OA 
BRANCH  13  15
HETATM   15  N   UNL     1     -10.361  10.319  70.113  1.00  0.00    -0.426 N  
HETATM   16  H   UNL     1      -9.885  10.672  70.943  1.00  0.00     0.000 HD 
BRANCH  15  17
HETATM   17  N   UNL     1     -10.001   9.031  69.608  1.00  0.00    -0.185 NA 
HETATM   18  C   UNL     1     -10.929   8.001  70.113  1.00  0.00    -0.226 C  
HETATM   19  C   UNL     1     -10.708   6.558  69.644  1.00  0.00    -0.323 C  
HETATM   20  C   UNL     1     -11.032   6.356  68.167  1.00  0.00    -0.393 C  
HETATM   21  C   UNL     1      -9.878   6.687  67.227  1.00  0.00    -0.184 C  
HETATM   22  C   UNL     1      -9.027   7.890  67.618  1.00  0.00    -0.133 C  
HETATM   23  C   UNL     1      -9.832   9.074  68.146  1.00  0.00    -0.166 C  
ENDBRANCH  15  17
ENDBRANCH  13  15
ENDBRANCH  11  13
ENDBRANCH   8  11
ENDBRANCH   5   8
TORSDOF 5
ENDMDL
MODEL      127
REMARK 921   NORMALIZED FREE ENERGY PREDICTED BY IDOCK:   -4.92 KCAL/MOL
REMARK 922        TOTAL FREE ENERGY PREDICTED BY IDOCK:   -6.90 KCAL/MOL
REMARK 923 INTER-LIGAND FREE ENERGY PREDICTED BY IDOCK:   -6.31 KCAL/MOL
REMARK 924 INTRA-LIGAND FREE ENERGY PREDICTED BY IDOCK:   -0.59 KCAL/MOL
REMARK 927      BINDING AFFINITY PREDICTED BY RF-SCORE:    0.00 PKD
ROOT
HETATM    1  C   UNL     1     -12.361   6.858  72.018  1.00  0.00    -0.305 C  
HETATM    2  C   UNL     1     -12.112   8.175  71.339  1.00  0.00    -0.326 A  
HETATM    3  C   UNL     1     -12.852   9.312  71.689  1.00  0.00    -0.447 A  
HETATM    4  C   UNL     1     -12.663  10.516  71.009  1.00  0.00    -0.504 A  
HETATM    5  C   UNL     1     -11.721  10.585  69.977  1.00  0.00    -0.312 A  
HETATM    6  C   UNL     1     -11.157   8.265  70.316  1.00  0.00    -0.220 A  
HETATM    7  C   UNL     1     -10.958   9.468  69.635  1.00  0.00    -0.233 A  
ENDROOT
BRANCH   5   8
HETATM    8  S   UNL     1     -11.544  12.104  69.077  1.00  0.00    -0.338 S  
HETATM    9  O   UNL     1     -12.275  12.022  67.831  1.00  0.00    -0.470 OA 
HETATM   10  O   UNL     1     -11.801  13.184  70.014  1.00  0.00    -0.321 OA 
BRANCH   8  11
HETATM   11  N   UNL     1      -9.917  12.193  68.740  1.00  0.00    -0.402 N  
HETATM   12  H   UNL     1      -9.271  11.624  69.287  1.00  0.00     0.000 HD 
BRANCH  11  13
HETATM   13  C   UNL     1      -9.408  13.013  67.745  1.00  0.00    -0.199 C  
HETATM   14  O   UNL     1      -9.657  14.210  67.703  1.00  0.00    -0.209 OA 
BRANCH  13  15
HETATM   15  N   UNL     1      -8.640  12.337  66.812  1.00  0.00    -0.301 N  
HETATM   16  H   UNL     1      -7.624  12.394  66.878  1.00  0.00     0.000 HD 
BRANCH  15  17
HETATM   17  N   UNL     1      -9.219  11.563  65.759  1.00  0.00    -0.219 NA 
HETATM   18  C   UNL     1      -9.823  12.444  64.742  1.00  0.00    -0.079 C  
HETATM   19  C   UNL     1     -10.465  11.778  63.520  1.00  0.00    -0.500 C  
HETATM   20  C   UNL     1      -9.445  11.134  62.587  1.00  0.00    -0.310 C  
HETATM   21  C   UNL     1      -9.055   9.713  62.978  1.00  0.00    -0.235 C  
HETATM   22  C   UNL     1      -8.931   9.446  64.475  1.00  0.00    -0.227 C  
HETATM   23  C   UNL     1      -8.254  10.572  65.251  1.00  0.00    -0.146 C  
ENDBRANCH  15  17
ENDBRANCH  13  15
ENDBRANCH  11  13
ENDBRANCH   8  11
ENDBRANCH   5   8
TORSDOF 5
ENDMDL
MODEL      128
REMARK 921   NORMALIZED FREE ENERGY PREDICTED BY IDOCK:   -4.92 KCAL/MOL
REMARK 922        TOTAL FREE ENERGY PREDICTED BY IDOCK:   -6.89 KCAL/MOL
REMARK 923 INTER-LIGAND FREE ENERGY PREDICTED BY IDOCK:   -5.93 KCAL/MOL
REMARK 924 INTRA-LIGAND FREE ENERGY PREDICTED BY IDOCK:   -0.96 KCAL/MOL
REMARK 927      BINDING AFFINITY PREDICTED BY RF-SCORE:    0.00 PKD
ROOT
HETATM    1  C   UNL     1     -12.301  14.045  70.641  1.00  0.00    -0.446 C  
HETATM    2  C   UNL     1     -12.448  12.558  70.792  1.00  0.00    -0.357 A  
HETATM    3  C   UNL     1     -13.180  12.016  71.856  1.00  0.00    -0.469 A  
HETATM    4  C   UNL     1     -13.257  10.633  72.030  1.00  0.00    -0.473 A  
HETATM    5  C   UNL     1     -12.605   9.787  71.127  1.00  0.00    -0.345 A  
HETATM    6  C   UNL     1     -11.815  11.697  69.884  1.00  0.00    -0.434 A  
HETATM    7  C   UNL     1     -11.893  10.311  70.047  1.00  0.00    -0.305 A  
ENDROOT
BRANCH   5   8
HETATM    8  S   UNL     1     -12.655   8.034  71.404  1.00  0.00    -0.254 S  
HETATM    9  O   UNL     1     -14.028   7.578  71.400  1.00  0.00    -0.400 OA 
HETATM   10  O   UNL     1     -11.676   7.437  70.512  1.00  0.00    -0.269 OA 
BRANCH   8  11
HETATM   11  N   UNL     1     -12.029   7.843  72.933  1.00  0.00    -0.619 N  
HETATM   12  H   UNL     1     -12.637   8.001  73.736  1.00  0.00     0.000 HD 
BRANCH  11  13
HETATM   13  C   UNL     1     -10.710   7.477  73.155  1.00  0.00    -0.398 C  
HETATM   14  O   UNL     1     -10.414   6.405  73.663  1.00  0.00    -0.252 OA 
BRANCH  13  15
HETATM   15  N   UNL     1      -9.796   8.449  72.781  1.00  0.00    -0.259 N  
HETATM   16  H   UNL     1      -9.969   9.416  73.052  1.00  0.00     0.000 HD 
BRANCH  15  17
HETATM   17  N   UNL     1      -8.620   8.144  72.028  1.00  0.00    -0.146 NA 
HETATM   18  C   UNL     1      -8.499   9.051  70.870  1.00  0.00    -0.208 C  
HETATM   19  C   UNL     1      -7.272   8.885  69.967  1.00  0.00    -0.054 C  
HETATM   20  C   UNL     1      -5.973   9.313  70.642  1.00  0.00    -0.052 C  
HETATM   21  C   UNL     1      -5.322   8.222  71.485  1.00  0.00    -0.034 C  
HETATM   22  C   UNL     1      -6.278   7.326  72.266  1.00  0.00    -0.043 C  
HETATM   23  C   UNL     1      -7.442   8.075  72.909  1.00  0.00    -0.119 C  
ENDBRANCH  15  17
ENDBRANCH  13  15
ENDBRANCH  11  13
ENDBRANCH   8  11
ENDBRANCH   5   8
TORSDOF 5
ENDMDL
MODEL      129
REMARK 921   NORMALIZED FREE ENERGY PREDICTED BY IDOCK:   -4.91 KCAL/MOL
REMARK 922        TOTAL FREE ENERGY PREDICTED BY IDOCK:   -6.89 KCAL/MOL
REMARK 923 INTER-LIGAND FREE ENERGY PREDICTED BY IDOCK:   -5.77 KCAL/MOL
REMARK 924 INTRA-LIGAND FREE ENERGY PREDICTED BY IDOCK:   -1.12 KCAL/MOL
REMARK 927      BINDING AFFINITY PREDICTED BY RF-SCORE:    0.00 PKD
ROOT
HETATM    1  C   UNL     1     -12.618  10.783  71.888  1.00  0.00    -0.262 C  
HETATM    2  C   UNL     1     -12.398  11.463  70.568  1.00  0.00    -0.439 A  
HETATM    3  C   UNL     1     -12.278  10.715  69.389  1.00  0.00    -0.173 A  
HETATM    4  C   UNL     1     -12.006  11.348  68.174  1.00  0.00    -0.201 A  
HETATM    5  C   UNL     1     -11.863  12.739  68.138  1.00  0.00    -0.324 A  
HETATM    6  C   UNL     1     -12.272  12.859  70.512  1.00  0.00    -0.395 A  
HETATM    7  C   UNL     1     -12.006  13.499  69.299  1.00  0.00    -0.378 A  
ENDROOT
BRANCH   5   8
HETATM    8  S   UNL     1     -11.449  13.519  66.598  1.00  0.00    -0.356 S  
HETATM    9  O   UNL     1     -12.399  14.574  66.314  1.00  0.00    -0.339 OA 
HETATM   10  O   UNL     1     -10.025  13.799  66.636  1.00  0.00    -0.264 OA 
BRANCH   8  11
HETATM   11  N   UNL     1     -11.630  12.313  65.467  1.00  0.00    -0.368 N  
HETATM   12  H   UNL     1     -12.444  11.701  65.527  1.00  0.00     0.000 HD 
BRANCH  11  13
HETATM   13  C   UNL     1     -10.716  12.110  64.445  1.00  0.00    -0.323 C  
HETATM   14  O   UNL     1     -10.980  12.370  63.280  1.00  0.00    -0.438 OA 
BRANCH  13  15
HETATM   15  N   UNL     1      -9.518  11.563  64.876  1.00  0.00    -0.369 N  
HETATM   16  H   UNL     1      -8.656  11.832  64.403  1.00  0.00     0.000 HD 
BRANCH  15  17
HETATM   17  N   UNL     1      -9.447  10.634  65.960  1.00  0.00    -0.185 NA 
HETATM   18  C   UNL     1      -9.662   9.257  65.476  1.00  0.00    -0.177 C  
HETATM   19  C   UNL     1      -9.588   8.125  66.506  1.00  0.00    -0.303 C  
HETATM   20  C   UNL     1      -8.176   7.890  67.032  1.00  0.00    -0.117 C  
HETATM   21  C   UNL     1      -7.792   8.787  68.203  1.00  0.00    -0.102 C  
HETATM   22  C   UNL     1      -8.306  10.222  68.137  1.00  0.00    -0.118 C  
HETATM   23  C   UNL     1      -8.221  10.847  66.748  1.00  0.00    -0.140 C  
ENDBRANCH  15  17
ENDBRANCH  13  15
ENDBRANCH  11  13
ENDBRANCH   8  11
ENDBRANCH   5   8
TORSDOF 5
ENDMDL
MODEL      130
REMARK 921   NORMALIZED FREE ENERGY PREDICTED BY IDOCK:   -4.91 KCAL/MOL
REMARK 922        TOTAL FREE ENERGY PREDICTED BY IDOCK:   -6.89 KCAL/MOL
REMARK 923 INTER-LIGAND FREE ENERGY PREDICTED BY IDOCK:   -6.47 KCAL/MOL
REMARK 924 INTRA-LIGAND FREE ENERGY PREDICTED BY IDOCK:   -0.42 KCAL/MOL
REMARK 927      BINDING AFFINITY PREDICTED BY RF-SCORE:    0.00 PKD
ROOT
HETATM    1  C   UNL     1     -13.791   8.995  72.489  1.00  0.00    -0.491 C  
HETATM    2  C   UNL     1     -12.725   9.374  71.503  1.00  0.00    -0.444 A  
HETATM    3  C   UNL     1     -11.834   8.413  71.006  1.00  0.00    -0.278 A  
HETATM    4  C   UNL     1     -10.802   8.785  70.142  1.00  0.00    -0.241 A  
HETATM    5  C   UNL     1     -10.666  10.125  69.765  1.00  0.00    -0.279 A  
HETATM    6  C   UNL     1     -12.588  10.711  71.100  1.00  0.00    -0.526 A  
HETATM    7  C   UNL     1     -11.561  11.089  70.230  1.00  0.00    -0.414 A  
ENDROOT
BRANCH   5   8
HETATM    8  S   UNL     1      -9.307  10.590  68.722  1.00  0.00    -0.187 S  
HETATM    9  O   UNL     1      -8.057  10.257  69.371  1.00  0.00    -0.141 OA 
HETATM   10  O   UNL     1      -9.605  10.088  67.392  1.00  0.00    -0.150 OA 
BRANCH   8  11
HETATM   11  N   UNL     1      -9.430  12.244  68.605  1.00  0.00    -0.391 N  
HETATM   12  H   UNL     1     -10.108  12.730  69.192  1.00  0.00     0.000 HD 
BRANCH  11  13
HETATM   13  C   UNL     1      -8.643  12.987  67.738  1.00  0.00    -0.189 C  
HETATM   14  O   UNL     1      -7.897  13.870  68.138  1.00  0.00    -0.123 OA 
BRANCH  13  15
HETATM   15  N   UNL     1      -8.820  12.651  66.406  1.00  0.00    -0.425 N  
HETATM   16  H   UNL     1      -8.152  12.018  65.967  1.00  0.00     0.000 HD 
BRANCH  15  17
HETATM   17  N   UNL     1      -9.903  13.160  65.624  1.00  0.00    -0.211 NA 
HETATM   18  C   UNL     1     -10.195  12.256  64.496  1.00  0.00    -0.296 C  
HETATM   19  C   UNL     1     -11.354  12.635  63.567  1.00  0.00    -0.527 C  
HETATM   20  C   UNL     1     -12.719  12.503  64.235  1.00  0.00    -0.432 C  
HETATM   21  C   UNL     1     -13.143  13.732  65.031  1.00  0.00    -0.058 C  
HETATM   22  C   UNL     1     -12.033  14.443  65.797  1.00  0.00    -0.362 C  
HETATM   23  C   UNL     1     -11.050  13.497  66.483  1.00  0.00    -0.300 C  
ENDBRANCH  15  17
ENDBRANCH  13  15
ENDBRANCH  11  13
ENDBRANCH   8  11
ENDBRANCH   5   8
TORSDOF 5
ENDMDL
MODEL      131
REMARK 921   NORMALIZED FREE ENERGY PREDICTED BY IDOCK:   -4.91 KCAL/MOL
REMARK 922        TOTAL FREE ENERGY PREDICTED BY IDOCK:   -6.88 KCAL/MOL
REMARK 923 INTER-LIGAND FREE ENERGY PREDICTED BY IDOCK:   -6.63 KCAL/MOL
REMARK 924 INTRA-LIGAND FREE ENERGY PREDICTED BY IDOCK:   -0.24 KCAL/MOL
REMARK 927      BINDING AFFINITY PREDICTED BY RF-SCORE:    0.00 PKD
ROOT
HETATM    1  C   UNL     1      -8.487   7.782  69.239  1.00  0.00    -0.138 C  
HETATM    2  C   UNL     1      -9.111   8.875  68.420  1.00  0.00    -0.137 A  
HETATM    3  C   UNL     1      -9.725   8.588  67.193  1.00  0.00    -0.251 A  
HETATM    4  C   UNL     1     -10.243   9.617  66.404  1.00  0.00    -0.288 A  
HETATM    5  C   UNL     1     -10.156  10.940  66.850  1.00  0.00    -0.212 A  
HETATM    6  C   UNL     1      -9.049  10.204  68.863  1.00  0.00    -0.165 A  
HETATM    7  C   UNL     1      -9.571  11.238  68.082  1.00  0.00    -0.186 A  
ENDROOT
BRANCH   5   8
HETATM    8  S   UNL     1     -10.757  12.240  65.803  1.00  0.00    -0.273 S  
HETATM    9  O   UNL     1     -10.435  11.945  64.423  1.00  0.00    -0.273 OA 
HETATM   10  O   UNL     1     -12.129  12.503  66.201  1.00  0.00    -0.571 OA 
BRANCH   8  11
HETATM   11  N   UNL     1      -9.897  13.581  66.281  1.00  0.00    -0.295 N  
HETATM   12  H   UNL     1      -9.303  13.515  67.108  1.00  0.00     0.000 HD 
BRANCH  11  13
HETATM   13  C   UNL     1      -9.958  14.785  65.597  1.00  0.00    -0.360 C  
HETATM   14  O   UNL     1     -10.816  15.007  64.754  1.00  0.00    -0.394 OA 
BRANCH  13  15
HETATM   15  N   UNL     1      -8.947  15.668  65.939  1.00  0.00    -0.377 N  
HETATM   16  H   UNL     1      -8.005  15.304  66.084  1.00  0.00     0.000 HD 
BRANCH  15  17
HETATM   17  N   UNL     1      -9.175  17.070  66.098  1.00  0.00    -0.452 NA 
HETATM   18  C   UNL     1     -10.266  17.310  67.062  1.00  0.00    -0.320 C  
HETATM   19  C   UNL     1     -10.624  18.766  67.377  1.00  0.00    -0.505 C  
HETATM   20  C   UNL     1      -9.543  19.486  68.177  1.00  0.00    -0.457 C  
HETATM   21  C   UNL     1      -8.437  20.093  67.320  1.00  0.00    -0.403 C  
HETATM   22  C   UNL     1      -8.009  19.273  66.108  1.00  0.00    -0.306 C  
HETATM   23  C   UNL     1      -7.912  17.773  66.378  1.00  0.00    -0.271 C  
ENDBRANCH  15  17
ENDBRANCH  13  15
ENDBRANCH  11  13
ENDBRANCH   8  11
ENDBRANCH   5   8
TORSDOF 5
ENDMDL
MODEL      132
REMARK 921   NORMALIZED FREE ENERGY PREDICTED BY IDOCK:   -4.90 KCAL/MOL
REMARK 922        TOTAL FREE ENERGY PREDICTED BY IDOCK:   -6.86 KCAL/MOL
REMARK 923 INTER-LIGAND FREE ENERGY PREDICTED BY IDOCK:   -6.08 KCAL/MOL
REMARK 924 INTRA-LIGAND FREE ENERGY PREDICTED BY IDOCK:   -0.78 KCAL/MOL
REMARK 927      BINDING AFFINITY PREDICTED BY RF-SCORE:    0.00 PKD
ROOT
HETATM    1  C   UNL     1      -5.258  13.220  68.445  1.00  0.00    -0.080 C  
HETATM    2  C   UNL     1      -6.530  12.774  67.783  1.00  0.00    -0.136 A  
HETATM    3  C   UNL     1      -7.731  13.462  68.002  1.00  0.00    -0.147 A  
HETATM    4  C   UNL     1      -8.923  13.002  67.438  1.00  0.00    -0.204 A  
HETATM    5  C   UNL     1      -8.911  11.853  66.643  1.00  0.00    -0.191 A  
HETATM    6  C   UNL     1      -6.531  11.633  66.967  1.00  0.00    -0.148 A  
HETATM    7  C   UNL     1      -7.719  11.171  66.394  1.00  0.00    -0.124 A  
ENDROOT
BRANCH   5   8
HETATM    8  S   UNL     1     -10.446  11.244  65.991  1.00  0.00    -0.252 S  
HETATM    9  O   UNL     1     -10.199  10.087  65.158  1.00  0.00    -0.288 OA 
HETATM   10  O   UNL     1     -11.376  11.167  67.104  1.00  0.00    -0.395 OA 
BRANCH   8  11
HETATM   11  N   UNL     1     -11.006  12.485  65.036  1.00  0.00    -0.286 N  
HETATM   12  H   UNL     1     -10.356  12.950  64.403  1.00  0.00     0.000 HD 
BRANCH  11  13
HETATM   13  C   UNL     1     -12.325  12.910  65.070  1.00  0.00    -0.485 C  
HETATM   14  O   UNL     1     -13.210  12.320  64.466  1.00  0.00    -0.799 OA 
BRANCH  13  15
HETATM   15  N   UNL     1     -12.515  14.064  65.812  1.00  0.00    -0.491 N  
HETATM   16  H   UNL     1     -13.457  14.444  65.897  1.00  0.00     0.000 HD 
BRANCH  15  17
HETATM   17  N   UNL     1     -11.438  14.743  66.463  1.00  0.00    -0.349 NA 
HETATM   18  C   UNL     1     -10.768  15.666  65.527  1.00  0.00    -0.389 C  
HETATM   19  C   UNL     1      -9.604  16.502  66.069  1.00  0.00    -0.323 C  
HETATM   20  C   UNL     1     -10.050  17.573  67.059  1.00  0.00    -0.323 C  
HETATM   21  C   UNL     1     -10.177  17.079  68.495  1.00  0.00    -0.324 C  
HETATM   22  C   UNL     1     -10.729  15.668  68.666  1.00  0.00    -0.256 C  
HETATM   23  C   UNL     1     -11.890  15.339  67.731  1.00  0.00    -0.093 C  
ENDBRANCH  15  17
ENDBRANCH  13  15
ENDBRANCH  11  13
ENDBRANCH   8  11
ENDBRANCH   5   8
TORSDOF 5
ENDMDL
MODEL      133
REMARK 921   NORMALIZED FREE ENERGY PREDICTED BY IDOCK:   -4.88 KCAL/MOL
REMARK 922        TOTAL FREE ENERGY PREDICTED BY IDOCK:   -6.85 KCAL/MOL
REMARK 923 INTER-LIGAND FREE ENERGY PREDICTED BY IDOCK:   -6.00 KCAL/MOL
REMARK 924 INTRA-LIGAND FREE ENERGY PREDICTED BY IDOCK:   -0.85 KCAL/MOL
REMARK 927      BINDING AFFINITY PREDICTED BY RF-SCORE:    0.00 PKD
ROOT
HETATM    1  C   UNL     1     -13.602  15.619  72.862  1.00  0.00    -0.658 C  
HETATM    2  C   UNL     1     -13.046  14.814  71.723  1.00  0.00    -0.421 A  
HETATM    3  C   UNL     1     -13.075  13.414  71.755  1.00  0.00    -0.479 A  
HETATM    4  C   UNL     1     -12.496  12.670  70.725  1.00  0.00    -0.357 A  
HETATM    5  C   UNL     1     -11.893  13.332  69.651  1.00  0.00    -0.327 A  
HETATM    6  C   UNL     1     -12.455  15.464  70.629  1.00  0.00    -0.478 A  
HETATM    7  C   UNL     1     -11.880  14.727  69.592  1.00  0.00    -0.362 A  
ENDROOT
BRANCH   5   8
HETATM    8  S   UNL     1     -11.101  12.372  68.386  1.00  0.00    -0.271 S  
HETATM    9  O   UNL     1     -10.547  11.166  68.963  1.00  0.00    -0.207 OA 
HETATM   10  O   UNL     1     -12.026  12.299  67.269  1.00  0.00    -0.546 OA 
BRANCH   8  11
HETATM   11  N   UNL     1      -9.854  13.338  67.860  1.00  0.00    -0.227 N  
HETATM   12  H   UNL     1      -9.853  14.325  68.119  1.00  0.00     0.000 HD 
BRANCH  11  13
HETATM   13  C   UNL     1      -8.815  12.852  67.081  1.00  0.00    -0.210 C  
HETATM   14  O   UNL     1      -7.650  13.155  67.295  1.00  0.00    -0.152 OA 
BRANCH  13  15
HETATM   15  N   UNL     1      -9.237  12.037  66.043  1.00  0.00    -0.367 N  
HETATM   16  H   UNL     1     -10.122  12.248  65.581  1.00  0.00     0.000 HD 
BRANCH  15  17
HETATM   17  N   UNL     1      -8.479  10.911  65.596  1.00  0.00    -0.167 NA 
HETATM   18  C   UNL     1      -8.529   9.826  66.593  1.00  0.00    -0.124 C  
HETATM   19  C   UNL     1      -7.791   8.524  66.260  1.00  0.00    -0.098 C  
HETATM   20  C   UNL     1      -8.451   7.737  65.133  1.00  0.00    -0.075 C  
HETATM   21  C   UNL     1      -8.021   8.171  63.737  1.00  0.00    -0.137 C  
HETATM   22  C   UNL     1      -7.812   9.668  63.541  1.00  0.00    -0.136 C  
HETATM   23  C   UNL     1      -8.865  10.536  64.225  1.00  0.00    -0.197 C  
ENDBRANCH  15  17
ENDBRANCH  13  15
ENDBRANCH  11  13
ENDBRANCH   8  11
ENDBRANCH   5   8
TORSDOF 5
ENDMDL
MODEL      134
REMARK 921   NORMALIZED FREE ENERGY PREDICTED BY IDOCK:   -4.88 KCAL/MOL
REMARK 922        TOTAL FREE ENERGY PREDICTED BY IDOCK:   -6.84 KCAL/MOL
REMARK 923 INTER-LIGAND FREE ENERGY PREDICTED BY IDOCK:   -5.66 KCAL/MOL
REMARK 924 INTRA-LIGAND FREE ENERGY PREDICTED BY IDOCK:   -1.18 KCAL/MOL
REMARK 927      BINDING AFFINITY PREDICTED BY RF-SCORE:    0.00 PKD
ROOT
HETATM    1  C   UNL     1      -5.480  13.866  67.823  1.00  0.00    -0.037 C  
HETATM    2  C   UNL     1      -6.671  14.745  68.074  1.00  0.00    -0.154 A  
HETATM    3  C   UNL     1      -7.320  14.735  69.316  1.00  0.00    -0.168 A  
HETATM    4  C   UNL     1      -8.467  15.503  69.521  1.00  0.00    -0.211 A  
HETATM    5  C   UNL     1      -8.963  16.294  68.479  1.00  0.00    -0.219 A  
HETATM    6  C   UNL     1      -7.169  15.558  67.045  1.00  0.00    -0.124 A  
HETATM    7  C   UNL     1      -8.313  16.335  67.245  1.00  0.00    -0.203 A  
ENDROOT
BRANCH   5   8
HETATM    8  S   UNL     1     -10.461  17.210  68.736  1.00  0.00    -0.334 S  
HETATM    9  O   UNL     1     -10.144  18.585  69.061  1.00  0.00    -0.384 OA 
HETATM   10  O   UNL     1     -11.343  16.899  67.625  1.00  0.00    -0.049 OA 
BRANCH   8  11
HETATM   11  N   UNL     1     -11.158  16.491  70.064  1.00  0.00    -0.426 N  
HETATM   12  H   UNL     1     -10.748  16.654  70.983  1.00  0.00     0.000 HD 
BRANCH  11  13
HETATM   13  C   UNL     1     -12.276  15.678  69.966  1.00  0.00    -0.327 C  
HETATM   14  O   UNL     1     -13.186  15.729  70.782  1.00  0.00    -0.542 OA 
BRANCH  13  15
HETATM   15  N   UNL     1     -12.231  14.802  68.894  1.00  0.00    -0.574 N  
HETATM   16  H   UNL     1     -12.828  14.982  68.087  1.00  0.00     0.000 HD 
BRANCH  15  17
HETATM   17  N   UNL     1     -11.379  13.654  68.878  1.00  0.00    -0.272 NA 
HETATM   18  C   UNL     1     -12.002  12.537  69.612  1.00  0.00    -0.272 C  
HETATM   19  C   UNL     1     -11.235  11.211  69.668  1.00  0.00    -0.333 C  
HETATM   20  C   UNL     1     -11.173  10.502  68.319  1.00  0.00    -0.354 C  
HETATM   21  C   UNL     1     -10.027  10.963  67.427  1.00  0.00    -0.215 C  
HETATM   22  C   UNL     1      -9.709  12.454  67.471  1.00  0.00    -0.191 C  
HETATM   23  C   UNL     1     -10.944  13.350  67.504  1.00  0.00    -0.267 C  
ENDBRANCH  15  17
ENDBRANCH  13  15
ENDBRANCH  11  13
ENDBRANCH   8  11
ENDBRANCH   5   8
TORSDOF 5
ENDMDL
MODEL      135
REMARK 921   NORMALIZED FREE ENERGY PREDICTED BY IDOCK:   -4.86 KCAL/MOL
REMARK 922        TOTAL FREE ENERGY PREDICTED BY IDOCK:   -6.82 KCAL/MOL
REMARK 923 INTER-LIGAND FREE ENERGY PREDICTED BY IDOCK:   -6.33 KCAL/MOL
REMARK 924 INTRA-LIGAND FREE ENERGY PREDICTED BY IDOCK:   -0.49 KCAL/MOL
REMARK 927      BINDING AFFINITY PREDICTED BY RF-SCORE:    0.00 PKD
ROOT
HETATM    1  C   UNL     1      -8.395   4.628  73.907  1.00  0.00    -0.104 C  
HETATM    2  C   UNL     1      -9.426   5.539  73.304  1.00  0.00    -0.148 A  
HETATM    3  C   UNL     1      -9.717   6.778  73.890  1.00  0.00    -0.286 A  
HETATM    4  C   UNL     1     -10.724   7.590  73.364  1.00  0.00    -0.387 A  
HETATM    5  C   UNL     1     -11.437   7.164  72.240  1.00  0.00    -0.271 A  
HETATM    6  C   UNL     1     -10.137   5.134  72.165  1.00  0.00    -0.247 A  
HETATM    7  C   UNL     1     -11.141   5.944  71.629  1.00  0.00    -0.319 A  
ENDROOT
BRANCH   5   8
HETATM    8  S   UNL     1     -12.759   8.177  71.627  1.00  0.00    -0.318 S  
HETATM    9  O   UNL     1     -13.855   7.339  71.191  1.00  0.00    -0.319 OA 
HETATM   10  O   UNL     1     -12.977   9.227  72.607  1.00  0.00    -0.368 OA 
BRANCH   8  11
HETATM   11  N   UNL     1     -12.107   8.943  70.302  1.00  0.00    -0.391 N  
HETATM   12  H   UNL     1     -12.402   8.649  69.370  1.00  0.00     0.000 HD 
BRANCH  11  13
HETATM   13  C   UNL     1     -11.179   9.966  70.417  1.00  0.00    -0.313 C  
HETATM   14  O   UNL     1      -9.982   9.742  70.530  1.00  0.00    -0.265 OA 
BRANCH  13  15
HETATM   15  N   UNL     1     -11.747  11.229  70.427  1.00  0.00    -0.431 N  
HETATM   16  H   UNL     1     -12.076  11.613  71.312  1.00  0.00     0.000 HD 
BRANCH  15  17
HETATM   17  N   UNL     1     -11.888  12.014  69.241  1.00  0.00    -0.319 NA 
HETATM   18  C   UNL     1     -11.815  13.452  69.561  1.00  0.00    -0.332 C  
HETATM   19  C   UNL     1     -11.918  14.443  68.397  1.00  0.00    -0.328 C  
HETATM   20  C   UNL     1     -10.696  14.420  67.485  1.00  0.00    -0.271 C  
HETATM   21  C   UNL     1     -10.753  13.354  66.396  1.00  0.00    -0.289 C  
HETATM   22  C   UNL     1     -11.372  12.022  66.803  1.00  0.00    -0.398 C  
HETATM   23  C   UNL     1     -10.964  11.547  68.194  1.00  0.00    -0.228 C  
ENDBRANCH  15  17
ENDBRANCH  13  15
ENDBRANCH  11  13
ENDBRANCH   8  11
ENDBRANCH   5   8
TORSDOF 5
ENDMDL
MODEL      136
REMARK 921   NORMALIZED FREE ENERGY PREDICTED BY IDOCK:   -4.83 KCAL/MOL
REMARK 922        TOTAL FREE ENERGY PREDICTED BY IDOCK:   -6.78 KCAL/MOL
REMARK 923 INTER-LIGAND FREE ENERGY PREDICTED BY IDOCK:   -6.24 KCAL/MOL
REMARK 924 INTRA-LIGAND FREE ENERGY PREDICTED BY IDOCK:   -0.54 KCAL/MOL
REMARK 927      BINDING AFFINITY PREDICTED BY RF-SCORE:    0.00 PKD
ROOT
HETATM    1  C   UNL     1     -12.238  15.590  64.136  1.00  0.00    -0.019 C  
HETATM    2  C   UNL     1     -11.926  14.442  65.053  1.00  0.00    -0.413 A  
HETATM    3  C   UNL     1     -12.109  13.119  64.631  1.00  0.00    -0.462 A  
HETATM    4  C   UNL     1     -11.882  12.058  65.510  1.00  0.00    -0.250 A  
HETATM    5  C   UNL     1     -11.461  12.323  66.817  1.00  0.00    -0.361 A  
HETATM    6  C   UNL     1     -11.484  14.691  66.361  1.00  0.00    -0.348 A  
HETATM    7  C   UNL     1     -11.249  13.635  67.244  1.00  0.00    -0.329 A  
ENDROOT
BRANCH   5   8
HETATM    8  S   UNL     1     -11.244  10.967  67.941  1.00  0.00    -0.315 S  
HETATM    9  O   UNL     1     -12.403  10.855  68.801  1.00  0.00    -0.495 OA 
HETATM   10  O   UNL     1     -10.798   9.832  67.153  1.00  0.00    -0.235 OA 
BRANCH   8  11
HETATM   11  N   UNL     1      -9.931  11.405  68.863  1.00  0.00    -0.352 N  
HETATM   12  H   UNL     1      -9.883  12.356  69.229  1.00  0.00     0.000 HD 
BRANCH  11  13
HETATM   13  C   UNL     1      -8.899  10.525  69.150  1.00  0.00    -0.151 C  
HETATM   14  O   UNL     1      -7.909  10.434  68.437  1.00  0.00    -0.098 OA 
BRANCH  13  15
HETATM   15  N   UNL     1      -9.125   9.759  70.282  1.00  0.00    -0.342 N  
HETATM   16  H   UNL     1      -8.507   9.875  71.085  1.00  0.00     0.000 HD 
BRANCH  15  17
HETATM   17  N   UNL     1     -10.191   8.811  70.365  1.00  0.00    -0.190 NA 
HETATM   18  C   UNL     1      -9.746   7.489  69.885  1.00  0.00    -0.171 C  
HETATM   19  C   UNL     1     -10.759   6.340  69.933  1.00  0.00    -0.355 C  
HETATM   20  C   UNL     1     -11.085   5.893  71.354  1.00  0.00    -0.313 C  
HETATM   21  C   UNL     1     -12.188   6.704  72.024  1.00  0.00    -0.337 C  
HETATM   22  C   UNL     1     -12.190   8.199  71.722  1.00  0.00    -0.358 C  
HETATM   23  C   UNL     1     -10.800   8.830  71.705  1.00  0.00    -0.345 C  
ENDBRANCH  15  17
ENDBRANCH  13  15
ENDBRANCH  11  13
ENDBRANCH   8  11
ENDBRANCH   5   8
TORSDOF 5
ENDMDL
MODEL      137
REMARK 921   NORMALIZED FREE ENERGY PREDICTED BY IDOCK:   -4.82 KCAL/MOL
REMARK 922        TOTAL FREE ENERGY PREDICTED BY IDOCK:   -6.76 KCAL/MOL
REMARK 923 INTER-LIGAND FREE ENERGY PREDICTED BY IDOCK:   -6.06 KCAL/MOL
REMARK 924 INTRA-LIGAND FREE ENERGY PREDICTED BY IDOCK:   -0.70 KCAL/MOL
REMARK 927      BINDING AFFINITY PREDICTED BY RF-SCORE:    0.00 PKD
ROOT
HETATM    1  C   UNL     1     -10.711   2.924  73.746  1.00  0.00    -0.285 C  
HETATM    2  C   UNL     1     -10.574   4.280  73.115  1.00  0.00    -0.270 A  
HETATM    3  C   UNL     1     -10.655   5.443  73.892  1.00  0.00    -0.324 A  
HETATM    4  C   UNL     1     -10.595   6.702  73.290  1.00  0.00    -0.316 A  
HETATM    5  C   UNL     1     -10.444   6.796  71.903  1.00  0.00    -0.199 A  
HETATM    6  C   UNL     1     -10.403   4.391  71.727  1.00  0.00    -0.141 A  
HETATM    7  C   UNL     1     -10.335   5.647  71.119  1.00  0.00    -0.295 A  
ENDROOT
BRANCH   5   8
HETATM    8  S   UNL     1     -10.440   8.403  71.147  1.00  0.00    -0.223 S  
HETATM    9  O   UNL     1      -9.610   9.303  71.919  1.00  0.00    -0.274 OA 
HETATM   10  O   UNL     1     -10.193   8.203  69.730  1.00  0.00    -0.194 OA 
BRANCH   8  11
HETATM   11  N   UNL     1     -12.021   8.907  71.251  1.00  0.00    -0.297 N  
HETATM   12  H   UNL     1     -12.732   8.239  71.550  1.00  0.00     0.000 HD 
BRANCH  11  13
HETATM   13  C   UNL     1     -12.409  10.202  70.944  1.00  0.00    -0.363 C  
HETATM   14  O   UNL     1     -12.697  11.013  71.814  1.00  0.00    -0.382 OA 
BRANCH  13  15
HETATM   15  N   UNL     1     -12.467  10.455  69.584  1.00  0.00    -0.555 N  
HETATM   16  H   UNL     1     -13.208  10.020  69.035  1.00  0.00     0.000 HD 
BRANCH  15  17
HETATM   17  N   UNL     1     -11.527  11.303  68.921  1.00  0.00    -0.267 NA 
HETATM   18  C   UNL     1     -11.111  10.708  67.637  1.00  0.00    -0.319 C  
HETATM   19  C   UNL     1     -10.123  11.503  66.776  1.00  0.00    -0.245 C  
HETATM   20  C   UNL     1     -10.736  12.764  66.177  1.00  0.00    -0.297 C  
HETATM   21  C   UNL     1     -10.688  13.977  67.099  1.00  0.00    -0.283 C  
HETATM   22  C   UNL     1     -10.923  13.696  68.579  1.00  0.00    -0.289 C  
HETATM   23  C   UNL     1     -12.032  12.684  68.849  1.00  0.00    -0.242 C  
ENDBRANCH  15  17
ENDBRANCH  13  15
ENDBRANCH  11  13
ENDBRANCH   8  11
ENDBRANCH   5   8
TORSDOF 5
ENDMDL
MODEL      138
REMARK 921   NORMALIZED FREE ENERGY PREDICTED BY IDOCK:   -4.81 KCAL/MOL
REMARK 922        TOTAL FREE ENERGY PREDICTED BY IDOCK:   -6.75 KCAL/MOL
REMARK 923 INTER-LIGAND FREE ENERGY PREDICTED BY IDOCK:   -6.18 KCAL/MOL
REMARK 924 INTRA-LIGAND FREE ENERGY PREDICTED BY IDOCK:   -0.56 KCAL/MOL
REMARK 927      BINDING AFFINITY PREDICTED BY RF-SCORE:    0.00 PKD
ROOT
HETATM    1  C   UNL     1      -6.435  10.376  69.383  1.00  0.00    -0.057 C  
HETATM    2  C   UNL     1      -7.672   9.659  69.843  1.00  0.00    -0.146 A  
HETATM    3  C   UNL     1      -8.878   9.790  69.142  1.00  0.00    -0.160 A  
HETATM    4  C   UNL     1     -10.040   9.176  69.612  1.00  0.00    -0.206 A  
HETATM    5  C   UNL     1      -9.993   8.420  70.787  1.00  0.00    -0.189 A  
HETATM    6  C   UNL     1      -7.637   8.881  71.009  1.00  0.00    -0.136 A  
HETATM    7  C   UNL     1      -8.794   8.259  71.483  1.00  0.00    -0.216 A  
ENDROOT
BRANCH   5   8
HETATM    8  S   UNL     1     -11.495   7.705  71.408  1.00  0.00    -0.271 S  
HETATM    9  O   UNL     1     -11.739   6.436  70.755  1.00  0.00    -0.366 OA 
HETATM   10  O   UNL     1     -11.436   7.790  72.857  1.00  0.00    -0.378 OA 
BRANCH   8  11
HETATM   11  N   UNL     1     -12.679   8.781  70.953  1.00  0.00    -0.492 N  
HETATM   12  H   UNL     1     -13.056   8.725  70.007  1.00  0.00     0.000 HD 
BRANCH  11  13
HETATM   13  C   UNL     1     -13.171   9.750  71.813  1.00  0.00    -0.436 C  
HETATM   14  O   UNL     1     -14.170   9.564  72.494  1.00  0.00    -0.318 OA 
BRANCH  13  15
HETATM   15  N   UNL     1     -12.447  10.931  71.788  1.00  0.00    -0.232 N  
HETATM   16  H   UNL     1     -11.479  10.920  72.108  1.00  0.00     0.000 HD 
BRANCH  15  17
HETATM   17  N   UNL     1     -13.007  12.163  71.331  1.00  0.00    -0.330 NA 
HETATM   18  C   UNL     1     -13.725  12.843  72.426  1.00  0.00    -0.431 C  
HETATM   19  C   UNL     1     -14.364  14.201  72.118  1.00  0.00    -0.606 C  
HETATM   20  C   UNL     1     -13.337  15.305  71.891  1.00  0.00    -0.524 C  
HETATM   21  C   UNL     1     -12.817  15.386  70.461  1.00  0.00    -0.425 C  
HETATM   22  C   UNL     1     -12.607  14.051  69.753  1.00  0.00    -0.128 C  
HETATM   23  C   UNL     1     -11.989  12.972  70.639  1.00  0.00    -0.138 C  
ENDBRANCH  15  17
ENDBRANCH  13  15
ENDBRANCH  11  13
ENDBRANCH   8  11
ENDBRANCH   5   8
TORSDOF 5
ENDMDL
MODEL      139
REMARK 921   NORMALIZED FREE ENERGY PREDICTED BY IDOCK:   -4.80 KCAL/MOL
REMARK 922        TOTAL FREE ENERGY PREDICTED BY IDOCK:   -6.74 KCAL/MOL
REMARK 923 INTER-LIGAND FREE ENERGY PREDICTED BY IDOCK:   -6.46 KCAL/MOL
REMARK 924 INTRA-LIGAND FREE ENERGY PREDICTED BY IDOCK:   -0.28 KCAL/MOL
REMARK 927      BINDING AFFINITY PREDICTED BY RF-SCORE:    0.00 PKD
ROOT
HETATM    1  C   UNL     1     -13.476  13.648  72.336  1.00  0.00    -0.685 C  
HETATM    2  C   UNL     1     -12.558  14.039  71.214  1.00  0.00    -0.444 A  
HETATM    3  C   UNL     1     -12.172  15.375  71.036  1.00  0.00    -0.431 A  
HETATM    4  C   UNL     1     -11.373  15.743  69.952  1.00  0.00    -0.349 A  
HETATM    5  C   UNL     1     -10.950  14.767  69.045  1.00  0.00    -0.248 A  
HETATM    6  C   UNL     1     -12.108  13.069  70.306  1.00  0.00    -0.388 A  
HETATM    7  C   UNL     1     -11.303  13.428  69.223  1.00  0.00    -0.314 A  
ENDROOT
BRANCH   5   8
HETATM    8  S   UNL     1      -9.993  15.263  67.635  1.00  0.00    -0.222 S  
HETATM    9  O   UNL     1     -10.771  16.159  66.807  1.00  0.00    -0.310 OA 
HETATM   10  O   UNL     1      -8.687  15.662  68.129  1.00  0.00    -0.165 OA 
BRANCH   8  11
HETATM   11  N   UNL     1      -9.733  13.849  66.799  1.00  0.00    -0.270 N  
HETATM   12  H   UNL     1      -9.045  13.186  67.156  1.00  0.00     0.000 HD 
BRANCH  11  13
HETATM   13  C   UNL     1     -10.417  13.538  65.634  1.00  0.00    -0.293 C  
HETATM   14  O   UNL     1     -10.316  14.220  64.624  1.00  0.00    -0.417 OA 
BRANCH  13  15
HETATM   15  N   UNL     1     -11.231  12.424  65.752  1.00  0.00    -0.318 N  
HETATM   16  H   UNL     1     -12.211  12.555  66.003  1.00  0.00     0.000 HD 
BRANCH  15  17
HETATM   17  N   UNL     1     -10.749  11.096  65.535  1.00  0.00    -0.224 NA 
HETATM   18  C   UNL     1      -9.647  11.101  64.553  1.00  0.00    -0.250 C  
HETATM   19  C   UNL     1      -8.987   9.757  64.224  1.00  0.00    -0.276 C  
HETATM   20  C   UNL     1      -8.168   9.196  65.381  1.00  0.00    -0.131 C  
HETATM   21  C   UNL     1      -8.983   8.387  66.384  1.00  0.00    -0.207 C  
HETATM   22  C   UNL     1     -10.382   8.914  66.682  1.00  0.00    -0.294 C  
HETATM   23  C   UNL     1     -10.457  10.433  66.816  1.00  0.00    -0.225 C  
ENDBRANCH  15  17
ENDBRANCH  13  15
ENDBRANCH  11  13
ENDBRANCH   8  11
ENDBRANCH   5   8
TORSDOF 5
ENDMDL
MODEL      140
REMARK 921   NORMALIZED FREE ENERGY PREDICTED BY IDOCK:   -4.80 KCAL/MOL
REMARK 922        TOTAL FREE ENERGY PREDICTED BY IDOCK:   -6.74 KCAL/MOL
REMARK 923 INTER-LIGAND FREE ENERGY PREDICTED BY IDOCK:   -6.48 KCAL/MOL
REMARK 924 INTRA-LIGAND FREE ENERGY PREDICTED BY IDOCK:   -0.26 KCAL/MOL
REMARK 927      BINDING AFFINITY PREDICTED BY RF-SCORE:    0.00 PKD
ROOT
HETATM    1  C   UNL     1     -10.295  18.116  67.939  1.00  0.00    -0.410 C  
HETATM    2  C   UNL     1     -10.630  16.820  67.260  1.00  0.00    -0.275 A  
HETATM    3  C   UNL     1     -11.288  15.796  67.955  1.00  0.00    -0.310 A  
HETATM    4  C   UNL     1     -11.537  14.568  67.339  1.00  0.00    -0.406 A  
HETATM    5  C   UNL     1     -11.133  14.367  66.015  1.00  0.00    -0.324 A  
HETATM    6  C   UNL     1     -10.249  16.609  65.927  1.00  0.00    -0.358 A  
HETATM    7  C   UNL     1     -10.500  15.385  65.301  1.00  0.00    -0.440 A  
ENDROOT
BRANCH   5   8
HETATM    8  S   UNL     1     -11.394  12.776  65.271  1.00  0.00    -0.316 S  
HETATM    9  O   UNL     1     -12.782  12.392  65.415  1.00  0.00    -0.582 OA 
HETATM   10  O   UNL     1     -10.772  12.816  63.960  1.00  0.00    -0.387 OA 
BRANCH   8  11
HETATM   11  N   UNL     1     -10.453  11.743  66.173  1.00  0.00    -0.237 N  
HETATM   12  H   UNL     1      -9.439  11.848  66.141  1.00  0.00     0.000 HD 
BRANCH  11  13
HETATM   13  C   UNL     1     -10.997  10.744  66.965  1.00  0.00    -0.227 C  
HETATM   14  O   UNL     1     -11.890  10.971  67.769  1.00  0.00    -0.605 OA 
BRANCH  13  15
HETATM   15  N   UNL     1     -10.407   9.505  66.775  1.00  0.00    -0.243 N  
HETATM   16  H   UNL     1     -10.079   9.255  65.843  1.00  0.00     0.000 HD 
BRANCH  15  17
HETATM   17  N   UNL     1     -10.242   8.564  67.838  1.00  0.00    -0.208 NA 
HETATM   18  C   UNL     1     -10.767   7.243  67.444  1.00  0.00    -0.288 C  
HETATM   19  C   UNL     1     -10.642   6.101  68.459  1.00  0.00    -0.327 C  
HETATM   20  C   UNL     1      -9.202   5.645  68.669  1.00  0.00    -0.134 C  
HETATM   21  C   UNL     1      -8.438   6.460  69.707  1.00  0.00    -0.127 C  
HETATM   22  C   UNL     1      -8.728   7.957  69.722  1.00  0.00    -0.137 C  
HETATM   23  C   UNL     1      -8.856   8.577  68.334  1.00  0.00    -0.139 C  
ENDBRANCH  15  17
ENDBRANCH  13  15
ENDBRANCH  11  13
ENDBRANCH   8  11
ENDBRANCH   5   8
TORSDOF 5
ENDMDL
MODEL      141
REMARK 921   NORMALIZED FREE ENERGY PREDICTED BY IDOCK:   -4.80 KCAL/MOL
REMARK 922        TOTAL FREE ENERGY PREDICTED BY IDOCK:   -6.73 KCAL/MOL
REMARK 923 INTER-LIGAND FREE ENERGY PREDICTED BY IDOCK:   -5.81 KCAL/MOL
REMARK 924 INTRA-LIGAND FREE ENERGY PREDICTED BY IDOCK:   -0.92 KCAL/MOL
REMARK 927      BINDING AFFINITY PREDICTED BY RF-SCORE:    0.00 PKD
ROOT
HETATM    1  C   UNL     1     -10.129   6.337  68.610  1.00  0.00    -0.185 C  
HETATM    2  C   UNL     1     -10.005   7.715  68.026  1.00  0.00    -0.208 A  
HETATM    3  C   UNL     1      -9.747   8.820  68.847  1.00  0.00    -0.174 A  
HETATM    4  C   UNL     1      -9.701  10.107  68.307  1.00  0.00    -0.154 A  
HETATM    5  C   UNL     1      -9.904  10.287  66.936  1.00  0.00    -0.197 A  
HETATM    6  C   UNL     1     -10.188   7.910  66.649  1.00  0.00    -0.303 A  
HETATM    7  C   UNL     1     -10.137   9.194  66.101  1.00  0.00    -0.278 A  
ENDROOT
BRANCH   5   8
HETATM    8  S   UNL     1      -9.911  11.936  66.278  1.00  0.00    -0.227 S  
HETATM    9  O   UNL     1      -8.915  12.737  66.957  1.00  0.00    -0.208 OA 
HETATM   10  O   UNL     1      -9.900  11.815  64.831  1.00  0.00    -0.249 OA 
BRANCH   8  11
HETATM   11  N   UNL     1     -11.421  12.522  66.658  1.00  0.00    -0.338 N  
HETATM   12  H   UNL     1     -12.011  11.985  67.294  1.00  0.00     0.000 HD 
BRANCH  11  13
HETATM   13  C   UNL     1     -11.907  13.712  66.141  1.00  0.00    -0.392 C  
HETATM   14  O   UNL     1     -13.097  13.878  65.908  1.00  0.00    -0.407 OA 
BRANCH  13  15
HETATM   15  N   UNL     1     -10.920  14.651  65.892  1.00  0.00    -0.324 N  
HETATM   16  H   UNL     1     -10.189  14.428  65.217  1.00  0.00     0.000 HD 
BRANCH  15  17
HETATM   17  N   UNL     1     -10.887  15.921  66.547  1.00  0.00    -0.253 NA 
HETATM   18  C   UNL     1     -10.649  15.751  67.993  1.00  0.00    -0.279 C  
HETATM   19  C   UNL     1     -10.553  17.019  68.849  1.00  0.00    -0.328 C  
HETATM   20  C   UNL     1      -9.291  17.829  68.573  1.00  0.00    -0.295 C  
HETATM   21  C   UNL     1      -9.418  18.799  67.404  1.00  0.00    -0.324 C  
HETATM   22  C   UNL     1     -10.228  18.301  66.212  1.00  0.00    -0.414 C  
HETATM   23  C   UNL     1      -9.969  16.840  65.854  1.00  0.00    -0.276 C  
ENDBRANCH  15  17
ENDBRANCH  13  15
ENDBRANCH  11  13
ENDBRANCH   8  11
ENDBRANCH   5   8
TORSDOF 5
ENDMDL
MODEL      142
REMARK 921   NORMALIZED FREE ENERGY PREDICTED BY IDOCK:   -4.77 KCAL/MOL
REMARK 922        TOTAL FREE ENERGY PREDICTED BY IDOCK:   -6.71 KCAL/MOL
REMARK 923 INTER-LIGAND FREE ENERGY PREDICTED BY IDOCK:   -6.14 KCAL/MOL
REMARK 924 INTRA-LIGAND FREE ENERGY PREDICTED BY IDOCK:   -0.56 KCAL/MOL
REMARK 927      BINDING AFFINITY PREDICTED BY RF-SCORE:    0.00 PKD
ROOT
HETATM    1  C   UNL     1     -13.466  16.000  72.780  1.00  0.00    -0.479 C  
HETATM    2  C   UNL     1     -13.198  14.708  72.063  1.00  0.00    -0.439 A  
HETATM    3  C   UNL     1     -13.667  13.493  72.578  1.00  0.00    -0.664 A  
HETATM    4  C   UNL     1     -13.357  12.288  71.943  1.00  0.00    -0.431 A  
HETATM    5  C   UNL     1     -12.581  12.302  70.779  1.00  0.00    -0.213 A  
HETATM    6  C   UNL     1     -12.438  14.707  70.884  1.00  0.00    -0.406 A  
HETATM    7  C   UNL     1     -12.130  13.507  70.239  1.00  0.00    -0.425 A  
ENDROOT
BRANCH   5   8
HETATM    8  S   UNL     1     -12.139  10.757  70.024  1.00  0.00    -0.347 S  
HETATM    9  O   UNL     1     -12.709   9.663  70.781  1.00  0.00    -0.237 OA 
HETATM   10  O   UNL     1     -12.406  10.890  68.603  1.00  0.00    -0.501 OA 
BRANCH   8  11
HETATM   11  N   UNL     1     -10.482  10.697  70.157  1.00  0.00    -0.435 N  
HETATM   12  H   UNL     1      -9.964  11.571  70.245  1.00  0.00     0.000 HD 
BRANCH  11  13
HETATM   13  C   UNL     1      -9.780   9.502  70.152  1.00  0.00    -0.246 C  
HETATM   14  O   UNL     1      -8.813   9.318  70.877  1.00  0.00    -0.222 OA 
BRANCH  13  15
HETATM   15  N   UNL     1     -10.261   8.582  69.234  1.00  0.00    -0.204 N  
HETATM   16  H   UNL     1     -11.268   8.447  69.156  1.00  0.00     0.000 HD 
BRANCH  15  17
HETATM   17  N   UNL     1      -9.396   7.815  68.393  1.00  0.00    -0.143 NA 
HETATM   18  C   UNL     1     -10.162   7.189  67.299  1.00  0.00    -0.245 C  
HETATM   19  C   UNL     1      -9.383   6.351  66.279  1.00  0.00    -0.149 C  
HETATM   20  C   UNL     1      -8.481   7.192  65.382  1.00  0.00    -0.090 C  
HETATM   21  C   UNL     1      -7.108   7.483  65.978  1.00  0.00    -0.069 C  
HETATM   22  C   UNL     1      -7.078   7.748  67.479  1.00  0.00    -0.083 C  
HETATM   23  C   UNL     1      -8.231   8.615  67.979  1.00  0.00    -0.115 C  
ENDBRANCH  15  17
ENDBRANCH  13  15
ENDBRANCH  11  13
ENDBRANCH   8  11
ENDBRANCH   5   8
TORSDOF 5
ENDMDL
MODEL      143
REMARK 921   NORMALIZED FREE ENERGY PREDICTED BY IDOCK:   -4.77 KCAL/MOL
REMARK 922        TOTAL FREE ENERGY PREDICTED BY IDOCK:   -6.70 KCAL/MOL
REMARK 923 INTER-LIGAND FREE ENERGY PREDICTED BY IDOCK:   -5.22 KCAL/MOL
REMARK 924 INTRA-LIGAND FREE ENERGY PREDICTED BY IDOCK:   -1.48 KCAL/MOL
REMARK 927      BINDING AFFINITY PREDICTED BY RF-SCORE:    0.00 PKD
ROOT
HETATM    1  C   UNL     1      -7.798   9.252  66.520  1.00  0.00    -0.100 C  
HETATM    2  C   UNL     1      -8.880   9.724  67.448  1.00  0.00    -0.137 A  
HETATM    3  C   UNL     1      -8.608   9.960  68.803  1.00  0.00    -0.130 A  
HETATM    4  C   UNL     1      -9.633  10.333  69.675  1.00  0.00    -0.192 A  
HETATM    5  C   UNL     1     -10.935  10.481  69.187  1.00  0.00    -0.240 A  
HETATM    6  C   UNL     1     -10.187   9.896  66.970  1.00  0.00    -0.294 A  
HETATM    7  C   UNL     1     -11.216  10.276  67.835  1.00  0.00    -0.290 A  
ENDROOT
BRANCH   5   8
HETATM    8  S   UNL     1     -12.236  10.888  70.323  1.00  0.00    -0.360 S  
HETATM    9  O   UNL     1     -12.069  12.247  70.791  1.00  0.00    -0.340 OA 
HETATM   10  O   UNL     1     -13.482  10.468  69.706  1.00  0.00     0.203 OA 
BRANCH   8  11
HETATM   11  N   UNL     1     -12.006   9.847  71.599  1.00  0.00    -0.388 N  
HETATM   12  H   UNL     1     -11.222  10.009  72.231  1.00  0.00     0.000 HD 
BRANCH  11  13
HETATM   13  C   UNL     1     -12.840   8.765  71.835  1.00  0.00    -0.375 C  
HETATM   14  O   UNL     1     -13.641   8.756  72.759  1.00  0.00    -0.357 OA 
BRANCH  13  15
HETATM   15  N   UNL     1     -12.645   7.714  70.955  1.00  0.00    -0.537 N  
HETATM   16  H   UNL     1     -13.435   7.382  70.402  1.00  0.00     0.000 HD 
BRANCH  15  17
HETATM   17  N   UNL     1     -11.376   7.076  70.792  1.00  0.00    -0.283 NA 
HETATM   18  C   UNL     1     -11.217   5.985  71.772  1.00  0.00    -0.275 C  
HETATM   19  C   UNL     1      -9.920   5.170  71.720  1.00  0.00    -0.244 C  
HETATM   20  C   UNL     1      -9.821   4.287  70.480  1.00  0.00    -0.269 C  
HETATM   21  C   UNL     1      -9.257   4.997  69.255  1.00  0.00    -0.155 C  
HETATM   22  C   UNL     1      -9.686   6.449  69.072  1.00  0.00    -0.145 C  
HETATM   23  C   UNL     1     -11.158   6.704  69.384  1.00  0.00    -0.310 C  
ENDBRANCH  15  17
ENDBRANCH  13  15
ENDBRANCH  11  13
ENDBRANCH   8  11
ENDBRANCH   5   8
TORSDOF 5
ENDMDL
MODEL      144
REMARK 921   NORMALIZED FREE ENERGY PREDICTED BY IDOCK:   -4.74 KCAL/MOL
REMARK 922        TOTAL FREE ENERGY PREDICTED BY IDOCK:   -6.66 KCAL/MOL
REMARK 923 INTER-LIGAND FREE ENERGY PREDICTED BY IDOCK:   -6.41 KCAL/MOL
REMARK 924 INTRA-LIGAND FREE ENERGY PREDICTED BY IDOCK:   -0.25 KCAL/MOL
REMARK 927      BINDING AFFINITY PREDICTED BY RF-SCORE:    0.00 PKD
ROOT
HETATM    1  C   UNL     1     -12.534  12.031  63.330  1.00  0.00    -0.625 C  
HETATM    2  C   UNL     1     -11.836  12.822  64.399  1.00  0.00    -0.446 A  
HETATM    3  C   UNL     1     -10.624  12.376  64.944  1.00  0.00    -0.326 A  
HETATM    4  C   UNL     1     -10.015  13.080  65.985  1.00  0.00    -0.277 A  
HETATM    5  C   UNL     1     -10.617  14.242  66.477  1.00  0.00    -0.286 A  
HETATM    6  C   UNL     1     -12.418  14.000  64.890  1.00  0.00    -0.419 A  
HETATM    7  C   UNL     1     -11.810  14.713  65.927  1.00  0.00    -0.272 A  
ENDROOT
BRANCH   5   8
HETATM    8  S   UNL     1      -9.865  15.084  67.846  1.00  0.00    -0.218 S  
HETATM    9  O   UNL     1     -10.237  16.483  67.823  1.00  0.00    -0.261 OA 
HETATM   10  O   UNL     1     -10.110  14.275  69.027  1.00  0.00    -0.209 OA 
BRANCH   8  11
HETATM   11  N   UNL     1      -8.232  14.957  67.557  1.00  0.00    -0.168 N  
HETATM   12  H   UNL     1      -7.844  14.044  67.321  1.00  0.00     0.000 HD 
BRANCH  11  13
HETATM   13  C   UNL     1      -7.379  16.047  67.626  1.00  0.00    -0.151 C  
HETATM   14  O   UNL     1      -6.519  16.249  66.779  1.00  0.00    -0.280 OA 
BRANCH  13  15
HETATM   15  N   UNL     1      -7.580  16.837  68.745  1.00  0.00    -0.229 N  
HETATM   16  H   UNL     1      -7.801  16.385  69.632  1.00  0.00     0.000 HD 
BRANCH  15  17
HETATM   17  N   UNL     1      -7.489  18.263  68.703  1.00  0.00    -0.290 NA 
HETATM   18  C   UNL     1      -6.245  18.721  69.352  1.00  0.00    -0.270 C  
HETATM   19  C   UNL     1      -5.969  20.228  69.369  1.00  0.00    -0.375 C  
HETATM   20  C   UNL     1      -5.647  20.791  67.989  1.00  0.00    -0.312 C  
HETATM   21  C   UNL     1      -6.875  21.170  67.170  1.00  0.00    -0.388 C  
HETATM   22  C   UNL     1      -8.077  20.240  67.305  1.00  0.00    -0.381 C  
HETATM   23  C   UNL     1      -7.713  18.758  67.335  1.00  0.00    -0.228 C  
ENDBRANCH  15  17
ENDBRANCH  13  15
ENDBRANCH  11  13
ENDBRANCH   8  11
ENDBRANCH   5   8
TORSDOF 5
ENDMDL
MODEL      145
REMARK 921   NORMALIZED FREE ENERGY PREDICTED BY IDOCK:   -4.73 KCAL/MOL
REMARK 922        TOTAL FREE ENERGY PREDICTED BY IDOCK:   -6.65 KCAL/MOL
REMARK 923 INTER-LIGAND FREE ENERGY PREDICTED BY IDOCK:   -6.20 KCAL/MOL
REMARK 924 INTRA-LIGAND FREE ENERGY PREDICTED BY IDOCK:   -0.45 KCAL/MOL
REMARK 927      BINDING AFFINITY PREDICTED BY RF-SCORE:    0.00 PKD
ROOT
HETATM    1  C   UNL     1      -9.272   3.135  69.103  1.00  0.00    -0.222 C  
HETATM    2  C   UNL     1      -9.476   4.621  69.166  1.00  0.00    -0.224 A  
HETATM    3  C   UNL     1      -8.627   5.490  68.468  1.00  0.00    -0.102 A  
HETATM    4  C   UNL     1      -8.779   6.873  68.584  1.00  0.00    -0.122 A  
HETATM    5  C   UNL     1      -9.794   7.389  69.397  1.00  0.00    -0.168 A  
HETATM    6  C   UNL     1     -10.501   5.154  69.962  1.00  0.00    -0.305 A  
HETATM    7  C   UNL     1     -10.663   6.536  70.078  1.00  0.00    -0.302 A  
ENDROOT
BRANCH   5   8
HETATM    8  S   UNL     1      -9.929   9.149  69.589  1.00  0.00    -0.200 S  
HETATM    9  O   UNL     1     -10.586   9.455  70.841  1.00  0.00    -0.270 OA 
HETATM   10  O   UNL     1      -8.624   9.709  69.284  1.00  0.00    -0.132 OA 
BRANCH   8  11
HETATM   11  N   UNL     1     -10.913   9.622  68.335  1.00  0.00    -0.445 N  
HETATM   12  H   UNL     1     -11.265   8.913  67.691  1.00  0.00     0.000 HD 
BRANCH  11  13
HETATM   13  C   UNL     1     -11.273  10.946  68.132  1.00  0.00    -0.301 C  
HETATM   14  O   UNL     1     -12.368  11.376  68.466  1.00  0.00    -0.504 OA 
BRANCH  13  15
HETATM   15  N   UNL     1     -10.296  11.693  67.496  1.00  0.00    -0.194 N  
HETATM   16  H   UNL     1      -9.439  11.914  68.002  1.00  0.00     0.000 HD 
BRANCH  15  17
HETATM   17  N   UNL     1     -10.445  12.167  66.156  1.00  0.00    -0.242 NA 
HETATM   18  C   UNL     1     -10.656  11.039  65.229  1.00  0.00    -0.214 C  
HETATM   19  C   UNL     1     -10.867  11.370  63.747  1.00  0.00    -0.468 C  
HETATM   20  C   UNL     1     -12.203  12.053  63.474  1.00  0.00    -0.653 C  
HETATM   21  C   UNL     1     -12.176  13.566  63.661  1.00  0.00    -0.438 C  
HETATM   22  C   UNL     1     -11.331  14.078  64.822  1.00  0.00    -0.366 C  
HETATM   23  C   UNL     1     -11.452  13.240  66.093  1.00  0.00    -0.328 C  
ENDBRANCH  15  17
ENDBRANCH  13  15
ENDBRANCH  11  13
ENDBRANCH   8  11
ENDBRANCH   5   8
TORSDOF 5
ENDMDL
MODEL      146
REMARK 921   NORMALIZED FREE ENERGY PREDICTED BY IDOCK:   -4.73 KCAL/MOL
REMARK 922        TOTAL FREE ENERGY PREDICTED BY IDOCK:   -6.64 KCAL/MOL
REMARK 923 INTER-LIGAND FREE ENERGY PREDICTED BY IDOCK:   -5.76 KCAL/MOL
REMARK 924 INTRA-LIGAND FREE ENERGY PREDICTED BY IDOCK:   -0.88 KCAL/MOL
REMARK 927      BINDING AFFINITY PREDICTED BY RF-SCORE:    0.00 PKD
ROOT
HETATM    1  C   UNL     1     -12.223  13.401  63.341  1.00  0.00    -0.419 C  
HETATM    2  C   UNL     1     -11.587  12.506  64.366  1.00  0.00    -0.419 A  
HETATM    3  C   UNL     1     -10.679  11.511  63.983  1.00  0.00    -0.445 A  
HETATM    4  C   UNL     1     -10.143  10.639  64.932  1.00  0.00    -0.402 A  
HETATM    5  C   UNL     1     -10.511  10.770  66.275  1.00  0.00    -0.226 A  
HETATM    6  C   UNL     1     -11.932  12.638  65.720  1.00  0.00    -0.503 A  
HETATM    7  C   UNL     1     -11.395  11.773  66.676  1.00  0.00    -0.381 A  
ENDROOT
BRANCH   5   8
HETATM    8  S   UNL     1      -9.874   9.608  67.457  1.00  0.00    -0.179 S  
HETATM    9  O   UNL     1      -8.431   9.696  67.499  1.00  0.00    -0.124 OA 
HETATM   10  O   UNL     1     -10.659   9.766  68.669  1.00  0.00    -0.208 OA 
BRANCH   8  11
HETATM   11  N   UNL     1     -10.306   8.123  66.845  1.00  0.00    -0.328 N  
HETATM   12  H   UNL     1     -10.519   8.045  65.850  1.00  0.00     0.000 HD 
BRANCH  11  13
HETATM   13  C   UNL     1     -10.387   6.989  67.637  1.00  0.00    -0.211 C  
HETATM   14  O   UNL     1     -11.095   6.038  67.334  1.00  0.00    -0.302 OA 
BRANCH  13  15
HETATM   15  N   UNL     1      -9.627   7.065  68.792  1.00  0.00    -0.139 N  
HETATM   16  H   UNL     1      -8.798   7.660  68.796  1.00  0.00     0.000 HD 
BRANCH  15  17
HETATM   17  N   UNL     1      -9.960   6.341  69.978  1.00  0.00    -0.168 NA 
HETATM   18  C   UNL     1      -8.739   5.856  70.648  1.00  0.00    -0.137 C  
HETATM   19  C   UNL     1      -8.910   5.082  71.960  1.00  0.00    -0.139 C  
HETATM   20  C   UNL     1      -9.386   5.961  73.112  1.00  0.00    -0.139 C  
HETATM   21  C   UNL     1     -10.900   6.130  73.180  1.00  0.00    -0.279 C  
HETATM   22  C   UNL     1     -11.616   6.252  71.839  1.00  0.00    -0.369 C  
HETATM   23  C   UNL     1     -10.882   7.121  70.822  1.00  0.00    -0.244 C  
ENDBRANCH  15  17
ENDBRANCH  13  15
ENDBRANCH  11  13
ENDBRANCH   8  11
ENDBRANCH   5   8
TORSDOF 5
ENDMDL
MODEL      147
REMARK 921   NORMALIZED FREE ENERGY PREDICTED BY IDOCK:   -4.72 KCAL/MOL
REMARK 922        TOTAL FREE ENERGY PREDICTED BY IDOCK:   -6.64 KCAL/MOL
REMARK 923 INTER-LIGAND FREE ENERGY PREDICTED BY IDOCK:   -6.08 KCAL/MOL
REMARK 924 INTRA-LIGAND FREE ENERGY PREDICTED BY IDOCK:   -0.56 KCAL/MOL
REMARK 927      BINDING AFFINITY PREDICTED BY RF-SCORE:    0.00 PKD
ROOT
HETATM    1  C   UNL     1      -9.824  11.193  62.771  1.00  0.00    -0.261 C  
HETATM    2  C   UNL     1      -9.984  11.861  64.106  1.00  0.00    -0.288 A  
HETATM    3  C   UNL     1      -9.459  11.276  65.266  1.00  0.00    -0.248 A  
HETATM    4  C   UNL     1      -9.669  11.867  66.514  1.00  0.00    -0.226 A  
HETATM    5  C   UNL     1     -10.402  13.055  66.600  1.00  0.00    -0.260 A  
HETATM    6  C   UNL     1     -10.700  13.063  64.207  1.00  0.00    -0.430 A  
HETATM    7  C   UNL     1     -10.909  13.663  65.451  1.00  0.00    -0.302 A  
ENDROOT
BRANCH   5   8
HETATM    8  S   UNL     1     -10.718  13.754  68.201  1.00  0.00    -0.254 S  
HETATM    9  O   UNL     1     -11.692  12.946  68.903  1.00  0.00    -0.289 OA 
HETATM   10  O   UNL     1      -9.427  14.041  68.800  1.00  0.00    -0.175 OA 
BRANCH   8  11
HETATM   11  N   UNL     1     -11.389  15.240  67.872  1.00  0.00    -0.331 N  
HETATM   12  H   UNL     1     -12.178  15.292  67.228  1.00  0.00     0.000 HD 
BRANCH  11  13
HETATM   13  C   UNL     1     -10.915  16.412  68.442  1.00  0.00    -0.353 C  
HETATM   14  O   UNL     1     -10.965  16.610  69.648  1.00  0.00    -0.318 OA 
BRANCH  13  15
HETATM   15  N   UNL     1     -10.425  17.318  67.516  1.00  0.00    -0.356 N  
HETATM   16  H   UNL     1     -11.064  17.708  66.824  1.00  0.00     0.000 HD 
BRANCH  15  17
HETATM   17  N   UNL     1      -9.055  17.727  67.495  1.00  0.00    -0.243 NA 
HETATM   18  C   UNL     1      -8.356  17.133  66.340  1.00  0.00    -0.280 C  
HETATM   19  C   UNL     1      -6.879  17.493  66.145  1.00  0.00    -0.311 C  
HETATM   20  C   UNL     1      -6.670  18.945  65.728  1.00  0.00    -0.303 C  
HETATM   21  C   UNL     1      -6.607  19.923  66.896  1.00  0.00    -0.218 C  
HETATM   22  C   UNL     1      -7.555  19.636  68.055  1.00  0.00    -0.334 C  
HETATM   23  C   UNL     1      -8.948  19.190  67.620  1.00  0.00    -0.298 C  
ENDBRANCH  15  17
ENDBRANCH  13  15
ENDBRANCH  11  13
ENDBRANCH   8  11
ENDBRANCH   5   8
TORSDOF 5
ENDMDL
MODEL      148
REMARK 921   NORMALIZED FREE ENERGY PREDICTED BY IDOCK:   -4.72 KCAL/MOL
REMARK 922        TOTAL FREE ENERGY PREDICTED BY IDOCK:   -6.63 KCAL/MOL
REMARK 923 INTER-LIGAND FREE ENERGY PREDICTED BY IDOCK:   -5.88 KCAL/MOL
REMARK 924 INTRA-LIGAND FREE ENERGY PREDICTED BY IDOCK:   -0.76 KCAL/MOL
REMARK 927      BINDING AFFINITY PREDICTED BY RF-SCORE:    0.00 PKD
ROOT
HETATM    1  C   UNL     1      -8.711   8.484  65.630  1.00  0.00    -0.213 C  
HETATM    2  C   UNL     1      -8.730   9.920  66.069  1.00  0.00    -0.152 A  
HETATM    3  C   UNL     1      -7.570  10.533  66.561  1.00  0.00    -0.128 A  
HETATM    4  C   UNL     1      -7.609  11.847  67.030  1.00  0.00    -0.134 A  
HETATM    5  C   UNL     1      -8.815  12.555  66.999  1.00  0.00    -0.212 A  
HETATM    6  C   UNL     1      -9.927  10.649  66.025  1.00  0.00    -0.295 A  
HETATM    7  C   UNL     1      -9.972  11.967  66.487  1.00  0.00    -0.225 A  
ENDROOT
BRANCH   5   8
HETATM    8  S   UNL     1      -8.862  14.200  67.664  1.00  0.00    -0.207 S  
HETATM    9  O   UNL     1      -7.985  14.288  68.812  1.00  0.00    -0.139 OA 
HETATM   10  O   UNL     1      -8.707  15.113  66.545  1.00  0.00    -0.278 OA 
BRANCH   8  11
HETATM   11  N   UNL     1     -10.434  14.391  68.172  1.00  0.00    -0.233 N  
HETATM   12  H   UNL     1     -11.095  13.629  68.022  1.00  0.00     0.000 HD 
BRANCH  11  13
HETATM   13  C   UNL     1     -10.879  15.549  68.791  1.00  0.00    -0.256 C  
HETATM   14  O   UNL     1     -12.068  15.767  68.975  1.00  0.00    -0.349 OA 
BRANCH  13  15
HETATM   15  N   UNL     1      -9.858  16.419  69.135  1.00  0.00    -0.271 N  
HETATM   16  H   UNL     1      -9.144  16.104  69.792  1.00  0.00     0.000 HD 
BRANCH  15  17
HETATM   17  N   UNL     1      -9.768  17.743  68.604  1.00  0.00    -0.336 NA 
HETATM   18  C   UNL     1      -8.356  18.148  68.463  1.00  0.00    -0.301 C  
HETATM   19  C   UNL     1      -8.074  19.535  67.875  1.00  0.00    -0.340 C  
HETATM   20  C   UNL     1      -8.418  19.635  66.393  1.00  0.00    -0.382 C  
HETATM   21  C   UNL     1      -9.878  19.973  66.115  1.00  0.00    -0.553 C  
HETATM   22  C   UNL     1     -10.898  19.329  67.048  1.00  0.00    -0.515 C  
HETATM   23  C   UNL     1     -10.592  17.873  67.390  1.00  0.00    -0.360 C  
ENDBRANCH  15  17
ENDBRANCH  13  15
ENDBRANCH  11  13
ENDBRANCH   8  11
ENDBRANCH   5   8
TORSDOF 5
ENDMDL
MODEL      149
REMARK 921   NORMALIZED FREE ENERGY PREDICTED BY IDOCK:   -4.71 KCAL/MOL
REMARK 922        TOTAL FREE ENERGY PREDICTED BY IDOCK:   -6.63 KCAL/MOL
REMARK 923 INTER-LIGAND FREE ENERGY PREDICTED BY IDOCK:   -5.87 KCAL/MOL
REMARK 924 INTRA-LIGAND FREE ENERGY PREDICTED BY IDOCK:   -0.76 KCAL/MOL
REMARK 927      BINDING AFFINITY PREDICTED BY RF-SCORE:    0.00 PKD
ROOT
HETATM    1  C   UNL     1      -9.846   4.286  66.506  1.00  0.00    -0.238 C  
HETATM    2  C   UNL     1      -9.756   5.784  66.457  1.00  0.00    -0.185 A  
HETATM    3  C   UNL     1     -10.670   6.580  67.160  1.00  0.00    -0.438 A  
HETATM    4  C   UNL     1     -10.624   7.971  67.056  1.00  0.00    -0.364 A  
HETATM    5  C   UNL     1      -9.650   8.571  66.250  1.00  0.00    -0.236 A  
HETATM    6  C   UNL     1      -8.773   6.401  65.668  1.00  0.00    -0.108 A  
HETATM    7  C   UNL     1      -8.716   7.793  65.565  1.00  0.00    -0.102 A  
ENDROOT
BRANCH   5   8
HETATM    8  S   UNL     1      -9.650  10.337  66.075  1.00  0.00    -0.221 S  
HETATM    9  O   UNL     1      -8.298  10.840  66.193  1.00  0.00    -0.156 OA 
HETATM   10  O   UNL     1     -10.452  10.646  64.904  1.00  0.00    -0.312 OA 
BRANCH   8  11
HETATM   11  N   UNL     1     -10.540  10.877  67.372  1.00  0.00    -0.227 N  
HETATM   12  H   UNL     1     -11.538  10.668  67.404  1.00  0.00     0.000 HD 
BRANCH  11  13
HETATM   13  C   UNL     1      -9.975  11.601  68.410  1.00  0.00    -0.201 C  
HETATM   14  O   UNL     1      -9.573  12.745  68.257  1.00  0.00    -0.218 OA 
BRANCH  13  15
HETATM   15  N   UNL     1      -9.888  10.890  69.596  1.00  0.00    -0.419 N  
HETATM   16  H   UNL     1      -9.055  10.999  70.174  1.00  0.00     0.000 HD 
BRANCH  15  17
HETATM   17  N   UNL     1     -10.922  10.008  70.039  1.00  0.00    -0.278 NA 
HETATM   18  C   UNL     1     -10.344   8.756  70.562  1.00  0.00    -0.203 C  
HETATM   19  C   UNL     1     -11.314   7.704  71.111  1.00  0.00    -0.286 C  
HETATM   20  C   UNL     1     -11.980   8.130  72.415  1.00  0.00    -0.431 C  
HETATM   21  C   UNL     1     -13.232   8.979  72.226  1.00  0.00    -0.519 C  
HETATM   22  C   UNL     1     -13.187   9.983  71.079  1.00  0.00    -0.399 C  
HETATM   23  C   UNL     1     -11.850  10.708  70.943  1.00  0.00    -0.331 C  
ENDBRANCH  15  17
ENDBRANCH  13  15
ENDBRANCH  11  13
ENDBRANCH   8  11
ENDBRANCH   5   8
TORSDOF 5
ENDMDL
MODEL      150
REMARK 921   NORMALIZED FREE ENERGY PREDICTED BY IDOCK:   -4.70 KCAL/MOL
REMARK 922        TOTAL FREE ENERGY PREDICTED BY IDOCK:   -6.61 KCAL/MOL
REMARK 923 INTER-LIGAND FREE ENERGY PREDICTED BY IDOCK:   -5.77 KCAL/MOL
REMARK 924 INTRA-LIGAND FREE ENERGY PREDICTED BY IDOCK:   -0.84 KCAL/MOL
REMARK 927      BINDING AFFINITY PREDICTED BY RF-SCORE:    0.00 PKD
ROOT
HETATM    1  C   UNL     1     -11.117  16.071  64.725  1.00  0.00    -0.378 C  
HETATM    2  C   UNL     1     -10.972  14.870  65.614  1.00  0.00    -0.347 A  
HETATM    3  C   UNL     1      -9.857  14.729  66.450  1.00  0.00    -0.297 A  
HETATM    4  C   UNL     1      -9.693  13.579  67.225  1.00  0.00    -0.236 A  
HETATM    5  C   UNL     1     -10.657  12.567  67.168  1.00  0.00    -0.228 A  
HETATM    6  C   UNL     1     -11.940  13.855  65.583  1.00  0.00    -0.409 A  
HETATM    7  C   UNL     1     -11.786  12.704  66.360  1.00  0.00    -0.466 A  
ENDROOT
BRANCH   5   8
HETATM    8  S   UNL     1     -10.398  11.082  68.105  1.00  0.00    -0.192 S  
HETATM    9  O   UNL     1     -11.071   9.975  67.462  1.00  0.00    -0.274 OA 
HETATM   10  O   UNL     1      -8.978  11.011  68.401  1.00  0.00    -0.145 OA 
BRANCH   8  11
HETATM   11  N   UNL     1     -11.135  11.386  69.565  1.00  0.00    -0.375 N  
HETATM   12  H   UNL     1     -10.940  12.267  70.041  1.00  0.00     0.000 HD 
BRANCH  11  13
HETATM   13  C   UNL     1     -12.007  10.485  70.158  1.00  0.00    -0.316 C  
HETATM   14  O   UNL     1     -13.075  10.840  70.637  1.00  0.00    -0.288 OA 
BRANCH  13  15
HETATM   15  N   UNL     1     -11.529   9.186  70.179  1.00  0.00    -0.439 N  
HETATM   16  H   UNL     1     -12.030   8.470  69.652  1.00  0.00     0.000 HD 
BRANCH  15  17
HETATM   17  N   UNL     1     -10.360   8.810  70.910  1.00  0.00    -0.209 NA 
HETATM   18  C   UNL     1     -10.725   8.340  72.260  1.00  0.00    -0.329 C  
HETATM   19  C   UNL     1      -9.590   7.866  73.175  1.00  0.00    -0.352 C  
HETATM   20  C   UNL     1      -8.961   6.555  72.714  1.00  0.00    -0.127 C  
HETATM   21  C   UNL     1      -7.859   6.728  71.674  1.00  0.00    -0.101 C  
HETATM   22  C   UNL     1      -8.090   7.820  70.635  1.00  0.00    -0.103 C  
HETATM   23  C   UNL     1      -9.524   7.891  70.120  1.00  0.00    -0.160 C  
ENDBRANCH  15  17
ENDBRANCH  13  15
ENDBRANCH  11  13
ENDBRANCH   8  11
ENDBRANCH   5   8
TORSDOF 5
ENDMDL
MODEL      151
REMARK 921   NORMALIZED FREE ENERGY PREDICTED BY IDOCK:   -4.68 KCAL/MOL
REMARK 922        TOTAL FREE ENERGY PREDICTED BY IDOCK:   -6.58 KCAL/MOL
REMARK 923 INTER-LIGAND FREE ENERGY PREDICTED BY IDOCK:   -6.08 KCAL/MOL
REMARK 924 INTRA-LIGAND FREE ENERGY PREDICTED BY IDOCK:   -0.50 KCAL/MOL
REMARK 927      BINDING AFFINITY PREDICTED BY RF-SCORE:    0.00 PKD
ROOT
HETATM    1  C   UNL     1     -12.696   8.762  72.391  1.00  0.00    -0.433 C  
HETATM    2  C   UNL     1     -11.491   9.161  71.588  1.00  0.00    -0.451 A  
HETATM    3  C   UNL     1     -11.549  10.244  70.701  1.00  0.00    -0.435 A  
HETATM    4  C   UNL     1     -10.447  10.568  69.907  1.00  0.00    -0.213 A  
HETATM    5  C   UNL     1      -9.277   9.808  70.008  1.00  0.00    -0.229 A  
HETATM    6  C   UNL     1     -10.304   8.421  71.692  1.00  0.00    -0.312 A  
HETATM    7  C   UNL     1      -9.196   8.742  70.905  1.00  0.00    -0.261 A  
ENDROOT
BRANCH   5   8
HETATM    8  S   UNL     1      -7.911  10.190  68.941  1.00  0.00    -0.109 S  
HETATM    9  O   UNL     1      -7.674  11.618  68.942  1.00  0.00    -0.125 OA 
HETATM   10  O   UNL     1      -6.843   9.265  69.274  1.00  0.00    -0.048 OA 
BRANCH   8  11
HETATM   11  N   UNL     1      -8.432   9.733  67.429  1.00  0.00    -0.121 N  
HETATM   12  H   UNL     1      -8.737   8.770  67.285  1.00  0.00     0.000 HD 
BRANCH  11  13
HETATM   13  C   UNL     1      -8.468  10.613  66.358  1.00  0.00    -0.152 C  
HETATM   14  O   UNL     1      -7.848  10.399  65.326  1.00  0.00    -0.150 OA 
BRANCH  13  15
HETATM   15  N   UNL     1      -9.232  11.743  66.597  1.00  0.00    -0.193 N  
HETATM   16  H   UNL     1      -8.915  12.410  67.300  1.00  0.00     0.000 HD 
BRANCH  15  17
HETATM   17  N   UNL     1     -10.447  12.009  65.893  1.00  0.00    -0.247 NA 
HETATM   18  C   UNL     1     -11.168  13.137  66.514  1.00  0.00    -0.310 C  
HETATM   19  C   UNL     1     -12.484  13.579  65.866  1.00  0.00    -0.484 C  
HETATM   20  C   UNL     1     -12.284  14.245  64.508  1.00  0.00    -0.476 C  
HETATM   21  C   UNL     1     -12.204  13.267  63.342  1.00  0.00    -0.476 C  
HETATM   22  C   UNL     1     -11.465  11.962  63.619  1.00  0.00    -0.551 C  
HETATM   23  C   UNL     1     -10.195  12.134  64.448  1.00  0.00    -0.306 C  
ENDBRANCH  15  17
ENDBRANCH  13  15
ENDBRANCH  11  13
ENDBRANCH   8  11
ENDBRANCH   5   8
TORSDOF 5
ENDMDL
MODEL      152
REMARK 921   NORMALIZED FREE ENERGY PREDICTED BY IDOCK:   -4.67 KCAL/MOL
REMARK 922        TOTAL FREE ENERGY PREDICTED BY IDOCK:   -6.58 KCAL/MOL
REMARK 923 INTER-LIGAND FREE ENERGY PREDICTED BY IDOCK:   -6.00 KCAL/MOL
REMARK 924 INTRA-LIGAND FREE ENERGY PREDICTED BY IDOCK:   -0.57 KCAL/MOL
REMARK 927      BINDING AFFINITY PREDICTED BY RF-SCORE:    0.00 PKD
ROOT
HETATM    1  C   UNL     1     -10.192  19.254  67.924  1.00  0.00    -0.511 C  
HETATM    2  C   UNL     1     -10.493  17.895  67.362  1.00  0.00    -0.390 A  
HETATM    3  C   UNL     1     -10.863  16.838  68.204  1.00  0.00    -0.353 A  
HETATM    4  C   UNL     1     -11.076  15.559  67.684  1.00  0.00    -0.311 A  
HETATM    5  C   UNL     1     -10.927  15.340  66.312  1.00  0.00    -0.300 A  
HETATM    6  C   UNL     1     -10.366  17.663  65.984  1.00  0.00    -0.305 A  
HETATM    7  C   UNL     1     -10.584  16.388  65.456  1.00  0.00    -0.346 A  
ENDROOT
BRANCH   5   8
HETATM    8  S   UNL     1     -11.133  13.694  65.678  1.00  0.00    -0.298 S  
HETATM    9  O   UNL     1     -12.080  12.970  66.498  1.00  0.00    -0.398 OA 
HETATM   10  O   UNL     1     -11.338  13.815  64.246  1.00  0.00    -0.376 OA 
BRANCH   8  11
HETATM   11  N   UNL     1      -9.631  12.999  65.850  1.00  0.00    -0.448 N  
HETATM   12  H   UNL     1      -9.149  12.660  65.018  1.00  0.00     0.000 HD 
BRANCH  11  13
HETATM   13  C   UNL     1      -9.012  12.864  67.083  1.00  0.00    -0.219 C  
HETATM   14  O   UNL     1      -7.942  13.401  67.331  1.00  0.00    -0.167 OA 
BRANCH  13  15
HETATM   15  N   UNL     1      -9.704  12.047  67.962  1.00  0.00    -0.192 N  
HETATM   16  H   UNL     1     -10.387  12.470  68.590  1.00  0.00     0.000 HD 
BRANCH  15  17
HETATM   17  N   UNL     1      -9.495  10.635  68.021  1.00  0.00    -0.155 NA 
HETATM   18  C   UNL     1     -10.599   9.921  67.352  1.00  0.00    -0.277 C  
HETATM   19  C   UNL     1     -10.521   8.391  67.294  1.00  0.00    -0.373 C  
HETATM   20  C   UNL     1      -9.419   7.885  66.369  1.00  0.00    -0.258 C  
HETATM   21  C   UNL     1      -8.049   7.788  67.030  1.00  0.00    -0.117 C  
HETATM   22  C   UNL     1      -7.706   8.900  68.016  1.00  0.00    -0.101 C  
HETATM   23  C   UNL     1      -8.141  10.289  67.559  1.00  0.00    -0.110 C  
ENDBRANCH  15  17
ENDBRANCH  13  15
ENDBRANCH  11  13
ENDBRANCH   8  11
ENDBRANCH   5   8
TORSDOF 5
ENDMDL
MODEL      153
REMARK 921   NORMALIZED FREE ENERGY PREDICTED BY IDOCK:   -4.67 KCAL/MOL
REMARK 922        TOTAL FREE ENERGY PREDICTED BY IDOCK:   -6.57 KCAL/MOL
REMARK 923 INTER-LIGAND FREE ENERGY PREDICTED BY IDOCK:   -5.82 KCAL/MOL
REMARK 924 INTRA-LIGAND FREE ENERGY PREDICTED BY IDOCK:   -0.75 KCAL/MOL
REMARK 927      BINDING AFFINITY PREDICTED BY RF-SCORE:    0.00 PKD
ROOT
HETATM    1  C   UNL     1      -9.378   9.443  65.425  1.00  0.00    -0.311 C  
HETATM    2  C   UNL     1      -9.811  10.846  65.739  1.00  0.00    -0.286 A  
HETATM    3  C   UNL     1     -10.243  11.706  64.720  1.00  0.00    -0.321 A  
HETATM    4  C   UNL     1     -10.580  13.030  65.009  1.00  0.00    -0.336 A  
HETATM    5  C   UNL     1     -10.493  13.493  66.325  1.00  0.00    -0.290 A  
HETATM    6  C   UNL     1      -9.748  11.319  67.057  1.00  0.00    -0.208 A  
HETATM    7  C   UNL     1     -10.090  12.641  67.354  1.00  0.00    -0.218 A  
ENDROOT
BRANCH   5   8
HETATM    8  S   UNL     1     -10.859  15.197  66.662  1.00  0.00    -0.315 S  
HETATM    9  O   UNL     1     -10.856  15.951  65.426  1.00  0.00    -0.364 OA 
HETATM   10  O   UNL     1     -12.018  15.216  67.536  1.00  0.00    -0.217 OA 
BRANCH   8  11
HETATM   11  N   UNL     1      -9.589  15.709  67.607  1.00  0.00    -0.219 N  
HETATM   12  H   UNL     1      -9.724  15.781  68.615  1.00  0.00     0.000 HD 
BRANCH  11  13
HETATM   13  C   UNL     1      -8.353  16.040  67.073  1.00  0.00    -0.219 C  
HETATM   14  O   UNL     1      -7.403  15.271  67.117  1.00  0.00    -0.203 OA 
BRANCH  13  15
HETATM   15  N   UNL     1      -8.307  17.315  66.534  1.00  0.00    -0.256 N  
HETATM   16  H   UNL     1      -9.033  17.597  65.876  1.00  0.00     0.000 HD 
BRANCH  15  17
HETATM   17  N   UNL     1      -7.280  18.251  66.867  1.00  0.00    -0.200 NA 
HETATM   18  C   UNL     1      -7.256  19.360  65.894  1.00  0.00    -0.290 C  
HETATM   19  C   UNL     1      -6.230  20.476  66.118  1.00  0.00    -0.254 C  
HETATM   20  C   UNL     1      -6.544  21.339  67.335  1.00  0.00    -0.402 C  
HETATM   21  C   UNL     1      -6.010  20.779  68.648  1.00  0.00    -0.381 C  
HETATM   22  C   UNL     1      -6.081  19.264  68.803  1.00  0.00    -0.259 C  
HETATM   23  C   UNL     1      -7.376  18.648  68.282  1.00  0.00    -0.274 C  
ENDBRANCH  15  17
ENDBRANCH  13  15
ENDBRANCH  11  13
ENDBRANCH   8  11
ENDBRANCH   5   8
TORSDOF 5
ENDMDL
MODEL      154
REMARK 921   NORMALIZED FREE ENERGY PREDICTED BY IDOCK:   -4.66 KCAL/MOL
REMARK 922        TOTAL FREE ENERGY PREDICTED BY IDOCK:   -6.57 KCAL/MOL
REMARK 923 INTER-LIGAND FREE ENERGY PREDICTED BY IDOCK:   -5.81 KCAL/MOL
REMARK 924 INTRA-LIGAND FREE ENERGY PREDICTED BY IDOCK:   -0.75 KCAL/MOL
REMARK 927      BINDING AFFINITY PREDICTED BY RF-SCORE:    0.00 PKD
ROOT
HETATM    1  C   UNL     1     -13.638  13.170  72.459  1.00  0.00    -0.595 C  
HETATM    2  C   UNL     1     -12.934  12.540  71.292  1.00  0.00    -0.301 A  
HETATM    3  C   UNL     1     -12.693  11.160  71.261  1.00  0.00    -0.531 A  
HETATM    4  C   UNL     1     -11.978  10.590  70.206  1.00  0.00    -0.411 A  
HETATM    5  C   UNL     1     -11.510  11.405  69.170  1.00  0.00    -0.299 A  
HETATM    6  C   UNL     1     -12.474  13.341  70.236  1.00  0.00    -0.255 A  
HETATM    7  C   UNL     1     -11.764  12.777  69.174  1.00  0.00    -0.375 A  
ENDROOT
BRANCH   5   8
HETATM    8  S   UNL     1     -10.543  10.674  67.873  1.00  0.00    -0.249 S  
HETATM    9  O   UNL     1      -9.135  10.789  68.189  1.00  0.00    -0.142 OA 
HETATM   10  O   UNL     1     -11.132   9.377  67.587  1.00  0.00    -0.149 OA 
BRANCH   8  11
HETATM   11  N   UNL     1     -10.874  11.611  66.539  1.00  0.00    -0.273 N  
HETATM   12  H   UNL     1     -11.750  12.132  66.510  1.00  0.00     0.000 HD 
BRANCH  11  13
HETATM   13  C   UNL     1     -10.002  11.708  65.466  1.00  0.00    -0.242 C  
HETATM   14  O   UNL     1      -9.906  10.821  64.629  1.00  0.00    -0.253 OA 
BRANCH  13  15
HETATM   15  N   UNL     1      -9.250  12.871  65.468  1.00  0.00    -0.304 N  
HETATM   16  H   UNL     1      -8.709  13.107  64.636  1.00  0.00     0.000 HD 
BRANCH  15  17
HETATM   17  N   UNL     1      -9.204  13.751  66.592  1.00  0.00    -0.249 NA 
HETATM   18  C   UNL     1      -7.950  13.560  67.347  1.00  0.00    -0.156 C  
HETATM   19  C   UNL     1      -7.720  14.451  68.573  1.00  0.00    -0.135 C  
HETATM   20  C   UNL     1      -7.468  15.910  68.211  1.00  0.00    -0.128 C  
HETATM   21  C   UNL     1      -8.738  16.734  68.029  1.00  0.00    -0.212 C  
HETATM   22  C   UNL     1      -9.904  16.017  67.358  1.00  0.00    -0.236 C  
HETATM   23  C   UNL     1      -9.496  15.135  66.182  1.00  0.00    -0.319 C  
ENDBRANCH  15  17
ENDBRANCH  13  15
ENDBRANCH  11  13
ENDBRANCH   8  11
ENDBRANCH   5   8
TORSDOF 5
ENDMDL
MODEL      155
REMARK 921   NORMALIZED FREE ENERGY PREDICTED BY IDOCK:   -4.66 KCAL/MOL
REMARK 922        TOTAL FREE ENERGY PREDICTED BY IDOCK:   -6.56 KCAL/MOL
REMARK 923 INTER-LIGAND FREE ENERGY PREDICTED BY IDOCK:   -5.85 KCAL/MOL
REMARK 924 INTRA-LIGAND FREE ENERGY PREDICTED BY IDOCK:   -0.71 KCAL/MOL
REMARK 927      BINDING AFFINITY PREDICTED BY RF-SCORE:    0.00 PKD
ROOT
HETATM    1  C   UNL     1     -10.532   8.262  66.924  1.00  0.00    -0.365 C  
HETATM    2  C   UNL     1     -10.182   7.373  68.083  1.00  0.00    -0.223 A  
HETATM    3  C   UNL     1     -11.119   6.469  68.600  1.00  0.00    -0.348 A  
HETATM    4  C   UNL     1     -10.811   5.694  69.720  1.00  0.00    -0.370 A  
HETATM    5  C   UNL     1      -9.554   5.819  70.320  1.00  0.00    -0.164 A  
HETATM    6  C   UNL     1      -8.919   7.473  68.684  1.00  0.00    -0.132 A  
HETATM    7  C   UNL     1      -8.601   6.696  69.801  1.00  0.00    -0.136 A  
ENDROOT
BRANCH   5   8
HETATM    8  S   UNL     1      -9.205   4.878  71.784  1.00  0.00    -0.144 S  
HETATM    9  O   UNL     1      -9.424   3.471  71.525  1.00  0.00    -0.128 OA 
HETATM   10  O   UNL     1      -7.927   5.344  72.292  1.00  0.00    -0.104 OA 
BRANCH   8  11
HETATM   11  N   UNL     1     -10.334   5.403  72.887  1.00  0.00    -0.185 N  
HETATM   12  H   UNL     1     -11.027   4.741  73.235  1.00  0.00     0.000 HD 
BRANCH  11  13
HETATM   13  C   UNL     1     -10.367   6.709  73.351  1.00  0.00    -0.275 C  
HETATM   14  O   UNL     1      -9.382   7.247  73.838  1.00  0.00    -0.222 OA 
BRANCH  13  15
HETATM   15  N   UNL     1     -11.612   7.305  73.236  1.00  0.00    -0.496 N  
HETATM   16  H   UNL     1     -12.321   7.099  73.939  1.00  0.00     0.000 HD 
BRANCH  15  17
HETATM   17  N   UNL     1     -11.939   8.199  72.170  1.00  0.00    -0.337 NA 
HETATM   18  C   UNL     1     -13.241   8.845  72.418  1.00  0.00    -0.430 C  
HETATM   19  C   UNL     1     -13.735   9.863  71.384  1.00  0.00    -0.203 C  
HETATM   20  C   UNL     1     -12.917  11.150  71.377  1.00  0.00    -0.506 C  
HETATM   21  C   UNL     1     -11.666  11.086  70.507  1.00  0.00    -0.416 C  
HETATM   22  C   UNL     1     -10.918   9.758  70.515  1.00  0.00    -0.384 C  
HETATM   23  C   UNL     1     -10.817   9.112  71.894  1.00  0.00    -0.283 C  
ENDBRANCH  15  17
ENDBRANCH  13  15
ENDBRANCH  11  13
ENDBRANCH   8  11
ENDBRANCH   5   8
TORSDOF 5
ENDMDL
MODEL      156
REMARK 921   NORMALIZED FREE ENERGY PREDICTED BY IDOCK:   -4.66 KCAL/MOL
REMARK 922        TOTAL FREE ENERGY PREDICTED BY IDOCK:   -6.55 KCAL/MOL
REMARK 923 INTER-LIGAND FREE ENERGY PREDICTED BY IDOCK:   -5.46 KCAL/MOL
REMARK 924 INTRA-LIGAND FREE ENERGY PREDICTED BY IDOCK:   -1.09 KCAL/MOL
REMARK 927      BINDING AFFINITY PREDICTED BY RF-SCORE:    0.00 PKD
ROOT
HETATM    1  C   UNL     1      -7.778   8.606  64.929  1.00  0.00    -0.106 C  
HETATM    2  C   UNL     1      -8.453   8.748  66.263  1.00  0.00    -0.130 A  
HETATM    3  C   UNL     1      -7.820   9.420  67.318  1.00  0.00    -0.099 A  
HETATM    4  C   UNL     1      -8.422   9.490  68.575  1.00  0.00    -0.119 A  
HETATM    5  C   UNL     1      -9.671   8.892  68.776  1.00  0.00    -0.164 A  
HETATM    6  C   UNL     1      -9.713   8.171  66.475  1.00  0.00    -0.309 A  
HETATM    7  C   UNL     1     -10.325   8.243  67.729  1.00  0.00    -0.296 A  
ENDROOT
BRANCH   5   8
HETATM    8  S   UNL     1     -10.390   8.931  70.398  1.00  0.00    -0.218 S  
HETATM    9  O   UNL     1     -11.519   8.028  70.454  1.00  0.00    -0.241 OA 
HETATM   10  O   UNL     1      -9.298   8.807  71.348  1.00  0.00    -0.210 OA 
BRANCH   8  11
HETATM   11  N   UNL     1     -10.941  10.492  70.564  1.00  0.00    -0.433 N  
HETATM   12  H   UNL     1     -10.708  11.007  71.413  1.00  0.00     0.000 HD 
BRANCH  11  13
HETATM   13  C   UNL     1     -11.705  11.117  69.591  1.00  0.00    -0.339 C  
HETATM   14  O   UNL     1     -12.861  10.788  69.368  1.00  0.00    -0.182 OA 
BRANCH  13  15
HETATM   15  N   UNL     1     -11.019  12.100  68.897  1.00  0.00    -0.233 N  
HETATM   16  H   UNL     1     -10.328  12.661  69.394  1.00  0.00     0.000 HD 
BRANCH  15  17
HETATM   17  N   UNL     1     -11.245  12.357  67.509  1.00  0.00    -0.275 NA 
HETATM   18  C   UNL     1     -12.067  13.569  67.335  1.00  0.00    -0.318 C  
HETATM   19  C   UNL     1     -12.381  14.012  65.902  1.00  0.00    -0.515 C  
HETATM   20  C   UNL     1     -11.158  14.540  65.160  1.00  0.00    -0.374 C  
HETATM   21  C   UNL     1     -10.322  13.456  64.490  1.00  0.00    -0.394 C  
HETATM   22  C   UNL     1     -10.185  12.149  65.263  1.00  0.00    -0.304 C  
HETATM   23  C   UNL     1      -9.975  12.336  66.763  1.00  0.00    -0.205 C  
ENDBRANCH  15  17
ENDBRANCH  13  15
ENDBRANCH  11  13
ENDBRANCH   8  11
ENDBRANCH   5   8
TORSDOF 5
ENDMDL
MODEL      157
REMARK 921   NORMALIZED FREE ENERGY PREDICTED BY IDOCK:   -4.65 KCAL/MOL
REMARK 922        TOTAL FREE ENERGY PREDICTED BY IDOCK:   -6.55 KCAL/MOL
REMARK 923 INTER-LIGAND FREE ENERGY PREDICTED BY IDOCK:   -5.58 KCAL/MOL
REMARK 924 INTRA-LIGAND FREE ENERGY PREDICTED BY IDOCK:   -0.96 KCAL/MOL
REMARK 927      BINDING AFFINITY PREDICTED BY RF-SCORE:    0.00 PKD
ROOT
HETATM    1  C   UNL     1     -14.403   8.539  72.241  1.00  0.00    -0.483 C  
HETATM    2  C   UNL     1     -13.026   8.525  71.641  1.00  0.00    -0.369 A  
HETATM    3  C   UNL     1     -12.415   7.317  71.280  1.00  0.00    -0.402 A  
HETATM    4  C   UNL     1     -11.109   7.305  70.786  1.00  0.00    -0.290 A  
HETATM    5  C   UNL     1     -10.414   8.510  70.644  1.00  0.00    -0.201 A  
HETATM    6  C   UNL     1     -12.323   9.728  71.474  1.00  0.00    -0.495 A  
HETATM    7  C   UNL     1     -11.019   9.724  70.974  1.00  0.00    -0.402 A  
ENDROOT
BRANCH   5   8
HETATM    8  S   UNL     1      -8.731   8.470  70.080  1.00  0.00    -0.140 S  
HETATM    9  O   UNL     1      -7.905   7.796  71.058  1.00  0.00    -0.086 OA 
HETATM   10  O   UNL     1      -8.759   8.019  68.700  1.00  0.00    -0.131 OA 
BRANCH   8  11
HETATM   11  N   UNL     1      -8.285  10.070  70.010  1.00  0.00    -0.298 N  
HETATM   12  H   UNL     1      -8.434  10.659  70.830  1.00  0.00     0.000 HD 
BRANCH  11  13
HETATM   13  C   UNL     1      -7.718  10.634  68.877  1.00  0.00    -0.121 C  
HETATM   14  O   UNL     1      -6.513  10.825  68.785  1.00  0.00    -0.046 OA 
BRANCH  13  15
HETATM   15  N   UNL     1      -8.644  10.979  67.908  1.00  0.00    -0.129 N  
HETATM   16  H   UNL     1      -8.782  10.353  67.115  1.00  0.00     0.000 HD 
BRANCH  15  17
HETATM   17  N   UNL     1      -9.416  12.180  67.978  1.00  0.00    -0.195 NA 
HETATM   18  C   UNL     1      -8.939  13.159  66.982  1.00  0.00    -0.228 C  
HETATM   19  C   UNL     1      -9.677  14.499  66.897  1.00  0.00    -0.257 C  
HETATM   20  C   UNL     1     -11.086  14.368  66.330  1.00  0.00    -0.326 C  
HETATM   21  C   UNL     1     -12.144  14.014  67.369  1.00  0.00    -0.384 C  
HETATM   22  C   UNL     1     -11.710  13.031  68.451  1.00  0.00    -0.386 C  
HETATM   23  C   UNL     1     -10.856  11.877  67.933  1.00  0.00    -0.213 C  
ENDBRANCH  15  17
ENDBRANCH  13  15
ENDBRANCH  11  13
ENDBRANCH   8  11
ENDBRANCH   5   8
TORSDOF 5
ENDMDL
MODEL      158
REMARK 921   NORMALIZED FREE ENERGY PREDICTED BY IDOCK:   -4.65 KCAL/MOL
REMARK 922        TOTAL FREE ENERGY PREDICTED BY IDOCK:   -6.54 KCAL/MOL
REMARK 923 INTER-LIGAND FREE ENERGY PREDICTED BY IDOCK:   -6.26 KCAL/MOL
REMARK 924 INTRA-LIGAND FREE ENERGY PREDICTED BY IDOCK:   -0.28 KCAL/MOL
REMARK 927      BINDING AFFINITY PREDICTED BY RF-SCORE:    0.00 PKD
ROOT
HETATM    1  C   UNL     1      -8.375  20.517  67.077  1.00  0.00    -0.313 C  
HETATM    2  C   UNL     1      -8.922  19.144  67.344  1.00  0.00    -0.328 A  
HETATM    3  C   UNL     1      -8.424  18.029  66.658  1.00  0.00    -0.283 A  
HETATM    4  C   UNL     1      -8.983  16.766  66.861  1.00  0.00    -0.244 A  
HETATM    5  C   UNL     1     -10.041  16.616  67.763  1.00  0.00    -0.275 A  
HETATM    6  C   UNL     1      -9.970  18.975  68.261  1.00  0.00    -0.459 A  
HETATM    7  C   UNL     1     -10.530  17.713  68.474  1.00  0.00    -0.337 A  
ENDROOT
BRANCH   5   8
HETATM    8  S   UNL     1     -10.785  15.016  67.957  1.00  0.00    -0.269 S  
HETATM    9  O   UNL     1      -9.896  14.151  68.702  1.00  0.00    -0.225 OA 
HETATM   10  O   UNL     1     -12.149  15.236  68.405  1.00  0.00    -0.236 OA 
BRANCH   8  11
HETATM   11  N   UNL     1     -10.920  14.438  66.403  1.00  0.00    -0.314 N  
HETATM   12  H   UNL     1     -10.202  14.684  65.723  1.00  0.00     0.000 HD 
BRANCH  11  13
HETATM   13  C   UNL     1     -11.975  13.634  66.000  1.00  0.00    -0.413 C  
HETATM   14  O   UNL     1     -13.019  14.104  65.570  1.00  0.00    -0.657 OA 
BRANCH  13  15
HETATM   15  N   UNL     1     -11.734  12.280  66.167  1.00  0.00    -0.397 N  
HETATM   16  H   UNL     1     -12.132  11.624  65.496  1.00  0.00     0.000 HD 
BRANCH  15  17
HETATM   17  N   UNL     1     -10.947  11.770  67.246  1.00  0.00    -0.251 NA 
HETATM   18  C   UNL     1     -11.816  11.244  68.316  1.00  0.00    -0.229 C  
HETATM   19  C   UNL     1     -11.135  10.627  69.542  1.00  0.00    -0.328 C  
HETATM   20  C   UNL     1     -10.441   9.304  69.235  1.00  0.00    -0.228 C  
HETATM   21  C   UNL     1      -9.022   9.456  68.701  1.00  0.00    -0.132 C  
HETATM   22  C   UNL     1      -8.791  10.627  67.751  1.00  0.00    -0.133 C  
HETATM   23  C   UNL     1      -9.920  10.841  66.746  1.00  0.00    -0.206 C  
ENDBRANCH  15  17
ENDBRANCH  13  15
ENDBRANCH  11  13
ENDBRANCH   8  11
ENDBRANCH   5   8
TORSDOF 5
ENDMDL
MODEL      159
REMARK 921   NORMALIZED FREE ENERGY PREDICTED BY IDOCK:   -4.64 KCAL/MOL
REMARK 922        TOTAL FREE ENERGY PREDICTED BY IDOCK:   -6.54 KCAL/MOL
REMARK 923 INTER-LIGAND FREE ENERGY PREDICTED BY IDOCK:   -5.87 KCAL/MOL
REMARK 924 INTRA-LIGAND FREE ENERGY PREDICTED BY IDOCK:   -0.67 KCAL/MOL
REMARK 927      BINDING AFFINITY PREDICTED BY RF-SCORE:    0.00 PKD
ROOT
HETATM    1  C   UNL     1      -7.087  20.954  67.361  1.00  0.00    -0.418 C  
HETATM    2  C   UNL     1      -7.933  19.750  67.664  1.00  0.00    -0.325 A  
HETATM    3  C   UNL     1      -7.345  18.553  68.093  1.00  0.00    -0.276 A  
HETATM    4  C   UNL     1      -8.129  17.417  68.308  1.00  0.00    -0.249 A  
HETATM    5  C   UNL     1      -9.510  17.483  68.100  1.00  0.00    -0.291 A  
HETATM    6  C   UNL     1      -9.322  19.806  67.479  1.00  0.00    -0.443 A  
HETATM    7  C   UNL     1     -10.113  18.676  67.698  1.00  0.00    -0.404 A  
ENDROOT
BRANCH   5   8
HETATM    8  S   UNL     1     -10.481  16.012  68.310  1.00  0.00    -0.281 S  
HETATM    9  O   UNL     1      -9.648  14.945  68.821  1.00  0.00    -0.204 OA 
HETATM   10  O   UNL     1     -11.693  16.402  69.010  1.00  0.00    -0.240 OA 
BRANCH   8  11
HETATM   11  N   UNL     1     -10.971  15.622  66.769  1.00  0.00    -0.279 N  
HETATM   12  H   UNL     1     -10.990  16.354  66.060  1.00  0.00     0.000 HD 
BRANCH  11  13
HETATM   13  C   UNL     1     -11.353  14.337  66.415  1.00  0.00    -0.343 C  
HETATM   14  O   UNL     1     -12.503  13.945  66.551  1.00  0.00    -0.424 OA 
BRANCH  13  15
HETATM   15  N   UNL     1     -10.309  13.562  65.938  1.00  0.00    -0.293 N  
HETATM   16  H   UNL     1      -9.563  14.013  65.410  1.00  0.00     0.000 HD 
BRANCH  15  17
HETATM   17  N   UNL     1     -10.240  12.151  66.158  1.00  0.00    -0.222 NA 
HETATM   18  C   UNL     1      -9.978  11.443  64.891  1.00  0.00    -0.265 C  
HETATM   19  C   UNL     1      -9.841   9.917  64.948  1.00  0.00    -0.282 C  
HETATM   20  C   UNL     1      -8.569   9.459  65.654  1.00  0.00    -0.159 C  
HETATM   21  C   UNL     1      -8.700   9.361  67.169  1.00  0.00    -0.134 C  
HETATM   22  C   UNL     1      -9.541  10.445  67.835  1.00  0.00    -0.157 C  
HETATM   23  C   UNL     1      -9.317  11.842  67.263  1.00  0.00    -0.177 C  
ENDBRANCH  15  17
ENDBRANCH  13  15
ENDBRANCH  11  13
ENDBRANCH   8  11
ENDBRANCH   5   8
TORSDOF 5
ENDMDL
MODEL      160
REMARK 921   NORMALIZED FREE ENERGY PREDICTED BY IDOCK:   -4.64 KCAL/MOL
REMARK 922        TOTAL FREE ENERGY PREDICTED BY IDOCK:   -6.53 KCAL/MOL
REMARK 923 INTER-LIGAND FREE ENERGY PREDICTED BY IDOCK:   -5.82 KCAL/MOL
REMARK 924 INTRA-LIGAND FREE ENERGY PREDICTED BY IDOCK:   -0.72 KCAL/MOL
REMARK 927      BINDING AFFINITY PREDICTED BY RF-SCORE:    0.00 PKD
ROOT
HETATM    1  C   UNL     1     -10.244   2.057  72.760  1.00  0.00    -0.214 C  
HETATM    2  C   UNL     1     -10.206   3.547  72.580  1.00  0.00    -0.228 A  
HETATM    3  C   UNL     1      -9.182   4.153  71.839  1.00  0.00    -0.176 A  
HETATM    4  C   UNL     1      -9.113   5.543  71.732  1.00  0.00    -0.151 A  
HETATM    5  C   UNL     1     -10.081   6.332  72.363  1.00  0.00    -0.177 A  
HETATM    6  C   UNL     1     -11.179   4.351  73.190  1.00  0.00    -0.309 A  
HETATM    7  C   UNL     1     -11.121   5.743  73.082  1.00  0.00    -0.288 A  
ENDROOT
BRANCH   5   8
HETATM    8  S   UNL     1      -9.938   8.099  72.274  1.00  0.00    -0.292 S  
HETATM    9  O   UNL     1     -11.226   8.707  72.533  1.00  0.00    -0.329 OA 
HETATM   10  O   UNL     1      -8.775   8.469  73.062  1.00  0.00    -0.343 OA 
BRANCH   8  11
HETATM   11  N   UNL     1      -9.510   8.396  70.695  1.00  0.00    -0.163 N  
HETATM   12  H   UNL     1      -8.582   8.772  70.499  1.00  0.00     0.000 HD 
BRANCH  11  13
HETATM   13  C   UNL     1     -10.369   8.152  69.635  1.00  0.00    -0.221 C  
HETATM   14  O   UNL     1     -10.229   7.186  68.898  1.00  0.00    -0.175 OA 
BRANCH  13  15
HETATM   15  N   UNL     1     -11.353   9.117  69.487  1.00  0.00    -0.435 N  
HETATM   16  H   UNL     1     -12.310   8.886  69.752  1.00  0.00     0.000 HD 
BRANCH  15  17
HETATM   17  N   UNL     1     -11.075  10.422  68.976  1.00  0.00    -0.237 NA 
HETATM   18  C   UNL     1     -10.842  10.368  67.520  1.00  0.00    -0.301 C  
HETATM   19  C   UNL     1     -10.560  11.691  66.799  1.00  0.00    -0.280 C  
HETATM   20  C   UNL     1     -11.778  12.605  66.732  1.00  0.00    -0.460 C  
HETATM   21  C   UNL     1     -11.965  13.482  67.965  1.00  0.00    -0.372 C  
HETATM   22  C   UNL     1     -11.627  12.831  69.302  1.00  0.00    -0.372 C  
HETATM   23  C   UNL     1     -12.097  11.383  69.422  1.00  0.00    -0.291 C  
ENDBRANCH  15  17
ENDBRANCH  13  15
ENDBRANCH  11  13
ENDBRANCH   8  11
ENDBRANCH   5   8
TORSDOF 5
ENDMDL
MODEL      161
REMARK 921   NORMALIZED FREE ENERGY PREDICTED BY IDOCK:   -4.63 KCAL/MOL
REMARK 922        TOTAL FREE ENERGY PREDICTED BY IDOCK:   -6.53 KCAL/MOL
REMARK 923 INTER-LIGAND FREE ENERGY PREDICTED BY IDOCK:   -5.75 KCAL/MOL
REMARK 924 INTRA-LIGAND FREE ENERGY PREDICTED BY IDOCK:   -0.77 KCAL/MOL
REMARK 927      BINDING AFFINITY PREDICTED BY RF-SCORE:    0.00 PKD
ROOT
HETATM    1  C   UNL     1     -10.085   4.959  66.399  1.00  0.00    -0.286 C  
HETATM    2  C   UNL     1      -9.879   6.220  67.189  1.00  0.00    -0.173 A  
HETATM    3  C   UNL     1      -8.824   6.327  68.104  1.00  0.00    -0.113 A  
HETATM    4  C   UNL     1      -8.677   7.475  68.884  1.00  0.00    -0.132 A  
HETATM    5  C   UNL     1      -9.588   8.527  68.741  1.00  0.00    -0.149 A  
HETATM    6  C   UNL     1     -10.773   7.291  67.043  1.00  0.00    -0.406 A  
HETATM    7  C   UNL     1     -10.629   8.446  67.815  1.00  0.00    -0.238 A  
ENDROOT
BRANCH   5   8
HETATM    8  S   UNL     1      -9.428   9.950  69.791  1.00  0.00    -0.210 S  
HETATM    9  O   UNL     1     -10.738  10.483  70.094  1.00  0.00    -0.268 OA 
HETATM   10  O   UNL     1      -8.513   9.586  70.858  1.00  0.00    -0.269 OA 
BRANCH   8  11
HETATM   11  N   UNL     1      -8.600  11.053  68.860  1.00  0.00    -0.274 N  
HETATM   12  H   UNL     1      -7.602  10.914  68.705  1.00  0.00     0.000 HD 
BRANCH  11  13
HETATM   13  C   UNL     1      -9.219  12.154  68.288  1.00  0.00    -0.192 C  
HETATM   14  O   UNL     1      -8.796  13.290  68.451  1.00  0.00    -0.177 OA 
BRANCH  13  15
HETATM   15  N   UNL     1     -10.355  11.835  67.563  1.00  0.00    -0.194 N  
HETATM   16  H   UNL     1     -11.078  11.268  68.007  1.00  0.00     0.000 HD 
BRANCH  15  17
HETATM   17  N   UNL     1     -10.553  12.271  66.217  1.00  0.00    -0.245 NA 
HETATM   18  C   UNL     1     -10.732  11.113  65.320  1.00  0.00    -0.203 C  
HETATM   19  C   UNL     1     -10.987  11.400  63.836  1.00  0.00    -0.442 C  
HETATM   20  C   UNL     1     -12.357  12.017  63.576  1.00  0.00    -0.661 C  
HETATM   21  C   UNL     1     -12.395  13.533  63.729  1.00  0.00    -0.392 C  
HETATM   22  C   UNL     1     -11.551  14.108  64.861  1.00  0.00    -0.379 C  
HETATM   23  C   UNL     1     -11.608  13.296  66.151  1.00  0.00    -0.348 C  
ENDBRANCH  15  17
ENDBRANCH  13  15
ENDBRANCH  11  13
ENDBRANCH   8  11
ENDBRANCH   5   8
TORSDOF 5
ENDMDL
MODEL      162
REMARK 921   NORMALIZED FREE ENERGY PREDICTED BY IDOCK:   -4.63 KCAL/MOL
REMARK 922        TOTAL FREE ENERGY PREDICTED BY IDOCK:   -6.52 KCAL/MOL
REMARK 923 INTER-LIGAND FREE ENERGY PREDICTED BY IDOCK:   -5.82 KCAL/MOL
REMARK 924 INTRA-LIGAND FREE ENERGY PREDICTED BY IDOCK:   -0.70 KCAL/MOL
REMARK 927      BINDING AFFINITY PREDICTED BY RF-SCORE:    0.00 PKD
ROOT
HETATM    1  C   UNL     1      -8.441  17.988  66.243  1.00  0.00    -0.214 C  
HETATM    2  C   UNL     1      -9.028  16.608  66.319  1.00  0.00    -0.340 A  
HETATM    3  C   UNL     1     -10.189  16.284  65.605  1.00  0.00    -0.368 A  
HETATM    4  C   UNL     1     -10.769  15.020  65.733  1.00  0.00    -0.351 A  
HETATM    5  C   UNL     1     -10.177  14.072  66.572  1.00  0.00    -0.279 A  
HETATM    6  C   UNL     1      -8.435  15.639  67.142  1.00  0.00    -0.234 A  
HETATM    7  C   UNL     1      -9.006  14.370  67.269  1.00  0.00    -0.221 A  
ENDROOT
BRANCH   5   8
HETATM    8  S   UNL     1     -10.966  12.495  66.776  1.00  0.00    -0.278 S  
HETATM    9  O   UNL     1     -12.346  12.580  66.349  1.00  0.00    -0.537 OA 
HETATM   10  O   UNL     1     -10.076  11.500  66.203  1.00  0.00    -0.215 OA 
BRANCH   8  11
HETATM   11  N   UNL     1     -10.925  12.226  68.417  1.00  0.00    -0.222 N  
HETATM   12  H   UNL     1     -10.589  12.970  69.028  1.00  0.00     0.000 HD 
BRANCH  11  13
HETATM   13  C   UNL     1     -11.332  11.028  68.983  1.00  0.00    -0.277 C  
HETATM   14  O   UNL     1     -12.433  10.898  69.500  1.00  0.00    -0.305 OA 
BRANCH  13  15
HETATM   15  N   UNL     1     -10.367  10.036  68.932  1.00  0.00    -0.191 N  
HETATM   16  H   UNL     1      -9.387  10.299  69.034  1.00  0.00     0.000 HD 
BRANCH  15  17
HETATM   17  N   UNL     1     -10.694   8.658  68.740  1.00  0.00    -0.127 NA 
HETATM   18  C   UNL     1     -10.305   8.219  67.386  1.00  0.00    -0.280 C  
HETATM   19  C   UNL     1     -10.556   6.752  67.019  1.00  0.00    -0.405 C  
HETATM   20  C   UNL     1      -9.645   5.786  67.768  1.00  0.00    -0.121 C  
HETATM   21  C   UNL     1     -10.164   5.382  69.143  1.00  0.00    -0.302 C  
HETATM   22  C   UNL     1     -10.858   6.480  69.941  1.00  0.00    -0.341 C  
HETATM   23  C   UNL     1     -10.173   7.841  69.848  1.00  0.00    -0.213 C  
ENDBRANCH  15  17
ENDBRANCH  13  15
ENDBRANCH  11  13
ENDBRANCH   8  11
ENDBRANCH   5   8
TORSDOF 5
ENDMDL
MODEL      163
REMARK 921   NORMALIZED FREE ENERGY PREDICTED BY IDOCK:   -4.62 KCAL/MOL
REMARK 922        TOTAL FREE ENERGY PREDICTED BY IDOCK:   -6.51 KCAL/MOL
REMARK 923 INTER-LIGAND FREE ENERGY PREDICTED BY IDOCK:   -5.99 KCAL/MOL
REMARK 924 INTRA-LIGAND FREE ENERGY PREDICTED BY IDOCK:   -0.52 KCAL/MOL
REMARK 927      BINDING AFFINITY PREDICTED BY RF-SCORE:    0.00 PKD
ROOT
HETATM    1  C   UNL     1      -8.106   7.109  65.867  1.00  0.00    -0.122 C  
HETATM    2  C   UNL     1      -8.797   8.402  65.544  1.00  0.00    -0.172 A  
HETATM    3  C   UNL     1      -9.681   8.990  66.459  1.00  0.00    -0.311 A  
HETATM    4  C   UNL     1     -10.373  10.156  66.127  1.00  0.00    -0.237 A  
HETATM    5  C   UNL     1     -10.172  10.743  64.873  1.00  0.00    -0.320 A  
HETATM    6  C   UNL     1      -8.592   9.014  64.298  1.00  0.00    -0.171 A  
HETATM    7  C   UNL     1      -9.276  10.184  63.961  1.00  0.00    -0.315 A  
ENDROOT
BRANCH   5   8
HETATM    8  S   UNL     1     -11.111  12.186  64.441  1.00  0.00    -0.358 S  
HETATM    9  O   UNL     1     -10.221  13.312  64.257  1.00  0.00    -0.396 OA 
HETATM   10  O   UNL     1     -12.030  11.792  63.387  1.00  0.00    -0.474 OA 
BRANCH   8  11
HETATM   11  N   UNL     1     -12.066  12.467  65.774  1.00  0.00    -0.388 N  
HETATM   12  H   UNL     1     -12.785  11.785  66.015  1.00  0.00     0.000 HD 
BRANCH  11  13
HETATM   13  C   UNL     1     -11.920  13.593  66.567  1.00  0.00    -0.424 C  
HETATM   14  O   UNL     1     -12.174  14.715  66.151  1.00  0.00    -0.290 OA 
BRANCH  13  15
HETATM   15  N   UNL     1     -11.435  13.318  67.835  1.00  0.00    -0.287 N  
HETATM   16  H   UNL     1     -10.435  13.416  68.010  1.00  0.00     0.000 HD 
BRANCH  15  17
HETATM   17  N   UNL     1     -12.284  12.900  68.907  1.00  0.00    -0.125 NA 
HETATM   18  C   UNL     1     -12.126  11.455  69.158  1.00  0.00    -0.264 C  
HETATM   19  C   UNL     1     -12.943  10.842  70.300  1.00  0.00    -0.104 C  
HETATM   20  C   UNL     1     -12.475  11.296  71.679  1.00  0.00    -0.251 C  
HETATM   21  C   UNL     1     -13.086  12.615  72.139  1.00  0.00    -0.438 C  
HETATM   22  C   UNL     1     -13.274  13.674  71.059  1.00  0.00    -0.190 C  
HETATM   23  C   UNL     1     -12.108  13.774  70.079  1.00  0.00    -0.349 C  
ENDBRANCH  15  17
ENDBRANCH  13  15
ENDBRANCH  11  13
ENDBRANCH   8  11
ENDBRANCH   5   8
TORSDOF 5
ENDMDL
MODEL      164
REMARK 921   NORMALIZED FREE ENERGY PREDICTED BY IDOCK:   -4.62 KCAL/MOL
REMARK 922        TOTAL FREE ENERGY PREDICTED BY IDOCK:   -6.51 KCAL/MOL
REMARK 923 INTER-LIGAND FREE ENERGY PREDICTED BY IDOCK:   -6.23 KCAL/MOL
REMARK 924 INTRA-LIGAND FREE ENERGY PREDICTED BY IDOCK:   -0.27 KCAL/MOL
REMARK 927      BINDING AFFINITY PREDICTED BY RF-SCORE:    0.00 PKD
ROOT
HETATM    1  C   UNL     1     -10.218  17.994  68.532  1.00  0.00    -0.392 C  
HETATM    2  C   UNL     1     -10.681  16.727  67.872  1.00  0.00    -0.347 A  
HETATM    3  C   UNL     1     -11.355  15.743  68.606  1.00  0.00    -0.369 A  
HETATM    4  C   UNL     1     -11.723  14.538  68.004  1.00  0.00    -0.373 A  
HETATM    5  C   UNL     1     -11.423  14.322  66.655  1.00  0.00    -0.364 A  
HETATM    6  C   UNL     1     -10.404  16.503  66.515  1.00  0.00    -0.307 A  
HETATM    7  C   UNL     1     -10.775  15.303  65.904  1.00  0.00    -0.340 A  
ENDROOT
BRANCH   5   8
HETATM    8  S   UNL     1     -11.836  12.757  65.925  1.00  0.00    -0.446 S  
HETATM    9  O   UNL     1     -12.032  11.769  66.964  1.00  0.00    -0.610 OA 
HETATM   10  O   UNL     1     -12.874  13.011  64.942  1.00  0.00    -0.706 OA 
BRANCH   8  11
HETATM   11  N   UNL     1     -10.486  12.349  65.042  1.00  0.00    -0.286 N  
HETATM   12  H   UNL     1     -10.350  12.777  64.126  1.00  0.00     0.000 HD 
BRANCH  11  13
HETATM   13  C   UNL     1      -9.540  11.450  65.506  1.00  0.00    -0.228 C  
HETATM   14  O   UNL     1      -8.498  11.820  66.029  1.00  0.00    -0.041 OA 
BRANCH  13  15
HETATM   15  N   UNL     1      -9.880  10.125  65.285  1.00  0.00    -0.302 N  
HETATM   16  H   UNL     1     -10.420   9.890  64.453  1.00  0.00     0.000 HD 
BRANCH  15  17
HETATM   17  N   UNL     1      -9.502   9.077  66.181  1.00  0.00    -0.233 NA 
HETATM   18  C   UNL     1      -8.038   8.898  66.177  1.00  0.00    -0.114 C  
HETATM   19  C   UNL     1      -7.454   7.830  67.109  1.00  0.00    -0.096 C  
HETATM   20  C   UNL     1      -7.565   8.201  68.584  1.00  0.00    -0.103 C  
HETATM   21  C   UNL     1      -8.898   7.823  69.220  1.00  0.00    -0.139 C  
HETATM   22  C   UNL     1     -10.130   8.000  68.338  1.00  0.00    -0.221 C  
HETATM   23  C   UNL     1     -10.116   9.278  67.504  1.00  0.00    -0.218 C  
ENDBRANCH  15  17
ENDBRANCH  13  15
ENDBRANCH  11  13
ENDBRANCH   8  11
ENDBRANCH   5   8
TORSDOF 5
ENDMDL
MODEL      165
REMARK 921   NORMALIZED FREE ENERGY PREDICTED BY IDOCK:   -4.62 KCAL/MOL
REMARK 922        TOTAL FREE ENERGY PREDICTED BY IDOCK:   -6.50 KCAL/MOL
REMARK 923 INTER-LIGAND FREE ENERGY PREDICTED BY IDOCK:   -5.74 KCAL/MOL
REMARK 924 INTRA-LIGAND FREE ENERGY PREDICTED BY IDOCK:   -0.76 KCAL/MOL
REMARK 927      BINDING AFFINITY PREDICTED BY RF-SCORE:    0.00 PKD
ROOT
HETATM    1  C   UNL     1     -12.600  14.423  70.471  1.00  0.00    -0.417 C  
HETATM    2  C   UNL     1     -12.449  12.949  70.714  1.00  0.00    -0.370 A  
HETATM    3  C   UNL     1     -11.625  12.168  69.893  1.00  0.00    -0.297 A  
HETATM    4  C   UNL     1     -11.542  10.787  70.081  1.00  0.00    -0.424 A  
HETATM    5  C   UNL     1     -12.281  10.185  71.104  1.00  0.00    -0.389 A  
HETATM    6  C   UNL     1     -13.170  12.333  71.748  1.00  0.00    -0.428 A  
HETATM    7  C   UNL     1     -13.087  10.952  71.946  1.00  0.00    -0.537 A  
ENDROOT
BRANCH   5   8
HETATM    8  S   UNL     1     -12.218   8.420  71.284  1.00  0.00    -0.243 S  
HETATM    9  O   UNL     1     -13.556   7.899  71.466  1.00  0.00    -0.341 OA 
HETATM   10  O   UNL     1     -11.367   7.917  70.220  1.00  0.00    -0.247 OA 
BRANCH   8  11
HETATM   11  N   UNL     1     -11.354   8.183  72.686  1.00  0.00    -0.393 N  
HETATM   12  H   UNL     1     -11.849   8.198  73.577  1.00  0.00     0.000 HD 
BRANCH  11  13
HETATM   13  C   UNL     1      -9.984   7.967  72.686  1.00  0.00    -0.290 C  
HETATM   14  O   UNL     1      -9.184   8.892  72.664  1.00  0.00    -0.301 OA 
BRANCH  13  15
HETATM   15  N   UNL     1      -9.636   6.627  72.678  1.00  0.00    -0.147 N  
HETATM   16  H   UNL     1      -9.758   6.082  73.531  1.00  0.00     0.000 HD 
BRANCH  15  17
HETATM   17  N   UNL     1      -9.112   5.978  71.516  1.00  0.00    -0.143 NA 
HETATM   18  C   UNL     1      -7.658   5.772  71.652  1.00  0.00    -0.099 C  
HETATM   19  C   UNL     1      -6.934   5.058  70.505  1.00  0.00    -0.045 C  
HETATM   20  C   UNL     1      -7.297   3.580  70.401  1.00  0.00    -0.041 C  
HETATM   21  C   UNL     1      -8.556   3.305  69.587  1.00  0.00    -0.112 C  
HETATM   22  C   UNL     1      -9.688   4.313  69.754  1.00  0.00    -0.290 C  
HETATM   23  C   UNL     1      -9.899   4.776  71.193  1.00  0.00    -0.190 C  
ENDBRANCH  15  17
ENDBRANCH  13  15
ENDBRANCH  11  13
ENDBRANCH   8  11
ENDBRANCH   5   8
TORSDOF 5
ENDMDL
MODEL      166
REMARK 921   NORMALIZED FREE ENERGY PREDICTED BY IDOCK:   -4.61 KCAL/MOL
REMARK 922        TOTAL FREE ENERGY PREDICTED BY IDOCK:   -6.50 KCAL/MOL
REMARK 923 INTER-LIGAND FREE ENERGY PREDICTED BY IDOCK:   -5.67 KCAL/MOL
REMARK 924 INTRA-LIGAND FREE ENERGY PREDICTED BY IDOCK:   -0.83 KCAL/MOL
REMARK 927      BINDING AFFINITY PREDICTED BY RF-SCORE:    0.00 PKD
ROOT
HETATM    1  C   UNL     1     -11.316  12.865  64.420  1.00  0.00    -0.402 C  
HETATM    2  C   UNL     1     -11.196  12.169  65.745  1.00  0.00    -0.384 A  
HETATM    3  C   UNL     1     -10.520  10.947  65.853  1.00  0.00    -0.285 A  
HETATM    4  C   UNL     1     -10.470  10.271  67.074  1.00  0.00    -0.304 A  
HETATM    5  C   UNL     1     -11.093  10.827  68.196  1.00  0.00    -0.280 A  
HETATM    6  C   UNL     1     -11.799  12.723  66.884  1.00  0.00    -0.440 A  
HETATM    7  C   UNL     1     -11.748  12.056  68.110  1.00  0.00    -0.398 A  
ENDROOT
BRANCH   5   8
HETATM    8  S   UNL     1     -11.078   9.921  69.722  1.00  0.00    -0.245 S  
HETATM    9  O   UNL     1      -9.840  10.172  70.428  1.00  0.00    -0.120 OA 
HETATM   10  O   UNL     1     -12.357  10.160  70.368  1.00  0.00    -0.257 OA 
BRANCH   8  11
HETATM   11  N   UNL     1     -11.116   8.326  69.252  1.00  0.00    -0.430 N  
HETATM   12  H   UNL     1     -10.938   8.098  68.274  1.00  0.00     0.000 HD 
BRANCH  11  13
HETATM   13  C   UNL     1     -11.380   7.296  70.140  1.00  0.00    -0.207 C  
HETATM   14  O   UNL     1     -11.589   6.152  69.760  1.00  0.00    -0.405 OA 
BRANCH  13  15
HETATM   15  N   UNL     1     -11.417   7.703  71.464  1.00  0.00    -0.258 N  
HETATM   16  H   UNL     1     -12.091   8.416  71.740  1.00  0.00     0.000 HD 
BRANCH  15  17
HETATM   17  N   UNL     1     -10.544   7.159  72.457  1.00  0.00    -0.226 NA 
HETATM   18  C   UNL     1     -11.134   5.947  73.055  1.00  0.00    -0.254 C  
HETATM   19  C   UNL     1     -10.314   5.213  74.122  1.00  0.00    -0.307 C  
HETATM   20  C   UNL     1      -9.077   4.526  73.555  1.00  0.00    -0.106 C  
HETATM   21  C   UNL     1      -7.857   5.433  73.445  1.00  0.00    -0.107 C  
HETATM   22  C   UNL     1      -8.135   6.873  73.027  1.00  0.00    -0.115 C  
HETATM   23  C   UNL     1      -9.180   7.007  71.923  1.00  0.00    -0.140 C  
ENDBRANCH  15  17
ENDBRANCH  13  15
ENDBRANCH  11  13
ENDBRANCH   8  11
ENDBRANCH   5   8
TORSDOF 5
ENDMDL
MODEL      167
REMARK 921   NORMALIZED FREE ENERGY PREDICTED BY IDOCK:   -4.60 KCAL/MOL
REMARK 922        TOTAL FREE ENERGY PREDICTED BY IDOCK:   -6.48 KCAL/MOL
REMARK 923 INTER-LIGAND FREE ENERGY PREDICTED BY IDOCK:   -5.77 KCAL/MOL
REMARK 924 INTRA-LIGAND FREE ENERGY PREDICTED BY IDOCK:   -0.72 KCAL/MOL
REMARK 927      BINDING AFFINITY PREDICTED BY RF-SCORE:    0.00 PKD
ROOT
HETATM    1  C   UNL     1     -11.143   5.984  70.060  1.00  0.00    -0.451 C  
HETATM    2  C   UNL     1     -10.724   6.996  69.032  1.00  0.00    -0.234 A  
HETATM    3  C   UNL     1     -10.911   6.748  67.666  1.00  0.00    -0.361 A  
HETATM    4  C   UNL     1     -10.457   7.661  66.712  1.00  0.00    -0.319 A  
HETATM    5  C   UNL     1      -9.822   8.835  67.129  1.00  0.00    -0.207 A  
HETATM    6  C   UNL     1     -10.103   8.187  69.435  1.00  0.00    -0.194 A  
HETATM    7  C   UNL     1      -9.652   9.109  68.487  1.00  0.00    -0.156 A  
ENDROOT
BRANCH   5   8
HETATM    8  S   UNL     1      -9.190   9.952  65.902  1.00  0.00    -0.191 S  
HETATM    9  O   UNL     1      -8.131  10.756  66.473  1.00  0.00    -0.134 OA 
HETATM   10  O   UNL     1      -8.959   9.171  64.700  1.00  0.00    -0.192 OA 
BRANCH   8  11
HETATM   11  N   UNL     1     -10.481  10.938  65.544  1.00  0.00    -0.247 N  
HETATM   12  H   UNL     1     -10.929  10.850  64.632  1.00  0.00     0.000 HD 
BRANCH  11  13
HETATM   13  C   UNL     1     -10.969  11.876  66.440  1.00  0.00    -0.292 C  
HETATM   14  O   UNL     1     -12.140  11.883  66.794  1.00  0.00    -0.593 OA 
BRANCH  13  15
HETATM   15  N   UNL     1     -10.020  12.798  66.849  1.00  0.00    -0.228 N  
HETATM   16  H   UNL     1      -9.063  12.481  67.003  1.00  0.00     0.000 HD 
BRANCH  15  17
HETATM   17  N   UNL     1     -10.332  14.176  67.063  1.00  0.00    -0.266 NA 
HETATM   18  C   UNL     1     -10.187  14.523  68.489  1.00  0.00    -0.240 C  
HETATM   19  C   UNL     1     -10.455  15.977  68.895  1.00  0.00    -0.245 C  
HETATM   20  C   UNL     1      -9.389  16.942  68.387  1.00  0.00    -0.255 C  
HETATM   21  C   UNL     1      -9.631  17.443  66.968  1.00  0.00    -0.273 C  
HETATM   22  C   UNL     1     -10.200  16.421  65.990  1.00  0.00    -0.373 C  
HETATM   23  C   UNL     1      -9.588  15.030  66.121  1.00  0.00    -0.314 C  
ENDBRANCH  15  17
ENDBRANCH  13  15
ENDBRANCH  11  13
ENDBRANCH   8  11
ENDBRANCH   5   8
TORSDOF 5
ENDMDL
MODEL      168
REMARK 921   NORMALIZED FREE ENERGY PREDICTED BY IDOCK:   -4.57 KCAL/MOL
REMARK 922        TOTAL FREE ENERGY PREDICTED BY IDOCK:   -6.44 KCAL/MOL
REMARK 923 INTER-LIGAND FREE ENERGY PREDICTED BY IDOCK:   -5.82 KCAL/MOL
REMARK 924 INTRA-LIGAND FREE ENERGY PREDICTED BY IDOCK:   -0.62 KCAL/MOL
REMARK 927      BINDING AFFINITY PREDICTED BY RF-SCORE:    0.00 PKD
ROOT
HETATM    1  C   UNL     1     -12.734  12.255  62.966  1.00  0.00     0.028 C  
HETATM    2  C   UNL     1     -12.128  12.165  64.337  1.00  0.00    -0.443 A  
HETATM    3  C   UNL     1     -12.581  12.989  65.376  1.00  0.00    -0.481 A  
HETATM    4  C   UNL     1     -11.968  12.948  66.630  1.00  0.00    -0.436 A  
HETATM    5  C   UNL     1     -10.901  12.071  66.848  1.00  0.00    -0.259 A  
HETATM    6  C   UNL     1     -11.070  11.276  64.577  1.00  0.00    -0.245 A  
HETATM    7  C   UNL     1     -10.456  11.225  65.831  1.00  0.00    -0.314 A  
ENDROOT
BRANCH   5   8
HETATM    8  S   UNL     1     -10.089  12.082  68.427  1.00  0.00    -0.197 S  
HETATM    9  O   UNL     1      -9.007  13.043  68.412  1.00  0.00    -0.188 OA 
HETATM   10  O   UNL     1     -11.130  12.158  69.437  1.00  0.00    -0.207 OA 
BRANCH   8  11
HETATM   11  N   UNL     1      -9.450  10.553  68.569  1.00  0.00    -0.157 N  
HETATM   12  H   UNL     1      -9.733   9.838  67.899  1.00  0.00     0.000 HD 
BRANCH  11  13
HETATM   13  C   UNL     1      -8.546  10.216  69.564  1.00  0.00    -0.164 C  
HETATM   14  O   UNL     1      -7.381  10.590  69.533  1.00  0.00    -0.120 OA 
BRANCH  13  15
HETATM   15  N   UNL     1      -9.084   9.404  70.548  1.00  0.00    -0.253 N  
HETATM   16  H   UNL     1      -8.507   9.159  71.353  1.00  0.00     0.000 HD 
BRANCH  15  17
HETATM   17  N   UNL     1     -10.419   8.898  70.478  1.00  0.00    -0.203 NA 
HETATM   18  C   UNL     1     -10.409   7.425  70.390  1.00  0.00    -0.209 C  
HETATM   19  C   UNL     1     -11.763   6.710  70.338  1.00  0.00    -0.446 C  
HETATM   20  C   UNL     1     -12.528   6.786  71.656  1.00  0.00    -0.398 C  
HETATM   21  C   UNL     1     -13.363   8.051  71.818  1.00  0.00    -0.370 C  
HETATM   22  C   UNL     1     -12.741   9.332  71.272  1.00  0.00    -0.368 C  
HETATM   23  C   UNL     1     -11.247   9.465  71.555  1.00  0.00    -0.386 C  
ENDBRANCH  15  17
ENDBRANCH  13  15
ENDBRANCH  11  13
ENDBRANCH   8  11
ENDBRANCH   5   8
TORSDOF 5
ENDMDL
MODEL      169
REMARK 921   NORMALIZED FREE ENERGY PREDICTED BY IDOCK:   -4.56 KCAL/MOL
REMARK 922        TOTAL FREE ENERGY PREDICTED BY IDOCK:   -6.43 KCAL/MOL
REMARK 923 INTER-LIGAND FREE ENERGY PREDICTED BY IDOCK:   -5.69 KCAL/MOL
REMARK 924 INTRA-LIGAND FREE ENERGY PREDICTED BY IDOCK:   -0.74 KCAL/MOL
REMARK 927      BINDING AFFINITY PREDICTED BY RF-SCORE:    0.00 PKD
ROOT
HETATM    1  C   UNL     1     -12.898  11.579  71.899  1.00  0.00    -0.372 C  
HETATM    2  C   UNL     1     -12.441  11.815  70.488  1.00  0.00    -0.317 A  
HETATM    3  C   UNL     1     -12.021  10.748  69.683  1.00  0.00    -0.385 A  
HETATM    4  C   UNL     1     -11.533  10.981  68.396  1.00  0.00    -0.378 A  
HETATM    5  C   UNL     1     -11.475  12.290  67.907  1.00  0.00    -0.330 A  
HETATM    6  C   UNL     1     -12.394  13.121  69.976  1.00  0.00    -0.241 A  
HETATM    7  C   UNL     1     -11.914  13.361  68.687  1.00  0.00    -0.362 A  
ENDROOT
BRANCH   5   8
HETATM    8  S   UNL     1     -10.787  12.574  66.296  1.00  0.00    -0.278 S  
HETATM    9  O   UNL     1     -11.602  13.531  65.579  1.00  0.00    -0.310 OA 
HETATM   10  O   UNL     1      -9.365  12.806  66.478  1.00  0.00    -0.238 OA 
BRANCH   8  11
HETATM   11  N   UNL     1     -10.897  11.098  65.538  1.00  0.00    -0.188 N  
HETATM   12  H   UNL     1     -11.822  10.716  65.338  1.00  0.00     0.000 HD 
BRANCH  11  13
HETATM   13  C   UNL     1      -9.778  10.368  65.168  1.00  0.00    -0.291 C  
HETATM   14  O   UNL     1      -9.552  10.079  64.002  1.00  0.00    -0.285 OA 
BRANCH  13  15
HETATM   15  N   UNL     1      -8.990   9.984  66.240  1.00  0.00    -0.146 N  
HETATM   16  H   UNL     1      -8.307  10.645  66.610  1.00  0.00     0.000 HD 
BRANCH  15  17
HETATM   17  N   UNL     1      -9.097   8.694  66.847  1.00  0.00    -0.139 NA 
HETATM   18  C   UNL     1      -8.475   8.700  68.185  1.00  0.00    -0.131 C  
HETATM   19  C   UNL     1      -8.527   7.400  68.995  1.00  0.00    -0.129 C  
HETATM   20  C   UNL     1      -9.933   7.052  69.474  1.00  0.00    -0.166 C  
HETATM   21  C   UNL     1     -10.764   6.283  68.454  1.00  0.00    -0.356 C  
HETATM   22  C   UNL     1     -10.583   6.699  66.998  1.00  0.00    -0.404 C  
HETATM   23  C   UNL     1     -10.486   8.208  66.793  1.00  0.00    -0.246 C  
ENDBRANCH  15  17
ENDBRANCH  13  15
ENDBRANCH  11  13
ENDBRANCH   8  11
ENDBRANCH   5   8
TORSDOF 5
ENDMDL
MODEL      170
REMARK 921   NORMALIZED FREE ENERGY PREDICTED BY IDOCK:   -4.56 KCAL/MOL
REMARK 922        TOTAL FREE ENERGY PREDICTED BY IDOCK:   -6.43 KCAL/MOL
REMARK 923 INTER-LIGAND FREE ENERGY PREDICTED BY IDOCK:   -5.86 KCAL/MOL
REMARK 924 INTRA-LIGAND FREE ENERGY PREDICTED BY IDOCK:   -0.57 KCAL/MOL
REMARK 927      BINDING AFFINITY PREDICTED BY RF-SCORE:    0.00 PKD
ROOT
HETATM    1  C   UNL     1     -10.088  11.918  66.028  1.00  0.00    -0.261 C  
HETATM    2  C   UNL     1     -10.519  11.419  67.377  1.00  0.00    -0.239 A  
HETATM    3  C   UNL     1      -9.817  10.388  68.016  1.00  0.00    -0.170 A  
HETATM    4  C   UNL     1     -10.262   9.881  69.239  1.00  0.00    -0.222 A  
HETATM    5  C   UNL     1     -11.410  10.417  69.831  1.00  0.00    -0.302 A  
HETATM    6  C   UNL     1     -11.657  11.960  67.993  1.00  0.00    -0.401 A  
HETATM    7  C   UNL     1     -12.104  11.463  69.220  1.00  0.00    -0.356 A  
ENDROOT
BRANCH   5   8
HETATM    8  S   UNL     1     -12.000   9.715  71.350  1.00  0.00    -0.421 S  
HETATM    9  O   UNL     1     -10.884   9.208  72.120  1.00  0.00    -0.297 OA 
HETATM   10  O   UNL     1     -12.921  10.676  71.931  1.00  0.00    -0.458 OA 
BRANCH   8  11
HETATM   11  N   UNL     1     -12.947   8.435  70.869  1.00  0.00    -0.481 N  
HETATM   12  H   UNL     1     -13.882   8.624  70.508  1.00  0.00     0.000 HD 
BRANCH  11  13
HETATM   13  C   UNL     1     -12.511   7.121  70.940  1.00  0.00    -0.258 C  
HETATM   14  O   UNL     1     -12.941   6.343  71.780  1.00  0.00    -0.168 OA 
BRANCH  13  15
HETATM   15  N   UNL     1     -11.539   6.810  70.004  1.00  0.00    -0.559 N  
HETATM   16  H   UNL     1     -11.291   7.507  69.303  1.00  0.00     0.000 HD 
BRANCH  15  17
HETATM   17  N   UNL     1     -10.871   5.546  69.984  1.00  0.00    -0.294 NA 
HETATM   18  C   UNL     1     -10.284   5.293  68.655  1.00  0.00    -0.153 C  
HETATM   19  C   UNL     1      -9.500   3.989  68.464  1.00  0.00    -0.215 C  
HETATM   20  C   UNL     1      -8.180   3.971  69.228  1.00  0.00    -0.071 C  
HETATM   21  C   UNL     1      -8.307   3.516  70.677  1.00  0.00    -0.093 C  
HETATM   22  C   UNL     1      -9.558   3.983  71.414  1.00  0.00    -0.241 C  
HETATM   23  C   UNL     1      -9.944   5.431  71.122  1.00  0.00    -0.196 C  
ENDBRANCH  15  17
ENDBRANCH  13  15
ENDBRANCH  11  13
ENDBRANCH   8  11
ENDBRANCH   5   8
TORSDOF 5
ENDMDL
MODEL      171
REMARK 921   NORMALIZED FREE ENERGY PREDICTED BY IDOCK:   -4.56 KCAL/MOL
REMARK 922        TOTAL FREE ENERGY PREDICTED BY IDOCK:   -6.42 KCAL/MOL
REMARK 923 INTER-LIGAND FREE ENERGY PREDICTED BY IDOCK:   -5.62 KCAL/MOL
REMARK 924 INTRA-LIGAND FREE ENERGY PREDICTED BY IDOCK:   -0.80 KCAL/MOL
REMARK 927      BINDING AFFINITY PREDICTED BY RF-SCORE:    0.00 PKD
ROOT
HETATM    1  C   UNL     1     -11.639  15.548  68.362  1.00  0.00    -0.368 C  
HETATM    2  C   UNL     1     -11.144  14.200  67.924  1.00  0.00    -0.285 A  
HETATM    3  C   UNL     1      -9.983  14.081  67.149  1.00  0.00    -0.252 A  
HETATM    4  C   UNL     1      -9.565  12.830  66.688  1.00  0.00    -0.255 A  
HETATM    5  C   UNL     1     -10.309  11.692  67.014  1.00  0.00    -0.217 A  
HETATM    6  C   UNL     1     -11.869  13.046  68.259  1.00  0.00    -0.381 A  
HETATM    7  C   UNL     1     -11.453  11.791  67.807  1.00  0.00    -0.381 A  
ENDROOT
BRANCH   5   8
HETATM    8  S   UNL     1      -9.802  10.120  66.362  1.00  0.00    -0.234 S  
HETATM    9  O   UNL     1     -10.783   9.112  66.700  1.00  0.00    -0.145 OA 
HETATM   10  O   UNL     1      -9.417  10.341  64.979  1.00  0.00    -0.211 OA 
BRANCH   8  11
HETATM   11  N   UNL     1      -8.384   9.783  67.164  1.00  0.00    -0.121 N  
HETATM   12  H   UNL     1      -7.553   9.556  66.619  1.00  0.00     0.000 HD 
BRANCH  11  13
HETATM   13  C   UNL     1      -8.292   9.799  68.547  1.00  0.00    -0.110 C  
HETATM   14  O   UNL     1      -7.848  10.764  69.154  1.00  0.00    -0.139 OA 
BRANCH  13  15
HETATM   15  N   UNL     1      -8.712   8.622  69.143  1.00  0.00    -0.135 N  
HETATM   16  H   UNL     1      -8.066   7.834  69.184  1.00  0.00     0.000 HD 
BRANCH  15  17
HETATM   17  N   UNL     1     -10.019   8.471  69.704  1.00  0.00    -0.188 NA 
HETATM   18  C   UNL     1     -10.341   7.043  69.883  1.00  0.00    -0.210 C  
HETATM   19  C   UNL     1     -11.699   6.697  70.505  1.00  0.00    -0.453 C  
HETATM   20  C   UNL     1     -11.790   7.068  71.981  1.00  0.00    -0.336 C  
HETATM   21  C   UNL     1     -12.203   8.513  72.234  1.00  0.00    -0.454 C  
HETATM   22  C   UNL     1     -11.635   9.546  71.266  1.00  0.00    -0.445 C  
HETATM   23  C   UNL     1     -10.171   9.314  70.901  1.00  0.00    -0.301 C  
ENDBRANCH  15  17
ENDBRANCH  13  15
ENDBRANCH  11  13
ENDBRANCH   8  11
ENDBRANCH   5   8
TORSDOF 5
ENDMDL
MODEL      172
REMARK 921   NORMALIZED FREE ENERGY PREDICTED BY IDOCK:   -4.55 KCAL/MOL
REMARK 922        TOTAL FREE ENERGY PREDICTED BY IDOCK:   -6.42 KCAL/MOL
REMARK 923 INTER-LIGAND FREE ENERGY PREDICTED BY IDOCK:   -5.96 KCAL/MOL
REMARK 924 INTRA-LIGAND FREE ENERGY PREDICTED BY IDOCK:   -0.46 KCAL/MOL
REMARK 927      BINDING AFFINITY PREDICTED BY RF-SCORE:    0.00 PKD
ROOT
HETATM    1  C   UNL     1     -10.396  15.580  70.034  1.00  0.00    -0.315 C  
HETATM    2  C   UNL     1     -10.893  15.129  68.691  1.00  0.00    -0.245 A  
HETATM    3  C   UNL     1     -11.753  14.029  68.579  1.00  0.00    -0.387 A  
HETATM    4  C   UNL     1     -12.158  13.572  67.324  1.00  0.00    -0.367 A  
HETATM    5  C   UNL     1     -11.706  14.226  66.173  1.00  0.00    -0.390 A  
HETATM    6  C   UNL     1     -10.464  15.786  67.529  1.00  0.00    -0.288 A  
HETATM    7  C   UNL     1     -10.870  15.339  66.269  1.00  0.00    -0.312 A  
ENDROOT
BRANCH   5   8
HETATM    8  S   UNL     1     -12.174  13.589  64.584  1.00  0.00    -0.399 S  
HETATM    9  O   UNL     1     -13.099  12.489  64.752  1.00  0.00    -0.853 OA 
HETATM   10  O   UNL     1     -12.527  14.731  63.758  1.00  0.00    -0.782 OA 
BRANCH   8  11
HETATM   11  N   UNL     1     -10.755  13.006  63.943  1.00  0.00    -0.509 N  
HETATM   12  H   UNL     1     -10.172  13.632  63.388  1.00  0.00     0.000 HD 
BRANCH  11  13
HETATM   13  C   UNL     1     -10.336  11.698  64.135  1.00  0.00    -0.337 C  
HETATM   14  O   UNL     1     -10.647  10.800  63.366  1.00  0.00    -0.191 OA 
BRANCH  13  15
HETATM   15  N   UNL     1      -9.577  11.524  65.281  1.00  0.00    -0.251 N  
HETATM   16  H   UNL     1     -10.029  11.623  66.189  1.00  0.00     0.000 HD 
BRANCH  15  17
HETATM   17  N   UNL     1      -8.183  11.210  65.236  1.00  0.00     0.107 NA 
HETATM   18  C   UNL     1      -7.512  11.665  66.468  1.00  0.00     0.032 C  
HETATM   19  C   UNL     1      -6.012  11.380  66.604  1.00  0.00    -0.147 C  
HETATM   20  C   UNL     1      -5.701   9.898  66.790  1.00  0.00    -0.050 C  
HETATM   21  C   UNL     1      -5.587   9.119  65.485  1.00  0.00    -0.048 C  
HETATM   22  C   UNL     1      -6.565   9.516  64.385  1.00  0.00    -0.096 C  
HETATM   23  C   UNL     1      -7.980   9.794  64.886  1.00  0.00    -0.133 C  
ENDBRANCH  15  17
ENDBRANCH  13  15
ENDBRANCH  11  13
ENDBRANCH   8  11
ENDBRANCH   5   8
TORSDOF 5
ENDMDL
MODEL      173
REMARK 921   NORMALIZED FREE ENERGY PREDICTED BY IDOCK:   -4.55 KCAL/MOL
REMARK 922        TOTAL FREE ENERGY PREDICTED BY IDOCK:   -6.41 KCAL/MOL
REMARK 923 INTER-LIGAND FREE ENERGY PREDICTED BY IDOCK:   -5.88 KCAL/MOL
REMARK 924 INTRA-LIGAND FREE ENERGY PREDICTED BY IDOCK:   -0.53 KCAL/MOL
REMARK 927      BINDING AFFINITY PREDICTED BY RF-SCORE:    0.00 PKD
ROOT
HETATM    1  C   UNL     1     -12.188  13.634  65.479  1.00  0.00    -0.476 C  
HETATM    2  C   UNL     1     -11.787  12.753  66.627  1.00  0.00    -0.462 A  
HETATM    3  C   UNL     1     -11.273  11.469  66.399  1.00  0.00    -0.307 A  
HETATM    4  C   UNL     1     -10.966  10.630  67.472  1.00  0.00    -0.371 A  
HETATM    5  C   UNL     1     -11.164  11.081  68.780  1.00  0.00    -0.266 A  
HETATM    6  C   UNL     1     -11.962  13.199  67.946  1.00  0.00    -0.347 A  
HETATM    7  C   UNL     1     -11.650  12.367  69.024  1.00  0.00    -0.362 A  
ENDROOT
BRANCH   5   8
HETATM    8  S   UNL     1     -10.834   9.975  70.129  1.00  0.00    -0.328 S  
HETATM    9  O   UNL     1      -9.404   9.841  70.311  1.00  0.00    -0.247 OA 
HETATM   10  O   UNL     1     -11.683  10.389  71.232  1.00  0.00    -0.338 OA 
BRANCH   8  11
HETATM   11  N   UNL     1     -11.451   8.517  69.623  1.00  0.00    -0.370 N  
HETATM   12  H   UNL     1     -11.915   8.467  68.715  1.00  0.00     0.000 HD 
BRANCH  11  13
HETATM   13  C   UNL     1     -11.360   7.365  70.389  1.00  0.00    -0.249 C  
HETATM   14  O   UNL     1     -12.349   6.721  70.708  1.00  0.00    -0.377 OA 
BRANCH  13  15
HETATM   15  N   UNL     1     -10.065   7.057  70.771  1.00  0.00    -0.194 N  
HETATM   16  H   UNL     1      -9.643   7.577  71.540  1.00  0.00     0.000 HD 
BRANCH  15  17
HETATM   17  N   UNL     1      -9.298   6.037  70.127  1.00  0.00    -0.153 NA 
HETATM   18  C   UNL     1      -9.951   4.723  70.284  1.00  0.00    -0.250 C  
HETATM   19  C   UNL     1      -9.277   3.515  69.624  1.00  0.00    -0.223 C  
HETATM   20  C   UNL     1      -9.350   3.550  68.101  1.00  0.00    -0.236 C  
HETATM   21  C   UNL     1      -8.233   4.351  67.444  1.00  0.00    -0.100 C  
HETATM   22  C   UNL     1      -7.809   5.622  68.172  1.00  0.00    -0.096 C  
HETATM   23  C   UNL     1      -8.973   6.426  68.745  1.00  0.00    -0.126 C  
ENDBRANCH  15  17
ENDBRANCH  13  15
ENDBRANCH  11  13
ENDBRANCH   8  11
ENDBRANCH   5   8
TORSDOF 5
ENDMDL
MODEL      174
REMARK 921   NORMALIZED FREE ENERGY PREDICTED BY IDOCK:   -4.53 KCAL/MOL
REMARK 922        TOTAL FREE ENERGY PREDICTED BY IDOCK:   -6.40 KCAL/MOL
REMARK 923 INTER-LIGAND FREE ENERGY PREDICTED BY IDOCK:   -5.86 KCAL/MOL
REMARK 924 INTRA-LIGAND FREE ENERGY PREDICTED BY IDOCK:   -0.54 KCAL/MOL
REMARK 927      BINDING AFFINITY PREDICTED BY RF-SCORE:    0.00 PKD
ROOT
HETATM    1  C   UNL     1     -12.242  15.725  64.100  1.00  0.00     0.149 C  
HETATM    2  C   UNL     1     -11.566  14.447  64.506  1.00  0.00    -0.393 A  
HETATM    3  C   UNL     1     -12.098  13.206  64.131  1.00  0.00    -0.496 A  
HETATM    4  C   UNL     1     -11.504  12.020  64.568  1.00  0.00    -0.385 A  
HETATM    5  C   UNL     1     -10.366  12.077  65.378  1.00  0.00    -0.266 A  
HETATM    6  C   UNL     1     -10.413  14.487  65.302  1.00  0.00    -0.411 A  
HETATM    7  C   UNL     1      -9.809  13.305  65.738  1.00  0.00    -0.210 A  
ENDROOT
BRANCH   5   8
HETATM    8  S   UNL     1      -9.665  10.562  65.982  1.00  0.00    -0.217 S  
HETATM    9  O   UNL     1      -9.806   9.526  64.981  1.00  0.00    -0.203 OA 
HETATM   10  O   UNL     1      -8.359  10.888  66.528  1.00  0.00    -0.143 OA 
BRANCH   8  11
HETATM   11  N   UNL     1     -10.606  10.172  67.296  1.00  0.00    -0.257 N  
HETATM   12  H   UNL     1     -11.230   9.367  67.233  1.00  0.00     0.000 HD 
BRANCH  11  13
HETATM   13  C   UNL     1     -10.573  10.900  68.475  1.00  0.00    -0.190 C  
HETATM   14  O   UNL     1      -9.761  10.663  69.359  1.00  0.00    -0.198 OA 
BRANCH  13  15
HETATM   15  N   UNL     1     -11.556  11.873  68.552  1.00  0.00    -0.294 N  
HETATM   16  H   UNL     1     -12.104  12.085  67.718  1.00  0.00     0.000 HD 
BRANCH  15  17
HETATM   17  N   UNL     1     -11.831  12.590  69.757  1.00  0.00    -0.328 NA 
HETATM   18  C   UNL     1     -12.089  14.013  69.464  1.00  0.00    -0.347 C  
HETATM   19  C   UNL     1     -12.433  14.928  70.644  1.00  0.00    -0.411 C  
HETATM   20  C   UNL     1     -13.806  14.637  71.242  1.00  0.00    -0.420 C  
HETATM   21  C   UNL     1     -13.805  13.527  72.287  1.00  0.00    -0.680 C  
HETATM   22  C   UNL     1     -12.879  12.349  72.006  1.00  0.00    -0.263 C  
HETATM   23  C   UNL     1     -12.869  11.905  70.545  1.00  0.00     0.103 C  
ENDBRANCH  15  17
ENDBRANCH  13  15
ENDBRANCH  11  13
ENDBRANCH   8  11
ENDBRANCH   5   8
TORSDOF 5
ENDMDL
MODEL      175
REMARK 921   NORMALIZED FREE ENERGY PREDICTED BY IDOCK:   -4.51 KCAL/MOL
REMARK 922        TOTAL FREE ENERGY PREDICTED BY IDOCK:   -6.37 KCAL/MOL
REMARK 923 INTER-LIGAND FREE ENERGY PREDICTED BY IDOCK:   -5.97 KCAL/MOL
REMARK 924 INTRA-LIGAND FREE ENERGY PREDICTED BY IDOCK:   -0.40 KCAL/MOL
REMARK 927      BINDING AFFINITY PREDICTED BY RF-SCORE:    0.00 PKD
ROOT
HETATM    1  C   UNL     1      -6.803  10.937  69.394  1.00  0.00    -0.114 C  
HETATM    2  C   UNL     1      -7.801  11.252  68.317  1.00  0.00    -0.130 A  
HETATM    3  C   UNL     1      -9.102  11.655  68.644  1.00  0.00    -0.103 A  
HETATM    4  C   UNL     1     -10.046  11.881  67.639  1.00  0.00    -0.202 A  
HETATM    5  C   UNL     1      -9.681  11.710  66.300  1.00  0.00    -0.218 A  
HETATM    6  C   UNL     1      -7.445  11.104  66.969  1.00  0.00    -0.132 A  
HETATM    7  C   UNL     1      -8.382  11.334  65.958  1.00  0.00    -0.071 A  
ENDROOT
BRANCH   5   8
HETATM    8  S   UNL     1     -10.912  11.934  65.041  1.00  0.00    -0.306 S  
HETATM    9  O   UNL     1     -10.835  10.851  64.084  1.00  0.00    -0.305 OA 
HETATM   10  O   UNL     1     -12.161  12.232  65.719  1.00  0.00    -0.622 OA 
BRANCH   8  11
HETATM   11  N   UNL     1     -10.473  13.350  64.286  1.00  0.00    -0.570 N  
HETATM   12  H   UNL     1     -10.143  13.311  63.322  1.00  0.00     0.000 HD 
BRANCH  11  13
HETATM   13  C   UNL     1     -10.540  14.581  64.921  1.00  0.00    -0.427 C  
HETATM   14  O   UNL     1     -11.532  15.293  64.846  1.00  0.00    -0.378 OA 
BRANCH  13  15
HETATM   15  N   UNL     1      -9.380  14.917  65.598  1.00  0.00    -0.476 N  
HETATM   16  H   UNL     1      -8.487  14.582  65.239  1.00  0.00     0.000 HD 
BRANCH  15  17
HETATM   17  N   UNL     1      -9.389  15.717  66.783  1.00  0.00    -0.228 NA 
HETATM   18  C   UNL     1      -8.141  15.526  67.545  1.00  0.00    -0.165 C  
HETATM   19  C   UNL     1      -7.968  16.336  68.835  1.00  0.00    -0.230 C  
HETATM   20  C   UNL     1      -7.773  17.827  68.580  1.00  0.00    -0.283 C  
HETATM   21  C   UNL     1      -9.074  18.608  68.434  1.00  0.00    -0.352 C  
HETATM   22  C   UNL     1     -10.199  17.892  67.692  1.00  0.00    -0.369 C  
HETATM   23  C   UNL     1      -9.734  17.113  66.465  1.00  0.00    -0.287 C  
ENDBRANCH  15  17
ENDBRANCH  13  15
ENDBRANCH  11  13
ENDBRANCH   8  11
ENDBRANCH   5   8
TORSDOF 5
ENDMDL
MODEL      176
REMARK 921   NORMALIZED FREE ENERGY PREDICTED BY IDOCK:   -4.50 KCAL/MOL
REMARK 922        TOTAL FREE ENERGY PREDICTED BY IDOCK:   -6.35 KCAL/MOL
REMARK 923 INTER-LIGAND FREE ENERGY PREDICTED BY IDOCK:   -6.05 KCAL/MOL
REMARK 924 INTRA-LIGAND FREE ENERGY PREDICTED BY IDOCK:   -0.30 KCAL/MOL
REMARK 927      BINDING AFFINITY PREDICTED BY RF-SCORE:    0.00 PKD
ROOT
HETATM    1  C   UNL     1     -10.729   5.878  69.363  1.00  0.00    -0.406 C  
HETATM    2  C   UNL     1     -10.693   7.359  69.117  1.00  0.00    -0.180 A  
HETATM    3  C   UNL     1     -10.804   8.264  70.180  1.00  0.00    -0.237 A  
HETATM    4  C   UNL     1     -10.838   9.639  69.939  1.00  0.00    -0.287 A  
HETATM    5  C   UNL     1     -10.752  10.111  68.625  1.00  0.00    -0.222 A  
HETATM    6  C   UNL     1     -10.588   7.848  67.806  1.00  0.00    -0.244 A  
HETATM    7  C   UNL     1     -10.615   9.222  67.557  1.00  0.00    -0.329 A  
ENDROOT
BRANCH   5   8
HETATM    8  S   UNL     1     -10.867  11.858  68.331  1.00  0.00    -0.243 S  
HETATM    9  O   UNL     1      -9.582  12.366  67.902  1.00  0.00    -0.192 OA 
HETATM   10  O   UNL     1     -12.054  12.072  67.522  1.00  0.00    -0.555 OA 
BRANCH   8  11
HETATM   11  N   UNL     1     -11.230  12.500  69.821  1.00  0.00    -0.487 N  
HETATM   12  H   UNL     1     -11.163  11.901  70.644  1.00  0.00     0.000 HD 
BRANCH  11  13
HETATM   13  C   UNL     1     -11.619  13.820  69.986  1.00  0.00    -0.195 C  
HETATM   14  O   UNL     1     -12.787  14.168  69.876  1.00  0.00    -0.171 OA 
BRANCH  13  15
HETATM   15  N   UNL     1     -10.565  14.680  70.246  1.00  0.00    -0.463 N  
HETATM   16  H   UNL     1     -10.161  14.693  71.182  1.00  0.00     0.000 HD 
BRANCH  15  17
HETATM   17  N   UNL     1     -10.022  15.549  69.249  1.00  0.00    -0.246 NA 
HETATM   18  C   UNL     1      -8.576  15.308  69.086  1.00  0.00    -0.235 C  
HETATM   19  C   UNL     1      -7.835  16.136  68.031  1.00  0.00    -0.150 C  
HETATM   20  C   UNL     1      -8.221  15.765  66.603  1.00  0.00    -0.305 C  
HETATM   21  C   UNL     1      -9.463  16.483  66.088  1.00  0.00    -0.347 C  
HETATM   22  C   UNL     1     -10.580  16.690  67.105  1.00  0.00    -0.264 C  
HETATM   23  C   UNL     1     -10.821  15.488  68.014  1.00  0.00    -0.300 C  
ENDBRANCH  15  17
ENDBRANCH  13  15
ENDBRANCH  11  13
ENDBRANCH   8  11
ENDBRANCH   5   8
TORSDOF 5
ENDMDL
MODEL      177
REMARK 921   NORMALIZED FREE ENERGY PREDICTED BY IDOCK:   -4.50 KCAL/MOL
REMARK 922        TOTAL FREE ENERGY PREDICTED BY IDOCK:   -6.35 KCAL/MOL
REMARK 923 INTER-LIGAND FREE ENERGY PREDICTED BY IDOCK:   -5.86 KCAL/MOL
REMARK 924 INTRA-LIGAND FREE ENERGY PREDICTED BY IDOCK:   -0.49 KCAL/MOL
REMARK 927      BINDING AFFINITY PREDICTED BY RF-SCORE:    0.00 PKD
ROOT
HETATM    1  C   UNL     1      -9.788   3.813  66.154  1.00  0.00    -0.078 C  
HETATM    2  C   UNL     1      -9.795   5.295  66.393  1.00  0.00    -0.204 A  
HETATM    3  C   UNL     1     -10.848   5.904  67.089  1.00  0.00    -0.373 A  
HETATM    4  C   UNL     1     -10.883   7.290  67.250  1.00  0.00    -0.354 A  
HETATM    5  C   UNL     1      -9.852   8.072  66.718  1.00  0.00    -0.257 A  
HETATM    6  C   UNL     1      -8.759   6.091  65.883  1.00  0.00    -0.157 A  
HETATM    7  C   UNL     1      -8.784   7.479  66.046  1.00  0.00    -0.178 A  
ENDROOT
BRANCH   5   8
HETATM    8  S   UNL     1      -9.949   9.838  66.871  1.00  0.00    -0.225 S  
HETATM    9  O   UNL     1      -8.756  10.338  67.520  1.00  0.00    -0.125 OA 
HETATM   10  O   UNL     1     -10.355  10.353  65.576  1.00  0.00    -0.264 OA 
BRANCH   8  11
HETATM   11  N   UNL     1     -11.252  10.091  67.873  1.00  0.00    -0.497 N  
HETATM   12  H   UNL     1     -12.076   9.500  67.766  1.00  0.00     0.000 HD 
BRANCH  11  13
HETATM   13  C   UNL     1     -11.259  11.077  68.847  1.00  0.00    -0.265 C  
HETATM   14  O   UNL     1     -10.950  10.841  70.007  1.00  0.00    -0.271 OA 
BRANCH  13  15
HETATM   15  N   UNL     1     -11.678  12.312  68.382  1.00  0.00    -0.323 N  
HETATM   16  H   UNL     1     -12.487  12.753  68.818  1.00  0.00     0.000 HD 
BRANCH  15  17
HETATM   17  N   UNL     1     -11.017  12.991  67.311  1.00  0.00    -0.259 NA 
HETATM   18  C   UNL     1     -11.990  13.400  66.280  1.00  0.00    -0.411 C  
HETATM   19  C   UNL     1     -11.456  14.172  65.069  1.00  0.00    -0.352 C  
HETATM   20  C   UNL     1     -10.992  15.582  65.419  1.00  0.00    -0.365 C  
HETATM   21  C   UNL     1      -9.554  15.657  65.921  1.00  0.00    -0.385 C  
HETATM   22  C   UNL     1      -9.102  14.508  66.816  1.00  0.00    -0.283 C  
HETATM   23  C   UNL     1     -10.152  14.064  67.831  1.00  0.00    -0.237 C  
ENDBRANCH  15  17
ENDBRANCH  13  15
ENDBRANCH  11  13
ENDBRANCH   8  11
ENDBRANCH   5   8
TORSDOF 5
ENDMDL
MODEL      178
REMARK 921   NORMALIZED FREE ENERGY PREDICTED BY IDOCK:   -4.47 KCAL/MOL
REMARK 922        TOTAL FREE ENERGY PREDICTED BY IDOCK:   -6.32 KCAL/MOL
REMARK 923 INTER-LIGAND FREE ENERGY PREDICTED BY IDOCK:   -6.21 KCAL/MOL
REMARK 924 INTRA-LIGAND FREE ENERGY PREDICTED BY IDOCK:   -0.11 KCAL/MOL
REMARK 927      BINDING AFFINITY PREDICTED BY RF-SCORE:    0.00 PKD
ROOT
HETATM    1  C   UNL     1      -6.137  16.681  67.229  1.00  0.00    -0.195 C  
HETATM    2  C   UNL     1      -6.943  15.425  67.395  1.00  0.00    -0.222 A  
HETATM    3  C   UNL     1      -8.330  15.432  67.194  1.00  0.00    -0.247 A  
HETATM    4  C   UNL     1      -9.083  14.277  67.416  1.00  0.00    -0.199 A  
HETATM    5  C   UNL     1      -8.443  13.106  67.832  1.00  0.00    -0.181 A  
HETATM    6  C   UNL     1      -6.313  14.237  67.794  1.00  0.00    -0.168 A  
HETATM    7  C   UNL     1      -7.059  13.076  68.011  1.00  0.00    -0.115 A  
ENDROOT
BRANCH   5   8
HETATM    8  S   UNL     1      -9.424  11.667  68.177  1.00  0.00    -0.195 S  
HETATM    9  O   UNL     1     -10.069  11.214  66.963  1.00  0.00    -0.191 OA 
HETATM   10  O   UNL     1      -8.593  10.764  68.952  1.00  0.00    -0.151 OA 
BRANCH   8  11
HETATM   11  N   UNL     1     -10.588  12.210  69.234  1.00  0.00    -0.439 N  
HETATM   12  H   UNL     1     -10.427  13.083  69.736  1.00  0.00     0.000 HD 
BRANCH  11  13
HETATM   13  C   UNL     1     -11.768  11.519  69.458  1.00  0.00    -0.346 C  
HETATM   14  O   UNL     1     -12.404  11.012  68.544  1.00  0.00    -0.536 OA 
BRANCH  13  15
HETATM   15  N   UNL     1     -12.153  11.497  70.788  1.00  0.00    -0.378 N  
HETATM   16  H   UNL     1     -12.352  12.381  71.256  1.00  0.00     0.000 HD 
BRANCH  15  17
HETATM   17  N   UNL     1     -12.281  10.282  71.529  1.00  0.00    -0.374 NA 
HETATM   18  C   UNL     1     -13.624   9.701  71.340  1.00  0.00    -0.271 C  
HETATM   19  C   UNL     1     -13.925   8.372  72.042  1.00  0.00    -0.468 C  
HETATM   20  C   UNL     1     -13.156   7.196  71.448  1.00  0.00    -0.408 C  
HETATM   21  C   UNL     1     -11.755   7.017  72.020  1.00  0.00    -0.332 C  
HETATM   22  C   UNL     1     -10.988   8.302  72.316  1.00  0.00    -0.418 C  
HETATM   23  C   UNL     1     -11.151   9.381  71.249  1.00  0.00    -0.376 C  
ENDBRANCH  15  17
ENDBRANCH  13  15
ENDBRANCH  11  13
ENDBRANCH   8  11
ENDBRANCH   5   8
TORSDOF 5
ENDMDL
MODEL      179
REMARK 921   NORMALIZED FREE ENERGY PREDICTED BY IDOCK:   -4.47 KCAL/MOL
REMARK 922        TOTAL FREE ENERGY PREDICTED BY IDOCK:   -6.32 KCAL/MOL
REMARK 923 INTER-LIGAND FREE ENERGY PREDICTED BY IDOCK:   -5.80 KCAL/MOL
REMARK 924 INTRA-LIGAND FREE ENERGY PREDICTED BY IDOCK:   -0.52 KCAL/MOL
REMARK 927      BINDING AFFINITY PREDICTED BY RF-SCORE:    0.00 PKD
ROOT
HETATM    1  C   UNL     1      -7.349   9.793  67.615  1.00  0.00    -0.090 C  
HETATM    2  C   UNL     1      -8.390   9.313  68.585  1.00  0.00    -0.118 A  
HETATM    3  C   UNL     1      -8.354   9.710  69.928  1.00  0.00    -0.195 A  
HETATM    4  C   UNL     1      -9.284   9.207  70.840  1.00  0.00    -0.326 A  
HETATM    5  C   UNL     1     -10.263   8.309  70.402  1.00  0.00    -0.201 A  
HETATM    6  C   UNL     1      -9.389   8.427  68.157  1.00  0.00    -0.141 A  
HETATM    7  C   UNL     1     -10.328   7.925  69.062  1.00  0.00    -0.223 A  
ENDROOT
BRANCH   5   8
HETATM    8  S   UNL     1     -11.393   7.626  71.588  1.00  0.00    -0.260 S  
HETATM    9  O   UNL     1     -12.433   6.889  70.903  1.00  0.00    -0.378 OA 
HETATM   10  O   UNL     1     -10.592   6.988  72.618  1.00  0.00    -0.217 OA 
BRANCH   8  11
HETATM   11  N   UNL     1     -12.070   8.957  72.321  1.00  0.00    -0.349 N  
HETATM   12  H   UNL     1     -11.618   9.346  73.148  1.00  0.00     0.000 HD 
BRANCH  11  13
HETATM   13  C   UNL     1     -13.227   9.557  71.848  1.00  0.00    -0.439 C  
HETATM   14  O   UNL     1     -14.179   8.900  71.450  1.00  0.00    -0.339 OA 
BRANCH  13  15
HETATM   15  N   UNL     1     -13.170  10.941  71.843  1.00  0.00    -0.460 N  
HETATM   16  H   UNL     1     -13.744  11.458  72.508  1.00  0.00     0.000 HD 
BRANCH  15  17
HETATM   17  N   UNL     1     -12.337  11.670  70.939  1.00  0.00    -0.371 NA 
HETATM   18  C   UNL     1     -12.260  10.981  69.637  1.00  0.00    -0.300 C  
HETATM   19  C   UNL     1     -11.428  11.644  68.533  1.00  0.00    -0.358 C  
HETATM   20  C   UNL     1     -12.061  12.925  67.999  1.00  0.00    -0.202 C  
HETATM   21  C   UNL     1     -11.719  14.171  68.808  1.00  0.00    -0.380 C  
HETATM   22  C   UNL     1     -11.643  13.982  70.320  1.00  0.00    -0.240 C  
HETATM   23  C   UNL     1     -12.740  13.085  70.888  1.00  0.00    -0.217 C  
ENDBRANCH  15  17
ENDBRANCH  13  15
ENDBRANCH  11  13
ENDBRANCH   8  11
ENDBRANCH   5   8
TORSDOF 5
ENDMDL
MODEL      180
REMARK 921   NORMALIZED FREE ENERGY PREDICTED BY IDOCK:   -4.46 KCAL/MOL
REMARK 922        TOTAL FREE ENERGY PREDICTED BY IDOCK:   -6.31 KCAL/MOL
REMARK 923 INTER-LIGAND FREE ENERGY PREDICTED BY IDOCK:   -5.61 KCAL/MOL
REMARK 924 INTRA-LIGAND FREE ENERGY PREDICTED BY IDOCK:   -0.70 KCAL/MOL
REMARK 927      BINDING AFFINITY PREDICTED BY RF-SCORE:    0.00 PKD
ROOT
HETATM    1  C   UNL     1     -12.367   6.682  71.702  1.00  0.00    -0.382 C  
HETATM    2  C   UNL     1     -11.524   7.113  70.536  1.00  0.00    -0.334 A  
HETATM    3  C   UNL     1     -11.119   8.447  70.400  1.00  0.00    -0.240 A  
HETATM    4  C   UNL     1     -10.393   8.856  69.279  1.00  0.00    -0.221 A  
HETATM    5  C   UNL     1     -10.061   7.920  68.294  1.00  0.00    -0.194 A  
HETATM    6  C   UNL     1     -11.167   6.182  69.549  1.00  0.00    -0.482 A  
HETATM    7  C   UNL     1     -10.434   6.582  68.429  1.00  0.00    -0.258 A  
ENDROOT
BRANCH   5   8
HETATM    8  S   UNL     1      -9.198   8.471  66.844  1.00  0.00    -0.168 S  
HETATM    9  O   UNL     1      -8.074   9.297  67.229  1.00  0.00    -0.111 OA 
HETATM   10  O   UNL     1      -9.003   7.305  66.001  1.00  0.00    -0.165 OA 
BRANCH   8  11
HETATM   11  N   UNL     1     -10.309   9.413  66.040  1.00  0.00    -0.200 N  
HETATM   12  H   UNL     1     -11.289   9.360  66.316  1.00  0.00     0.000 HD 
BRANCH  11  13
HETATM   13  C   UNL     1      -9.950  10.267  65.010  1.00  0.00    -0.323 C  
HETATM   14  O   UNL     1      -9.477   9.852  63.961  1.00  0.00    -0.277 OA 
BRANCH  13  15
HETATM   15  N   UNL     1     -10.147  11.606  65.307  1.00  0.00    -0.254 N  
HETATM   16  H   UNL     1     -10.231  12.272  64.540  1.00  0.00     0.000 HD 
BRANCH  15  17
HETATM   17  N   UNL     1     -10.237  12.087  66.650  1.00  0.00    -0.202 NA 
HETATM   18  C   UNL     1      -9.300  13.206  66.862  1.00  0.00    -0.246 C  
HETATM   19  C   UNL     1      -9.287  13.867  68.245  1.00  0.00    -0.209 C  
HETATM   20  C   UNL     1     -10.555  14.663  68.536  1.00  0.00    -0.245 C  
HETATM   21  C   UNL     1     -11.696  13.827  69.104  1.00  0.00    -0.379 C  
HETATM   22  C   UNL     1     -11.845  12.424  68.524  1.00  0.00    -0.352 C  
HETATM   23  C   UNL     1     -11.639  12.353  67.013  1.00  0.00    -0.365 C  
ENDBRANCH  15  17
ENDBRANCH  13  15
ENDBRANCH  11  13
ENDBRANCH   8  11
ENDBRANCH   5   8
TORSDOF 5
ENDMDL
MODEL      181
REMARK 921   NORMALIZED FREE ENERGY PREDICTED BY IDOCK:   -4.46 KCAL/MOL
REMARK 922        TOTAL FREE ENERGY PREDICTED BY IDOCK:   -6.30 KCAL/MOL
REMARK 923 INTER-LIGAND FREE ENERGY PREDICTED BY IDOCK:   -5.85 KCAL/MOL
REMARK 924 INTRA-LIGAND FREE ENERGY PREDICTED BY IDOCK:   -0.44 KCAL/MOL
REMARK 927      BINDING AFFINITY PREDICTED BY RF-SCORE:    0.00 PKD
ROOT
HETATM    1  C   UNL     1      -6.822  10.397  69.992  1.00  0.00    -0.151 C  
HETATM    2  C   UNL     1      -7.674  10.791  68.820  1.00  0.00    -0.121 A  
HETATM    3  C   UNL     1      -7.472  12.015  68.168  1.00  0.00    -0.112 A  
HETATM    4  C   UNL     1      -8.311  12.406  67.122  1.00  0.00    -0.181 A  
HETATM    5  C   UNL     1      -9.351  11.563  66.720  1.00  0.00    -0.181 A  
HETATM    6  C   UNL     1      -8.709   9.947  68.392  1.00  0.00    -0.120 A  
HETATM    7  C   UNL     1      -9.548  10.329  67.342  1.00  0.00    -0.183 A  
ENDROOT
BRANCH   5   8
HETATM    8  S   UNL     1     -10.449  12.107  65.436  1.00  0.00    -0.280 S  
HETATM    9  O   UNL     1      -9.928  13.311  64.825  1.00  0.00    -0.243 OA 
HETATM   10  O   UNL     1     -10.761  10.943  64.625  1.00  0.00    -0.308 OA 
BRANCH   8  11
HETATM   11  N   UNL     1     -11.861  12.476  66.234  1.00  0.00    -0.406 N  
HETATM   12  H   UNL     1     -12.313  11.753  66.793  1.00  0.00     0.000 HD 
BRANCH  11  13
HETATM   13  C   UNL     1     -12.444  13.732  66.168  1.00  0.00    -0.418 C  
HETATM   14  O   UNL     1     -12.991  14.138  65.152  1.00  0.00    -0.729 OA 
BRANCH  13  15
HETATM   15  N   UNL     1     -12.310  14.466  67.335  1.00  0.00    -0.600 N  
HETATM   16  H   UNL     1     -12.959  14.293  68.102  1.00  0.00     0.000 HD 
BRANCH  15  17
HETATM   17  N   UNL     1     -11.295  15.458  67.504  1.00  0.00    -0.308 NA 
HETATM   18  C   UNL     1     -10.273  14.994  68.461  1.00  0.00    -0.227 C  
HETATM   19  C   UNL     1      -9.088  15.925  68.738  1.00  0.00    -0.219 C  
HETATM   20  C   UNL     1      -8.143  16.058  67.548  1.00  0.00    -0.167 C  
HETATM   21  C   UNL     1      -8.560  17.122  66.540  1.00  0.00    -0.306 C  
HETATM   22  C   UNL     1     -10.058  17.247  66.286  1.00  0.00    -0.323 C  
HETATM   23  C   UNL     1     -10.785  15.908  66.197  1.00  0.00    -0.271 C  
ENDBRANCH  15  17
ENDBRANCH  13  15
ENDBRANCH  11  13
ENDBRANCH   8  11
ENDBRANCH   5   8
TORSDOF 5
ENDMDL
MODEL      182
REMARK 921   NORMALIZED FREE ENERGY PREDICTED BY IDOCK:   -4.45 KCAL/MOL
REMARK 922        TOTAL FREE ENERGY PREDICTED BY IDOCK:   -6.29 KCAL/MOL
REMARK 923 INTER-LIGAND FREE ENERGY PREDICTED BY IDOCK:   -5.97 KCAL/MOL
REMARK 924 INTRA-LIGAND FREE ENERGY PREDICTED BY IDOCK:   -0.32 KCAL/MOL
REMARK 927      BINDING AFFINITY PREDICTED BY RF-SCORE:    0.00 PKD
ROOT
HETATM    1  C   UNL     1      -7.777  18.513  68.332  1.00  0.00    -0.319 C  
HETATM    2  C   UNL     1      -8.736  17.368  68.488  1.00  0.00    -0.277 A  
HETATM    3  C   UNL     1      -8.269  16.051  68.589  1.00  0.00    -0.193 A  
HETATM    4  C   UNL     1      -9.168  14.985  68.665  1.00  0.00    -0.198 A  
HETATM    5  C   UNL     1     -10.543  15.240  68.650  1.00  0.00    -0.236 A  
HETATM    6  C   UNL     1     -10.118  17.609  68.494  1.00  0.00    -0.375 A  
HETATM    7  C   UNL     1     -11.023  16.548  68.577  1.00  0.00    -0.350 A  
ENDROOT
BRANCH   5   8
HETATM    8  S   UNL     1     -11.671  13.869  68.678  1.00  0.00    -0.380 S  
HETATM    9  O   UNL     1     -12.587  14.013  69.788  1.00  0.00    -0.276 OA 
HETATM   10  O   UNL     1     -12.171  13.706  67.324  1.00  0.00    -0.366 OA 
BRANCH   8  11
HETATM   11  N   UNL     1     -10.699  12.547  68.949  1.00  0.00    -0.367 N  
HETATM   12  H   UNL     1      -9.687  12.666  68.921  1.00  0.00     0.000 HD 
BRANCH  11  13
HETATM   13  C   UNL     1     -11.216  11.288  69.212  1.00  0.00    -0.272 C  
HETATM   14  O   UNL     1     -12.305  10.933  68.782  1.00  0.00    -0.495 OA 
BRANCH  13  15
HETATM   15  N   UNL     1     -10.402  10.513  70.021  1.00  0.00    -0.439 N  
HETATM   16  H   UNL     1      -9.985  10.938  70.850  1.00  0.00     0.000 HD 
BRANCH  15  17
HETATM   17  N   UNL     1     -10.123   9.140  69.738  1.00  0.00    -0.191 NA 
HETATM   18  C   UNL     1      -8.676   8.873  69.851  1.00  0.00    -0.139 C  
HETATM   19  C   UNL     1      -8.201   7.436  69.609  1.00  0.00    -0.130 C  
HETATM   20  C   UNL     1      -8.627   6.474  70.713  1.00  0.00    -0.135 C  
HETATM   21  C   UNL     1     -10.024   5.892  70.524  1.00  0.00    -0.243 C  
HETATM   22  C   UNL     1     -11.070   6.846  69.957  1.00  0.00    -0.344 C  
HETATM   23  C   UNL     1     -10.996   8.258  70.530  1.00  0.00    -0.242 C  
ENDBRANCH  15  17
ENDBRANCH  13  15
ENDBRANCH  11  13
ENDBRANCH   8  11
ENDBRANCH   5   8
TORSDOF 5
ENDMDL
MODEL      183
REMARK 921   NORMALIZED FREE ENERGY PREDICTED BY IDOCK:   -4.44 KCAL/MOL
REMARK 922        TOTAL FREE ENERGY PREDICTED BY IDOCK:   -6.28 KCAL/MOL
REMARK 923 INTER-LIGAND FREE ENERGY PREDICTED BY IDOCK:   -5.75 KCAL/MOL
REMARK 924 INTRA-LIGAND FREE ENERGY PREDICTED BY IDOCK:   -0.53 KCAL/MOL
REMARK 927      BINDING AFFINITY PREDICTED BY RF-SCORE:    0.00 PKD
ROOT
HETATM    1  C   UNL     1      -5.491  20.104  71.484  1.00  0.00    -0.407 C  
HETATM    2  C   UNL     1      -6.026  19.752  70.126  1.00  0.00    -0.340 A  
HETATM    3  C   UNL     1      -7.385  19.916  69.828  1.00  0.00     0.078 A  
HETATM    4  C   UNL     1      -7.890  19.523  68.587  1.00  0.00    -0.383 A  
HETATM    5  C   UNL     1      -7.026  18.972  67.635  1.00  0.00    -0.213 A  
HETATM    6  C   UNL     1      -5.169  19.215  69.154  1.00  0.00    -0.202 A  
HETATM    7  C   UNL     1      -5.666  18.827  67.907  1.00  0.00    -0.190 A  
ENDROOT
BRANCH   5   8
HETATM    8  S   UNL     1      -7.697  18.415  66.088  1.00  0.00    -0.176 S  
HETATM    9  O   UNL     1      -9.134  18.588  66.089  1.00  0.00    -0.462 OA 
HETATM   10  O   UNL     1      -6.883  19.001  65.039  1.00  0.00    -0.478 OA 
BRANCH   8  11
HETATM   11  N   UNL     1      -7.351  16.788  66.055  1.00  0.00    -0.025 N  
HETATM   12  H   UNL     1      -6.553  16.467  65.508  1.00  0.00     0.000 HD 
BRANCH  11  13
HETATM   13  C   UNL     1      -8.109  15.854  66.744  1.00  0.00    -0.266 C  
HETATM   14  O   UNL     1      -7.664  15.242  67.705  1.00  0.00    -0.136 OA 
BRANCH  13  15
HETATM   15  N   UNL     1      -9.376  15.671  66.215  1.00  0.00    -0.295 N  
HETATM   16  H   UNL     1      -9.502  15.741  65.206  1.00  0.00     0.000 HD 
BRANCH  15  17
HETATM   17  N   UNL     1     -10.514  15.389  67.033  1.00  0.00    -0.288 NA 
HETATM   18  C   UNL     1     -10.730  13.933  67.133  1.00  0.00    -0.282 C  
HETATM   19  C   UNL     1     -11.896  13.448  68.001  1.00  0.00    -0.392 C  
HETATM   20  C   UNL     1     -11.664  13.678  69.491  1.00  0.00    -0.380 C  
HETATM   21  C   UNL     1     -12.067  15.066  69.975  1.00  0.00    -0.382 C  
HETATM   22  C   UNL     1     -11.776  16.215  69.016  1.00  0.00    -0.254 C  
HETATM   23  C   UNL     1     -10.425  16.109  68.314  1.00  0.00    -0.276 C  
ENDBRANCH  15  17
ENDBRANCH  13  15
ENDBRANCH  11  13
ENDBRANCH   8  11
ENDBRANCH   5   8
TORSDOF 5
ENDMDL
MODEL      184
REMARK 921   NORMALIZED FREE ENERGY PREDICTED BY IDOCK:   -4.43 KCAL/MOL
REMARK 922        TOTAL FREE ENERGY PREDICTED BY IDOCK:   -6.27 KCAL/MOL
REMARK 923 INTER-LIGAND FREE ENERGY PREDICTED BY IDOCK:   -6.47 KCAL/MOL
REMARK 924 INTRA-LIGAND FREE ENERGY PREDICTED BY IDOCK:    0.21 KCAL/MOL
REMARK 927      BINDING AFFINITY PREDICTED BY RF-SCORE:    0.00 PKD
ROOT
HETATM    1  C   UNL     1      -9.899  19.585  68.520  1.00  0.00    -0.518 C  
HETATM    2  C   UNL     1     -10.247  18.253  67.919  1.00  0.00    -0.400 A  
HETATM    3  C   UNL     1     -10.679  17.194  68.728  1.00  0.00    -0.289 A  
HETATM    4  C   UNL     1     -10.936  15.939  68.172  1.00  0.00    -0.335 A  
HETATM    5  C   UNL     1     -10.769  15.746  66.797  1.00  0.00    -0.293 A  
HETATM    6  C   UNL     1     -10.103  18.050  66.539  1.00  0.00    -0.379 A  
HETATM    7  C   UNL     1     -10.364  16.798  65.975  1.00  0.00    -0.346 A  
ENDROOT
BRANCH   5   8
HETATM    8  S   UNL     1     -11.033  14.127  66.120  1.00  0.00    -0.314 S  
HETATM    9  O   UNL     1     -12.452  13.883  65.976  1.00  0.00    -0.463 OA 
HETATM   10  O   UNL     1     -10.142  13.995  64.980  1.00  0.00    -0.369 OA 
BRANCH   8  11
HETATM   11  N   UNL     1     -10.424  13.096  67.274  1.00  0.00    -0.242 N  
HETATM   12  H   UNL     1      -9.843  13.480  68.019  1.00  0.00     0.000 HD 
BRANCH  11  13
HETATM   13  C   UNL     1     -10.677  11.733  67.261  1.00  0.00    -0.237 C  
HETATM   14  O   UNL     1     -11.811  11.288  67.156  1.00  0.00    -0.524 OA 
BRANCH  13  15
HETATM   15  N   UNL     1      -9.539  10.958  67.410  1.00  0.00    -0.163 N  
HETATM   16  H   UNL     1      -8.669  11.274  66.982  1.00  0.00     0.000 HD 
BRANCH  15  17
HETATM   17  N   UNL     1      -9.539   9.730  68.143  1.00  0.00    -0.142 NA 
HETATM   18  C   UNL     1      -9.725   9.989  69.584  1.00  0.00    -0.229 C  
HETATM   19  C   UNL     1      -9.782   8.776  70.519  1.00  0.00    -0.225 C  
HETATM   20  C   UNL     1     -11.048   7.945  70.341  1.00  0.00    -0.249 C  
HETATM   21  C   UNL     1     -10.958   6.905  69.230  1.00  0.00    -0.260 C  
HETATM   22  C   UNL     1     -10.196   7.332  67.980  1.00  0.00    -0.225 C  
HETATM   23  C   UNL     1     -10.477   8.767  67.543  1.00  0.00    -0.271 C  
ENDBRANCH  15  17
ENDBRANCH  13  15
ENDBRANCH  11  13
ENDBRANCH   8  11
ENDBRANCH   5   8
TORSDOF 5
ENDMDL
MODEL      185
REMARK 921   NORMALIZED FREE ENERGY PREDICTED BY IDOCK:   -4.43 KCAL/MOL
REMARK 922        TOTAL FREE ENERGY PREDICTED BY IDOCK:   -6.26 KCAL/MOL
REMARK 923 INTER-LIGAND FREE ENERGY PREDICTED BY IDOCK:   -6.05 KCAL/MOL
REMARK 924 INTRA-LIGAND FREE ENERGY PREDICTED BY IDOCK:   -0.21 KCAL/MOL
REMARK 927      BINDING AFFINITY PREDICTED BY RF-SCORE:    0.00 PKD
ROOT
HETATM    1  C   UNL     1     -10.562   9.861  69.896  1.00  0.00    -0.312 C  
HETATM    2  C   UNL     1     -10.539  10.183  68.430  1.00  0.00    -0.249 A  
HETATM    3  C   UNL     1      -9.488   9.739  67.616  1.00  0.00    -0.164 A  
HETATM    4  C   UNL     1      -9.437  10.098  66.268  1.00  0.00    -0.229 A  
HETATM    5  C   UNL     1     -10.448  10.899  65.728  1.00  0.00    -0.210 A  
HETATM    6  C   UNL     1     -11.557  10.969  67.869  1.00  0.00    -0.306 A  
HETATM    7  C   UNL     1     -11.515  11.327  66.520  1.00  0.00     0.016 A  
ENDROOT
BRANCH   5   8
HETATM    8  S   UNL     1     -10.330  11.403  64.030  1.00  0.00    -0.399 S  
HETATM    9  O   UNL     1      -9.397  10.547  63.330  1.00  0.00    -0.247 OA 
HETATM   10  O   UNL     1     -11.688  11.569  63.543  1.00  0.00    -0.379 OA 
BRANCH   8  11
HETATM   11  N   UNL     1      -9.700  12.940  64.104  1.00  0.00    -0.498 N  
HETATM   12  H   UNL     1      -8.828  13.138  63.612  1.00  0.00     0.000 HD 
BRANCH  11  13
HETATM   13  C   UNL     1     -10.315  13.963  64.809  1.00  0.00    -0.394 C  
HETATM   14  O   UNL     1     -11.443  14.349  64.534  1.00  0.00    -0.374 OA 
BRANCH  13  15
HETATM   15  N   UNL     1      -9.520  14.504  65.805  1.00  0.00    -0.531 N  
HETATM   16  H   UNL     1      -8.655  14.975  65.541  1.00  0.00     0.000 HD 
BRANCH  15  17
HETATM   17  N   UNL     1      -9.867  14.427  67.189  1.00  0.00    -0.249 NA 
HETATM   18  C   UNL     1      -8.855  15.112  68.015  1.00  0.00    -0.170 C  
HETATM   19  C   UNL     1      -9.086  15.153  69.529  1.00  0.00    -0.131 C  
HETATM   20  C   UNL     1     -10.253  16.051  69.930  1.00  0.00    -0.188 C  
HETATM   21  C   UNL     1     -11.611  15.361  69.884  1.00  0.00    -0.342 C  
HETATM   22  C   UNL     1     -11.820  14.378  68.737  1.00  0.00    -0.360 C  
HETATM   23  C   UNL     1     -11.259  14.858  67.401  1.00  0.00    -0.338 C  
ENDBRANCH  15  17
ENDBRANCH  13  15
ENDBRANCH  11  13
ENDBRANCH   8  11
ENDBRANCH   5   8
TORSDOF 5
ENDMDL
MODEL      186
REMARK 921   NORMALIZED FREE ENERGY PREDICTED BY IDOCK:   -4.41 KCAL/MOL
REMARK 922        TOTAL FREE ENERGY PREDICTED BY IDOCK:   -6.24 KCAL/MOL
REMARK 923 INTER-LIGAND FREE ENERGY PREDICTED BY IDOCK:   -5.35 KCAL/MOL
REMARK 924 INTRA-LIGAND FREE ENERGY PREDICTED BY IDOCK:   -0.89 KCAL/MOL
REMARK 927      BINDING AFFINITY PREDICTED BY RF-SCORE:    0.00 PKD
ROOT
HETATM    1  C   UNL     1      -5.458  16.932  67.457  1.00  0.00    -0.164 C  
HETATM    2  C   UNL     1      -6.029  15.553  67.625  1.00  0.00    -0.147 A  
HETATM    3  C   UNL     1      -7.336  15.265  67.209  1.00  0.00    -0.230 A  
HETATM    4  C   UNL     1      -7.886  14.000  67.429  1.00  0.00    -0.188 A  
HETATM    5  C   UNL     1      -7.120  13.016  68.061  1.00  0.00    -0.115 A  
HETATM    6  C   UNL     1      -5.267  14.549  68.239  1.00  0.00    -0.113 A  
HETATM    7  C   UNL     1      -5.808  13.280  68.457  1.00  0.00    -0.083 A  
ENDROOT
BRANCH   5   8
HETATM    8  S   UNL     1      -7.858  11.437  68.395  1.00  0.00    -0.141 S  
HETATM    9  O   UNL     1      -7.797  10.608  67.210  1.00  0.00    -0.108 OA 
HETATM   10  O   UNL     1      -7.303  10.968  69.652  1.00  0.00    -0.114 OA 
BRANCH   8  11
HETATM   11  N   UNL     1      -9.450  11.791  68.723  1.00  0.00    -0.389 N  
HETATM   12  H   UNL     1      -9.674  12.683  69.164  1.00  0.00     0.000 HD 
BRANCH  11  13
HETATM   13  C   UNL     1     -10.483  10.918  68.418  1.00  0.00    -0.183 C  
HETATM   14  O   UNL     1     -11.156  10.385  69.289  1.00  0.00    -0.225 OA 
BRANCH  13  15
HETATM   15  N   UNL     1     -10.638  10.697  67.060  1.00  0.00    -0.254 N  
HETATM   16  H   UNL     1     -10.701   9.737  66.722  1.00  0.00     0.000 HD 
BRANCH  15  17
HETATM   17  N   UNL     1     -10.712  11.765  66.113  1.00  0.00    -0.267 NA 
HETATM   18  C   UNL     1     -10.657  11.240  64.736  1.00  0.00    -0.312 C  
HETATM   19  C   UNL     1     -10.756  12.251  63.588  1.00  0.00    -0.513 C  
HETATM   20  C   UNL     1     -12.141  12.878  63.465  1.00  0.00    -0.633 C  
HETATM   21  C   UNL     1     -12.355  14.091  64.362  1.00  0.00    -0.401 C  
HETATM   22  C   UNL     1     -11.721  14.014  65.747  1.00  0.00    -0.368 C  
HETATM   23  C   UNL     1     -11.852  12.647  66.413  1.00  0.00    -0.402 C  
ENDBRANCH  15  17
ENDBRANCH  13  15
ENDBRANCH  11  13
ENDBRANCH   8  11
ENDBRANCH   5   8
TORSDOF 5
ENDMDL
MODEL      187
REMARK 921   NORMALIZED FREE ENERGY PREDICTED BY IDOCK:   -4.40 KCAL/MOL
REMARK 922        TOTAL FREE ENERGY PREDICTED BY IDOCK:   -6.23 KCAL/MOL
REMARK 923 INTER-LIGAND FREE ENERGY PREDICTED BY IDOCK:   -5.61 KCAL/MOL
REMARK 924 INTRA-LIGAND FREE ENERGY PREDICTED BY IDOCK:   -0.62 KCAL/MOL
REMARK 927      BINDING AFFINITY PREDICTED BY RF-SCORE:    0.00 PKD
ROOT
HETATM    1  C   UNL     1      -6.131  21.377  67.615  1.00  0.00    -0.375 C  
HETATM    2  C   UNL     1      -7.125  20.256  67.507  1.00  0.00    -0.326 A  
HETATM    3  C   UNL     1      -7.693  19.690  68.656  1.00  0.00    -0.363 A  
HETATM    4  C   UNL     1      -8.565  18.604  68.553  1.00  0.00    -0.370 A  
HETATM    5  C   UNL     1      -8.877  18.088  67.291  1.00  0.00    -0.247 A  
HETATM    6  C   UNL     1      -7.464  19.740  66.247  1.00  0.00    -0.308 A  
HETATM    7  C   UNL     1      -8.340  18.658  66.136  1.00  0.00    -0.174 A  
ENDROOT
BRANCH   5   8
HETATM    8  S   UNL     1      -9.931  16.664  67.183  1.00  0.00    -0.275 S  
HETATM    9  O   UNL     1     -11.126  16.879  67.971  1.00  0.00    -0.336 OA 
HETATM   10  O   UNL     1     -10.028  16.315  65.777  1.00  0.00    -0.350 OA 
BRANCH   8  11
HETATM   11  N   UNL     1      -9.041  15.443  67.878  1.00  0.00    -0.178 N  
HETATM   12  H   UNL     1      -9.048  15.346  68.893  1.00  0.00     0.000 HD 
BRANCH  11  13
HETATM   13  C   UNL     1      -8.290  14.552  67.127  1.00  0.00    -0.202 C  
HETATM   14  O   UNL     1      -7.071  14.625  67.067  1.00  0.00    -0.120 OA 
BRANCH  13  15
HETATM   15  N   UNL     1      -9.056  13.620  66.446  1.00  0.00    -0.467 N  
HETATM   16  H   UNL     1      -9.751  13.950  65.777  1.00  0.00     0.000 HD 
BRANCH  15  17
HETATM   17  N   UNL     1      -8.906  12.213  66.645  1.00  0.00    -0.201 NA 
HETATM   18  C   UNL     1      -8.737  11.909  68.079  1.00  0.00    -0.173 C  
HETATM   19  C   UNL     1      -8.594  10.436  68.479  1.00  0.00    -0.134 C  
HETATM   20  C   UNL     1      -9.883   9.642  68.298  1.00  0.00    -0.169 C  
HETATM   21  C   UNL     1     -10.083   9.093  66.890  1.00  0.00    -0.328 C  
HETATM   22  C   UNL     1      -9.633  10.002  65.752  1.00  0.00    -0.291 C  
HETATM   23  C   UNL     1      -9.980  11.474  65.960  1.00  0.00    -0.224 C  
ENDBRANCH  15  17
ENDBRANCH  13  15
ENDBRANCH  11  13
ENDBRANCH   8  11
ENDBRANCH   5   8
TORSDOF 5
ENDMDL
MODEL      188
REMARK 921   NORMALIZED FREE ENERGY PREDICTED BY IDOCK:   -4.39 KCAL/MOL
REMARK 922        TOTAL FREE ENERGY PREDICTED BY IDOCK:   -6.21 KCAL/MOL
REMARK 923 INTER-LIGAND FREE ENERGY PREDICTED BY IDOCK:   -5.72 KCAL/MOL
REMARK 924 INTRA-LIGAND FREE ENERGY PREDICTED BY IDOCK:   -0.49 KCAL/MOL
REMARK 927      BINDING AFFINITY PREDICTED BY RF-SCORE:    0.00 PKD
ROOT
HETATM    1  C   UNL     1     -11.151   6.194  69.384  1.00  0.00    -0.479 C  
HETATM    2  C   UNL     1     -10.725   7.469  68.714  1.00  0.00    -0.122 A  
HETATM    3  C   UNL     1     -10.494   8.629  69.464  1.00  0.00    -0.222 A  
HETATM    4  C   UNL     1     -10.164   9.829  68.829  1.00  0.00    -0.210 A  
HETATM    5  C   UNL     1     -10.056   9.864  67.436  1.00  0.00    -0.205 A  
HETATM    6  C   UNL     1     -10.594   7.516  67.318  1.00  0.00    -0.394 A  
HETATM    7  C   UNL     1     -10.258   8.711  66.676  1.00  0.00    -0.343 A  
ENDROOT
BRANCH   5   8
HETATM    8  S   UNL     1      -9.705  11.412  66.641  1.00  0.00    -0.206 S  
HETATM    9  O   UNL     1      -8.638  11.237  65.680  1.00  0.00    -0.137 OA 
HETATM   10  O   UNL     1     -10.980  11.977  66.234  1.00  0.00    -0.274 OA 
BRANCH   8  11
HETATM   11  N   UNL     1      -9.165  12.391  67.873  1.00  0.00    -0.185 N  
HETATM   12  H   UNL     1      -9.190  12.036  68.829  1.00  0.00     0.000 HD 
BRANCH  11  13
HETATM   13  C   UNL     1      -8.684  13.671  67.647  1.00  0.00    -0.182 C  
HETATM   14  O   UNL     1      -7.523  13.876  67.319  1.00  0.00    -0.155 OA 
BRANCH  13  15
HETATM   15  N   UNL     1      -9.626  14.662  67.864  1.00  0.00    -0.209 N  
HETATM   16  H   UNL     1     -10.523  14.406  68.275  1.00  0.00     0.000 HD 
BRANCH  15  17
HETATM   17  N   UNL     1      -9.387  16.032  67.532  1.00  0.00    -0.216 NA 
HETATM   18  C   UNL     1     -10.456  16.545  66.654  1.00  0.00    -0.266 C  
HETATM   19  C   UNL     1     -10.374  18.014  66.224  1.00  0.00    -0.384 C  
HETATM   20  C   UNL     1     -10.629  18.986  67.371  1.00  0.00    -0.559 C  
HETATM   21  C   UNL     1      -9.391  19.308  68.200  1.00  0.00    -0.400 C  
HETATM   22  C   UNL     1      -8.432  18.147  68.440  1.00  0.00    -0.311 C  
HETATM   23  C   UNL     1      -9.126  16.823  68.747  1.00  0.00    -0.259 C  
ENDBRANCH  15  17
ENDBRANCH  13  15
ENDBRANCH  11  13
ENDBRANCH   8  11
ENDBRANCH   5   8
TORSDOF 5
ENDMDL
MODEL      189
REMARK 921   NORMALIZED FREE ENERGY PREDICTED BY IDOCK:   -4.38 KCAL/MOL
REMARK 922        TOTAL FREE ENERGY PREDICTED BY IDOCK:   -6.20 KCAL/MOL
REMARK 923 INTER-LIGAND FREE ENERGY PREDICTED BY IDOCK:   -6.14 KCAL/MOL
REMARK 924 INTRA-LIGAND FREE ENERGY PREDICTED BY IDOCK:   -0.06 KCAL/MOL
REMARK 927      BINDING AFFINITY PREDICTED BY RF-SCORE:    0.00 PKD
ROOT
HETATM    1  C   UNL     1     -11.499  14.964  64.884  1.00  0.00    -0.407 C  
HETATM    2  C   UNL     1     -10.782  13.647  64.952  1.00  0.00    -0.400 A  
HETATM    3  C   UNL     1     -10.834  12.747  63.878  1.00  0.00    -0.447 A  
HETATM    4  C   UNL     1     -10.222  11.496  63.973  1.00  0.00    -0.394 A  
HETATM    5  C   UNL     1      -9.544  11.147  65.146  1.00  0.00    -0.234 A  
HETATM    6  C   UNL     1     -10.082  13.289  66.114  1.00  0.00    -0.293 A  
HETATM    7  C   UNL     1      -9.461  12.042  66.213  1.00  0.00    -0.237 A  
ENDROOT
BRANCH   5   8
HETATM    8  S   UNL     1      -8.831   9.526  65.275  1.00  0.00    -0.197 S  
HETATM    9  O   UNL     1      -8.613   8.982  63.952  1.00  0.00    -0.191 OA 
HETATM   10  O   UNL     1      -7.736   9.620  66.224  1.00  0.00    -0.100 OA 
BRANCH   8  11
HETATM   11  N   UNL     1     -10.001   8.625  66.041  1.00  0.00    -0.460 N  
HETATM   12  H   UNL     1     -10.517   7.929  65.503  1.00  0.00     0.000 HD 
BRANCH  11  13
HETATM   13  C   UNL     1     -10.299   8.786  67.385  1.00  0.00    -0.280 C  
HETATM   14  O   UNL     1     -11.129   9.598  67.770  1.00  0.00    -0.219 OA 
BRANCH  13  15
HETATM   15  N   UNL     1      -9.549   7.973  68.219  1.00  0.00    -0.145 N  
HETATM   16  H   UNL     1      -8.670   7.591  67.872  1.00  0.00     0.000 HD 
BRANCH  15  17
HETATM   17  N   UNL     1      -9.963   7.650  69.549  1.00  0.00    -0.179 NA 
HETATM   18  C   UNL     1     -10.240   8.879  70.316  1.00  0.00    -0.201 C  
HETATM   19  C   UNL     1     -10.727   8.717  71.761  1.00  0.00    -0.392 C  
HETATM   20  C   UNL     1     -12.140   8.149  71.853  1.00  0.00    -0.368 C  
HETATM   21  C   UNL     1     -12.201   6.627  71.812  1.00  0.00    -0.400 C  
HETATM   22  C   UNL     1     -11.212   5.946  70.871  1.00  0.00    -0.278 C  
HETATM   23  C   UNL     1     -11.047   6.654  69.529  1.00  0.00    -0.322 C  
ENDBRANCH  15  17
ENDBRANCH  13  15
ENDBRANCH  11  13
ENDBRANCH   8  11
ENDBRANCH   5   8
TORSDOF 5
ENDMDL
MODEL      190
REMARK 921   NORMALIZED FREE ENERGY PREDICTED BY IDOCK:   -4.37 KCAL/MOL
REMARK 922        TOTAL FREE ENERGY PREDICTED BY IDOCK:   -6.18 KCAL/MOL
REMARK 923 INTER-LIGAND FREE ENERGY PREDICTED BY IDOCK:   -5.45 KCAL/MOL
REMARK 924 INTRA-LIGAND FREE ENERGY PREDICTED BY IDOCK:   -0.73 KCAL/MOL
REMARK 927      BINDING AFFINITY PREDICTED BY RF-SCORE:    0.00 PKD
ROOT
HETATM    1  C   UNL     1     -12.550  12.268  64.876  1.00  0.00    -0.242 C  
HETATM    2  C   UNL     1     -11.797  13.523  65.211  1.00  0.00    -0.373 A  
HETATM    3  C   UNL     1     -10.539  13.775  64.646  1.00  0.00    -0.443 A  
HETATM    4  C   UNL     1      -9.813  14.910  65.013  1.00  0.00    -0.069 A  
HETATM    5  C   UNL     1     -10.353  15.803  65.944  1.00  0.00    -0.354 A  
HETATM    6  C   UNL     1     -12.333  14.438  66.129  1.00  0.00    -0.335 A  
HETATM    7  C   UNL     1     -11.615  15.579  66.496  1.00  0.00     0.182 A  
ENDROOT
BRANCH   5   8
HETATM    8  S   UNL     1      -9.386  17.203  66.451  1.00  0.00    -0.247 S  
HETATM    9  O   UNL     1      -8.022  17.046  65.994  1.00  0.00    -0.435 OA 
HETATM   10  O   UNL     1     -10.149  18.390  66.106  1.00  0.00    -0.422 OA 
BRANCH   8  11
HETATM   11  N   UNL     1      -9.408  17.135  68.113  1.00  0.00    -0.257 N  
HETATM   12  H   UNL     1     -10.144  17.631  68.615  1.00  0.00     0.000 HD 
BRANCH  11  13
HETATM   13  C   UNL     1      -8.463  16.428  68.839  1.00  0.00    -0.247 C  
HETATM   14  O   UNL     1      -7.372  16.906  69.119  1.00  0.00    -0.239 OA 
BRANCH  13  15
HETATM   15  N   UNL     1      -8.867  15.145  69.171  1.00  0.00    -0.237 N  
HETATM   16  H   UNL     1      -8.157  14.453  69.409  1.00  0.00     0.000 HD 
BRANCH  15  17
HETATM   17  N   UNL     1     -10.242  14.757  69.193  1.00  0.00    -0.235 NA 
HETATM   18  C   UNL     1     -10.369  13.296  69.027  1.00  0.00     0.038 C  
HETATM   19  C   UNL     1     -11.781  12.700  69.058  1.00  0.00    -0.367 C  
HETATM   20  C   UNL     1     -12.423  12.761  70.440  1.00  0.00    -0.231 C  
HETATM   21  C   UNL     1     -13.127  14.079  70.741  1.00  0.00    -0.245 C  
HETATM   22  C   UNL     1     -12.443  15.334  70.210  1.00  0.00    -0.405 C  
HETATM   23  C   UNL     1     -10.925  15.326  70.367  1.00  0.00    -0.290 C  
ENDBRANCH  15  17
ENDBRANCH  13  15
ENDBRANCH  11  13
ENDBRANCH   8  11
ENDBRANCH   5   8
TORSDOF 5
ENDMDL
MODEL      191
REMARK 921   NORMALIZED FREE ENERGY PREDICTED BY IDOCK:   -4.36 KCAL/MOL
REMARK 922        TOTAL FREE ENERGY PREDICTED BY IDOCK:   -6.18 KCAL/MOL
REMARK 923 INTER-LIGAND FREE ENERGY PREDICTED BY IDOCK:   -5.93 KCAL/MOL
REMARK 924 INTRA-LIGAND FREE ENERGY PREDICTED BY IDOCK:   -0.24 KCAL/MOL
REMARK 927      BINDING AFFINITY PREDICTED BY RF-SCORE:    0.00 PKD
ROOT
HETATM    1  C   UNL     1      -9.681   7.966  66.208  1.00  0.00    -0.170 C  
HETATM    2  C   UNL     1      -9.727   9.454  66.408  1.00  0.00    -0.315 A  
HETATM    3  C   UNL     1      -9.367  10.327  65.372  1.00  0.00    -0.258 A  
HETATM    4  C   UNL     1      -9.346  11.706  65.585  1.00  0.00    -0.195 A  
HETATM    5  C   UNL     1      -9.698  12.216  66.839  1.00  0.00    -0.206 A  
HETATM    6  C   UNL     1     -10.096   9.982  67.654  1.00  0.00    -0.232 A  
HETATM    7  C   UNL     1     -10.084  11.361  67.872  1.00  0.00    -0.198 A  
ENDROOT
BRANCH   5   8
HETATM    8  S   UNL     1      -9.598  13.968  67.112  1.00  0.00    -0.254 S  
HETATM    9  O   UNL     1     -10.160  14.671  65.978  1.00  0.00    -0.281 OA 
HETATM   10  O   UNL     1     -10.094  14.215  68.454  1.00  0.00    -0.227 OA 
BRANCH   8  11
HETATM   11  N   UNL     1      -7.966  14.278  67.183  1.00  0.00    -0.349 N  
HETATM   12  H   UNL     1      -7.313  13.500  67.091  1.00  0.00     0.000 HD 
BRANCH  11  13
HETATM   13  C   UNL     1      -7.461  15.557  67.363  1.00  0.00    -0.204 C  
HETATM   14  O   UNL     1      -6.501  15.968  66.726  1.00  0.00    -0.278 OA 
BRANCH  13  15
HETATM   15  N   UNL     1      -8.122  16.280  68.341  1.00  0.00    -0.175 N  
HETATM   16  H   UNL     1      -8.002  16.010  69.317  1.00  0.00     0.000 HD 
BRANCH  15  17
HETATM   17  N   UNL     1      -8.968  17.390  68.033  1.00  0.00    -0.249 NA 
HETATM   18  C   UNL     1      -8.509  18.601  68.741  1.00  0.00    -0.260 C  
HETATM   19  C   UNL     1      -9.287  19.899  68.499  1.00  0.00    -0.300 C  
HETATM   20  C   UNL     1      -9.097  20.455  67.092  1.00  0.00    -0.489 C  
HETATM   21  C   UNL     1     -10.045  19.862  66.056  1.00  0.00    -0.589 C  
HETATM   22  C   UNL     1     -10.349  18.376  66.207  1.00  0.00    -0.440 C  
HETATM   23  C   UNL     1      -9.134  17.529  66.577  1.00  0.00    -0.263 C  
ENDBRANCH  15  17
ENDBRANCH  13  15
ENDBRANCH  11  13
ENDBRANCH   8  11
ENDBRANCH   5   8
TORSDOF 5
ENDMDL
MODEL      192
REMARK 921   NORMALIZED FREE ENERGY PREDICTED BY IDOCK:   -4.36 KCAL/MOL
REMARK 922        TOTAL FREE ENERGY PREDICTED BY IDOCK:   -6.17 KCAL/MOL
REMARK 923 INTER-LIGAND FREE ENERGY PREDICTED BY IDOCK:   -5.39 KCAL/MOL
REMARK 924 INTRA-LIGAND FREE ENERGY PREDICTED BY IDOCK:   -0.78 KCAL/MOL
REMARK 927      BINDING AFFINITY PREDICTED BY RF-SCORE:    0.00 PKD
ROOT
HETATM    1  C   UNL     1     -10.029   4.330  66.967  1.00  0.00    -0.166 C  
HETATM    2  C   UNL     1     -10.073   5.688  67.606  1.00  0.00    -0.208 A  
HETATM    3  C   UNL     1      -9.549   5.893  68.890  1.00  0.00    -0.158 A  
HETATM    4  C   UNL     1      -9.654   7.141  69.506  1.00  0.00    -0.154 A  
HETATM    5  C   UNL     1     -10.279   8.194  68.830  1.00  0.00    -0.207 A  
HETATM    6  C   UNL     1     -10.679   6.759  66.933  1.00  0.00    -0.394 A  
HETATM    7  C   UNL     1     -10.782   8.013  67.541  1.00  0.00    -0.238 A  
ENDROOT
BRANCH   5   8
HETATM    8  S   UNL     1     -10.465   9.754  69.656  1.00  0.00    -0.261 S  
HETATM    9  O   UNL     1     -11.448  10.559  68.963  1.00  0.00    -0.257 OA 
HETATM   10  O   UNL     1     -10.610   9.468  71.072  1.00  0.00    -0.297 OA 
BRANCH   8  11
HETATM   11  N   UNL     1      -8.975  10.477  69.505  1.00  0.00    -0.388 N  
HETATM   12  H   UNL     1      -8.286  10.342  70.245  1.00  0.00     0.000 HD 
BRANCH  11  13
HETATM   13  C   UNL     1      -8.635  11.256  68.410  1.00  0.00    -0.155 C  
HETATM   14  O   UNL     1      -7.840  10.870  67.564  1.00  0.00    -0.110 OA 
BRANCH  13  15
HETATM   15  N   UNL     1      -9.250  12.497  68.401  1.00  0.00    -0.318 N  
HETATM   16  H   UNL     1      -9.628  12.864  69.275  1.00  0.00     0.000 HD 
BRANCH  15  17
HETATM   17  N   UNL     1      -9.374  13.282  67.214  1.00  0.00    -0.217 NA 
HETATM   18  C   UNL     1     -10.526  12.827  66.412  1.00  0.00    -0.250 C  
HETATM   19  C   UNL     1     -10.827  13.583  65.113  1.00  0.00    -0.336 C  
HETATM   20  C   UNL     1     -11.348  14.996  65.353  1.00  0.00    -0.328 C  
HETATM   21  C   UNL     1     -10.252  16.039  65.539  1.00  0.00    -0.389 C  
HETATM   22  C   UNL     1      -9.025  15.583  66.320  1.00  0.00    -0.362 C  
HETATM   23  C   UNL     1      -9.351  14.719  67.536  1.00  0.00    -0.194 C  
ENDBRANCH  15  17
ENDBRANCH  13  15
ENDBRANCH  11  13
ENDBRANCH   8  11
ENDBRANCH   5   8
TORSDOF 5
ENDMDL
MODEL      193
REMARK 921   NORMALIZED FREE ENERGY PREDICTED BY IDOCK:   -4.35 KCAL/MOL
REMARK 922        TOTAL FREE ENERGY PREDICTED BY IDOCK:   -6.16 KCAL/MOL
REMARK 923 INTER-LIGAND FREE ENERGY PREDICTED BY IDOCK:   -5.31 KCAL/MOL
REMARK 924 INTRA-LIGAND FREE ENERGY PREDICTED BY IDOCK:   -0.86 KCAL/MOL
REMARK 927      BINDING AFFINITY PREDICTED BY RF-SCORE:    0.00 PKD
ROOT
HETATM    1  C   UNL     1      -9.809  10.768  66.862  1.00  0.00    -0.224 C  
HETATM    2  C   UNL     1      -9.602   9.304  67.124  1.00  0.00    -0.208 A  
HETATM    3  C   UNL     1     -10.621   8.379  66.859  1.00  0.00    -0.285 A  
HETATM    4  C   UNL     1     -10.448   7.028  67.168  1.00  0.00    -0.383 A  
HETATM    5  C   UNL     1      -9.244   6.600  67.736  1.00  0.00    -0.111 A  
HETATM    6  C   UNL     1      -8.394   8.856  67.676  1.00  0.00    -0.110 A  
HETATM    7  C   UNL     1      -8.211   7.505  67.982  1.00  0.00    -0.124 A  
ENDROOT
BRANCH   5   8
HETATM    8  S   UNL     1      -9.068   4.892  68.186  1.00  0.00    -0.119 S  
HETATM    9  O   UNL     1      -9.484   4.051  67.084  1.00  0.00    -0.171 OA 
HETATM   10  O   UNL     1      -7.747   4.743  68.771  1.00  0.00    -0.071 OA 
BRANCH   8  11
HETATM   11  N   UNL     1     -10.132   4.689  69.448  1.00  0.00    -0.185 N  
HETATM   12  H   UNL     1     -10.821   3.939  69.395  1.00  0.00     0.000 HD 
BRANCH  11  13
HETATM   13  C   UNL     1     -10.117   5.504  70.570  1.00  0.00    -0.226 C  
HETATM   14  O   UNL     1      -9.101   5.680  71.227  1.00  0.00    -0.141 OA 
BRANCH  13  15
HETATM   15  N   UNL     1     -11.353   6.050  70.873  1.00  0.00    -0.278 N  
HETATM   16  H   UNL     1     -12.188   5.481  70.738  1.00  0.00     0.000 HD 
BRANCH  15  17
HETATM   17  N   UNL     1     -11.502   7.383  71.368  1.00  0.00    -0.256 NA 
HETATM   18  C   UNL     1     -10.697   8.324  70.566  1.00  0.00    -0.225 C  
HETATM   19  C   UNL     1     -10.763   9.809  70.940  1.00  0.00    -0.375 C  
HETATM   20  C   UNL     1     -12.113  10.444  70.624  1.00  0.00    -0.443 C  
HETATM   21  C   UNL     1     -13.155  10.267  71.723  1.00  0.00    -0.570 C  
HETATM   22  C   UNL     1     -13.143   8.922  72.440  1.00  0.00    -0.476 C  
HETATM   23  C   UNL     1     -12.926   7.728  71.515  1.00  0.00    -0.325 C  
ENDBRANCH  15  17
ENDBRANCH  13  15
ENDBRANCH  11  13
ENDBRANCH   8  11
ENDBRANCH   5   8
TORSDOF 5
ENDMDL
MODEL      194
REMARK 921   NORMALIZED FREE ENERGY PREDICTED BY IDOCK:   -4.35 KCAL/MOL
REMARK 922        TOTAL FREE ENERGY PREDICTED BY IDOCK:   -6.16 KCAL/MOL
REMARK 923 INTER-LIGAND FREE ENERGY PREDICTED BY IDOCK:   -5.28 KCAL/MOL
REMARK 924 INTRA-LIGAND FREE ENERGY PREDICTED BY IDOCK:   -0.88 KCAL/MOL
REMARK 927      BINDING AFFINITY PREDICTED BY RF-SCORE:    0.00 PKD
ROOT
HETATM    1  C   UNL     1      -9.170   2.906  71.400  1.00  0.00    -0.190 C  
HETATM    2  C   UNL     1     -10.030   4.135  71.461  1.00  0.00    -0.230 A  
HETATM    3  C   UNL     1     -10.630   4.530  72.665  1.00  0.00    -0.247 A  
HETATM    4  C   UNL     1     -11.483   5.635  72.701  1.00  0.00    -0.339 A  
HETATM    5  C   UNL     1     -11.730   6.354  71.527  1.00  0.00    -0.313 A  
HETATM    6  C   UNL     1     -10.272   4.879  70.297  1.00  0.00    -0.299 A  
HETATM    7  C   UNL     1     -11.119   5.989  70.327  1.00  0.00    -0.415 A  
ENDROOT
BRANCH   5   8
HETATM    8  S   UNL     1     -12.871   7.713  71.578  1.00  0.00    -0.327 S  
HETATM    9  O   UNL     1     -14.178   7.270  71.145  1.00  0.00    -0.343 OA 
HETATM   10  O   UNL     1     -12.700   8.361  72.867  1.00  0.00    -0.199 OA 
BRANCH   8  11
HETATM   11  N   UNL     1     -12.271   8.792  70.462  1.00  0.00    -0.473 N  
HETATM   12  H   UNL     1     -12.355   8.570  69.470  1.00  0.00     0.000 HD 
BRANCH  11  13
HETATM   13  C   UNL     1     -11.662   9.981  70.832  1.00  0.00    -0.374 C  
HETATM   14  O   UNL     1     -12.241  10.821  71.506  1.00  0.00    -0.311 OA 
BRANCH  13  15
HETATM   15  N   UNL     1     -10.377  10.121  70.336  1.00  0.00    -0.416 N  
HETATM   16  H   UNL     1     -10.166  10.918  69.736  1.00  0.00     0.000 HD 
BRANCH  15  17
HETATM   17  N   UNL     1      -9.334   9.190  70.635  1.00  0.00    -0.237 NA 
HETATM   18  C   UNL     1      -8.072   9.604  69.993  1.00  0.00    -0.178 C  
HETATM   19  C   UNL     1      -6.836   8.731  70.235  1.00  0.00    -0.042 C  
HETATM   20  C   UNL     1      -6.321   8.812  71.668  1.00  0.00    -0.073 C  
HETATM   21  C   UNL     1      -7.010   7.853  72.631  1.00  0.00    -0.091 C  
HETATM   22  C   UNL     1      -8.507   7.654  72.415  1.00  0.00    -0.151 C  
HETATM   23  C   UNL     1      -9.260   8.940  72.084  1.00  0.00    -0.033 C  
ENDBRANCH  15  17
ENDBRANCH  13  15
ENDBRANCH  11  13
ENDBRANCH   8  11
ENDBRANCH   5   8
TORSDOF 5
ENDMDL
MODEL      195
REMARK 921   NORMALIZED FREE ENERGY PREDICTED BY IDOCK:   -4.34 KCAL/MOL
REMARK 922        TOTAL FREE ENERGY PREDICTED BY IDOCK:   -6.15 KCAL/MOL
REMARK 923 INTER-LIGAND FREE ENERGY PREDICTED BY IDOCK:   -5.92 KCAL/MOL
REMARK 924 INTRA-LIGAND FREE ENERGY PREDICTED BY IDOCK:   -0.23 KCAL/MOL
REMARK 927      BINDING AFFINITY PREDICTED BY RF-SCORE:    0.00 PKD
ROOT
HETATM    1  C   UNL     1     -14.359  14.218  72.114  1.00  0.00    -0.608 C  
HETATM    2  C   UNL     1     -13.087  14.661  71.449  1.00  0.00    -0.414 A  
HETATM    3  C   UNL     1     -12.561  15.938  71.689  1.00  0.00    -0.475 A  
HETATM    4  C   UNL     1     -11.417  16.369  71.016  1.00  0.00    -0.232 A  
HETATM    5  C   UNL     1     -10.789  15.515  70.105  1.00  0.00    -0.331 A  
HETATM    6  C   UNL     1     -12.435  13.809  70.546  1.00  0.00    -0.409 A  
HETATM    7  C   UNL     1     -11.286  14.231  69.874  1.00  0.00    -0.194 A  
ENDROOT
BRANCH   5   8
HETATM    8  S   UNL     1      -9.376  16.105  69.207  1.00  0.00    -0.184 S  
HETATM    9  O   UNL     1      -9.492  17.532  68.997  1.00  0.00    -0.217 OA 
HETATM   10  O   UNL     1      -8.201  15.548  69.854  1.00  0.00    -0.111 OA 
BRANCH   8  11
HETATM   11  N   UNL     1      -9.475  15.335  67.736  1.00  0.00    -0.197 N  
HETATM   12  H   UNL     1     -10.372  15.314  67.252  1.00  0.00     0.000 HD 
BRANCH  11  13
HETATM   13  C   UNL     1      -8.382  14.720  67.146  1.00  0.00    -0.214 C  
HETATM   14  O   UNL     1      -7.416  15.358  66.750  1.00  0.00    -0.115 OA 
BRANCH  13  15
HETATM   15  N   UNL     1      -8.518  13.347  67.025  1.00  0.00    -0.365 N  
HETATM   16  H   UNL     1      -7.866  12.743  67.524  1.00  0.00     0.000 HD 
BRANCH  15  17
HETATM   17  N   UNL     1      -9.540  12.746  66.226  1.00  0.00    -0.258 NA 
HETATM   18  C   UNL     1     -10.757  12.520  67.029  1.00  0.00    -0.242 C  
HETATM   19  C   UNL     1     -11.969  11.907  66.319  1.00  0.00     0.045 C  
HETATM   20  C   UNL     1     -12.614  12.857  65.315  1.00  0.00    -0.502 C  
HETATM   21  C   UNL     1     -11.971  12.830  63.933  1.00  0.00    -0.554 C  
HETATM   22  C   UNL     1     -10.454  12.680  63.909  1.00  0.00    -0.441 C  
HETATM   23  C   UNL     1      -9.733  13.499  64.976  1.00  0.00     0.097 C  
ENDBRANCH  15  17
ENDBRANCH  13  15
ENDBRANCH  11  13
ENDBRANCH   8  11
ENDBRANCH   5   8
TORSDOF 5
ENDMDL
MODEL      196
REMARK 921   NORMALIZED FREE ENERGY PREDICTED BY IDOCK:   -4.34 KCAL/MOL
REMARK 922        TOTAL FREE ENERGY PREDICTED BY IDOCK:   -6.14 KCAL/MOL
REMARK 923 INTER-LIGAND FREE ENERGY PREDICTED BY IDOCK:   -5.72 KCAL/MOL
REMARK 924 INTRA-LIGAND FREE ENERGY PREDICTED BY IDOCK:   -0.42 KCAL/MOL
REMARK 927      BINDING AFFINITY PREDICTED BY RF-SCORE:    0.00 PKD
ROOT
HETATM    1  C   UNL     1      -8.122   9.065  66.307  1.00  0.00    -0.110 C  
HETATM    2  C   UNL     1      -9.134  10.040  65.779  1.00  0.00    -0.201 A  
HETATM    3  C   UNL     1      -9.605  11.088  66.581  1.00  0.00    -0.216 A  
HETATM    4  C   UNL     1     -10.596  11.951  66.109  1.00  0.00    -0.295 A  
HETATM    5  C   UNL     1     -11.112  11.770  64.822  1.00  0.00    -0.296 A  
HETATM    6  C   UNL     1      -9.648   9.883  64.483  1.00  0.00    -0.290 A  
HETATM    7  C   UNL     1     -10.635  10.747  64.001  1.00  0.00    -0.175 A  
ENDROOT
BRANCH   5   8
HETATM    8  S   UNL     1     -12.420  12.832  64.264  1.00  0.00    -0.358 S  
HETATM    9  O   UNL     1     -13.168  12.176  63.214  1.00  0.00    -0.620 OA 
HETATM   10  O   UNL     1     -13.093  13.332  65.449  1.00  0.00    -0.606 OA 
BRANCH   8  11
HETATM   11  N   UNL     1     -11.631  14.148  63.620  1.00  0.00    -0.413 N  
HETATM   12  H   UNL     1     -11.007  14.007  62.826  1.00  0.00     0.000 HD 
BRANCH  11  13
HETATM   13  C   UNL     1     -11.791  15.429  64.124  1.00  0.00    -0.104 C  
HETATM   14  O   UNL     1     -12.874  15.998  64.112  1.00  0.00    -0.271 OA 
BRANCH  13  15
HETATM   15  N   UNL     1     -10.615  15.989  64.596  1.00  0.00    -0.342 N  
HETATM   16  H   UNL     1      -9.919  16.310  63.923  1.00  0.00     0.000 HD 
BRANCH  15  17
HETATM   17  N   UNL     1     -10.340  16.132  65.991  1.00  0.00    -0.341 NA 
HETATM   18  C   UNL     1     -11.535  15.799  66.790  1.00  0.00     0.196 C  
HETATM   19  C   UNL     1     -11.409  15.869  68.316  1.00  0.00    -0.342 C  
HETATM   20  C   UNL     1     -10.521  14.771  68.891  1.00  0.00    -0.249 C  
HETATM   21  C   UNL     1      -9.035  15.112  68.895  1.00  0.00    -0.206 C  
HETATM   22  C   UNL     1      -8.527  15.886  67.684  1.00  0.00    -0.170 C  
HETATM   23  C   UNL     1      -9.110  15.410  66.356  1.00  0.00    -0.314 C  
ENDBRANCH  15  17
ENDBRANCH  13  15
ENDBRANCH  11  13
ENDBRANCH   8  11
ENDBRANCH   5   8
TORSDOF 5
ENDMDL
MODEL      197
REMARK 921   NORMALIZED FREE ENERGY PREDICTED BY IDOCK:   -4.32 KCAL/MOL
REMARK 922        TOTAL FREE ENERGY PREDICTED BY IDOCK:   -6.12 KCAL/MOL
REMARK 923 INTER-LIGAND FREE ENERGY PREDICTED BY IDOCK:   -5.67 KCAL/MOL
REMARK 924 INTRA-LIGAND FREE ENERGY PREDICTED BY IDOCK:   -0.46 KCAL/MOL
REMARK 927      BINDING AFFINITY PREDICTED BY RF-SCORE:    0.00 PKD
ROOT
HETATM    1  C   UNL     1     -10.421  18.191  68.714  1.00  0.00    -0.148 C  
HETATM    2  C   UNL     1     -10.803  17.038  67.831  1.00  0.00    -0.302 A  
HETATM    3  C   UNL     1     -11.544  15.963  68.338  1.00  0.00    -0.317 A  
HETATM    4  C   UNL     1     -11.839  14.862  67.531  1.00  0.00    -0.256 A  
HETATM    5  C   UNL     1     -11.396  14.843  66.204  1.00  0.00    -0.307 A  
HETATM    6  C   UNL     1     -10.383  17.012  66.493  1.00  0.00    -0.298 A  
HETATM    7  C   UNL     1     -10.679  15.917  65.677  1.00  0.00    -0.350 A  
ENDROOT
BRANCH   5   8
HETATM    8  S   UNL     1     -11.719  13.406  65.213  1.00  0.00    -0.340 S  
HETATM    9  O   UNL     1     -12.346  12.384  66.024  1.00  0.00    -0.627 OA 
HETATM   10  O   UNL     1     -12.352  13.869  63.991  1.00  0.00    -0.637 OA 
BRANCH   8  11
HETATM   11  N   UNL     1     -10.210  12.878  64.754  1.00  0.00    -0.457 N  
HETATM   12  H   UNL     1      -9.700  13.405  64.046  1.00  0.00     0.000 HD 
BRANCH  11  13
HETATM   13  C   UNL     1      -9.621  11.748  65.299  1.00  0.00    -0.168 C  
HETATM   14  O   UNL     1      -8.802  11.818  66.205  1.00  0.00    -0.188 OA 
BRANCH  13  15
HETATM   15  N   UNL     1     -10.026  10.568  64.696  1.00  0.00    -0.331 N  
HETATM   16  H   UNL     1     -11.022  10.352  64.659  1.00  0.00     0.000 HD 
BRANCH  15  17
HETATM   17  N   UNL     1      -9.099   9.643  64.124  1.00  0.00    -0.237 NA 
HETATM   18  C   UNL     1      -8.218  10.325  63.157  1.00  0.00    -0.163 C  
HETATM   19  C   UNL     1      -7.138   9.484  62.468  1.00  0.00    -0.100 C  
HETATM   20  C   UNL     1      -6.026   9.050  63.417  1.00  0.00    -0.088 C  
HETATM   21  C   UNL     1      -6.330   7.770  64.187  1.00  0.00    -0.057 C  
HETATM   22  C   UNL     1      -7.775   7.596  64.644  1.00  0.00    -0.121 C  
HETATM   23  C   UNL     1      -8.413   8.876  65.178  1.00  0.00    -0.173 C  
ENDBRANCH  15  17
ENDBRANCH  13  15
ENDBRANCH  11  13
ENDBRANCH   8  11
ENDBRANCH   5   8
TORSDOF 5
ENDMDL
MODEL      198
REMARK 921   NORMALIZED FREE ENERGY PREDICTED BY IDOCK:   -4.32 KCAL/MOL
REMARK 922        TOTAL FREE ENERGY PREDICTED BY IDOCK:   -6.12 KCAL/MOL
REMARK 923 INTER-LIGAND FREE ENERGY PREDICTED BY IDOCK:   -5.85 KCAL/MOL
REMARK 924 INTRA-LIGAND FREE ENERGY PREDICTED BY IDOCK:   -0.27 KCAL/MOL
REMARK 927      BINDING AFFINITY PREDICTED BY RF-SCORE:    0.00 PKD
ROOT
HETATM    1  C   UNL     1      -5.159  20.145  70.264  1.00  0.00    -0.255 C  
HETATM    2  C   UNL     1      -6.320  19.933  69.335  1.00  0.00    -0.374 A  
HETATM    3  C   UNL     1      -7.602  19.677  69.839  1.00  0.00     0.328 A  
HETATM    4  C   UNL     1      -8.664  19.414  68.970  1.00  0.00    -0.250 A  
HETATM    5  C   UNL     1      -8.442  19.416  67.590  1.00  0.00    -0.304 A  
HETATM    6  C   UNL     1      -6.118  19.951  67.947  1.00  0.00    -0.244 A  
HETATM    7  C   UNL     1      -7.176  19.695  67.072  1.00  0.00    -0.235 A  
ENDROOT
BRANCH   5   8
HETATM    8  S   UNL     1      -9.787  19.011  66.504  1.00  0.00    -0.390 S  
HETATM    9  O   UNL     1     -11.025  18.974  67.252  1.00  0.00    -0.459 OA 
HETATM   10  O   UNL     1      -9.656  19.861  65.334  1.00  0.00    -0.187 OA 
BRANCH   8  11
HETATM   11  N   UNL     1      -9.434  17.475  65.972  1.00  0.00    -0.138 N  
HETATM   12  H   UNL     1      -8.553  17.314  65.484  1.00  0.00     0.000 HD 
BRANCH  11  13
HETATM   13  C   UNL     1     -10.295  16.406  66.167  1.00  0.00    -0.344 C  
HETATM   14  O   UNL     1     -10.396  15.501  65.351  1.00  0.00    -0.350 OA 
BRANCH  13  15
HETATM   15  N   UNL     1     -11.029  16.494  67.338  1.00  0.00    -0.192 N  
HETATM   16  H   UNL     1     -11.665  17.282  67.461  1.00  0.00     0.000 HD 
BRANCH  15  17
HETATM   17  N   UNL     1     -10.929  15.521  68.380  1.00  0.00    -0.282 NA 
HETATM   18  C   UNL     1     -11.094  16.160  69.700  1.00  0.00    -0.344 C  
HETATM   19  C   UNL     1     -11.045  15.254  70.936  1.00  0.00    -0.343 C  
HETATM   20  C   UNL     1     -12.258  14.337  71.050  1.00  0.00    -0.428 C  
HETATM   21  C   UNL     1     -12.129  13.035  70.267  1.00  0.00    -0.388 C  
HETATM   22  C   UNL     1     -11.431  13.139  68.915  1.00  0.00    -0.343 C  
HETATM   23  C   UNL     1     -11.817  14.378  68.111  1.00  0.00    -0.327 C  
ENDBRANCH  15  17
ENDBRANCH  13  15
ENDBRANCH  11  13
ENDBRANCH   8  11
ENDBRANCH   5   8
TORSDOF 5
ENDMDL
MODEL      199
REMARK 921   NORMALIZED FREE ENERGY PREDICTED BY IDOCK:   -4.32 KCAL/MOL
REMARK 922        TOTAL FREE ENERGY PREDICTED BY IDOCK:   -6.12 KCAL/MOL
REMARK 923 INTER-LIGAND FREE ENERGY PREDICTED BY IDOCK:   -5.52 KCAL/MOL
REMARK 924 INTRA-LIGAND FREE ENERGY PREDICTED BY IDOCK:   -0.60 KCAL/MOL
REMARK 927      BINDING AFFINITY PREDICTED BY RF-SCORE:    0.00 PKD
ROOT
HETATM    1  C   UNL     1     -11.624   6.621  70.089  1.00  0.00    -0.446 C  
HETATM    2  C   UNL     1     -10.711   6.970  68.949  1.00  0.00    -0.227 A  
HETATM    3  C   UNL     1     -10.943   6.459  67.665  1.00  0.00    -0.441 A  
HETATM    4  C   UNL     1     -10.053   6.731  66.624  1.00  0.00    -0.205 A  
HETATM    5  C   UNL     1      -8.930   7.527  66.867  1.00  0.00    -0.135 A  
HETATM    6  C   UNL     1      -9.590   7.782  69.173  1.00  0.00    -0.155 A  
HETATM    7  C   UNL     1      -8.699   8.064  68.134  1.00  0.00    -0.126 A  
ENDROOT
BRANCH   5   8
HETATM    8  S   UNL     1      -7.773   7.805  65.550  1.00  0.00    -0.107 S  
HETATM    9  O   UNL     1      -6.423   7.622  66.039  1.00  0.00    -0.042 OA 
HETATM   10  O   UNL     1      -8.250   7.053  64.403  1.00  0.00    -0.084 OA 
BRANCH   8  11
HETATM   11  N   UNL     1      -7.988   9.404  65.147  1.00  0.00    -0.112 N  
HETATM   12  H   UNL     1      -7.426  10.110  65.623  1.00  0.00     0.000 HD 
BRANCH  11  13
HETATM   13  C   UNL     1      -8.903   9.812  64.189  1.00  0.00    -0.231 C  
HETATM   14  O   UNL     1      -8.617   9.858  63.001  1.00  0.00    -0.161 OA 
BRANCH  13  15
HETATM   15  N   UNL     1     -10.127  10.185  64.718  1.00  0.00    -0.340 N  
HETATM   16  H   UNL     1     -10.802   9.457  64.956  1.00  0.00     0.000 HD 
BRANCH  15  17
HETATM   17  N   UNL     1     -10.481  11.551  64.942  1.00  0.00    -0.276 NA 
HETATM   18  C   UNL     1     -11.440  12.011  63.919  1.00  0.00    -0.435 C  
HETATM   19  C   UNL     1     -11.953  13.451  64.027  1.00  0.00    -0.520 C  
HETATM   20  C   UNL     1     -12.877  13.667  65.221  1.00  0.00    -0.421 C  
HETATM   21  C   UNL     1     -12.148  13.981  66.522  1.00  0.00    -0.488 C  
HETATM   22  C   UNL     1     -10.842  13.228  66.750  1.00  0.00    -0.289 C  
HETATM   23  C   UNL     1     -10.894  11.759  66.340  1.00  0.00    -0.282 C  
ENDBRANCH  15  17
ENDBRANCH  13  15
ENDBRANCH  11  13
ENDBRANCH   8  11
ENDBRANCH   5   8
TORSDOF 5
ENDMDL
MODEL      200
REMARK 921   NORMALIZED FREE ENERGY PREDICTED BY IDOCK:   -4.28 KCAL/MOL
REMARK 922        TOTAL FREE ENERGY PREDICTED BY IDOCK:   -6.08 KCAL/MOL
REMARK 923 INTER-LIGAND FREE ENERGY PREDICTED BY IDOCK:   -5.13 KCAL/MOL
REMARK 924 INTRA-LIGAND FREE ENERGY PREDICTED BY IDOCK:   -0.94 KCAL/MOL
REMARK 927      BINDING AFFINITY PREDICTED BY RF-SCORE:    0.00 PKD
ROOT
HETATM    1  C   UNL     1      -8.588   6.700  66.733  1.00  0.00    -0.118 C  
HETATM    2  C   UNL     1      -9.087   8.033  66.253  1.00  0.00    -0.232 A  
HETATM    3  C   UNL     1     -10.110   8.702  66.937  1.00  0.00    -0.355 A  
HETATM    4  C   UNL     1     -10.617   9.908  66.448  1.00  0.00    -0.126 A  
HETATM    5  C   UNL     1     -10.090  10.452  65.273  1.00  0.00    -0.300 A  
HETATM    6  C   UNL     1      -8.555   8.601  65.086  1.00  0.00    -0.200 A  
HETATM    7  C   UNL     1      -9.052   9.810  64.595  1.00  0.00    -0.294 A  
ENDROOT
BRANCH   5   8
HETATM    8  S   UNL     1     -10.793  11.949  64.629  1.00  0.00    -0.327 S  
HETATM    9  O   UNL     1      -9.790  12.991  64.607  1.00  0.00    -0.156 OA 
HETATM   10  O   UNL     1     -11.512  11.591  63.419  1.00  0.00    -0.372 OA 
BRANCH   8  11
HETATM   11  N   UNL     1     -11.969  12.356  65.733  1.00  0.00    -0.417 N  
HETATM   12  H   UNL     1     -12.789  11.757  65.822  1.00  0.00     0.000 HD 
BRANCH  11  13
HETATM   13  C   UNL     1     -11.873  13.481  66.538  1.00  0.00    -0.399 C  
HETATM   14  O   UNL     1     -12.467  14.517  66.273  1.00  0.00    -0.316 OA 
BRANCH  13  15
HETATM   15  N   UNL     1     -11.028  13.316  67.622  1.00  0.00    -0.257 N  
HETATM   16  H   UNL     1     -11.339  12.742  68.405  1.00  0.00     0.000 HD 
BRANCH  15  17
HETATM   17  N   UNL     1      -9.734  13.920  67.683  1.00  0.00    -0.221 NA 
HETATM   18  C   UNL     1      -9.777  15.151  68.495  1.00  0.00    -0.214 C  
HETATM   19  C   UNL     1      -8.463  15.914  68.693  1.00  0.00    -0.200 C  
HETATM   20  C   UNL     1      -7.470  15.172  69.582  1.00  0.00    -0.181 C  
HETATM   21  C   UNL     1      -6.605  14.161  68.838  1.00  0.00    -0.099 C  
HETATM   22  C   UNL     1      -7.301  13.381  67.728  1.00  0.00    -0.158 C  
HETATM   23  C   UNL     1      -8.717  12.932  68.079  1.00  0.00    -0.191 C  
ENDBRANCH  15  17
ENDBRANCH  13  15
ENDBRANCH  11  13
ENDBRANCH   8  11
ENDBRANCH   5   8
TORSDOF 5
ENDMDL
MODEL      201
REMARK 921   NORMALIZED FREE ENERGY PREDICTED BY IDOCK:   -4.26 KCAL/MOL
REMARK 922        TOTAL FREE ENERGY PREDICTED BY IDOCK:   -6.04 KCAL/MOL
REMARK 923 INTER-LIGAND FREE ENERGY PREDICTED BY IDOCK:   -5.52 KCAL/MOL
REMARK 924 INTRA-LIGAND FREE ENERGY PREDICTED BY IDOCK:   -0.53 KCAL/MOL
REMARK 927      BINDING AFFINITY PREDICTED BY RF-SCORE:    0.00 PKD
ROOT
HETATM    1  C   UNL     1     -12.524  16.013  72.077  1.00  0.00    -0.498 C  
HETATM    2  C   UNL     1     -12.206  15.001  71.015  1.00  0.00    -0.386 A  
HETATM    3  C   UNL     1     -11.695  15.402  69.773  1.00  0.00    -0.352 A  
HETATM    4  C   UNL     1     -11.466  14.464  68.765  1.00  0.00    -0.319 A  
HETATM    5  C   UNL     1     -11.740  13.114  69.004  1.00  0.00    -0.321 A  
HETATM    6  C   UNL     1     -12.458  13.640  71.246  1.00  0.00    -0.412 A  
HETATM    7  C   UNL     1     -12.225  12.695  70.244  1.00  0.00    -0.347 A  
ENDROOT
BRANCH   5   8
HETATM    8  S   UNL     1     -11.508  11.945  67.689  1.00  0.00    -0.310 S  
HETATM    9  O   UNL     1     -11.906  10.626  68.132  1.00  0.00    -0.482 OA 
HETATM   10  O   UNL     1     -12.093  12.530  66.495  1.00  0.00    -0.572 OA 
BRANCH   8  11
HETATM   11  N   UNL     1      -9.867  11.950  67.422  1.00  0.00    -0.182 N  
HETATM   12  H   UNL     1      -9.524  12.067  66.468  1.00  0.00     0.000 HD 
BRANCH  11  13
HETATM   13  C   UNL     1      -8.947  11.802  68.449  1.00  0.00    -0.168 C  
HETATM   14  O   UNL     1      -7.945  12.498  68.524  1.00  0.00    -0.142 OA 
BRANCH  13  15
HETATM   15  N   UNL     1      -9.264  10.782  69.331  1.00  0.00    -0.410 N  
HETATM   16  H   UNL     1      -9.988  10.945  70.030  1.00  0.00     0.000 HD 
BRANCH  15  17
HETATM   17  N   UNL     1      -8.611   9.511  69.299  1.00  0.00    -0.139 NA 
HETATM   18  C   UNL     1      -8.993   8.765  68.085  1.00  0.00    -0.141 C  
HETATM   19  C   UNL     1      -8.358   7.386  67.873  1.00  0.00    -0.119 C  
HETATM   20  C   UNL     1      -6.868   7.459  67.555  1.00  0.00    -0.078 C  
HETATM   21  C   UNL     1      -5.972   7.524  68.786  1.00  0.00    -0.027 C  
HETATM   22  C   UNL     1      -6.501   8.356  69.950  1.00  0.00    -0.035 C  
HETATM   23  C   UNL     1      -7.164   9.663  69.525  1.00  0.00    -0.080 C  
ENDBRANCH  15  17
ENDBRANCH  13  15
ENDBRANCH  11  13
ENDBRANCH   8  11
ENDBRANCH   5   8
TORSDOF 5
ENDMDL
MODEL      202
REMARK 921   NORMALIZED FREE ENERGY PREDICTED BY IDOCK:   -4.24 KCAL/MOL
REMARK 922        TOTAL FREE ENERGY PREDICTED BY IDOCK:   -6.02 KCAL/MOL
REMARK 923 INTER-LIGAND FREE ENERGY PREDICTED BY IDOCK:   -5.46 KCAL/MOL
REMARK 924 INTRA-LIGAND FREE ENERGY PREDICTED BY IDOCK:   -0.55 KCAL/MOL
REMARK 927      BINDING AFFINITY PREDICTED BY RF-SCORE:    0.00 PKD
ROOT
HETATM    1  C   UNL     1     -12.947  13.685  71.294  1.00  0.00    -0.399 C  
HETATM    2  C   UNL     1     -12.398  14.182  69.989  1.00  0.00    -0.403 A  
HETATM    3  C   UNL     1     -12.302  13.329  68.881  1.00  0.00     0.046 A  
HETATM    4  C   UNL     1     -11.727  13.778  67.690  1.00  0.00    -0.402 A  
HETATM    5  C   UNL     1     -11.255  15.092  67.605  1.00  0.00    -0.326 A  
HETATM    6  C   UNL     1     -11.937  15.503  69.881  1.00  0.00    -0.381 A  
HETATM    7  C   UNL     1     -11.367  15.961  68.691  1.00  0.00    -0.376 A  
ENDROOT
BRANCH   5   8
HETATM    8  S   UNL     1     -10.465  15.624  66.107  1.00  0.00    -0.330 S  
HETATM    9  O   UNL     1     -11.219  15.156  64.964  1.00  0.00    -0.376 OA 
HETATM   10  O   UNL     1     -10.165  17.036  66.265  1.00  0.00    -0.311 OA 
BRANCH   8  11
HETATM   11  N   UNL     1      -8.989  14.857  66.128  1.00  0.00    -0.489 N  
HETATM   12  H   UNL     1      -8.587  14.540  65.246  1.00  0.00     0.000 HD 
BRANCH  11  13
HETATM   13  C   UNL     1      -8.286  14.632  67.301  1.00  0.00    -0.212 C  
HETATM   14  O   UNL     1      -7.792  15.548  67.944  1.00  0.00    -0.122 OA 
BRANCH  13  15
HETATM   15  N   UNL     1      -8.179  13.292  67.634  1.00  0.00    -0.165 N  
HETATM   16  H   UNL     1      -7.985  13.041  68.603  1.00  0.00     0.000 HD 
BRANCH  15  17
HETATM   17  N   UNL     1      -8.331  12.249  66.669  1.00  0.00    -0.080 NA 
HETATM   18  C   UNL     1      -7.093  11.451  66.572  1.00  0.00    -0.058 C  
HETATM   19  C   UNL     1      -7.090  10.264  65.602  1.00  0.00    -0.137 C  
HETATM   20  C   UNL     1      -7.985   9.117  66.061  1.00  0.00    -0.103 C  
HETATM   21  C   UNL     1      -9.445   9.266  65.651  1.00  0.00    -0.324 C  
HETATM   22  C   UNL     1     -10.009  10.682  65.701  1.00  0.00    -0.327 C  
HETATM   23  C   UNL     1      -9.563  11.483  66.920  1.00  0.00    -0.187 C  
ENDBRANCH  15  17
ENDBRANCH  13  15
ENDBRANCH  11  13
ENDBRANCH   8  11
ENDBRANCH   5   8
TORSDOF 5
ENDMDL
MODEL      203
REMARK 921   NORMALIZED FREE ENERGY PREDICTED BY IDOCK:   -4.22 KCAL/MOL
REMARK 922        TOTAL FREE ENERGY PREDICTED BY IDOCK:   -5.99 KCAL/MOL
REMARK 923 INTER-LIGAND FREE ENERGY PREDICTED BY IDOCK:   -5.42 KCAL/MOL
REMARK 924 INTRA-LIGAND FREE ENERGY PREDICTED BY IDOCK:   -0.58 KCAL/MOL
REMARK 927      BINDING AFFINITY PREDICTED BY RF-SCORE:    0.00 PKD
ROOT
HETATM    1  C   UNL     1     -11.659  15.856  64.347  1.00  0.00    -0.234 C  
HETATM    2  C   UNL     1     -11.533  14.823  65.430  1.00  0.00    -0.341 A  
HETATM    3  C   UNL     1     -11.705  13.462  65.144  1.00  0.00    -0.345 A  
HETATM    4  C   UNL     1     -11.654  12.513  66.166  1.00  0.00    -0.448 A  
HETATM    5  C   UNL     1     -11.422  12.927  67.481  1.00  0.00    -0.335 A  
HETATM    6  C   UNL     1     -11.282  15.221  66.751  1.00  0.00    -0.241 A  
HETATM    7  C   UNL     1     -11.223  14.276  67.778  1.00  0.00    -0.309 A  
ENDROOT
BRANCH   5   8
HETATM    8  S   UNL     1     -11.430  11.714  68.777  1.00  0.00    -0.315 S  
HETATM    9  O   UNL     1     -12.057  12.266  69.959  1.00  0.00    -0.314 OA 
HETATM   10  O   UNL     1     -11.917  10.476  68.194  1.00  0.00    -0.375 OA 
BRANCH   8  11
HETATM   11  N   UNL     1      -9.820  11.446  69.097  1.00  0.00    -0.415 N  
HETATM   12  H   UNL     1      -9.340  12.062  69.752  1.00  0.00     0.000 HD 
BRANCH  11  13
HETATM   13  C   UNL     1      -9.108  10.415  68.505  1.00  0.00    -0.145 C  
HETATM   14  O   UNL     1      -8.871  10.399  67.305  1.00  0.00    -0.132 OA 
BRANCH  13  15
HETATM   15  N   UNL     1      -8.737   9.418  69.392  1.00  0.00    -0.147 N  
HETATM   16  H   UNL     1      -8.315   9.685  70.282  1.00  0.00     0.000 HD 
BRANCH  15  17
HETATM   17  N   UNL     1      -8.923   8.030  69.107  1.00  0.00    -0.145 NA 
HETATM   18  C   UNL     1      -7.790   7.240  69.623  1.00  0.00    -0.118 C  
HETATM   19  C   UNL     1      -7.841   5.720  69.431  1.00  0.00    -0.093 C  
HETATM   20  C   UNL     1      -8.908   5.047  70.288  1.00  0.00    -0.143 C  
HETATM   21  C   UNL     1     -10.294   5.030  69.654  1.00  0.00    -0.260 C  
HETATM   22  C   UNL     1     -10.683   6.280  68.872  1.00  0.00    -0.357 C  
HETATM   23  C   UNL     1     -10.259   7.586  69.540  1.00  0.00    -0.207 C  
ENDBRANCH  15  17
ENDBRANCH  13  15
ENDBRANCH  11  13
ENDBRANCH   8  11
ENDBRANCH   5   8
TORSDOF 5
ENDMDL
MODEL      204
REMARK 921   NORMALIZED FREE ENERGY PREDICTED BY IDOCK:   -4.22 KCAL/MOL
REMARK 922        TOTAL FREE ENERGY PREDICTED BY IDOCK:   -5.99 KCAL/MOL
REMARK 923 INTER-LIGAND FREE ENERGY PREDICTED BY IDOCK:   -4.75 KCAL/MOL
REMARK 924 INTRA-LIGAND FREE ENERGY PREDICTED BY IDOCK:   -1.23 KCAL/MOL
REMARK 927      BINDING AFFINITY PREDICTED BY RF-SCORE:    0.00 PKD
ROOT
HETATM    1  C   UNL     1      -8.709   5.019  66.169  1.00  0.00    -0.120 C  
HETATM    2  C   UNL     1      -9.034   6.485  66.160  1.00  0.00    -0.161 A  
HETATM    3  C   UNL     1     -10.026   7.004  67.002  1.00  0.00    -0.273 A  
HETATM    4  C   UNL     1     -10.371   8.356  66.940  1.00  0.00    -0.378 A  
HETATM    5  C   UNL     1      -9.711   9.195  66.037  1.00  0.00    -0.287 A  
HETATM    6  C   UNL     1      -8.367   7.343  65.273  1.00  0.00    -0.110 A  
HETATM    7  C   UNL     1      -8.702   8.698  65.211  1.00  0.00    -0.200 A  
ENDROOT
BRANCH   5   8
HETATM    8  S   UNL     1     -10.210  10.895  65.923  1.00  0.00    -0.252 S  
HETATM    9  O   UNL     1      -9.062  11.754  66.115  1.00  0.00    -0.215 OA 
HETATM   10  O   UNL     1     -11.031  11.015  64.732  1.00  0.00    -0.224 OA 
BRANCH   8  11
HETATM   11  N   UNL     1     -11.255  11.100  67.200  1.00  0.00    -0.291 N  
HETATM   12  H   UNL     1     -12.038  10.454  67.304  1.00  0.00     0.000 HD 
BRANCH  11  13
HETATM   13  C   UNL     1     -11.102  12.118  68.129  1.00  0.00    -0.248 C  
HETATM   14  O   UNL     1     -11.678  13.191  68.013  1.00  0.00    -0.317 OA 
BRANCH  13  15
HETATM   15  N   UNL     1     -10.222  11.805  69.152  1.00  0.00    -0.418 N  
HETATM   16  H   UNL     1      -9.867  12.557  69.742  1.00  0.00     0.000 HD 
BRANCH  15  17
HETATM   17  N   UNL     1      -9.793  10.466  69.411  1.00  0.00    -0.225 NA 
HETATM   18  C   UNL     1      -8.323  10.408  69.528  1.00  0.00    -0.113 C  
HETATM   19  C   UNL     1      -7.691   9.047  69.838  1.00  0.00    -0.076 C  
HETATM   20  C   UNL     1      -7.984   8.562  71.254  1.00  0.00    -0.158 C  
HETATM   21  C   UNL     1      -9.308   7.820  71.395  1.00  0.00    -0.165 C  
HETATM   22  C   UNL     1     -10.467   8.364  70.567  1.00  0.00    -0.227 C  
HETATM   23  C   UNL     1     -10.545   9.888  70.537  1.00  0.00    -0.293 C  
ENDBRANCH  15  17
ENDBRANCH  13  15
ENDBRANCH  11  13
ENDBRANCH   8  11
ENDBRANCH   5   8
TORSDOF 5
ENDMDL
MODEL      205
REMARK 921   NORMALIZED FREE ENERGY PREDICTED BY IDOCK:   -4.21 KCAL/MOL
REMARK 922        TOTAL FREE ENERGY PREDICTED BY IDOCK:   -5.98 KCAL/MOL
REMARK 923 INTER-LIGAND FREE ENERGY PREDICTED BY IDOCK:   -5.46 KCAL/MOL
REMARK 924 INTRA-LIGAND FREE ENERGY PREDICTED BY IDOCK:   -0.52 KCAL/MOL
REMARK 927      BINDING AFFINITY PREDICTED BY RF-SCORE:    0.00 PKD
ROOT
HETATM    1  C   UNL     1      -5.171  11.337  69.081  1.00  0.00    -0.043 C  
HETATM    2  C   UNL     1      -6.484  10.610  69.022  1.00  0.00    -0.052 A  
HETATM    3  C   UNL     1      -7.098  10.341  67.792  1.00  0.00    -0.085 A  
HETATM    4  C   UNL     1      -8.351   9.726  67.746  1.00  0.00    -0.114 A  
HETATM    5  C   UNL     1      -8.988   9.370  68.939  1.00  0.00    -0.136 A  
HETATM    6  C   UNL     1      -7.127  10.229  70.209  1.00  0.00    -0.114 A  
HETATM    7  C   UNL     1      -8.377   9.608  70.171  1.00  0.00    -0.221 A  
ENDROOT
BRANCH   5   8
HETATM    8  S   UNL     1     -10.610   8.652  68.865  1.00  0.00    -0.086 S  
HETATM    9  O   UNL     1     -10.622   7.569  67.905  1.00  0.00    -0.219 OA 
HETATM   10  O   UNL     1     -11.037   8.429  70.235  1.00  0.00    -0.249 OA 
BRANCH   8  11
HETATM   11  N   UNL     1     -11.576   9.882  68.299  1.00  0.00    -0.412 N  
HETATM   12  H   UNL     1     -12.206   9.694  67.519  1.00  0.00     0.000 HD 
BRANCH  11  13
HETATM   13  C   UNL     1     -11.556  11.155  68.849  1.00  0.00    -0.317 C  
HETATM   14  O   UNL     1     -11.923  11.368  69.996  1.00  0.00    -0.310 OA 
BRANCH  13  15
HETATM   15  N   UNL     1     -11.121  12.131  67.969  1.00  0.00    -0.227 N  
HETATM   16  H   UNL     1     -10.258  12.632  68.178  1.00  0.00     0.000 HD 
BRANCH  15  17
HETATM   17  N   UNL     1     -11.837  12.462  66.777  1.00  0.00    -0.562 NA 
HETATM   18  C   UNL     1     -12.142  13.906  66.742  1.00  0.00    -0.439 C  
HETATM   19  C   UNL     1     -12.883  14.443  65.512  1.00  0.00    -0.243 C  
HETATM   20  C   UNL     1     -12.030  14.428  64.249  1.00  0.00    -0.433 C  
HETATM   21  C   UNL     1     -12.048  13.099  63.502  1.00  0.00    -0.585 C  
HETATM   22  C   UNL     1     -12.065  11.848  64.373  1.00  0.00    -0.305 C  
HETATM   23  C   UNL     1     -11.148  11.928  65.591  1.00  0.00    -0.310 C  
ENDBRANCH  15  17
ENDBRANCH  13  15
ENDBRANCH  11  13
ENDBRANCH   8  11
ENDBRANCH   5   8
TORSDOF 5
ENDMDL
MODEL      206
REMARK 921   NORMALIZED FREE ENERGY PREDICTED BY IDOCK:   -4.20 KCAL/MOL
REMARK 922        TOTAL FREE ENERGY PREDICTED BY IDOCK:   -5.96 KCAL/MOL
REMARK 923 INTER-LIGAND FREE ENERGY PREDICTED BY IDOCK:   -5.53 KCAL/MOL
REMARK 924 INTRA-LIGAND FREE ENERGY PREDICTED BY IDOCK:   -0.43 KCAL/MOL
REMARK 927      BINDING AFFINITY PREDICTED BY RF-SCORE:    0.00 PKD
ROOT
HETATM    1  C   UNL     1      -8.171   5.277  65.936  1.00  0.00    -0.117 C  
HETATM    2  C   UNL     1      -8.306   6.703  66.387  1.00  0.00    -0.121 A  
HETATM    3  C   UNL     1      -9.318   7.079  67.279  1.00  0.00    -0.153 A  
HETATM    4  C   UNL     1      -9.481   8.417  67.642  1.00  0.00    -0.176 A  
HETATM    5  C   UNL     1      -8.617   9.384  67.116  1.00  0.00    -0.128 A  
HETATM    6  C   UNL     1      -7.436   7.681  65.883  1.00  0.00    -0.082 A  
HETATM    7  C   UNL     1      -7.588   9.021  66.246  1.00  0.00    -0.092 A  
ENDROOT
BRANCH   5   8
HETATM    8  S   UNL     1      -8.882  11.089  67.533  1.00  0.00    -0.131 S  
HETATM    9  O   UNL     1      -7.809  11.555  68.384  1.00  0.00    -0.122 OA 
HETATM   10  O   UNL     1      -9.198  11.783  66.297  1.00  0.00    -0.216 OA 
BRANCH   8  11
HETATM   11  N   UNL     1     -10.297  11.081  68.406  1.00  0.00    -0.175 N  
HETATM   12  H   UNL     1     -10.540  10.248  68.942  1.00  0.00     0.000 HD 
BRANCH  11  13
HETATM   13  C   UNL     1     -11.159  12.167  68.433  1.00  0.00    -0.245 C  
HETATM   14  O   UNL     1     -12.140  12.231  67.707  1.00  0.00    -0.478 OA 
BRANCH  13  15
HETATM   15  N   UNL     1     -10.774  13.156  69.323  1.00  0.00    -0.440 N  
HETATM   16  H   UNL     1      -9.781  13.359  69.433  1.00  0.00     0.000 HD 
BRANCH  15  17
HETATM   17  N   UNL     1     -11.718  13.903  70.094  1.00  0.00    -0.268 NA 
HETATM   18  C   UNL     1     -12.516  13.002  70.947  1.00  0.00    -0.310 C  
HETATM   19  C   UNL     1     -13.561  13.642  71.868  1.00  0.00    -0.512 C  
HETATM   20  C   UNL     1     -12.941  14.438  73.011  1.00  0.00    -0.571 C  
HETATM   21  C   UNL     1     -12.590  15.876  72.648  1.00  0.00    -0.562 C  
HETATM   22  C   UNL     1     -12.042  16.092  71.241  1.00  0.00    -0.440 C  
HETATM   23  C   UNL     1     -11.055  15.018  70.790  1.00  0.00    -0.190 C  
ENDBRANCH  15  17
ENDBRANCH  13  15
ENDBRANCH  11  13
ENDBRANCH   8  11
ENDBRANCH   5   8
TORSDOF 5
ENDMDL
MODEL      207
REMARK 921   NORMALIZED FREE ENERGY PREDICTED BY IDOCK:   -4.19 KCAL/MOL
REMARK 922        TOTAL FREE ENERGY PREDICTED BY IDOCK:   -5.95 KCAL/MOL
REMARK 923 INTER-LIGAND FREE ENERGY PREDICTED BY IDOCK:   -5.47 KCAL/MOL
REMARK 924 INTRA-LIGAND FREE ENERGY PREDICTED BY IDOCK:   -0.48 KCAL/MOL
REMARK 927      BINDING AFFINITY PREDICTED BY RF-SCORE:    0.00 PKD
ROOT
HETATM    1  C   UNL     1      -6.327  20.408  68.506  1.00  0.00    -0.349 C  
HETATM    2  C   UNL     1      -7.109  19.191  68.105  1.00  0.00    -0.289 A  
HETATM    3  C   UNL     1      -6.961  17.984  68.801  1.00  0.00    -0.264 A  
HETATM    4  C   UNL     1      -7.640  16.837  68.382  1.00  0.00    -0.205 A  
HETATM    5  C   UNL     1      -8.479  16.902  67.265  1.00  0.00    -0.196 A  
HETATM    6  C   UNL     1      -7.970  19.245  66.998  1.00  0.00    -0.277 A  
HETATM    7  C   UNL     1      -8.657  18.104  66.577  1.00  0.00    -0.282 A  
ENDROOT
BRANCH   5   8
HETATM    8  S   UNL     1      -9.278  15.420  66.705  1.00  0.00    -0.297 S  
HETATM    9  O   UNL     1      -9.855  15.640  65.396  1.00  0.00    -0.310 OA 
HETATM   10  O   UNL     1      -8.347  14.328  66.927  1.00  0.00    -0.172 OA 
BRANCH   8  11
HETATM   11  N   UNL     1     -10.507  15.179  67.800  1.00  0.00    -0.244 N  
HETATM   12  H   UNL     1     -10.599  15.824  68.585  1.00  0.00     0.000 HD 
BRANCH  11  13
HETATM   13  C   UNL     1     -11.410  14.134  67.685  1.00  0.00    -0.319 C  
HETATM   14  O   UNL     1     -12.422  14.226  67.005  1.00  0.00    -0.304 OA 
BRANCH  13  15
HETATM   15  N   UNL     1     -11.065  13.020  68.433  1.00  0.00    -0.247 N  
HETATM   16  H   UNL     1     -11.389  12.957  69.397  1.00  0.00     0.000 HD 
BRANCH  15  17
HETATM   17  N   UNL     1     -10.271  11.957  67.902  1.00  0.00    -0.189 NA 
HETATM   18  C   UNL     1     -10.285  10.797  68.814  1.00  0.00    -0.193 C  
HETATM   19  C   UNL     1      -9.506   9.549  68.384  1.00  0.00    -0.144 C  
HETATM   20  C   UNL     1     -10.142   8.829  67.199  1.00  0.00    -0.320 C  
HETATM   21  C   UNL     1      -9.727   9.382  65.841  1.00  0.00    -0.355 C  
HETATM   22  C   UNL     1      -9.566  10.896  65.760  1.00  0.00    -0.259 C  
HETATM   23  C   UNL     1     -10.646  11.674  66.507  1.00  0.00    -0.253 C  
ENDBRANCH  15  17
ENDBRANCH  13  15
ENDBRANCH  11  13
ENDBRANCH   8  11
ENDBRANCH   5   8
TORSDOF 5
ENDMDL
MODEL      208
REMARK 921   NORMALIZED FREE ENERGY PREDICTED BY IDOCK:   -4.19 KCAL/MOL
REMARK 922        TOTAL FREE ENERGY PREDICTED BY IDOCK:   -5.95 KCAL/MOL
REMARK 923 INTER-LIGAND FREE ENERGY PREDICTED BY IDOCK:   -4.47 KCAL/MOL
REMARK 924 INTRA-LIGAND FREE ENERGY PREDICTED BY IDOCK:   -1.48 KCAL/MOL
REMARK 927      BINDING AFFINITY PREDICTED BY RF-SCORE:    0.00 PKD
ROOT
HETATM    1  C   UNL     1     -11.784  11.102  68.756  1.00  0.00    -0.394 C  
HETATM    2  C   UNL     1     -11.106  10.768  67.458  1.00  0.00    -0.374 A  
HETATM    3  C   UNL     1     -10.555   9.497  67.245  1.00  0.00    -0.317 A  
HETATM    4  C   UNL     1      -9.867   9.213  66.064  1.00  0.00    -0.342 A  
HETATM    5  C   UNL     1      -9.737  10.204  65.086  1.00  0.00    -0.304 A  
HETATM    6  C   UNL     1     -10.984  11.745  66.460  1.00  0.00    -0.342 A  
HETATM    7  C   UNL     1     -10.302  11.466  65.273  1.00  0.00    -0.336 A  
ENDROOT
BRANCH   5   8
HETATM    8  S   UNL     1      -8.799   9.848  63.622  1.00  0.00    -0.253 S  
HETATM    9  O   UNL     1      -8.236   8.518  63.714  1.00  0.00    -0.161 OA 
HETATM   10  O   UNL     1      -9.626  10.223  62.489  1.00  0.00    -0.302 OA 
BRANCH   8  11
HETATM   11  N   UNL     1      -7.561  10.959  63.649  1.00  0.00    -0.270 N  
HETATM   12  H   UNL     1      -7.788  11.950  63.565  1.00  0.00     0.000 HD 
BRANCH  11  13
HETATM   13  C   UNL     1      -6.232  10.586  63.781  1.00  0.00     0.001 C  
HETATM   14  O   UNL     1      -5.598  10.112  62.848  1.00  0.00    -0.102 OA 
BRANCH  13  15
HETATM   15  N   UNL     1      -5.730  10.773  65.058  1.00  0.00    -0.326 N  
HETATM   16  H   UNL     1      -4.769  11.098  65.165  1.00  0.00     0.000 HD 
BRANCH  15  17
HETATM   17  N   UNL     1      -6.508  10.525  66.231  1.00  0.00    -0.104 NA 
HETATM   18  C   UNL     1      -6.126   9.236  66.841  1.00  0.00    -0.064 C  
HETATM   19  C   UNL     1      -6.843   8.825  68.132  1.00  0.00    -0.069 C  
HETATM   20  C   UNL     1      -6.458   9.689  69.328  1.00  0.00    -0.044 C  
HETATM   21  C   UNL     1      -7.270  10.972  69.455  1.00  0.00    -0.114 C  
HETATM   22  C   UNL     1      -7.617  11.672  68.145  1.00  0.00    -0.115 C  
HETATM   23  C   UNL     1      -6.477  11.689  67.131  1.00  0.00    -0.137 C  
ENDBRANCH  15  17
ENDBRANCH  13  15
ENDBRANCH  11  13
ENDBRANCH   8  11
ENDBRANCH   5   8
TORSDOF 5
ENDMDL
MODEL      209
REMARK 921   NORMALIZED FREE ENERGY PREDICTED BY IDOCK:   -4.19 KCAL/MOL
REMARK 922        TOTAL FREE ENERGY PREDICTED BY IDOCK:   -5.95 KCAL/MOL
REMARK 923 INTER-LIGAND FREE ENERGY PREDICTED BY IDOCK:   -5.16 KCAL/MOL
REMARK 924 INTRA-LIGAND FREE ENERGY PREDICTED BY IDOCK:   -0.80 KCAL/MOL
REMARK 927      BINDING AFFINITY PREDICTED BY RF-SCORE:    0.00 PKD
ROOT
HETATM    1  C   UNL     1     -12.516  13.304  70.591  1.00  0.00    -0.373 C  
HETATM    2  C   UNL     1     -12.278  11.825  70.684  1.00  0.00    -0.443 A  
HETATM    3  C   UNL     1     -12.969  11.046  71.622  1.00  0.00    -0.561 A  
HETATM    4  C   UNL     1     -12.695   9.683  71.750  1.00  0.00    -0.510 A  
HETATM    5  C   UNL     1     -11.728   9.094  70.929  1.00  0.00    -0.284 A  
HETATM    6  C   UNL     1     -11.325  11.215  69.854  1.00  0.00    -0.348 A  
HETATM    7  C   UNL     1     -11.050   9.851  69.973  1.00  0.00    -0.335 A  
ENDROOT
BRANCH   5   8
HETATM    8  S   UNL     1     -11.343   7.376  71.154  1.00  0.00    -0.276 S  
HETATM    9  O   UNL     1     -11.624   6.987  72.519  1.00  0.00    -0.264 OA 
HETATM   10  O   UNL     1     -11.944   6.659  70.043  1.00  0.00    -0.340 OA 
BRANCH   8  11
HETATM   11  N   UNL     1      -9.702   7.288  70.896  1.00  0.00    -0.171 N  
HETATM   12  H   UNL     1      -9.269   7.954  70.256  1.00  0.00     0.000 HD 
BRANCH  11  13
HETATM   13  C   UNL     1      -8.902   6.343  71.519  1.00  0.00    -0.137 C  
HETATM   14  O   UNL     1      -7.823   6.636  72.015  1.00  0.00    -0.097 OA 
BRANCH  13  15
HETATM   15  N   UNL     1      -9.430   5.063  71.486  1.00  0.00    -0.148 N  
HETATM   16  H   UNL     1     -10.229   4.845  72.080  1.00  0.00     0.000 HD 
BRANCH  15  17
HETATM   17  N   UNL     1      -8.895   4.035  70.648  1.00  0.00    -0.076 NA 
HETATM   18  C   UNL     1      -9.419   2.716  71.050  1.00  0.00    -0.154 C  
HETATM   19  C   UNL     1      -8.972   1.498  70.235  1.00  0.00    -0.130 C  
HETATM   20  C   UNL     1      -9.554   1.478  68.825  1.00  0.00    -0.175 C  
HETATM   21  C   UNL     1      -8.747   2.277  67.808  1.00  0.00    -0.139 C  
HETATM   22  C   UNL     1      -8.139   3.580  68.317  1.00  0.00    -0.079 C  
HETATM   23  C   UNL     1      -9.066   4.382  69.227  1.00  0.00    -0.117 C  
ENDBRANCH  15  17
ENDBRANCH  13  15
ENDBRANCH  11  13
ENDBRANCH   8  11
ENDBRANCH   5   8
TORSDOF 5
ENDMDL
MODEL      210
REMARK 921   NORMALIZED FREE ENERGY PREDICTED BY IDOCK:   -4.18 KCAL/MOL
REMARK 922        TOTAL FREE ENERGY PREDICTED BY IDOCK:   -5.94 KCAL/MOL
REMARK 923 INTER-LIGAND FREE ENERGY PREDICTED BY IDOCK:   -5.31 KCAL/MOL
REMARK 924 INTRA-LIGAND FREE ENERGY PREDICTED BY IDOCK:   -0.63 KCAL/MOL
REMARK 927      BINDING AFFINITY PREDICTED BY RF-SCORE:    0.00 PKD
ROOT
HETATM    1  C   UNL     1      -7.872   8.213  72.697  1.00  0.00    -0.190 C  
HETATM    2  C   UNL     1      -8.201   8.248  71.232  1.00  0.00    -0.147 A  
HETATM    3  C   UNL     1      -8.969   9.290  70.696  1.00  0.00    -0.296 A  
HETATM    4  C   UNL     1      -9.329   9.282  69.347  1.00  0.00    -0.164 A  
HETATM    5  C   UNL     1      -8.910   8.229  68.528  1.00  0.00    -0.137 A  
HETATM    6  C   UNL     1      -7.772   7.209  70.393  1.00  0.00    -0.095 A  
HETATM    7  C   UNL     1      -8.123   7.197  69.041  1.00  0.00    -0.121 A  
ENDROOT
BRANCH   5   8
HETATM    8  S   UNL     1      -9.436   8.199  66.832  1.00  0.00    -0.207 S  
HETATM    9  O   UNL     1      -9.171   6.896  66.262  1.00  0.00    -0.160 OA 
HETATM   10  O   UNL     1     -10.774   8.763  66.795  1.00  0.00    -0.206 OA 
BRANCH   8  11
HETATM   11  N   UNL     1      -8.465   9.322  66.083  1.00  0.00    -0.125 N  
HETATM   12  H   UNL     1      -7.600   9.608  66.543  1.00  0.00     0.000 HD 
BRANCH  11  13
HETATM   13  C   UNL     1      -8.788   9.884  64.858  1.00  0.00    -0.193 C  
HETATM   14  O   UNL     1      -8.794   9.226  63.827  1.00  0.00    -0.201 OA 
BRANCH  13  15
HETATM   15  N   UNL     1      -9.059  11.241  64.926  1.00  0.00    -0.379 N  
HETATM   16  H   UNL     1      -8.336  11.901  64.641  1.00  0.00     0.000 HD 
BRANCH  15  17
HETATM   17  N   UNL     1     -10.316  11.749  65.381  1.00  0.00    -0.257 NA 
HETATM   18  C   UNL     1     -10.210  12.214  66.777  1.00  0.00    -0.203 C  
HETATM   19  C   UNL     1     -11.463  12.821  67.417  1.00  0.00    -0.396 C  
HETATM   20  C   UNL     1     -11.838  14.176  66.825  1.00  0.00    -0.449 C  
HETATM   21  C   UNL     1     -12.696  14.089  65.569  1.00  0.00    -0.517 C  
HETATM   22  C   UNL     1     -12.356  12.953  64.609  1.00  0.00    -0.501 C  
HETATM   23  C   UNL     1     -10.858  12.727  64.423  1.00  0.00    -0.368 C  
ENDBRANCH  15  17
ENDBRANCH  13  15
ENDBRANCH  11  13
ENDBRANCH   8  11
ENDBRANCH   5   8
TORSDOF 5
ENDMDL
MODEL      211
REMARK 921   NORMALIZED FREE ENERGY PREDICTED BY IDOCK:   -4.18 KCAL/MOL
REMARK 922        TOTAL FREE ENERGY PREDICTED BY IDOCK:   -5.93 KCAL/MOL
REMARK 923 INTER-LIGAND FREE ENERGY PREDICTED BY IDOCK:   -5.15 KCAL/MOL
REMARK 924 INTRA-LIGAND FREE ENERGY PREDICTED BY IDOCK:   -0.78 KCAL/MOL
REMARK 927      BINDING AFFINITY PREDICTED BY RF-SCORE:    0.00 PKD
ROOT
HETATM    1  C   UNL     1     -12.236   8.620  72.547  1.00  0.00    -0.374 C  
HETATM    2  C   UNL     1     -11.077   8.278  71.655  1.00  0.00    -0.326 A  
HETATM    3  C   UNL     1     -10.064   9.214  71.408  1.00  0.00    -0.392 A  
HETATM    4  C   UNL     1      -9.024   8.916  70.525  1.00  0.00    -0.224 A  
HETATM    5  C   UNL     1      -8.994   7.669  69.892  1.00  0.00    -0.144 A  
HETATM    6  C   UNL     1     -11.022   7.025  71.028  1.00  0.00    -0.279 A  
HETATM    7  C   UNL     1      -9.982   6.717  70.148  1.00  0.00    -0.190 A  
ENDROOT
BRANCH   5   8
HETATM    8  S   UNL     1      -7.704   7.332  68.720  1.00  0.00    -0.122 S  
HETATM    9  O   UNL     1      -6.821   8.475  68.624  1.00  0.00    -0.061 OA 
HETATM   10  O   UNL     1      -7.176   6.017  69.038  1.00  0.00    -0.078 OA 
BRANCH   8  11
HETATM   11  N   UNL     1      -8.504   7.146  67.274  1.00  0.00    -0.121 N  
HETATM   12  H   UNL     1      -8.210   6.402  66.642  1.00  0.00     0.000 HD 
BRANCH  11  13
HETATM   13  C   UNL     1      -9.556   7.966  66.897  1.00  0.00    -0.203 C  
HETATM   14  O   UNL     1     -10.689   7.533  66.740  1.00  0.00    -0.319 OA 
BRANCH  13  15
HETATM   15  N   UNL     1      -9.183   9.284  66.688  1.00  0.00    -0.141 N  
HETATM   16  H   UNL     1      -8.271   9.595  67.023  1.00  0.00     0.000 HD 
BRANCH  15  17
HETATM   17  N   UNL     1     -10.029  10.224  66.022  1.00  0.00    -0.233 NA 
HETATM   18  C   UNL     1     -10.129  11.472  66.802  1.00  0.00    -0.215 C  
HETATM   19  C   UNL     1     -10.977  12.606  66.216  1.00  0.00    -0.314 C  
HETATM   20  C   UNL     1     -10.349  13.241  64.979  1.00  0.00    -0.355 C  
HETATM   21  C   UNL     1     -10.674  12.518  63.677  1.00  0.00    -0.469 C  
HETATM   22  C   UNL     1     -10.725  10.996  63.757  1.00  0.00    -0.294 C  
HETATM   23  C   UNL     1      -9.622  10.383  64.616  1.00  0.00    -0.300 C  
ENDBRANCH  15  17
ENDBRANCH  13  15
ENDBRANCH  11  13
ENDBRANCH   8  11
ENDBRANCH   5   8
TORSDOF 5
ENDMDL
MODEL      212
REMARK 921   NORMALIZED FREE ENERGY PREDICTED BY IDOCK:   -4.17 KCAL/MOL
REMARK 922        TOTAL FREE ENERGY PREDICTED BY IDOCK:   -5.93 KCAL/MOL
REMARK 923 INTER-LIGAND FREE ENERGY PREDICTED BY IDOCK:   -5.57 KCAL/MOL
REMARK 924 INTRA-LIGAND FREE ENERGY PREDICTED BY IDOCK:   -0.36 KCAL/MOL
REMARK 927      BINDING AFFINITY PREDICTED BY RF-SCORE:    0.00 PKD
ROOT
HETATM    1  C   UNL     1      -5.470  20.065  71.480  1.00  0.00    -0.415 C  
HETATM    2  C   UNL     1      -5.978  19.637  70.134  1.00  0.00    -0.323 A  
HETATM    3  C   UNL     1      -7.300  19.901  69.751  1.00  0.00     0.078 A  
HETATM    4  C   UNL     1      -7.787  19.441  68.526  1.00  0.00    -0.389 A  
HETATM    5  C   UNL     1      -6.943  18.721  67.675  1.00  0.00    -0.206 A  
HETATM    6  C   UNL     1      -5.138  18.930  69.261  1.00  0.00    -0.185 A  
HETATM    7  C   UNL     1      -5.616  18.473  68.031  1.00  0.00    -0.173 A  
ENDROOT
BRANCH   5   8
HETATM    8  S   UNL     1      -7.598  18.084  66.152  1.00  0.00    -0.218 S  
HETATM    9  O   UNL     1      -8.943  18.581  65.954  1.00  0.00    -0.480 OA 
HETATM   10  O   UNL     1      -6.579  18.285  65.137  1.00  0.00    -0.438 OA 
BRANCH   8  11
HETATM   11  N   UNL     1      -7.662  16.440  66.391  1.00  0.00    -0.266 N  
HETATM   12  H   UNL     1      -6.902  15.861  66.034  1.00  0.00     0.000 HD 
BRANCH  11  13
HETATM   13  C   UNL     1      -8.711  15.826  67.058  1.00  0.00    -0.224 C  
HETATM   14  O   UNL     1      -9.210  16.313  68.063  1.00  0.00    -0.193 OA 
BRANCH  13  15
HETATM   15  N   UNL     1      -9.094  14.620  66.496  1.00  0.00    -0.372 N  
HETATM   16  H   UNL     1      -9.030  14.507  65.485  1.00  0.00     0.000 HD 
BRANCH  15  17
HETATM   17  N   UNL     1      -9.576  13.527  67.282  1.00  0.00    -0.228 NA 
HETATM   18  C   UNL     1     -10.995  13.259  66.978  1.00  0.00    -0.276 C  
HETATM   19  C   UNL     1     -11.667  12.094  67.711  1.00  0.00    -0.390 C  
HETATM   20  C   UNL     1     -11.148  10.730  67.267  1.00  0.00    -0.339 C  
HETATM   21  C   UNL     1      -9.889  10.277  67.997  1.00  0.00    -0.171 C  
HETATM   22  C   UNL     1      -8.871  11.368  68.308  1.00  0.00    -0.167 C  
HETATM   23  C   UNL     1      -8.672  12.370  67.173  1.00  0.00    -0.195 C  
ENDBRANCH  15  17
ENDBRANCH  13  15
ENDBRANCH  11  13
ENDBRANCH   8  11
ENDBRANCH   5   8
TORSDOF 5
ENDMDL
MODEL      213
REMARK 921   NORMALIZED FREE ENERGY PREDICTED BY IDOCK:   -4.16 KCAL/MOL
REMARK 922        TOTAL FREE ENERGY PREDICTED BY IDOCK:   -5.92 KCAL/MOL
REMARK 923 INTER-LIGAND FREE ENERGY PREDICTED BY IDOCK:   -6.44 KCAL/MOL
REMARK 924 INTRA-LIGAND FREE ENERGY PREDICTED BY IDOCK:    0.53 KCAL/MOL
REMARK 927      BINDING AFFINITY PREDICTED BY RF-SCORE:    0.00 PKD
ROOT
HETATM    1  C   UNL     1     -10.229  18.276  66.376  1.00  0.00    -0.417 C  
HETATM    2  C   UNL     1     -10.281  16.784  66.538  1.00  0.00    -0.319 A  
HETATM    3  C   UNL     1     -10.166  15.939  65.426  1.00  0.00    -0.354 A  
HETATM    4  C   UNL     1     -10.283  14.555  65.574  1.00  0.00    -0.394 A  
HETATM    5  C   UNL     1     -10.506  14.014  66.844  1.00  0.00    -0.276 A  
HETATM    6  C   UNL     1     -10.485  16.224  67.808  1.00  0.00    -0.295 A  
HETATM    7  C   UNL     1     -10.596  14.840  67.964  1.00  0.00    -0.244 A  
ENDROOT
BRANCH   5   8
HETATM    8  S   UNL     1     -10.721  12.259  67.003  1.00  0.00    -0.238 S  
HETATM    9  O   UNL     1     -12.130  11.932  66.948  1.00  0.00    -0.599 OA 
HETATM   10  O   UNL     1      -9.782  11.633  66.088  1.00  0.00    -0.216 OA 
BRANCH   8  11
HETATM   11  N   UNL     1     -10.147  11.913  68.525  1.00  0.00    -0.226 N  
HETATM   12  H   UNL     1      -9.357  12.448  68.885  1.00  0.00     0.000 HD 
BRANCH  11  13
HETATM   13  C   UNL     1     -10.703  10.924  69.321  1.00  0.00    -0.231 C  
HETATM   14  O   UNL     1     -11.850  10.532  69.158  1.00  0.00    -0.239 OA 
BRANCH  13  15
HETATM   15  N   UNL     1      -9.851  10.468  70.313  1.00  0.00    -0.236 N  
HETATM   16  H   UNL     1      -9.083  11.068  70.615  1.00  0.00     0.000 HD 
BRANCH  15  17
HETATM   17  N   UNL     1     -10.008   9.189  70.931  1.00  0.00    -0.264 NA 
HETATM   18  C   UNL     1     -11.252   9.147  71.722  1.00  0.00    -0.381 C  
HETATM   19  C   UNL     1     -11.596   7.832  72.431  1.00  0.00    -0.410 C  
HETATM   20  C   UNL     1     -11.983   6.718  71.464  1.00  0.00    -0.396 C  
HETATM   21  C   UNL     1     -10.797   5.941  70.905  1.00  0.00    -0.347 C  
HETATM   22  C   UNL     1      -9.551   6.762  70.593  1.00  0.00    -0.174 C  
HETATM   23  C   UNL     1      -9.846   8.111  69.941  1.00  0.00    -0.186 C  
ENDBRANCH  15  17
ENDBRANCH  13  15
ENDBRANCH  11  13
ENDBRANCH   8  11
ENDBRANCH   5   8
TORSDOF 5
ENDMDL
MODEL      214
REMARK 921   NORMALIZED FREE ENERGY PREDICTED BY IDOCK:   -4.16 KCAL/MOL
REMARK 922        TOTAL FREE ENERGY PREDICTED BY IDOCK:   -5.91 KCAL/MOL
REMARK 923 INTER-LIGAND FREE ENERGY PREDICTED BY IDOCK:   -5.28 KCAL/MOL
REMARK 924 INTRA-LIGAND FREE ENERGY PREDICTED BY IDOCK:   -0.63 KCAL/MOL
REMARK 927      BINDING AFFINITY PREDICTED BY RF-SCORE:    0.00 PKD
ROOT
HETATM    1  C   UNL     1     -11.843  15.586  72.454  1.00  0.00    -0.570 C  
HETATM    2  C   UNL     1     -11.579  15.266  71.011  1.00  0.00    -0.399 A  
HETATM    3  C   UNL     1     -11.796  13.975  70.512  1.00  0.00    -0.339 A  
HETATM    4  C   UNL     1     -11.484  13.667  69.186  1.00  0.00    -0.346 A  
HETATM    5  C   UNL     1     -10.961  14.660  68.352  1.00  0.00    -0.251 A  
HETATM    6  C   UNL     1     -11.072  16.257  70.157  1.00  0.00    -0.346 A  
HETATM    7  C   UNL     1     -10.763  15.958  68.827  1.00  0.00    -0.265 A  
ENDROOT
BRANCH   5   8
HETATM    8  S   UNL     1     -10.505  14.233  66.691  1.00  0.00    -0.282 S  
HETATM    9  O   UNL     1     -10.780  12.833  66.453  1.00  0.00    -0.258 OA 
HETATM   10  O   UNL     1     -11.067  15.254  65.823  1.00  0.00    -0.338 OA 
BRANCH   8  11
HETATM   11  N   UNL     1      -8.860  14.474  66.643  1.00  0.00    -0.412 N  
HETATM   12  H   UNL     1      -8.496  15.291  66.152  1.00  0.00     0.000 HD 
BRANCH  11  13
HETATM   13  C   UNL     1      -7.965  13.605  67.247  1.00  0.00    -0.114 C  
HETATM   14  O   UNL     1      -7.282  13.942  68.204  1.00  0.00    -0.093 OA 
BRANCH  13  15
HETATM   15  N   UNL     1      -7.907  12.361  66.640  1.00  0.00    -0.387 N  
HETATM   16  H   UNL     1      -7.724  12.311  65.638  1.00  0.00     0.000 HD 
BRANCH  15  17
HETATM   17  N   UNL     1      -8.095  11.145  67.367  1.00  0.00    -0.128 NA 
HETATM   18  C   UNL     1      -6.844  10.364  67.400  1.00  0.00    -0.076 C  
HETATM   19  C   UNL     1      -6.857   9.038  68.169  1.00  0.00    -0.069 C  
HETATM   20  C   UNL     1      -6.969   9.226  69.678  1.00  0.00    -0.056 C  
HETATM   21  C   UNL     1      -8.400   9.368  70.182  1.00  0.00    -0.197 C  
HETATM   22  C   UNL     1      -9.345  10.163  69.287  1.00  0.00    -0.227 C  
HETATM   23  C   UNL     1      -8.714  11.411  68.676  1.00  0.00    -0.121 C  
ENDBRANCH  15  17
ENDBRANCH  13  15
ENDBRANCH  11  13
ENDBRANCH   8  11
ENDBRANCH   5   8
TORSDOF 5
ENDMDL
MODEL      215
REMARK 921   NORMALIZED FREE ENERGY PREDICTED BY IDOCK:   -4.14 KCAL/MOL
REMARK 922        TOTAL FREE ENERGY PREDICTED BY IDOCK:   -5.89 KCAL/MOL
REMARK 923 INTER-LIGAND FREE ENERGY PREDICTED BY IDOCK:   -5.78 KCAL/MOL
REMARK 924 INTRA-LIGAND FREE ENERGY PREDICTED BY IDOCK:   -0.11 KCAL/MOL
REMARK 927      BINDING AFFINITY PREDICTED BY RF-SCORE:    0.00 PKD
ROOT
HETATM    1  C   UNL     1     -12.769  13.870  65.133  1.00  0.00    -0.434 C  
HETATM    2  C   UNL     1     -11.621  12.927  64.915  1.00  0.00    -0.365 A  
HETATM    3  C   UNL     1     -11.579  12.099  63.785  1.00  0.00    -0.557 A  
HETATM    4  C   UNL     1     -10.544  11.176  63.622  1.00  0.00    -0.414 A  
HETATM    5  C   UNL     1      -9.540  11.087  64.591  1.00  0.00    -0.254 A  
HETATM    6  C   UNL     1     -10.596  12.839  65.869  1.00  0.00    -0.295 A  
HETATM    7  C   UNL     1      -9.554  11.923  65.709  1.00  0.00    -0.241 A  
ENDROOT
BRANCH   5   8
HETATM    8  S   UNL     1      -8.270   9.861  64.402  1.00  0.00    -0.175 S  
HETATM    9  O   UNL     1      -7.870   9.782  63.014  1.00  0.00    -0.123 OA 
HETATM   10  O   UNL     1      -7.286  10.108  65.442  1.00  0.00    -0.133 OA 
BRANCH   8  11
HETATM   11  N   UNL     1      -9.012   8.435  64.830  1.00  0.00    -0.409 N  
HETATM   12  H   UNL     1      -9.491   7.894  64.110  1.00  0.00     0.000 HD 
BRANCH  11  13
HETATM   13  C   UNL     1      -9.005   7.956  66.131  1.00  0.00    -0.175 C  
HETATM   14  O   UNL     1      -7.971   7.853  66.776  1.00  0.00    -0.104 OA 
BRANCH  13  15
HETATM   15  N   UNL     1     -10.257   7.584  66.590  1.00  0.00    -0.453 N  
HETATM   16  H   UNL     1     -10.756   6.838  66.107  1.00  0.00     0.000 HD 
BRANCH  15  17
HETATM   17  N   UNL     1     -10.876   8.207  67.718  1.00  0.00    -0.082 NA 
HETATM   18  C   UNL     1     -10.543   7.480  68.958  1.00  0.00    -0.180 C  
HETATM   19  C   UNL     1     -11.101   8.033  70.274  1.00  0.00    -0.224 C  
HETATM   20  C   UNL     1     -10.458   9.353  70.686  1.00  0.00    -0.354 C  
HETATM   21  C   UNL     1     -11.108  10.582  70.060  1.00  0.00    -0.376 C  
HETATM   22  C   UNL     1     -11.570  10.427  68.615  1.00  0.00    -0.172 C  
HETATM   23  C   UNL     1     -10.594   9.652  67.732  1.00  0.00    -0.264 C  
ENDBRANCH  15  17
ENDBRANCH  13  15
ENDBRANCH  11  13
ENDBRANCH   8  11
ENDBRANCH   5   8
TORSDOF 5
ENDMDL
MODEL      216
REMARK 921   NORMALIZED FREE ENERGY PREDICTED BY IDOCK:   -4.13 KCAL/MOL
REMARK 922        TOTAL FREE ENERGY PREDICTED BY IDOCK:   -5.88 KCAL/MOL
REMARK 923 INTER-LIGAND FREE ENERGY PREDICTED BY IDOCK:   -5.13 KCAL/MOL
REMARK 924 INTRA-LIGAND FREE ENERGY PREDICTED BY IDOCK:   -0.75 KCAL/MOL
REMARK 927      BINDING AFFINITY PREDICTED BY RF-SCORE:    0.00 PKD
ROOT
HETATM    1  C   UNL     1      -6.447  13.110  67.645  1.00  0.00    -0.166 C  
HETATM    2  C   UNL     1      -7.155  11.821  67.947  1.00  0.00    -0.087 A  
HETATM    3  C   UNL     1      -7.828  11.120  66.937  1.00  0.00    -0.152 A  
HETATM    4  C   UNL     1      -8.541   9.957  67.237  1.00  0.00    -0.125 A  
HETATM    5  C   UNL     1      -8.574   9.489  68.554  1.00  0.00    -0.119 A  
HETATM    6  C   UNL     1      -7.181  11.327  69.260  1.00  0.00    -0.094 A  
HETATM    7  C   UNL     1      -7.888  10.161  69.566  1.00  0.00    -0.165 A  
ENDROOT
BRANCH   5   8
HETATM    8  S   UNL     1      -9.543   8.049  68.929  1.00  0.00    -0.154 S  
HETATM    9  O   UNL     1      -9.636   7.205  67.758  1.00  0.00    -0.128 OA 
HETATM   10  O   UNL     1      -9.042   7.518  70.184  1.00  0.00    -0.147 OA 
BRANCH   8  11
HETATM   11  N   UNL     1     -11.053   8.653  69.279  1.00  0.00    -0.430 N  
HETATM   12  H   UNL     1     -11.865   8.243  68.817  1.00  0.00     0.000 HD 
BRANCH  11  13
HETATM   13  C   UNL     1     -11.248   9.692  70.175  1.00  0.00    -0.256 C  
HETATM   14  O   UNL     1     -10.768   9.674  71.300  1.00  0.00    -0.335 OA 
BRANCH  13  15
HETATM   15  N   UNL     1     -12.053  10.705  69.680  1.00  0.00    -0.474 N  
HETATM   16  H   UNL     1     -13.062  10.636  69.805  1.00  0.00     0.000 HD 
BRANCH  15  17
HETATM   17  N   UNL     1     -11.520  11.845  69.001  1.00  0.00    -0.271 NA 
HETATM   18  C   UNL     1     -11.785  11.753  67.553  1.00  0.00    -0.240 C  
HETATM   19  C   UNL     1     -11.307  12.912  66.671  1.00  0.00    -0.361 C  
HETATM   20  C   UNL     1     -12.097  14.197  66.897  1.00  0.00    -0.466 C  
HETATM   21  C   UNL     1     -11.581  15.049  68.050  1.00  0.00    -0.356 C  
HETATM   22  C   UNL     1     -11.088  14.284  69.274  1.00  0.00    -0.297 C  
HETATM   23  C   UNL     1     -11.961  13.090  69.651  1.00  0.00    -0.302 C  
ENDBRANCH  15  17
ENDBRANCH  13  15
ENDBRANCH  11  13
ENDBRANCH   8  11
ENDBRANCH   5   8
TORSDOF 5
ENDMDL
MODEL      217
REMARK 921   NORMALIZED FREE ENERGY PREDICTED BY IDOCK:   -4.13 KCAL/MOL
REMARK 922        TOTAL FREE ENERGY PREDICTED BY IDOCK:   -5.87 KCAL/MOL
REMARK 923 INTER-LIGAND FREE ENERGY PREDICTED BY IDOCK:   -5.73 KCAL/MOL
REMARK 924 INTRA-LIGAND FREE ENERGY PREDICTED BY IDOCK:   -0.14 KCAL/MOL
REMARK 927      BINDING AFFINITY PREDICTED BY RF-SCORE:    0.00 PKD
ROOT
HETATM    1  C   UNL     1     -12.638  15.077  64.003  1.00  0.00     0.251 C  
HETATM    2  C   UNL     1     -11.849  13.917  64.540  1.00  0.00    -0.449 A  
HETATM    3  C   UNL     1     -12.333  12.607  64.424  1.00  0.00    -0.523 A  
HETATM    4  C   UNL     1     -11.628  11.541  64.985  1.00  0.00    -0.032 A  
HETATM    5  C   UNL     1     -10.426  11.785  65.657  1.00  0.00    -0.265 A  
HETATM    6  C   UNL     1     -10.633  14.144  65.200  1.00  0.00    -0.414 A  
HETATM    7  C   UNL     1      -9.918  13.081  65.758  1.00  0.00    -0.260 A  
ENDROOT
BRANCH   5   8
HETATM    8  S   UNL     1      -9.579  10.426  66.423  1.00  0.00    -0.187 S  
HETATM    9  O   UNL     1      -9.608   9.276  65.546  1.00  0.00    -0.269 OA 
HETATM   10  O   UNL     1      -8.317  10.942  66.922  1.00  0.00    -0.126 OA 
BRANCH   8  11
HETATM   11  N   UNL     1     -10.484  10.093  67.778  1.00  0.00    -0.214 N  
HETATM   12  H   UNL     1     -10.512   9.135  68.127  1.00  0.00     0.000 HD 
BRANCH  11  13
HETATM   13  C   UNL     1     -11.202  11.069  68.451  1.00  0.00    -0.274 C  
HETATM   14  O   UNL     1     -12.411  10.985  68.615  1.00  0.00    -0.539 OA 
BRANCH  13  15
HETATM   15  N   UNL     1     -10.424  12.136  68.871  1.00  0.00    -0.385 N  
HETATM   16  H   UNL     1      -9.470  11.956  69.183  1.00  0.00     0.000 HD 
BRANCH  15  17
HETATM   17  N   UNL     1     -10.910  13.480  68.885  1.00  0.00    -0.243 NA 
HETATM   18  C   UNL     1     -11.773  13.706  70.060  1.00  0.00    -0.249 C  
HETATM   19  C   UNL     1     -12.358  15.110  70.249  1.00  0.00    -0.398 C  
HETATM   20  C   UNL     1     -11.305  16.149  70.621  1.00  0.00    -0.394 C  
HETATM   21  C   UNL     1     -10.589  16.764  69.425  1.00  0.00    -0.318 C  
HETATM   22  C   UNL     1     -10.285  15.813  68.271  1.00  0.00    -0.225 C  
HETATM   23  C   UNL     1      -9.802  14.435  68.715  1.00  0.00    -0.214 C  
ENDBRANCH  15  17
ENDBRANCH  13  15
ENDBRANCH  11  13
ENDBRANCH   8  11
ENDBRANCH   5   8
TORSDOF 5
ENDMDL
MODEL      218
REMARK 921   NORMALIZED FREE ENERGY PREDICTED BY IDOCK:   -4.12 KCAL/MOL
REMARK 922        TOTAL FREE ENERGY PREDICTED BY IDOCK:   -5.86 KCAL/MOL
REMARK 923 INTER-LIGAND FREE ENERGY PREDICTED BY IDOCK:   -5.08 KCAL/MOL
REMARK 924 INTRA-LIGAND FREE ENERGY PREDICTED BY IDOCK:   -0.78 KCAL/MOL
REMARK 927      BINDING AFFINITY PREDICTED BY RF-SCORE:    0.00 PKD
ROOT
HETATM    1  C   UNL     1     -12.492  12.979  70.888  1.00  0.00    -0.396 C  
HETATM    2  C   UNL     1     -12.341  11.485  70.901  1.00  0.00    -0.460 A  
HETATM    3  C   UNL     1     -13.091  10.699  71.786  1.00  0.00    -0.571 A  
HETATM    4  C   UNL     1     -12.898   9.317  71.841  1.00  0.00    -0.485 A  
HETATM    5  C   UNL     1     -11.955   8.718  71.000  1.00  0.00    -0.251 A  
HETATM    6  C   UNL     1     -11.413  10.868  70.050  1.00  0.00    -0.411 A  
HETATM    7  C   UNL     1     -11.219   9.485  70.096  1.00  0.00    -0.275 A  
ENDROOT
BRANCH   5   8
HETATM    8  S   UNL     1     -11.673   6.970  71.134  1.00  0.00    -0.343 S  
HETATM    9  O   UNL     1     -12.568   6.405  72.121  1.00  0.00    -0.268 OA 
HETATM   10  O   UNL     1     -11.638   6.443  69.781  1.00  0.00    -0.431 OA 
BRANCH   8  11
HETATM   11  N   UNL     1     -10.111   6.850  71.692  1.00  0.00    -0.190 N  
HETATM   12  H   UNL     1      -9.910   7.122  72.654  1.00  0.00     0.000 HD 
BRANCH  11  13
HETATM   13  C   UNL     1      -9.072   6.393  70.897  1.00  0.00    -0.151 C  
HETATM   14  O   UNL     1      -8.454   5.372  71.165  1.00  0.00    -0.121 OA 
BRANCH  13  15
HETATM   15  N   UNL     1      -8.797   7.217  69.818  1.00  0.00    -0.142 N  
HETATM   16  H   UNL     1      -9.477   7.277  69.061  1.00  0.00     0.000 HD 
BRANCH  15  17
HETATM   17  N   UNL     1      -7.595   7.985  69.727  1.00  0.00    -0.090 NA 
HETATM   18  C   UNL     1      -7.287   8.297  68.318  1.00  0.00    -0.095 C  
HETATM   19  C   UNL     1      -6.043   9.146  68.038  1.00  0.00    -0.050 C  
HETATM   20  C   UNL     1      -6.194  10.594  68.493  1.00  0.00    -0.049 C  
HETATM   21  C   UNL     1      -5.845  10.824  69.959  1.00  0.00    -0.083 C  
HETATM   22  C   UNL     1      -6.263   9.719  70.923  1.00  0.00    -0.084 C  
HETATM   23  C   UNL     1      -7.647   9.140  70.639  1.00  0.00    -0.133 C  
ENDBRANCH  15  17
ENDBRANCH  13  15
ENDBRANCH  11  13
ENDBRANCH   8  11
ENDBRANCH   5   8
TORSDOF 5
ENDMDL
MODEL      219
REMARK 921   NORMALIZED FREE ENERGY PREDICTED BY IDOCK:   -4.11 KCAL/MOL
REMARK 922        TOTAL FREE ENERGY PREDICTED BY IDOCK:   -5.85 KCAL/MOL
REMARK 923 INTER-LIGAND FREE ENERGY PREDICTED BY IDOCK:   -5.23 KCAL/MOL
REMARK 924 INTRA-LIGAND FREE ENERGY PREDICTED BY IDOCK:   -0.62 KCAL/MOL
REMARK 927      BINDING AFFINITY PREDICTED BY RF-SCORE:    0.00 PKD
ROOT
HETATM    1  C   UNL     1      -8.541   7.765  65.516  1.00  0.00    -0.126 C  
HETATM    2  C   UNL     1      -9.182   7.559  66.858  1.00  0.00    -0.181 A  
HETATM    3  C   UNL     1     -10.508   7.118  66.958  1.00  0.00    -0.392 A  
HETATM    4  C   UNL     1     -11.121   6.994  68.206  1.00  0.00    -0.080 A  
HETATM    5  C   UNL     1     -10.398   7.304  69.363  1.00  0.00    -0.208 A  
HETATM    6  C   UNL     1      -8.464   7.848  68.028  1.00  0.00    -0.123 A  
HETATM    7  C   UNL     1      -9.068   7.719  69.281  1.00  0.00    -0.145 A  
ENDROOT
BRANCH   5   8
HETATM    8  S   UNL     1     -11.214   7.208  70.936  1.00  0.00    -0.288 S  
HETATM    9  O   UNL     1     -11.890   5.934  71.059  1.00  0.00    -0.018 OA 
HETATM   10  O   UNL     1     -10.252   7.632  71.938  1.00  0.00    -0.188 OA 
BRANCH   8  11
HETATM   11  N   UNL     1     -12.353   8.419  70.881  1.00  0.00    -0.494 N  
HETATM   12  H   UNL     1     -13.339   8.170  70.965  1.00  0.00     0.000 HD 
BRANCH  11  13
HETATM   13  C   UNL     1     -12.011   9.753  70.726  1.00  0.00    -0.299 C  
HETATM   14  O   UNL     1     -11.137  10.279  71.401  1.00  0.00    -0.047 OA 
BRANCH  13  15
HETATM   15  N   UNL     1     -12.772  10.412  69.775  1.00  0.00    -0.520 N  
HETATM   16  H   UNL     1     -13.779  10.250  69.753  1.00  0.00     0.000 HD 
BRANCH  15  17
HETATM   17  N   UNL     1     -12.198  11.309  68.822  1.00  0.00    -0.525 NA 
HETATM   18  C   UNL     1     -12.000  12.643  69.422  1.00  0.00    -0.260 C  
HETATM   19  C   UNL     1     -11.362  13.726  68.545  1.00  0.00    -0.318 C  
HETATM   20  C   UNL     1      -9.889  13.463  68.251  1.00  0.00    -0.235 C  
HETATM   21  C   UNL     1      -9.648  12.552  67.053  1.00  0.00    -0.216 C  
HETATM   22  C   UNL     1     -10.631  11.399  66.886  1.00  0.00    -0.292 C  
HETATM   23  C   UNL     1     -11.008  10.710  68.195  1.00  0.00    -0.269 C  
ENDBRANCH  15  17
ENDBRANCH  13  15
ENDBRANCH  11  13
ENDBRANCH   8  11
ENDBRANCH   5   8
TORSDOF 5
ENDMDL
MODEL      220
REMARK 921   NORMALIZED FREE ENERGY PREDICTED BY IDOCK:   -4.10 KCAL/MOL
REMARK 922        TOTAL FREE ENERGY PREDICTED BY IDOCK:   -5.84 KCAL/MOL
REMARK 923 INTER-LIGAND FREE ENERGY PREDICTED BY IDOCK:   -5.51 KCAL/MOL
REMARK 924 INTRA-LIGAND FREE ENERGY PREDICTED BY IDOCK:   -0.33 KCAL/MOL
REMARK 927      BINDING AFFINITY PREDICTED BY RF-SCORE:    0.00 PKD
ROOT
HETATM    1  C   UNL     1     -14.313  14.224  72.042  1.00  0.00    -0.629 C  
HETATM    2  C   UNL     1     -13.075  14.493  71.235  1.00  0.00    -0.417 A  
HETATM    3  C   UNL     1     -12.437  15.739  71.299  1.00  0.00    -0.505 A  
HETATM    4  C   UNL     1     -11.326  16.007  70.496  1.00  0.00    -0.420 A  
HETATM    5  C   UNL     1     -10.846  15.018  69.631  1.00  0.00    -0.271 A  
HETATM    6  C   UNL     1     -12.570  13.505  70.377  1.00  0.00    -0.267 A  
HETATM    7  C   UNL     1     -11.455  13.764  69.576  1.00  0.00    -0.327 A  
ENDROOT
BRANCH   5   8
HETATM    8  S   UNL     1      -9.477  15.399  68.568  1.00  0.00    -0.209 S  
HETATM    9  O   UNL     1      -9.913  16.280  67.506  1.00  0.00    -0.240 OA 
HETATM   10  O   UNL     1      -8.366  15.773  69.426  1.00  0.00    -0.244 OA 
BRANCH   8  11
HETATM   11  N   UNL     1      -9.049  13.933  67.910  1.00  0.00    -0.186 N  
HETATM   12  H   UNL     1      -9.783  13.327  67.542  1.00  0.00     0.000 HD 
BRANCH  11  13
HETATM   13  C   UNL     1      -7.733  13.504  67.844  1.00  0.00    -0.153 C  
HETATM   14  O   UNL     1      -6.890  14.103  67.190  1.00  0.00    -0.165 OA 
BRANCH  13  15
HETATM   15  N   UNL     1      -7.495  12.337  68.550  1.00  0.00    -0.111 N  
HETATM   16  H   UNL     1      -6.913  12.378  69.386  1.00  0.00     0.000 HD 
BRANCH  15  17
HETATM   17  N   UNL     1      -8.035  11.075  68.149  1.00  0.00    -0.113 NA 
HETATM   18  C   UNL     1      -9.359  10.862  68.764  1.00  0.00    -0.185 C  
HETATM   19  C   UNL     1     -10.101   9.566  68.416  1.00  0.00    -0.199 C  
HETATM   20  C   UNL     1     -10.587   9.528  66.971  1.00  0.00    -0.271 C  
HETATM   21  C   UNL     1      -9.544   9.031  65.977  1.00  0.00    -0.342 C  
HETATM   22  C   UNL     1      -8.109   9.474  66.241  1.00  0.00    -0.111 C  
HETATM   23  C   UNL     1      -7.982  10.929  66.685  1.00  0.00    -0.148 C  
ENDBRANCH  15  17
ENDBRANCH  13  15
ENDBRANCH  11  13
ENDBRANCH   8  11
ENDBRANCH   5   8
TORSDOF 5
ENDMDL
MODEL      221
REMARK 921   NORMALIZED FREE ENERGY PREDICTED BY IDOCK:   -4.10 KCAL/MOL
REMARK 922        TOTAL FREE ENERGY PREDICTED BY IDOCK:   -5.83 KCAL/MOL
REMARK 923 INTER-LIGAND FREE ENERGY PREDICTED BY IDOCK:   -5.09 KCAL/MOL
REMARK 924 INTRA-LIGAND FREE ENERGY PREDICTED BY IDOCK:   -0.74 KCAL/MOL
REMARK 927      BINDING AFFINITY PREDICTED BY RF-SCORE:    0.00 PKD
ROOT
HETATM    1  C   UNL     1     -11.173  12.637  66.746  1.00  0.00    -0.347 C  
HETATM    2  C   UNL     1     -10.706  11.210  66.727  1.00  0.00    -0.326 A  
HETATM    3  C   UNL     1      -9.999  10.703  65.629  1.00  0.00    -0.327 A  
HETATM    4  C   UNL     1      -9.626   9.358  65.587  1.00  0.00    -0.345 A  
HETATM    5  C   UNL     1      -9.955   8.518  66.655  1.00  0.00    -0.293 A  
HETATM    6  C   UNL     1     -11.012  10.359  67.799  1.00  0.00    -0.369 A  
HETATM    7  C   UNL     1     -10.637   9.014  67.767  1.00  0.00    -0.278 A  
ENDROOT
BRANCH   5   8
HETATM    8  S   UNL     1      -9.535   6.796  66.553  1.00  0.00    -0.118 S  
HETATM    9  O   UNL     1     -10.743   6.002  66.479  1.00  0.00    -0.246 OA 
HETATM   10  O   UNL     1      -8.506   6.671  65.536  1.00  0.00    -0.151 OA 
BRANCH   8  11
HETATM   11  N   UNL     1      -8.769   6.477  67.995  1.00  0.00    -0.117 N  
HETATM   12  H   UNL     1      -7.895   6.960  68.205  1.00  0.00     0.000 HD 
BRANCH  11  13
HETATM   13  C   UNL     1      -9.273   5.577  68.921  1.00  0.00    -0.119 C  
HETATM   14  O   UNL     1      -8.693   4.535  69.192  1.00  0.00    -0.082 OA 
BRANCH  13  15
HETATM   15  N   UNL     1     -10.489   5.963  69.460  1.00  0.00    -0.248 N  
HETATM   16  H   UNL     1     -11.326   5.900  68.881  1.00  0.00     0.000 HD 
BRANCH  15  17
HETATM   17  N   UNL     1     -10.614   6.446  70.800  1.00  0.00    -0.228 NA 
HETATM   18  C   UNL     1     -10.847   5.327  71.733  1.00  0.00    -0.128 C  
HETATM   19  C   UNL     1     -10.975   5.663  73.223  1.00  0.00    -0.316 C  
HETATM   20  C   UNL     1      -9.659   6.119  73.845  1.00  0.00    -0.176 C  
HETATM   21  C   UNL     1      -9.376   7.608  73.680  1.00  0.00    -0.344 C  
HETATM   22  C   UNL     1      -9.790   8.219  72.346  1.00  0.00    -0.375 C  
HETATM   23  C   UNL     1      -9.490   7.334  71.139  1.00  0.00    -0.156 C  
ENDBRANCH  15  17
ENDBRANCH  13  15
ENDBRANCH  11  13
ENDBRANCH   8  11
ENDBRANCH   5   8
TORSDOF 5
ENDMDL
MODEL      222
REMARK 921   NORMALIZED FREE ENERGY PREDICTED BY IDOCK:   -4.08 KCAL/MOL
REMARK 922        TOTAL FREE ENERGY PREDICTED BY IDOCK:   -5.81 KCAL/MOL
REMARK 923 INTER-LIGAND FREE ENERGY PREDICTED BY IDOCK:   -5.58 KCAL/MOL
REMARK 924 INTRA-LIGAND FREE ENERGY PREDICTED BY IDOCK:   -0.22 KCAL/MOL
REMARK 927      BINDING AFFINITY PREDICTED BY RF-SCORE:    0.00 PKD
ROOT
HETATM    1  C   UNL     1     -12.290  12.507  63.257  1.00  0.00    -0.473 C  
HETATM    2  C   UNL     1     -11.473  11.888  64.354  1.00  0.00    -0.393 A  
HETATM    3  C   UNL     1     -11.613  12.318  65.680  1.00  0.00    -0.433 A  
HETATM    4  C   UNL     1     -10.802  11.786  66.685  1.00  0.00    -0.318 A  
HETATM    5  C   UNL     1      -9.854  10.811  66.362  1.00  0.00    -0.209 A  
HETATM    6  C   UNL     1     -10.531  10.895  64.049  1.00  0.00    -0.379 A  
HETATM    7  C   UNL     1      -9.721  10.354  65.051  1.00  0.00    -0.362 A  
ENDROOT
BRANCH   5   8
HETATM    8  S   UNL     1      -8.785  10.197  67.640  1.00  0.00    -0.121 S  
HETATM    9  O   UNL     1      -7.407  10.490  67.308  1.00  0.00    -0.088 OA 
HETATM   10  O   UNL     1      -9.347  10.631  68.906  1.00  0.00    -0.172 OA 
BRANCH   8  11
HETATM   11  N   UNL     1      -9.009   8.549  67.603  1.00  0.00    -0.135 N  
HETATM   12  H   UNL     1      -9.648   8.155  66.912  1.00  0.00     0.000 HD 
BRANCH  11  13
HETATM   13  C   UNL     1      -8.358   7.692  68.476  1.00  0.00    -0.129 C  
HETATM   14  O   UNL     1      -7.165   7.802  68.722  1.00  0.00    -0.077 OA 
BRANCH  13  15
HETATM   15  N   UNL     1      -9.179   6.704  68.996  1.00  0.00    -0.132 N  
HETATM   16  H   UNL     1      -9.229   5.805  68.517  1.00  0.00     0.000 HD 
BRANCH  15  17
HETATM   17  N   UNL     1      -9.958   6.899  70.178  1.00  0.00    -0.178 NA 
HETATM   18  C   UNL     1      -9.492   8.090  70.913  1.00  0.00    -0.161 C  
HETATM   19  C   UNL     1     -10.241   8.467  72.196  1.00  0.00    -0.403 C  
HETATM   20  C   UNL     1     -11.652   8.983  71.934  1.00  0.00    -0.441 C  
HETATM   21  C   UNL     1     -12.702   7.885  71.813  1.00  0.00    -0.353 C  
HETATM   22  C   UNL     1     -12.256   6.613  71.099  1.00  0.00    -0.357 C  
HETATM   23  C   UNL     1     -11.396   6.866  69.864  1.00  0.00    -0.271 C  
ENDBRANCH  15  17
ENDBRANCH  13  15
ENDBRANCH  11  13
ENDBRANCH   8  11
ENDBRANCH   5   8
TORSDOF 5
ENDMDL
MODEL      223
REMARK 921   NORMALIZED FREE ENERGY PREDICTED BY IDOCK:   -4.07 KCAL/MOL
REMARK 922        TOTAL FREE ENERGY PREDICTED BY IDOCK:   -5.79 KCAL/MOL
REMARK 923 INTER-LIGAND FREE ENERGY PREDICTED BY IDOCK:   -5.15 KCAL/MOL
REMARK 924 INTRA-LIGAND FREE ENERGY PREDICTED BY IDOCK:   -0.65 KCAL/MOL
REMARK 927      BINDING AFFINITY PREDICTED BY RF-SCORE:    0.00 PKD
ROOT
HETATM    1  C   UNL     1      -7.875   2.498  72.851  1.00  0.00    -0.050 C  
HETATM    2  C   UNL     1      -8.636   3.578  72.137  1.00  0.00    -0.102 A  
HETATM    3  C   UNL     1      -9.192   4.650  72.847  1.00  0.00    -0.137 A  
HETATM    4  C   UNL     1      -9.956   5.615  72.188  1.00  0.00    -0.214 A  
HETATM    5  C   UNL     1     -10.156   5.511  70.808  1.00  0.00    -0.212 A  
HETATM    6  C   UNL     1      -8.829   3.498  70.751  1.00  0.00    -0.139 A  
HETATM    7  C   UNL     1      -9.586   4.464  70.083  1.00  0.00    -0.263 A  
ENDROOT
BRANCH   5   8
HETATM    8  S   UNL     1     -11.187   6.708  69.997  1.00  0.00    -0.383 S  
HETATM    9  O   UNL     1     -11.457   6.282  68.641  1.00  0.00    -0.263 OA 
HETATM   10  O   UNL     1     -12.278   7.010  70.907  1.00  0.00    -0.364 OA 
BRANCH   8  11
HETATM   11  N   UNL     1     -10.257   8.086  69.954  1.00  0.00    -0.199 N  
HETATM   12  H   UNL     1      -9.343   8.048  69.503  1.00  0.00     0.000 HD 
BRANCH  11  13
HETATM   13  C   UNL     1     -10.679   9.284  70.508  1.00  0.00    -0.257 C  
HETATM   14  O   UNL     1     -10.290   9.662  71.604  1.00  0.00    -0.097 OA 
BRANCH  13  15
HETATM   15  N   UNL     1     -11.591   9.967  69.720  1.00  0.00    -0.411 N  
HETATM   16  H   UNL     1     -12.545   9.612  69.653  1.00  0.00     0.000 HD 
BRANCH  15  17
HETATM   17  N   UNL     1     -11.245  11.151  68.998  1.00  0.00    -0.231 NA 
HETATM   18  C   UNL     1     -10.887  10.821  67.605  1.00  0.00    -0.279 C  
HETATM   19  C   UNL     1     -10.517  11.981  66.675  1.00  0.00    -0.247 C  
HETATM   20  C   UNL     1     -11.707  12.869  66.328  1.00  0.00    -0.457 C  
HETATM   21  C   UNL     1     -11.984  13.965  67.351  1.00  0.00    -0.436 C  
HETATM   22  C   UNL     1     -11.777  13.579  68.812  1.00  0.00    -0.373 C  
HETATM   23  C   UNL     1     -12.283  12.182  69.161  1.00  0.00    -0.032 C  
ENDBRANCH  15  17
ENDBRANCH  13  15
ENDBRANCH  11  13
ENDBRANCH   8  11
ENDBRANCH   5   8
TORSDOF 5
ENDMDL
MODEL      224
REMARK 921   NORMALIZED FREE ENERGY PREDICTED BY IDOCK:   -4.06 KCAL/MOL
REMARK 922        TOTAL FREE ENERGY PREDICTED BY IDOCK:   -5.79 KCAL/MOL
REMARK 923 INTER-LIGAND FREE ENERGY PREDICTED BY IDOCK:   -5.23 KCAL/MOL
REMARK 924 INTRA-LIGAND FREE ENERGY PREDICTED BY IDOCK:   -0.56 KCAL/MOL
REMARK 927      BINDING AFFINITY PREDICTED BY RF-SCORE:    0.00 PKD
ROOT
HETATM    1  C   UNL     1      -6.507  11.676  69.439  1.00  0.00    -0.113 C  
HETATM    2  C   UNL     1      -7.610  11.965  68.461  1.00  0.00    -0.127 A  
HETATM    3  C   UNL     1      -7.406  12.848  67.392  1.00  0.00    -0.132 A  
HETATM    4  C   UNL     1      -8.454  13.165  66.526  1.00  0.00     0.244 A  
HETATM    5  C   UNL     1      -9.712  12.588  66.726  1.00  0.00    -0.234 A  
HETATM    6  C   UNL     1      -8.872  11.379  68.637  1.00  0.00    -0.126 A  
HETATM    7  C   UNL     1      -9.924  11.687  67.770  1.00  0.00    -0.191 A  
ENDROOT
BRANCH   5   8
HETATM    8  S   UNL     1     -11.050  13.056  65.658  1.00  0.00    -0.281 S  
HETATM    9  O   UNL     1     -10.559  13.232  64.308  1.00  0.00    -0.414 OA 
HETATM   10  O   UNL     1     -12.148  12.144  65.931  1.00  0.00    -0.594 OA 
BRANCH   8  11
HETATM   11  N   UNL     1     -11.547  14.530  66.247  1.00  0.00    -0.363 N  
HETATM   12  H   UNL     1     -12.377  14.568  66.839  1.00  0.00     0.000 HD 
BRANCH  11  13
HETATM   13  C   UNL     1     -10.874  15.708  65.963  1.00  0.00    -0.275 C  
HETATM   14  O   UNL     1     -10.612  16.042  64.816  1.00  0.00    -0.600 OA 
BRANCH  13  15
HETATM   15  N   UNL     1     -10.511  16.423  67.092  1.00  0.00    -0.302 N  
HETATM   16  H   UNL     1     -11.190  16.528  67.846  1.00  0.00     0.000 HD 
BRANCH  15  17
HETATM   17  N   UNL     1      -9.221  17.020  67.239  1.00  0.00    -0.219 NA 
HETATM   18  C   UNL     1      -9.343  18.481  67.406  1.00  0.00    -0.279 C  
HETATM   19  C   UNL     1      -8.052  19.281  67.609  1.00  0.00    -0.311 C  
HETATM   20  C   UNL     1      -7.396  19.020  68.961  1.00  0.00    -0.341 C  
HETATM   21  C   UNL     1      -6.477  17.804  68.981  1.00  0.00    -0.233 C  
HETATM   22  C   UNL     1      -6.945  16.603  68.165  1.00  0.00    -0.156 C  
HETATM   23  C   UNL     1      -8.441  16.324  68.276  1.00  0.00    -0.187 C  
ENDBRANCH  15  17
ENDBRANCH  13  15
ENDBRANCH  11  13
ENDBRANCH   8  11
ENDBRANCH   5   8
TORSDOF 5
ENDMDL
MODEL      225
REMARK 921   NORMALIZED FREE ENERGY PREDICTED BY IDOCK:   -4.04 KCAL/MOL
REMARK 922        TOTAL FREE ENERGY PREDICTED BY IDOCK:   -5.76 KCAL/MOL
REMARK 923 INTER-LIGAND FREE ENERGY PREDICTED BY IDOCK:   -5.21 KCAL/MOL
REMARK 924 INTRA-LIGAND FREE ENERGY PREDICTED BY IDOCK:   -0.55 KCAL/MOL
REMARK 927      BINDING AFFINITY PREDICTED BY RF-SCORE:    0.00 PKD
ROOT
HETATM    1  C   UNL     1     -14.338   7.910  71.573  1.00  0.00    -0.563 C  
HETATM    2  C   UNL     1     -12.858   7.655  71.620  1.00  0.00    -0.378 A  
HETATM    3  C   UNL     1     -12.021   8.446  72.419  1.00  0.00    -0.451 A  
HETATM    4  C   UNL     1     -10.639   8.249  72.407  1.00  0.00    -0.408 A  
HETATM    5  C   UNL     1     -10.092   7.248  71.597  1.00  0.00    -0.184 A  
HETATM    6  C   UNL     1     -12.297   6.643  70.828  1.00  0.00    -0.218 A  
HETATM    7  C   UNL     1     -10.915   6.436  70.816  1.00  0.00    -0.346 A  
ENDROOT
BRANCH   5   8
HETATM    8  S   UNL     1      -8.328   7.058  71.541  1.00  0.00    -0.112 S  
HETATM    9  O   UNL     1      -7.691   8.321  71.847  1.00  0.00    -0.097 OA 
HETATM   10  O   UNL     1      -8.007   5.865  72.304  1.00  0.00    -0.105 OA 
BRANCH   8  11
HETATM   11  N   UNL     1      -8.010   6.665  69.957  1.00  0.00    -0.114 N  
HETATM   12  H   UNL     1      -7.466   5.825  69.758  1.00  0.00     0.000 HD 
BRANCH  11  13
HETATM   13  C   UNL     1      -8.456   7.437  68.896  1.00  0.00    -0.129 C  
HETATM   14  O   UNL     1      -8.613   6.969  67.777  1.00  0.00    -0.122 OA 
BRANCH  13  15
HETATM   15  N   UNL     1      -8.664   8.766  69.228  1.00  0.00    -0.134 N  
HETATM   16  H   UNL     1      -7.981   9.236  69.822  1.00  0.00     0.000 HD 
BRANCH  15  17
HETATM   17  N   UNL     1      -9.799   9.502  68.768  1.00  0.00    -0.164 NA 
HETATM   18  C   UNL     1     -10.298  10.398  69.829  1.00  0.00    -0.208 C  
HETATM   19  C   UNL     1     -11.499  11.290  69.496  1.00  0.00    -0.376 C  
HETATM   20  C   UNL     1     -11.163  12.394  68.498  1.00  0.00    -0.321 C  
HETATM   21  C   UNL     1     -11.259  11.963  67.039  1.00  0.00    -0.379 C  
HETATM   22  C   UNL     1     -10.785  10.547  66.731  1.00  0.00    -0.252 C  
HETATM   23  C   UNL     1      -9.514  10.144  67.474  1.00  0.00    -0.152 C  
ENDBRANCH  15  17
ENDBRANCH  13  15
ENDBRANCH  11  13
ENDBRANCH   8  11
ENDBRANCH   5   8
TORSDOF 5
ENDMDL
MODEL      226
REMARK 921   NORMALIZED FREE ENERGY PREDICTED BY IDOCK:   -4.03 KCAL/MOL
REMARK 922        TOTAL FREE ENERGY PREDICTED BY IDOCK:   -5.75 KCAL/MOL
REMARK 923 INTER-LIGAND FREE ENERGY PREDICTED BY IDOCK:   -5.19 KCAL/MOL
REMARK 924 INTRA-LIGAND FREE ENERGY PREDICTED BY IDOCK:   -0.56 KCAL/MOL
REMARK 927      BINDING AFFINITY PREDICTED BY RF-SCORE:    0.00 PKD
ROOT
HETATM    1  C   UNL     1     -12.515  12.983  70.889  1.00  0.00    -0.396 C  
HETATM    2  C   UNL     1     -12.372  11.488  70.920  1.00  0.00    -0.460 A  
HETATM    3  C   UNL     1     -13.139  10.714  71.801  1.00  0.00    -0.571 A  
HETATM    4  C   UNL     1     -12.954   9.332  71.875  1.00  0.00    -0.489 A  
HETATM    5  C   UNL     1     -12.001   8.720  71.054  1.00  0.00    -0.251 A  
HETATM    6  C   UNL     1     -11.435  10.857  70.089  1.00  0.00    -0.405 A  
HETATM    7  C   UNL     1     -11.248   9.474  70.152  1.00  0.00    -0.275 A  
ENDROOT
BRANCH   5   8
HETATM    8  S   UNL     1     -11.730   6.973  71.210  1.00  0.00    -0.337 S  
HETATM    9  O   UNL     1     -12.671   6.415  72.156  1.00  0.00    -0.244 OA 
HETATM   10  O   UNL     1     -11.632   6.438  69.863  1.00  0.00    -0.429 OA 
BRANCH   8  11
HETATM   11  N   UNL     1     -10.196   6.852  71.842  1.00  0.00    -0.189 N  
HETATM   12  H   UNL     1     -10.038   7.141  72.807  1.00  0.00     0.000 HD 
BRANCH  11  13
HETATM   13  C   UNL     1      -9.124   6.374  71.104  1.00  0.00    -0.150 C  
HETATM   14  O   UNL     1      -8.559   5.327  71.389  1.00  0.00    -0.125 OA 
BRANCH  13  15
HETATM   15  N   UNL     1      -8.755   7.208  70.062  1.00  0.00    -0.141 N  
HETATM   16  H   UNL     1      -8.526   8.180  70.268  1.00  0.00     0.000 HD 
BRANCH  15  17
HETATM   17  N   UNL     1      -8.682   6.757  68.708  1.00  0.00    -0.125 NA 
HETATM   18  C   UNL     1      -8.826   7.892  67.776  1.00  0.00    -0.122 C  
HETATM   19  C   UNL     1      -8.741   7.591  66.276  1.00  0.00    -0.165 C  
HETATM   20  C   UNL     1      -7.339   7.193  65.827  1.00  0.00    -0.075 C  
HETATM   21  C   UNL     1      -7.030   5.710  65.996  1.00  0.00    -0.063 C  
HETATM   22  C   UNL     1      -7.598   5.051  67.249  1.00  0.00    -0.091 C  
HETATM   23  C   UNL     1      -7.493   5.913  68.504  1.00  0.00    -0.086 C  
ENDBRANCH  15  17
ENDBRANCH  13  15
ENDBRANCH  11  13
ENDBRANCH   8  11
ENDBRANCH   5   8
TORSDOF 5
ENDMDL
MODEL      227
REMARK 921   NORMALIZED FREE ENERGY PREDICTED BY IDOCK:   -4.03 KCAL/MOL
REMARK 922        TOTAL FREE ENERGY PREDICTED BY IDOCK:   -5.74 KCAL/MOL
REMARK 923 INTER-LIGAND FREE ENERGY PREDICTED BY IDOCK:   -5.38 KCAL/MOL
REMARK 924 INTRA-LIGAND FREE ENERGY PREDICTED BY IDOCK:   -0.36 KCAL/MOL
REMARK 927      BINDING AFFINITY PREDICTED BY RF-SCORE:    0.00 PKD
ROOT
HETATM    1  C   UNL     1     -12.110  12.878  63.447  1.00  0.00    -0.610 C  
HETATM    2  C   UNL     1     -11.491  12.123  64.588  1.00  0.00    -0.388 A  
HETATM    3  C   UNL     1     -10.557  11.106  64.350  1.00  0.00    -0.411 A  
HETATM    4  C   UNL     1     -10.035  10.362  65.410  1.00  0.00    -0.362 A  
HETATM    5  C   UNL     1     -10.444  10.644  66.717  1.00  0.00    -0.247 A  
HETATM    6  C   UNL     1     -11.876  12.407  65.906  1.00  0.00    -0.467 A  
HETATM    7  C   UNL     1     -11.353  11.671  66.973  1.00  0.00    -0.373 A  
ENDROOT
BRANCH   5   8
HETATM    8  S   UNL     1      -9.824   9.643  68.046  1.00  0.00    -0.156 S  
HETATM    9  O   UNL     1      -8.566   9.040  67.657  1.00  0.00    -0.120 OA 
HETATM   10  O   UNL     1      -9.917  10.440  69.255  1.00  0.00    -0.210 OA 
BRANCH   8  11
HETATM   11  N   UNL     1     -10.963   8.444  68.220  1.00  0.00    -0.439 N  
HETATM   12  H   UNL     1     -11.857   8.675  68.654  1.00  0.00     0.000 HD 
BRANCH  11  13
HETATM   13  C   UNL     1     -10.742   7.142  67.799  1.00  0.00    -0.212 C  
HETATM   14  O   UNL     1     -10.675   6.210  68.588  1.00  0.00    -0.244 OA 
BRANCH  13  15
HETATM   15  N   UNL     1     -10.575   7.025  66.429  1.00  0.00    -0.428 N  
HETATM   16  H   UNL     1     -10.992   7.730  65.821  1.00  0.00     0.000 HD 
BRANCH  15  17
HETATM   17  N   UNL     1      -9.841   5.953  65.835  1.00  0.00     0.064 NA 
HETATM   18  C   UNL     1      -8.593   5.706  66.582  1.00  0.00    -0.117 C  
HETATM   19  C   UNL     1      -7.693   4.563  66.099  1.00  0.00    -0.094 C  
HETATM   20  C   UNL     1      -8.299   3.184  66.341  1.00  0.00    -0.100 C  
HETATM   21  C   UNL     1      -9.242   2.718  65.238  1.00  0.00    -0.130 C  
HETATM   22  C   UNL     1     -10.128   3.795  64.621  1.00  0.00    -0.193 C  
HETATM   23  C   UNL     1     -10.706   4.778  65.635  1.00  0.00    -0.141 C  
ENDBRANCH  15  17
ENDBRANCH  13  15
ENDBRANCH  11  13
ENDBRANCH   8  11
ENDBRANCH   5   8
TORSDOF 5
ENDMDL
MODEL      228
REMARK 921   NORMALIZED FREE ENERGY PREDICTED BY IDOCK:   -4.02 KCAL/MOL
REMARK 922        TOTAL FREE ENERGY PREDICTED BY IDOCK:   -5.74 KCAL/MOL
REMARK 923 INTER-LIGAND FREE ENERGY PREDICTED BY IDOCK:   -5.49 KCAL/MOL
REMARK 924 INTRA-LIGAND FREE ENERGY PREDICTED BY IDOCK:   -0.24 KCAL/MOL
REMARK 927      BINDING AFFINITY PREDICTED BY RF-SCORE:    0.00 PKD
ROOT
HETATM    1  C   UNL     1     -10.869   7.141  70.053  1.00  0.00    -0.276 C  
HETATM    2  C   UNL     1     -10.243   7.801  68.858  1.00  0.00    -0.220 A  
HETATM    3  C   UNL     1     -10.412   7.266  67.574  1.00  0.00    -0.337 A  
HETATM    4  C   UNL     1      -9.772   7.844  66.477  1.00  0.00    -0.279 A  
HETATM    5  C   UNL     1      -8.964   8.970  66.664  1.00  0.00    -0.135 A  
HETATM    6  C   UNL     1      -9.444   8.942  69.027  1.00  0.00    -0.156 A  
HETATM    7  C   UNL     1      -8.805   9.529  67.933  1.00  0.00    -0.119 A  
ENDROOT
BRANCH   5   8
HETATM    8  S   UNL     1      -8.101   9.650  65.269  1.00  0.00    -0.132 S  
HETATM    9  O   UNL     1      -6.722   9.905  65.624  1.00  0.00    -0.086 OA 
HETATM   10  O   UNL     1      -8.427   8.817  64.124  1.00  0.00    -0.168 OA 
BRANCH   8  11
HETATM   11  N   UNL     1      -8.862  11.101  64.986  1.00  0.00    -0.372 N  
HETATM   12  H   UNL     1      -8.350  11.966  65.157  1.00  0.00     0.000 HD 
BRANCH  11  13
HETATM   13  C   UNL     1     -10.168  11.178  64.526  1.00  0.00    -0.324 C  
HETATM   14  O   UNL     1     -10.465  10.892  63.375  1.00  0.00    -0.319 OA 
BRANCH  13  15
HETATM   15  N   UNL     1     -11.063  11.636  65.478  1.00  0.00    -0.272 N  
HETATM   16  H   UNL     1     -11.500  10.962  66.106  1.00  0.00     0.000 HD 
BRANCH  15  17
HETATM   17  N   UNL     1     -11.398  13.019  65.612  1.00  0.00    -0.294 NA 
HETATM   18  C   UNL     1     -10.503  13.675  66.584  1.00  0.00    -0.272 C  
HETATM   19  C   UNL     1     -10.702  15.175  66.829  1.00  0.00    -0.311 C  
HETATM   20  C   UNL     1     -10.297  16.033  65.635  1.00  0.00    -0.414 C  
HETATM   21  C   UNL     1     -11.395  16.203  64.591  1.00  0.00    -0.287 C  
HETATM   22  C   UNL     1     -12.263  14.976  64.334  1.00  0.00    -0.353 C  
HETATM   23  C   UNL     1     -11.485  13.664  64.291  1.00  0.00    -0.366 C  
ENDBRANCH  15  17
ENDBRANCH  13  15
ENDBRANCH  11  13
ENDBRANCH   8  11
ENDBRANCH   5   8
TORSDOF 5
ENDMDL
MODEL      229
REMARK 921   NORMALIZED FREE ENERGY PREDICTED BY IDOCK:   -4.02 KCAL/MOL
REMARK 922        TOTAL FREE ENERGY PREDICTED BY IDOCK:   -5.73 KCAL/MOL
REMARK 923 INTER-LIGAND FREE ENERGY PREDICTED BY IDOCK:   -5.42 KCAL/MOL
REMARK 924 INTRA-LIGAND FREE ENERGY PREDICTED BY IDOCK:   -0.31 KCAL/MOL
REMARK 927      BINDING AFFINITY PREDICTED BY RF-SCORE:    0.00 PKD
ROOT
HETATM    1  C   UNL     1      -5.365  14.176  70.233  1.00  0.00    -0.105 C  
HETATM    2  C   UNL     1      -6.418  14.855  69.406  1.00  0.00    -0.131 A  
HETATM    3  C   UNL     1      -7.525  15.461  70.015  1.00  0.00     0.111 A  
HETATM    4  C   UNL     1      -8.536  16.031  69.238  1.00  0.00    -0.224 A  
HETATM    5  C   UNL     1      -8.433  16.002  67.843  1.00  0.00    -0.162 A  
HETATM    6  C   UNL     1      -6.320  14.851  68.007  1.00  0.00    -0.163 A  
HETATM    7  C   UNL     1      -7.324  15.425  67.223  1.00  0.00    -0.239 A  
ENDROOT
BRANCH   5   8
HETATM    8  S   UNL     1      -9.760  16.670  66.871  1.00  0.00    -0.265 S  
HETATM    9  O   UNL     1      -9.872  18.092  67.109  1.00  0.00    -0.295 OA 
HETATM   10  O   UNL     1      -9.593  16.158  65.522  1.00  0.00    -0.447 OA 
BRANCH   8  11
HETATM   11  N   UNL     1     -11.119  15.915  67.462  1.00  0.00    -0.281 N  
HETATM   12  H   UNL     1     -11.761  16.449  68.048  1.00  0.00     0.000 HD 
BRANCH  11  13
HETATM   13  C   UNL     1     -11.411  14.588  67.187  1.00  0.00    -0.350 C  
HETATM   14  O   UNL     1     -12.509  14.105  67.424  1.00  0.00    -0.210 OA 
BRANCH  13  15
HETATM   15  N   UNL     1     -10.339  13.884  66.663  1.00  0.00    -0.275 N  
HETATM   16  H   UNL     1      -9.394  14.219  66.847  1.00  0.00     0.000 HD 
BRANCH  15  17
HETATM   17  N   UNL     1     -10.510  12.704  65.875  1.00  0.00    -0.269 NA 
HETATM   18  C   UNL     1     -10.943  13.054  64.508  1.00  0.00    -0.358 C  
HETATM   19  C   UNL     1     -11.145  11.905  63.514  1.00  0.00    -0.506 C  
HETATM   20  C   UNL     1      -9.837  11.237  63.102  1.00  0.00    -0.403 C  
HETATM   21  C   UNL     1      -9.372  10.142  64.054  1.00  0.00    -0.339 C  
HETATM   22  C   UNL     1      -9.609  10.405  65.537  1.00  0.00    -0.290 C  
HETATM   23  C   UNL     1      -9.320  11.842  65.965  1.00  0.00    -0.220 C  
ENDBRANCH  15  17
ENDBRANCH  13  15
ENDBRANCH  11  13
ENDBRANCH   8  11
ENDBRANCH   5   8
TORSDOF 5
ENDMDL
MODEL      230
REMARK 921   NORMALIZED FREE ENERGY PREDICTED BY IDOCK:   -4.01 KCAL/MOL
REMARK 922        TOTAL FREE ENERGY PREDICTED BY IDOCK:   -5.72 KCAL/MOL
REMARK 923 INTER-LIGAND FREE ENERGY PREDICTED BY IDOCK:   -5.41 KCAL/MOL
REMARK 924 INTRA-LIGAND FREE ENERGY PREDICTED BY IDOCK:   -0.30 KCAL/MOL
REMARK 927      BINDING AFFINITY PREDICTED BY RF-SCORE:    0.00 PKD
ROOT
HETATM    1  C   UNL     1      -7.412   6.336  65.320  1.00  0.00    -0.084 C  
HETATM    2  C   UNL     1      -8.018   7.123  66.446  1.00  0.00    -0.112 A  
HETATM    3  C   UNL     1      -7.304   8.160  67.060  1.00  0.00    -0.088 A  
HETATM    4  C   UNL     1      -7.846   8.843  68.150  1.00  0.00    -0.101 A  
HETATM    5  C   UNL     1      -9.114   8.492  68.623  1.00  0.00    -0.139 A  
HETATM    6  C   UNL     1      -9.297   6.795  66.919  1.00  0.00    -0.176 A  
HETATM    7  C   UNL     1      -9.849   7.479  68.005  1.00  0.00    -0.177 A  
ENDROOT
BRANCH   5   8
HETATM    8  S   UNL     1      -9.758   9.324  70.053  1.00  0.00    -0.223 S  
HETATM    9  O   UNL     1     -10.937   8.634  70.530  1.00  0.00    -0.231 OA 
HETATM   10  O   UNL     1      -8.635   9.568  70.941  1.00  0.00    -0.259 OA 
BRANCH   8  11
HETATM   11  N   UNL     1     -10.204  10.824  69.488  1.00  0.00    -0.402 N  
HETATM   12  H   UNL     1      -9.493  11.551  69.411  1.00  0.00     0.000 HD 
BRANCH  11  13
HETATM   13  C   UNL     1     -11.506  11.120  69.117  1.00  0.00    -0.298 C  
HETATM   14  O   UNL     1     -12.006  10.670  68.096  1.00  0.00    -0.460 OA 
BRANCH  13  15
HETATM   15  N   UNL     1     -12.145  11.987  69.989  1.00  0.00    -0.303 N  
HETATM   16  H   UNL     1     -12.571  11.608  70.834  1.00  0.00     0.000 HD 
BRANCH  15  17
HETATM   17  N   UNL     1     -12.229  13.393  69.747  1.00  0.00    -0.283 NA 
HETATM   18  C   UNL     1     -12.166  14.141  71.017  1.00  0.00    -0.358 C  
HETATM   19  C   UNL     1     -12.212  15.671  70.941  1.00  0.00    -0.466 C  
HETATM   20  C   UNL     1     -10.948  16.275  70.337  1.00  0.00    -0.282 C  
HETATM   21  C   UNL     1     -10.957  16.341  68.814  1.00  0.00    -0.343 C  
HETATM   22  C   UNL     1     -11.599  15.156  68.101  1.00  0.00    -0.358 C  
HETATM   23  C   UNL     1     -11.258  13.802  68.718  1.00  0.00    -0.271 C  
ENDBRANCH  15  17
ENDBRANCH  13  15
ENDBRANCH  11  13
ENDBRANCH   8  11
ENDBRANCH   5   8
TORSDOF 5
ENDMDL
MODEL      231
REMARK 921   NORMALIZED FREE ENERGY PREDICTED BY IDOCK:   -4.00 KCAL/MOL
REMARK 922        TOTAL FREE ENERGY PREDICTED BY IDOCK:   -5.71 KCAL/MOL
REMARK 923 INTER-LIGAND FREE ENERGY PREDICTED BY IDOCK:   -5.14 KCAL/MOL
REMARK 924 INTRA-LIGAND FREE ENERGY PREDICTED BY IDOCK:   -0.56 KCAL/MOL
REMARK 927      BINDING AFFINITY PREDICTED BY RF-SCORE:    0.00 PKD
ROOT
HETATM    1  C   UNL     1      -7.876   3.140  66.775  1.00  0.00    -0.076 C  
HETATM    2  C   UNL     1      -8.480   4.021  67.831  1.00  0.00    -0.103 A  
HETATM    3  C   UNL     1      -8.804   3.506  69.094  1.00  0.00    -0.159 A  
HETATM    4  C   UNL     1      -9.427   4.312  70.048  1.00  0.00    -0.254 A  
HETATM    5  C   UNL     1      -9.720   5.644  69.741  1.00  0.00    -0.167 A  
HETATM    6  C   UNL     1      -8.763   5.364  67.545  1.00  0.00    -0.107 A  
HETATM    7  C   UNL     1      -9.381   6.179  68.497  1.00  0.00    -0.117 A  
ENDROOT
BRANCH   5   8
HETATM    8  S   UNL     1     -10.576   6.634  70.941  1.00  0.00    -0.232 S  
HETATM    9  O   UNL     1     -12.003   6.441  70.805  1.00  0.00    -0.338 OA 
HETATM   10  O   UNL     1      -9.919   6.412  72.217  1.00  0.00    -0.166 OA 
BRANCH   8  11
HETATM   11  N   UNL     1     -10.202   8.199  70.521  1.00  0.00    -0.196 N  
HETATM   12  H   UNL     1      -9.286   8.394  70.116  1.00  0.00     0.000 HD 
BRANCH  11  13
HETATM   13  C   UNL     1     -11.090   9.248  70.700  1.00  0.00    -0.276 C  
HETATM   14  O   UNL     1     -11.316   9.721  71.805  1.00  0.00    -0.298 OA 
BRANCH  13  15
HETATM   15  N   UNL     1     -11.700   9.663  69.528  1.00  0.00    -0.438 N  
HETATM   16  H   UNL     1     -12.497   9.134  69.176  1.00  0.00     0.000 HD 
BRANCH  15  17
HETATM   17  N   UNL     1     -11.254  10.806  68.795  1.00  0.00    -0.251 NA 
HETATM   18  C   UNL     1     -10.998  10.448  67.386  1.00  0.00    -0.270 C  
HETATM   19  C   UNL     1     -10.540  11.566  66.444  1.00  0.00    -0.304 C  
HETATM   20  C   UNL     1     -11.636  12.586  66.153  1.00  0.00    -0.448 C  
HETATM   21  C   UNL     1     -11.741  13.698  67.191  1.00  0.00    -0.418 C  
HETATM   22  C   UNL     1     -11.514  13.279  68.640  1.00  0.00    -0.339 C  
HETATM   23  C   UNL     1     -12.160  11.947  69.007  1.00  0.00    -0.186 C  
ENDBRANCH  15  17
ENDBRANCH  13  15
ENDBRANCH  11  13
ENDBRANCH   8  11
ENDBRANCH   5   8
TORSDOF 5
ENDMDL
MODEL      232
REMARK 921   NORMALIZED FREE ENERGY PREDICTED BY IDOCK:   -3.99 KCAL/MOL
REMARK 922        TOTAL FREE ENERGY PREDICTED BY IDOCK:   -5.70 KCAL/MOL
REMARK 923 INTER-LIGAND FREE ENERGY PREDICTED BY IDOCK:   -5.23 KCAL/MOL
REMARK 924 INTRA-LIGAND FREE ENERGY PREDICTED BY IDOCK:   -0.46 KCAL/MOL
REMARK 927      BINDING AFFINITY PREDICTED BY RF-SCORE:    0.00 PKD
ROOT
HETATM    1  C   UNL     1      -7.896  17.226  66.051  1.00  0.00    -0.210 C  
HETATM    2  C   UNL     1      -8.574  15.900  66.242  1.00  0.00    -0.348 A  
HETATM    3  C   UNL     1      -9.849  15.665  65.713  1.00  0.00    -0.386 A  
HETATM    4  C   UNL     1     -10.503  14.455  65.952  1.00  0.00    -0.317 A  
HETATM    5  C   UNL     1      -9.872  13.470  66.718  1.00  0.00    -0.267 A  
HETATM    6  C   UNL     1      -7.945  14.895  66.992  1.00  0.00    -0.170 A  
HETATM    7  C   UNL     1      -8.590  13.679  67.230  1.00  0.00    -0.220 A  
ENDROOT
BRANCH   5   8
HETATM    8  S   UNL     1     -10.745  11.965  67.070  1.00  0.00    -0.252 S  
HETATM    9  O   UNL     1     -10.121  11.287  68.185  1.00  0.00    -0.172 OA 
HETATM   10  O   UNL     1     -12.159  12.295  67.104  1.00  0.00    -0.560 OA 
BRANCH   8  11
HETATM   11  N   UNL     1     -10.542  11.045  65.699  1.00  0.00    -0.231 N  
HETATM   12  H   UNL     1     -10.852  11.422  64.804  1.00  0.00     0.000 HD 
BRANCH  11  13
HETATM   13  C   UNL     1      -9.968   9.784  65.730  1.00  0.00    -0.279 C  
HETATM   14  O   UNL     1      -9.223   9.391  64.843  1.00  0.00    -0.231 OA 
BRANCH  13  15
HETATM   15  N   UNL     1     -10.350   9.029  66.827  1.00  0.00    -0.259 N  
HETATM   16  H   UNL     1     -11.034   9.416  67.476  1.00  0.00     0.000 HD 
BRANCH  15  17
HETATM   17  N   UNL     1      -9.819   7.726  67.082  1.00  0.00    -0.185 NA 
HETATM   18  C   UNL     1      -9.164   7.685  68.404  1.00  0.00    -0.140 C  
HETATM   19  C   UNL     1      -8.565   6.349  68.855  1.00  0.00    -0.123 C  
HETATM   20  C   UNL     1      -9.623   5.296  69.168  1.00  0.00    -0.201 C  
HETATM   21  C   UNL     1     -10.097   4.510  67.952  1.00  0.00    -0.047 C  
HETATM   22  C   UNL     1     -10.235   5.305  66.658  1.00  0.00    -0.291 C  
HETATM   23  C   UNL     1     -10.842   6.693  66.846  1.00  0.00    -0.345 C  
ENDBRANCH  15  17
ENDBRANCH  13  15
ENDBRANCH  11  13
ENDBRANCH   8  11
ENDBRANCH   5   8
TORSDOF 5
ENDMDL
MODEL      233
REMARK 921   NORMALIZED FREE ENERGY PREDICTED BY IDOCK:   -3.99 KCAL/MOL
REMARK 922        TOTAL FREE ENERGY PREDICTED BY IDOCK:   -5.69 KCAL/MOL
REMARK 923 INTER-LIGAND FREE ENERGY PREDICTED BY IDOCK:   -5.41 KCAL/MOL
REMARK 924 INTRA-LIGAND FREE ENERGY PREDICTED BY IDOCK:   -0.28 KCAL/MOL
REMARK 927      BINDING AFFINITY PREDICTED BY RF-SCORE:    0.00 PKD
ROOT
HETATM    1  C   UNL     1      -9.772   4.953  68.846  1.00  0.00    -0.242 C  
HETATM    2  C   UNL     1     -10.202   6.361  69.141  1.00  0.00    -0.217 A  
HETATM    3  C   UNL     1     -10.991   6.648  70.264  1.00  0.00    -0.355 A  
HETATM    4  C   UNL     1     -11.445   7.948  70.496  1.00  0.00    -0.204 A  
HETATM    5  C   UNL     1     -11.099   8.969  69.605  1.00  0.00    -0.067 A  
HETATM    6  C   UNL     1      -9.848   7.399  68.267  1.00  0.00    -0.173 A  
HETATM    7  C   UNL     1     -10.293   8.704  68.497  1.00  0.00    -0.228 A  
ENDROOT
BRANCH   5   8
HETATM    8  S   UNL     1     -11.742  10.600  69.878  1.00  0.00    -0.333 S  
HETATM    9  O   UNL     1     -13.012  10.745  69.199  1.00  0.00     0.046 OA 
HETATM   10  O   UNL     1     -11.632  10.865  71.302  1.00  0.00    -0.033 OA 
BRANCH   8  11
HETATM   11  N   UNL     1     -10.629  11.604  69.158  1.00  0.00    -0.388 N  
HETATM   12  H   UNL     1      -9.641  11.357  69.205  1.00  0.00     0.000 HD 
BRANCH  11  13
HETATM   13  C   UNL     1     -10.996  12.766  68.496  1.00  0.00    -0.258 C  
HETATM   14  O   UNL     1     -10.395  13.819  68.658  1.00  0.00    -0.234 OA 
BRANCH  13  15
HETATM   15  N   UNL     1     -12.106  12.612  67.683  1.00  0.00    -0.234 N  
HETATM   16  H   UNL     1     -13.032  12.772  68.080  1.00  0.00     0.000 HD 
BRANCH  15  17
HETATM   17  N   UNL     1     -12.002  12.237  66.307  1.00  0.00    -0.626 NA 
HETATM   18  C   UNL     1     -12.416  13.352  65.435  1.00  0.00    -0.494 C  
HETATM   19  C   UNL     1     -12.337  13.132  63.920  1.00  0.00    -0.439 C  
HETATM   20  C   UNL     1     -10.904  13.049  63.404  1.00  0.00     0.154 C  
HETATM   21  C   UNL     1     -10.292  11.656  63.494  1.00  0.00    -0.488 C  
HETATM   22  C   UNL     1     -10.658  10.848  64.734  1.00  0.00    -0.316 C  
HETATM   23  C   UNL     1     -10.676  11.664  66.023  1.00  0.00    -0.280 C  
ENDBRANCH  15  17
ENDBRANCH  13  15
ENDBRANCH  11  13
ENDBRANCH   8  11
ENDBRANCH   5   8
TORSDOF 5
ENDMDL
MODEL      234
REMARK 921   NORMALIZED FREE ENERGY PREDICTED BY IDOCK:   -3.98 KCAL/MOL
REMARK 922        TOTAL FREE ENERGY PREDICTED BY IDOCK:   -5.68 KCAL/MOL
REMARK 923 INTER-LIGAND FREE ENERGY PREDICTED BY IDOCK:   -5.01 KCAL/MOL
REMARK 924 INTRA-LIGAND FREE ENERGY PREDICTED BY IDOCK:   -0.67 KCAL/MOL
REMARK 927      BINDING AFFINITY PREDICTED BY RF-SCORE:    0.00 PKD
ROOT
HETATM    1  C   UNL     1      -8.727   1.773  63.900  1.00  0.00    -0.086 C  
HETATM    2  C   UNL     1      -9.017   2.687  65.056  1.00  0.00    -0.131 A  
HETATM    3  C   UNL     1      -8.837   2.251  66.375  1.00  0.00    -0.126 A  
HETATM    4  C   UNL     1      -9.173   3.081  67.447  1.00  0.00    -0.225 A  
HETATM    5  C   UNL     1      -9.683   4.359  67.196  1.00  0.00    -0.197 A  
HETATM    6  C   UNL     1      -9.511   3.978  64.820  1.00  0.00    -0.170 A  
HETATM    7  C   UNL     1      -9.843   4.817  65.887  1.00  0.00    -0.225 A  
ENDROOT
BRANCH   5   8
HETATM    8  S   UNL     1     -10.170   5.373  68.569  1.00  0.00    -0.146 S  
HETATM    9  O   UNL     1     -11.276   6.222  68.181  1.00  0.00    -0.327 OA 
HETATM   10  O   UNL     1     -10.281   4.499  69.723  1.00  0.00    -0.201 OA 
BRANCH   8  11
HETATM   11  N   UNL     1      -8.839   6.326  68.865  1.00  0.00    -0.124 N  
HETATM   12  H   UNL     1      -7.913   5.898  68.841  1.00  0.00     0.000 HD 
BRANCH  11  13
HETATM   13  C   UNL     1      -8.942   7.680  69.144  1.00  0.00    -0.135 C  
HETATM   14  O   UNL     1      -8.485   8.531  68.394  1.00  0.00    -0.135 OA 
BRANCH  13  15
HETATM   15  N   UNL     1      -9.570   7.949  70.349  1.00  0.00    -0.171 N  
HETATM   16  H   UNL     1      -9.053   7.802  71.216  1.00  0.00     0.000 HD 
BRANCH  15  17
HETATM   17  N   UNL     1     -10.915   8.427  70.422  1.00  0.00    -0.240 NA 
HETATM   18  C   UNL     1     -11.717   7.575  71.321  1.00  0.00    -0.287 C  
HETATM   19  C   UNL     1     -13.184   7.962  71.541  1.00  0.00    -0.342 C  
HETATM   20  C   UNL     1     -13.346   9.245  72.350  1.00  0.00    -0.521 C  
HETATM   21  C   UNL     1     -13.284  10.518  71.514  1.00  0.00    -0.470 C  
HETATM   22  C   UNL     1     -12.278  10.513  70.368  1.00  0.00    -0.415 C  
HETATM   23  C   UNL     1     -10.940   9.868  70.721  1.00  0.00    -0.337 C  
ENDBRANCH  15  17
ENDBRANCH  13  15
ENDBRANCH  11  13
ENDBRANCH   8  11
ENDBRANCH   5   8
TORSDOF 5
ENDMDL
MODEL      235
REMARK 921   NORMALIZED FREE ENERGY PREDICTED BY IDOCK:   -3.97 KCAL/MOL
REMARK 922        TOTAL FREE ENERGY PREDICTED BY IDOCK:   -5.66 KCAL/MOL
REMARK 923 INTER-LIGAND FREE ENERGY PREDICTED BY IDOCK:   -4.68 KCAL/MOL
REMARK 924 INTRA-LIGAND FREE ENERGY PREDICTED BY IDOCK:   -0.98 KCAL/MOL
REMARK 927      BINDING AFFINITY PREDICTED BY RF-SCORE:    0.00 PKD
ROOT
HETATM    1  C   UNL     1      -7.142   8.647  65.026  1.00  0.00    -0.080 C  
HETATM    2  C   UNL     1      -8.064   9.652  65.654  1.00  0.00    -0.117 A  
HETATM    3  C   UNL     1      -7.555  10.797  66.281  1.00  0.00    -0.142 A  
HETATM    4  C   UNL     1      -8.413  11.694  66.922  1.00  0.00    -0.168 A  
HETATM    5  C   UNL     1      -9.789  11.447  66.927  1.00  0.00    -0.193 A  
HETATM    6  C   UNL     1      -9.449   9.429  65.651  1.00  0.00    -0.328 A  
HETATM    7  C   UNL     1     -10.314  10.325  66.284  1.00  0.00    -0.256 A  
ENDROOT
BRANCH   5   8
HETATM    8  S   UNL     1     -10.857  12.560  67.806  1.00  0.00    -0.234 S  
HETATM    9  O   UNL     1     -10.306  13.897  67.769  1.00  0.00    -0.235 OA 
HETATM   10  O   UNL     1     -12.209  12.306  67.339  1.00  0.00    -0.478 OA 
BRANCH   8  11
HETATM   11  N   UNL     1     -10.823  12.007  69.374  1.00  0.00    -0.452 N  
HETATM   12  H   UNL     1     -10.129  12.390  70.016  1.00  0.00     0.000 HD 
BRANCH  11  13
HETATM   13  C   UNL     1     -11.703  11.042  69.840  1.00  0.00    -0.346 C  
HETATM   14  O   UNL     1     -12.803  11.334  70.289  1.00  0.00    -0.136 OA 
BRANCH  13  15
HETATM   15  N   UNL     1     -11.197   9.754  69.775  1.00  0.00    -0.331 N  
HETATM   16  H   UNL     1     -11.694   9.059  69.219  1.00  0.00     0.000 HD 
BRANCH  15  17
HETATM   17  N   UNL     1     -10.004   9.365  70.459  1.00  0.00    -0.249 NA 
HETATM   18  C   UNL     1     -10.333   8.585  71.668  1.00  0.00    -0.263 C  
HETATM   19  C   UNL     1      -9.166   8.057  72.509  1.00  0.00    -0.280 C  
HETATM   20  C   UNL     1      -8.383   6.949  71.813  1.00  0.00    -0.108 C  
HETATM   21  C   UNL     1      -7.292   7.454  70.875  1.00  0.00    -0.073 C  
HETATM   22  C   UNL     1      -7.631   8.708  70.076  1.00  0.00    -0.068 C  
HETATM   23  C   UNL     1      -9.056   8.728  69.530  1.00  0.00    -0.146 C  
ENDBRANCH  15  17
ENDBRANCH  13  15
ENDBRANCH  11  13
ENDBRANCH   8  11
ENDBRANCH   5   8
TORSDOF 5
ENDMDL
MODEL      236
REMARK 921   NORMALIZED FREE ENERGY PREDICTED BY IDOCK:   -3.95 KCAL/MOL
REMARK 922        TOTAL FREE ENERGY PREDICTED BY IDOCK:   -5.64 KCAL/MOL
REMARK 923 INTER-LIGAND FREE ENERGY PREDICTED BY IDOCK:   -5.04 KCAL/MOL
REMARK 924 INTRA-LIGAND FREE ENERGY PREDICTED BY IDOCK:   -0.59 KCAL/MOL
REMARK 927      BINDING AFFINITY PREDICTED BY RF-SCORE:    0.00 PKD
ROOT
HETATM    1  C   UNL     1     -12.433  14.753  64.443  1.00  0.00    -0.274 C  
HETATM    2  C   UNL     1     -11.522  13.560  64.476  1.00  0.00    -0.407 A  
HETATM    3  C   UNL     1     -11.628  12.551  63.510  1.00  0.00    -0.584 A  
HETATM    4  C   UNL     1     -10.824  11.411  63.586  1.00  0.00    -0.459 A  
HETATM    5  C   UNL     1      -9.902  11.286  64.629  1.00  0.00    -0.268 A  
HETATM    6  C   UNL     1     -10.578  13.429  65.506  1.00  0.00    -0.294 A  
HETATM    7  C   UNL     1      -9.766  12.295  65.584  1.00  0.00    -0.205 A  
ENDROOT
BRANCH   5   8
HETATM    8  S   UNL     1      -8.938   9.800  64.749  1.00  0.00    -0.241 S  
HETATM    9  O   UNL     1      -8.727   9.247  63.428  1.00  0.00    -0.217 OA 
HETATM   10  O   UNL     1      -7.809  10.097  65.613  1.00  0.00    -0.132 OA 
BRANCH   8  11
HETATM   11  N   UNL     1      -9.897   8.760  65.622  1.00  0.00    -0.429 N  
HETATM   12  H   UNL     1     -10.477   8.087  65.120  1.00  0.00     0.000 HD 
BRANCH  11  13
HETATM   13  C   UNL     1      -9.938   8.773  67.008  1.00  0.00    -0.240 C  
HETATM   14  O   UNL     1     -10.833   9.335  67.622  1.00  0.00    -0.250 OA 
BRANCH  13  15
HETATM   15  N   UNL     1      -8.864   8.128  67.598  1.00  0.00    -0.135 N  
HETATM   16  H   UNL     1      -8.173   8.685  68.101  1.00  0.00     0.000 HD 
BRANCH  15  17
HETATM   17  N   UNL     1      -8.688   6.711  67.530  1.00  0.00    -0.119 NA 
HETATM   18  C   UNL     1      -9.996   6.028  67.534  1.00  0.00    -0.137 C  
HETATM   19  C   UNL     1      -9.996   4.499  67.434  1.00  0.00    -0.171 C  
HETATM   20  C   UNL     1      -9.555   3.992  66.065  1.00  0.00    -0.200 C  
HETATM   21  C   UNL     1      -8.045   3.860  65.907  1.00  0.00    -0.101 C  
HETATM   22  C   UNL     1      -7.209   4.947  66.574  1.00  0.00    -0.077 C  
HETATM   23  C   UNL     1      -7.786   6.352  66.423  1.00  0.00    -0.104 C  
ENDBRANCH  15  17
ENDBRANCH  13  15
ENDBRANCH  11  13
ENDBRANCH   8  11
ENDBRANCH   5   8
TORSDOF 5
ENDMDL
MODEL      237
REMARK 921   NORMALIZED FREE ENERGY PREDICTED BY IDOCK:   -3.94 KCAL/MOL
REMARK 922        TOTAL FREE ENERGY PREDICTED BY IDOCK:   -5.63 KCAL/MOL
REMARK 923 INTER-LIGAND FREE ENERGY PREDICTED BY IDOCK:   -5.07 KCAL/MOL
REMARK 924 INTRA-LIGAND FREE ENERGY PREDICTED BY IDOCK:   -0.56 KCAL/MOL
REMARK 927      BINDING AFFINITY PREDICTED BY RF-SCORE:    0.00 PKD
ROOT
HETATM    1  C   UNL     1     -12.333  12.884  70.266  1.00  0.00    -0.294 C  
HETATM    2  C   UNL     1     -11.867  13.773  69.149  1.00  0.00    -0.398 A  
HETATM    3  C   UNL     1     -11.575  13.242  67.886  1.00  0.00    -0.370 A  
HETATM    4  C   UNL     1     -11.077  14.062  66.871  1.00  0.00    -0.310 A  
HETATM    5  C   UNL     1     -10.880  15.424  67.120  1.00  0.00    -0.321 A  
HETATM    6  C   UNL     1     -11.682  15.145  69.377  1.00  0.00    -0.355 A  
HETATM    7  C   UNL     1     -11.191  15.973  68.365  1.00  0.00    -0.364 A  
ENDROOT
BRANCH   5   8
HETATM    8  S   UNL     1     -10.181  16.438  65.841  1.00  0.00    -0.348 S  
HETATM    9  O   UNL     1     -10.677  16.008  64.551  1.00  0.00    -0.542 OA 
HETATM   10  O   UNL     1     -10.331  17.818  66.267  1.00  0.00    -0.367 OA 
BRANCH   8  11
HETATM   11  N   UNL     1      -8.549  16.128  65.920  1.00  0.00    -0.186 N  
HETATM   12  H   UNL     1      -8.137  15.487  65.242  1.00  0.00     0.000 HD 
BRANCH  11  13
HETATM   13  C   UNL     1      -7.728  16.710  66.874  1.00  0.00    -0.228 C  
HETATM   14  O   UNL     1      -7.265  17.833  66.729  1.00  0.00    -0.181 OA 
BRANCH  13  15
HETATM   15  N   UNL     1      -7.471  15.888  67.958  1.00  0.00    -0.122 N  
HETATM   16  H   UNL     1      -7.359  16.310  68.879  1.00  0.00     0.000 HD 
BRANCH  15  17
HETATM   17  N   UNL     1      -7.356  14.469  67.833  1.00  0.00    -0.138 NA 
HETATM   18  C   UNL     1      -5.940  14.059  67.878  1.00  0.00    -0.138 C  
HETATM   19  C   UNL     1      -5.634  12.560  67.789  1.00  0.00    -0.113 C  
HETATM   20  C   UNL     1      -6.064  11.788  69.032  1.00  0.00    -0.066 C  
HETATM   21  C   UNL     1      -7.522  11.346  69.016  1.00  0.00    -0.093 C  
HETATM   22  C   UNL     1      -8.510  12.335  68.406  1.00  0.00    -0.138 C  
HETATM   23  C   UNL     1      -8.247  13.789  68.788  1.00  0.00    -0.002 C  
ENDBRANCH  15  17
ENDBRANCH  13  15
ENDBRANCH  11  13
ENDBRANCH   8  11
ENDBRANCH   5   8
TORSDOF 5
ENDMDL
MODEL      238
REMARK 921   NORMALIZED FREE ENERGY PREDICTED BY IDOCK:   -3.93 KCAL/MOL
REMARK 922        TOTAL FREE ENERGY PREDICTED BY IDOCK:   -5.62 KCAL/MOL
REMARK 923 INTER-LIGAND FREE ENERGY PREDICTED BY IDOCK:   -5.17 KCAL/MOL
REMARK 924 INTRA-LIGAND FREE ENERGY PREDICTED BY IDOCK:   -0.46 KCAL/MOL
REMARK 927      BINDING AFFINITY PREDICTED BY RF-SCORE:    0.00 PKD
ROOT
HETATM    1  C   UNL     1      -8.130   7.251  73.158  1.00  0.00    -0.123 C  
HETATM    2  C   UNL     1      -8.657   7.768  71.850  1.00  0.00    -0.143 A  
HETATM    3  C   UNL     1      -9.549   8.849  71.816  1.00  0.00    -0.353 A  
HETATM    4  C   UNL     1     -10.089   9.282  70.603  1.00  0.00    -0.339 A  
HETATM    5  C   UNL     1      -9.727   8.636  69.417  1.00  0.00    -0.176 A  
HETATM    6  C   UNL     1      -8.289   7.143  70.650  1.00  0.00    -0.126 A  
HETATM    7  C   UNL     1      -8.820   7.575  69.433  1.00  0.00    -0.136 A  
ENDROOT
BRANCH   5   8
HETATM    8  S   UNL     1     -10.476   9.155  67.894  1.00  0.00    -0.218 S  
HETATM    9  O   UNL     1     -10.911   7.996  67.144  1.00  0.00    -0.278 OA 
HETATM   10  O   UNL     1     -11.413  10.215  68.224  1.00  0.00    -0.186 OA 
BRANCH   8  11
HETATM   11  N   UNL     1      -9.243   9.902  67.065  1.00  0.00    -0.141 N  
HETATM   12  H   UNL     1      -8.285   9.778  67.393  1.00  0.00     0.000 HD 
BRANCH  11  13
HETATM   13  C   UNL     1      -9.469  10.686  65.945  1.00  0.00    -0.196 C  
HETATM   14  O   UNL     1     -10.110  10.275  64.987  1.00  0.00    -0.323 OA 
BRANCH  13  15
HETATM   15  N   UNL     1      -8.876  11.935  66.015  1.00  0.00    -0.395 N  
HETATM   16  H   UNL     1      -7.915  12.041  65.691  1.00  0.00     0.000 HD 
BRANCH  15  17
HETATM   17  N   UNL     1      -9.560  13.081  66.525  1.00  0.00    -0.258 NA 
HETATM   18  C   UNL     1     -11.007  12.980  66.257  1.00  0.00    -0.284 C  
HETATM   19  C   UNL     1     -11.902  14.116  66.767  1.00  0.00    -0.449 C  
HETATM   20  C   UNL     1     -12.023  14.143  68.287  1.00  0.00    -0.367 C  
HETATM   21  C   UNL     1     -10.903  14.905  68.985  1.00  0.00    -0.248 C  
HETATM   22  C   UNL     1      -9.513  14.749  68.377  1.00  0.00    -0.213 C  
HETATM   23  C   UNL     1      -9.188  13.327  67.929  1.00  0.00    -0.213 C  
ENDBRANCH  15  17
ENDBRANCH  13  15
ENDBRANCH  11  13
ENDBRANCH   8  11
ENDBRANCH   5   8
TORSDOF 5
ENDMDL
MODEL      239
REMARK 921   NORMALIZED FREE ENERGY PREDICTED BY IDOCK:   -3.92 KCAL/MOL
REMARK 922        TOTAL FREE ENERGY PREDICTED BY IDOCK:   -5.60 KCAL/MOL
REMARK 923 INTER-LIGAND FREE ENERGY PREDICTED BY IDOCK:   -5.80 KCAL/MOL
REMARK 924 INTRA-LIGAND FREE ENERGY PREDICTED BY IDOCK:    0.20 KCAL/MOL
REMARK 927      BINDING AFFINITY PREDICTED BY RF-SCORE:    0.00 PKD
ROOT
HETATM    1  C   UNL     1     -12.940  11.491  72.271  1.00  0.00     0.059 C  
HETATM    2  C   UNL     1     -12.580  11.712  70.830  1.00  0.00    -0.365 A  
HETATM    3  C   UNL     1     -12.656  10.662  69.904  1.00  0.00    -0.168 A  
HETATM    4  C   UNL     1     -12.254  10.856  68.581  1.00  0.00     0.117 A  
HETATM    5  C   UNL     1     -11.784  12.110  68.179  1.00  0.00    -0.341 A  
HETATM    6  C   UNL     1     -12.124  12.969  70.407  1.00  0.00    -0.391 A  
HETATM    7  C   UNL     1     -11.727  13.172  69.083  1.00  0.00    -0.376 A  
ENDROOT
BRANCH   5   8
HETATM    8  S   UNL     1     -11.213  12.318  66.511  1.00  0.00    -0.342 S  
HETATM    9  O   UNL     1     -10.039  11.501  66.291  1.00  0.00    -0.213 OA 
HETATM   10  O   UNL     1     -12.374  12.191  65.648  1.00  0.00    -0.560 OA 
BRANCH   8  11
HETATM   11  N   UNL     1     -10.777  13.921  66.426  1.00  0.00    -0.280 N  
HETATM   12  H   UNL     1     -10.785  14.479  67.280  1.00  0.00     0.000 HD 
BRANCH  11  13
HETATM   13  C   UNL     1     -10.403  14.526  65.236  1.00  0.00    -0.410 C  
HETATM   14  O   UNL     1     -10.247  13.885  64.206  1.00  0.00    -0.276 OA 
BRANCH  13  15
HETATM   15  N   UNL     1     -10.196  15.891  65.351  1.00  0.00    -0.357 N  
HETATM   16  H   UNL     1     -10.896  16.527  64.969  1.00  0.00     0.000 HD 
BRANCH  15  17
HETATM   17  N   UNL     1      -9.039  16.440  65.986  1.00  0.00    -0.436 NA 
HETATM   18  C   UNL     1      -9.319  17.801  66.481  1.00  0.00    -0.279 C  
HETATM   19  C   UNL     1      -8.192  18.531  67.220  1.00  0.00    -0.254 C  
HETATM   20  C   UNL     1      -7.883  17.924  68.585  1.00  0.00    -0.294 C  
HETATM   21  C   UNL     1      -6.904  16.757  68.539  1.00  0.00    -0.164 C  
HETATM   22  C   UNL     1      -7.049  15.815  67.349  1.00  0.00    -0.236 C  
HETATM   23  C   UNL     1      -8.496  15.500  66.980  1.00  0.00    -0.235 C  
ENDBRANCH  15  17
ENDBRANCH  13  15
ENDBRANCH  11  13
ENDBRANCH   8  11
ENDBRANCH   5   8
TORSDOF 5
ENDMDL
MODEL      240
REMARK 921   NORMALIZED FREE ENERGY PREDICTED BY IDOCK:   -3.89 KCAL/MOL
REMARK 922        TOTAL FREE ENERGY PREDICTED BY IDOCK:   -5.56 KCAL/MOL
REMARK 923 INTER-LIGAND FREE ENERGY PREDICTED BY IDOCK:   -4.97 KCAL/MOL
REMARK 924 INTRA-LIGAND FREE ENERGY PREDICTED BY IDOCK:   -0.59 KCAL/MOL
REMARK 927      BINDING AFFINITY PREDICTED BY RF-SCORE:    0.00 PKD
ROOT
HETATM    1  C   UNL     1     -10.846  16.674  70.057  1.00  0.00    -0.173 C  
HETATM    2  C   UNL     1     -10.921  15.648  68.963  1.00  0.00    -0.263 A  
HETATM    3  C   UNL     1     -10.358  15.901  67.705  1.00  0.00    -0.278 A  
HETATM    4  C   UNL     1     -10.490  14.972  66.671  1.00  0.00    -0.284 A  
HETATM    5  C   UNL     1     -11.182  13.779  66.901  1.00  0.00    -0.313 A  
HETATM    6  C   UNL     1     -11.595  14.438  69.183  1.00  0.00    -0.344 A  
HETATM    7  C   UNL     1     -11.726  13.501  68.156  1.00  0.00    -0.396 A  
ENDROOT
BRANCH   5   8
HETATM    8  S   UNL     1     -11.400  12.641  65.556  1.00  0.00    -0.336 S  
HETATM    9  O   UNL     1     -12.806  12.527  65.235  1.00  0.00    -0.613 OA 
HETATM   10  O   UNL     1     -10.437  13.007  64.532  1.00  0.00    -0.359 OA 
BRANCH   8  11
HETATM   11  N   UNL     1     -10.866  11.186  66.160  1.00  0.00    -0.227 N  
HETATM   12  H   UNL     1     -11.329  10.796  66.981  1.00  0.00     0.000 HD 
BRANCH  11  13
HETATM   13  C   UNL     1      -9.816  10.485  65.589  1.00  0.00    -0.252 C  
HETATM   14  O   UNL     1      -9.750  10.287  64.384  1.00  0.00    -0.297 OA 
BRANCH  13  15
HETATM   15  N   UNL     1      -8.896  10.018  66.513  1.00  0.00    -0.138 N  
HETATM   16  H   UNL     1      -8.429   9.129  66.335  1.00  0.00     0.000 HD 
BRANCH  15  17
HETATM   17  N   UNL     1      -8.577  10.735  67.708  1.00  0.00    -0.126 NA 
HETATM   18  C   UNL     1      -7.736   9.911  68.597  1.00  0.00    -0.081 C  
HETATM   19  C   UNL     1      -7.273  10.540  69.916  1.00  0.00    -0.136 C  
HETATM   20  C   UNL     1      -6.252  11.655  69.718  1.00  0.00    -0.139 C  
HETATM   21  C   UNL     1      -6.870  13.023  69.448  1.00  0.00     0.038 C  
HETATM   22  C   UNL     1      -8.119  13.027  68.573  1.00  0.00    -0.082 C  
HETATM   23  C   UNL     1      -8.046  12.071  67.386  1.00  0.00    -0.168 C  
ENDBRANCH  15  17
ENDBRANCH  13  15
ENDBRANCH  11  13
ENDBRANCH   8  11
ENDBRANCH   5   8
TORSDOF 5
ENDMDL
MODEL      241
REMARK 921   NORMALIZED FREE ENERGY PREDICTED BY IDOCK:   -3.88 KCAL/MOL
REMARK 922        TOTAL FREE ENERGY PREDICTED BY IDOCK:   -5.55 KCAL/MOL
REMARK 923 INTER-LIGAND FREE ENERGY PREDICTED BY IDOCK:   -4.89 KCAL/MOL
REMARK 924 INTRA-LIGAND FREE ENERGY PREDICTED BY IDOCK:   -0.65 KCAL/MOL
REMARK 927      BINDING AFFINITY PREDICTED BY RF-SCORE:    0.00 PKD
ROOT
HETATM    1  C   UNL     1     -12.483  13.212  65.477  1.00  0.00    -0.516 C  
HETATM    2  C   UNL     1     -11.446  12.127  65.415  1.00  0.00    -0.387 A  
HETATM    3  C   UNL     1     -10.932  11.699  64.184  1.00  0.00    -0.442 A  
HETATM    4  C   UNL     1     -10.019  10.644  64.127  1.00  0.00    -0.406 A  
HETATM    5  C   UNL     1      -9.612  10.020  65.310  1.00  0.00    -0.291 A  
HETATM    6  C   UNL     1     -11.014  11.504  66.595  1.00  0.00    -0.349 A  
HETATM    7  C   UNL     1     -10.096  10.452  66.546  1.00  0.00    -0.285 A  
ENDROOT
BRANCH   5   8
HETATM    8  S   UNL     1      -8.506   8.635  65.214  1.00  0.00    -0.177 S  
HETATM    9  O   UNL     1      -8.143   8.395  63.833  1.00  0.00    -0.154 OA 
HETATM   10  O   UNL     1      -7.481   8.842  66.221  1.00  0.00    -0.085 OA 
BRANCH   8  11
HETATM   11  N   UNL     1      -9.409   7.351  65.764  1.00  0.00    -0.389 N  
HETATM   12  H   UNL     1     -10.398   7.496  65.964  1.00  0.00     0.000 HD 
BRANCH  11  13
HETATM   13  C   UNL     1      -8.865   6.091  65.960  1.00  0.00    -0.153 C  
HETATM   14  O   UNL     1      -8.308   5.480  65.058  1.00  0.00    -0.137 OA 
BRANCH  13  15
HETATM   15  N   UNL     1      -9.050   5.602  67.242  1.00  0.00    -0.111 N  
HETATM   16  H   UNL     1      -9.142   4.595  67.376  1.00  0.00     0.000 HD 
BRANCH  15  17
HETATM   17  N   UNL     1      -9.118   6.457  68.386  1.00  0.00    -0.120 NA 
HETATM   18  C   UNL     1     -10.274   6.100  69.230  1.00  0.00    -0.201 C  
HETATM   19  C   UNL     1     -10.481   6.899  70.521  1.00  0.00    -0.234 C  
HETATM   20  C   UNL     1      -9.417   6.614  71.576  1.00  0.00    -0.159 C  
HETATM   21  C   UNL     1      -8.154   7.453  71.428  1.00  0.00    -0.097 C  
HETATM   22  C   UNL     1      -7.696   7.718  69.998  1.00  0.00    -0.091 C  
HETATM   23  C   UNL     1      -7.818   6.509  69.074  1.00  0.00    -0.110 C  
ENDBRANCH  15  17
ENDBRANCH  13  15
ENDBRANCH  11  13
ENDBRANCH   8  11
ENDBRANCH   5   8
TORSDOF 5
ENDMDL
MODEL      242
REMARK 921   NORMALIZED FREE ENERGY PREDICTED BY IDOCK:   -3.87 KCAL/MOL
REMARK 922        TOTAL FREE ENERGY PREDICTED BY IDOCK:   -5.54 KCAL/MOL
REMARK 923 INTER-LIGAND FREE ENERGY PREDICTED BY IDOCK:   -5.81 KCAL/MOL
REMARK 924 INTRA-LIGAND FREE ENERGY PREDICTED BY IDOCK:    0.27 KCAL/MOL
REMARK 927      BINDING AFFINITY PREDICTED BY RF-SCORE:    0.00 PKD
ROOT
HETATM    1  C   UNL     1     -12.797  12.062  63.147  1.00  0.00    -0.184 C  
HETATM    2  C   UNL     1     -11.988  12.080  64.412  1.00  0.00    -0.385 A  
HETATM    3  C   UNL     1     -12.426  12.798  65.532  1.00  0.00    -0.419 A  
HETATM    4  C   UNL     1     -11.637  12.867  66.682  1.00  0.00    -0.428 A  
HETATM    5  C   UNL     1     -10.406  12.205  66.714  1.00  0.00    -0.213 A  
HETATM    6  C   UNL     1     -10.759  11.406  64.466  1.00  0.00    -0.391 A  
HETATM    7  C   UNL     1      -9.967  11.464  65.615  1.00  0.00    -0.282 A  
ENDROOT
BRANCH   5   8
HETATM    8  S   UNL     1      -9.384  12.361  68.157  1.00  0.00    -0.202 S  
HETATM    9  O   UNL     1      -8.322  11.380  68.112  1.00  0.00    -0.135 OA 
HETATM   10  O   UNL     1      -9.080  13.773  68.309  1.00  0.00    -0.189 OA 
BRANCH   8  11
HETATM   11  N   UNL     1     -10.403  11.993  69.420  1.00  0.00    -0.381 N  
HETATM   12  H   UNL     1     -10.834  12.756  69.942  1.00  0.00     0.000 HD 
BRANCH  11  13
HETATM   13  C   UNL     1     -10.687  10.688  69.789  1.00  0.00    -0.230 C  
HETATM   14  O   UNL     1     -10.789   9.791  68.963  1.00  0.00    -0.219 OA 
BRANCH  13  15
HETATM   15  N   UNL     1     -10.872  10.526  71.152  1.00  0.00     0.116 N  
HETATM   16  H   UNL     1     -10.401  11.165  71.791  1.00  0.00     0.000 HD 
BRANCH  15  17
HETATM   17  N   UNL     1     -11.700   9.495  71.695  1.00  0.00    -0.389 NA 
HETATM   18  C   UNL     1     -13.115   9.911  71.689  1.00  0.00    -0.437 C  
HETATM   19  C   UNL     1     -14.150   8.908  72.212  1.00  0.00    -0.512 C  
HETATM   20  C   UNL     1     -14.333   7.707  71.291  1.00  0.00    -0.438 C  
HETATM   21  C   UNL     1     -13.333   6.582  71.531  1.00  0.00     0.143 C  
HETATM   22  C   UNL     1     -11.911   7.017  71.871  1.00  0.00    -0.355 C  
HETATM   23  C   UNL     1     -11.413   8.203  71.049  1.00  0.00    -0.279 C  
ENDBRANCH  15  17
ENDBRANCH  13  15
ENDBRANCH  11  13
ENDBRANCH   8  11
ENDBRANCH   5   8
TORSDOF 5
ENDMDL
MODEL      243
REMARK 921   NORMALIZED FREE ENERGY PREDICTED BY IDOCK:   -3.85 KCAL/MOL
REMARK 922        TOTAL FREE ENERGY PREDICTED BY IDOCK:   -5.51 KCAL/MOL
REMARK 923 INTER-LIGAND FREE ENERGY PREDICTED BY IDOCK:   -5.05 KCAL/MOL
REMARK 924 INTRA-LIGAND FREE ENERGY PREDICTED BY IDOCK:   -0.46 KCAL/MOL
REMARK 927      BINDING AFFINITY PREDICTED BY RF-SCORE:    0.00 PKD
ROOT
HETATM    1  C   UNL     1     -12.556  12.490  63.407  1.00  0.00    -0.424 C  
HETATM    2  C   UNL     1     -11.358  11.942  64.128  1.00  0.00    -0.455 A  
HETATM    3  C   UNL     1     -11.372  11.779  65.519  1.00  0.00    -0.283 A  
HETATM    4  C   UNL     1     -10.232  11.334  66.192  1.00  0.00    -0.291 A  
HETATM    5  C   UNL     1      -9.074  11.041  65.466  1.00  0.00    -0.207 A  
HETATM    6  C   UNL     1     -10.194  11.626  63.411  1.00  0.00    -0.471 A  
HETATM    7  C   UNL     1      -9.052  11.173  64.077  1.00  0.00    -0.053 A  
ENDROOT
BRANCH   5   8
HETATM    8  S   UNL     1      -7.614  10.544  66.344  1.00  0.00    -0.138 S  
HETATM    9  O   UNL     1      -7.986   9.843  67.554  1.00  0.00    -0.105 OA 
HETATM   10  O   UNL     1      -6.728   9.923  65.374  1.00  0.00    -0.090 OA 
BRANCH   8  11
HETATM   11  N   UNL     1      -6.876  11.976  66.756  1.00  0.00    -0.365 N  
HETATM   12  H   UNL     1      -6.024  12.250  66.267  1.00  0.00     0.000 HD 
BRANCH  11  13
HETATM   13  C   UNL     1      -7.378  12.812  67.742  1.00  0.00    -0.130 C  
HETATM   14  O   UNL     1      -8.001  12.379  68.701  1.00  0.00    -0.122 OA 
BRANCH  13  15
HETATM   15  N   UNL     1      -7.133  14.155  67.505  1.00  0.00    -0.199 N  
HETATM   16  H   UNL     1      -6.166  14.474  67.441  1.00  0.00     0.000 HD 
BRANCH  15  17
HETATM   17  N   UNL     1      -8.185  15.110  67.349  1.00  0.00    -0.177 NA 
HETATM   18  C   UNL     1      -9.196  14.613  66.397  1.00  0.00    -0.249 C  
HETATM   19  C   UNL     1     -10.417  15.501  66.133  1.00  0.00    -0.323 C  
HETATM   20  C   UNL     1     -11.357  15.594  67.331  1.00  0.00    -0.163 C  
HETATM   21  C   UNL     1     -10.971  16.668  68.341  1.00  0.00    -0.345 C  
HETATM   22  C   UNL     1      -9.476  16.847  68.584  1.00  0.00    -0.268 C  
HETATM   23  C   UNL     1      -8.700  15.535  68.661  1.00  0.00    -0.188 C  
ENDBRANCH  15  17
ENDBRANCH  13  15
ENDBRANCH  11  13
ENDBRANCH   8  11
ENDBRANCH   5   8
TORSDOF 5
ENDMDL
MODEL      244
REMARK 921   NORMALIZED FREE ENERGY PREDICTED BY IDOCK:   -3.84 KCAL/MOL
REMARK 922        TOTAL FREE ENERGY PREDICTED BY IDOCK:   -5.50 KCAL/MOL
REMARK 923 INTER-LIGAND FREE ENERGY PREDICTED BY IDOCK:   -5.09 KCAL/MOL
REMARK 924 INTRA-LIGAND FREE ENERGY PREDICTED BY IDOCK:   -0.42 KCAL/MOL
REMARK 927      BINDING AFFINITY PREDICTED BY RF-SCORE:    0.00 PKD
ROOT
HETATM    1  C   UNL     1     -12.824  11.271  71.402  1.00  0.00    -0.515 C  
HETATM    2  C   UNL     1     -12.139  11.495  70.085  1.00  0.00    -0.432 A  
HETATM    3  C   UNL     1     -11.620  10.417  69.355  1.00  0.00    -0.272 A  
HETATM    4  C   UNL     1     -10.924  10.638  68.165  1.00  0.00    -0.321 A  
HETATM    5  C   UNL     1     -10.755  11.945  67.697  1.00  0.00    -0.215 A  
HETATM    6  C   UNL     1     -11.978  12.799  69.593  1.00  0.00    -0.354 A  
HETATM    7  C   UNL     1     -11.289  13.027  68.399  1.00  0.00    -0.326 A  
ENDROOT
BRANCH   5   8
HETATM    8  S   UNL     1      -9.809  12.212  66.219  1.00  0.00    -0.238 S  
HETATM    9  O   UNL     1     -10.253  13.426  65.568  1.00  0.00    -0.288 OA 
HETATM   10  O   UNL     1      -8.412  12.034  66.574  1.00  0.00    -0.160 OA 
BRANCH   8  11
HETATM   11  N   UNL     1     -10.186  10.913  65.252  1.00  0.00    -0.279 N  
HETATM   12  H   UNL     1     -11.151  10.792  64.946  1.00  0.00     0.000 HD 
BRANCH  11  13
HETATM   13  C   UNL     1      -9.236   9.988  64.847  1.00  0.00    -0.239 C  
HETATM   14  O   UNL     1      -9.077   9.697  63.670  1.00  0.00    -0.242 OA 
BRANCH  13  15
HETATM   15  N   UNL     1      -8.533   9.422  65.898  1.00  0.00    -0.123 N  
HETATM   16  H   UNL     1      -7.807   9.972  66.356  1.00  0.00     0.000 HD 
BRANCH  15  17
HETATM   17  N   UNL     1      -8.787   8.094  66.362  1.00  0.00    -0.146 NA 
HETATM   18  C   UNL     1     -10.238   7.862  66.495  1.00  0.00    -0.142 C  
HETATM   19  C   UNL     1     -10.693   6.473  66.955  1.00  0.00    -0.403 C  
HETATM   20  C   UNL     1     -10.453   5.390  65.908  1.00  0.00    -0.018 C  
HETATM   21  C   UNL     1      -9.053   4.788  65.946  1.00  0.00    -0.137 C  
HETATM   22  C   UNL     1      -7.919   5.761  66.248  1.00  0.00    -0.102 C  
HETATM   23  C   UNL     1      -8.056   7.110  65.547  1.00  0.00    -0.135 C  
ENDBRANCH  15  17
ENDBRANCH  13  15
ENDBRANCH  11  13
ENDBRANCH   8  11
ENDBRANCH   5   8
TORSDOF 5
ENDMDL
MODEL      245
REMARK 921   NORMALIZED FREE ENERGY PREDICTED BY IDOCK:   -3.84 KCAL/MOL
REMARK 922        TOTAL FREE ENERGY PREDICTED BY IDOCK:   -5.50 KCAL/MOL
REMARK 923 INTER-LIGAND FREE ENERGY PREDICTED BY IDOCK:   -5.08 KCAL/MOL
REMARK 924 INTRA-LIGAND FREE ENERGY PREDICTED BY IDOCK:   -0.42 KCAL/MOL
REMARK 927      BINDING AFFINITY PREDICTED BY RF-SCORE:    0.00 PKD
ROOT
HETATM    1  C   UNL     1      -8.026   4.471  72.992  1.00  0.00    -0.095 C  
HETATM    2  C   UNL     1      -8.283   5.615  72.054  1.00  0.00    -0.115 A  
HETATM    3  C   UNL     1      -8.227   6.940  72.508  1.00  0.00    -0.110 A  
HETATM    4  C   UNL     1      -8.534   7.996  71.648  1.00  0.00    -0.155 A  
HETATM    5  C   UNL     1      -8.890   7.726  70.323  1.00  0.00    -0.144 A  
HETATM    6  C   UNL     1      -8.623   5.362  70.717  1.00  0.00    -0.131 A  
HETATM    7  C   UNL     1      -8.924   6.414  69.849  1.00  0.00    -0.142 A  
ENDROOT
BRANCH   5   8
HETATM    8  S   UNL     1      -9.344   9.076  69.264  1.00  0.00    -0.152 S  
HETATM    9  O   UNL     1      -8.163   9.610  68.619  1.00  0.00    -0.102 OA 
HETATM   10  O   UNL     1     -10.479   8.631  68.475  1.00  0.00    -0.209 OA 
BRANCH   8  11
HETATM   11  N   UNL     1      -9.954  10.223  70.303  1.00  0.00    -0.395 N  
HETATM   12  H   UNL     1      -9.308  10.734  70.905  1.00  0.00     0.000 HD 
BRANCH  11  13
HETATM   13  C   UNL     1     -11.308  10.510  70.380  1.00  0.00    -0.328 C  
HETATM   14  O   UNL     1     -12.137   9.650  70.645  1.00  0.00    -0.263 OA 
BRANCH  13  15
HETATM   15  N   UNL     1     -11.610  11.831  70.095  1.00  0.00    -0.508 N  
HETATM   16  H   UNL     1     -12.145  12.370  70.776  1.00  0.00     0.000 HD 
BRANCH  15  17
HETATM   17  N   UNL     1     -11.200  12.467  68.883  1.00  0.00    -0.265 NA 
HETATM   18  C   UNL     1     -11.796  11.789  67.716  1.00  0.00    -0.196 C  
HETATM   19  C   UNL     1     -11.486  12.361  66.329  1.00  0.00    -0.423 C  
HETATM   20  C   UNL     1     -12.146  13.714  66.081  1.00  0.00    -0.477 C  
HETATM   21  C   UNL     1     -11.340  14.902  66.595  1.00  0.00    -0.326 C  
HETATM   22  C   UNL     1     -10.611  14.688  67.917  1.00  0.00    -0.244 C  
HETATM   23  C   UNL     1     -11.424  13.921  68.956  1.00  0.00    -0.299 C  
ENDBRANCH  15  17
ENDBRANCH  13  15
ENDBRANCH  11  13
ENDBRANCH   8  11
ENDBRANCH   5   8
TORSDOF 5
ENDMDL
MODEL      246
REMARK 921   NORMALIZED FREE ENERGY PREDICTED BY IDOCK:   -3.84 KCAL/MOL
REMARK 922        TOTAL FREE ENERGY PREDICTED BY IDOCK:   -5.49 KCAL/MOL
REMARK 923 INTER-LIGAND FREE ENERGY PREDICTED BY IDOCK:   -4.49 KCAL/MOL
REMARK 924 INTRA-LIGAND FREE ENERGY PREDICTED BY IDOCK:   -1.01 KCAL/MOL
REMARK 927      BINDING AFFINITY PREDICTED BY RF-SCORE:    0.00 PKD
ROOT
HETATM    1  C   UNL     1      -6.904   4.219  71.793  1.00  0.00    -0.034 C  
HETATM    2  C   UNL     1      -7.603   4.753  70.575  1.00  0.00    -0.058 A  
HETATM    3  C   UNL     1      -6.883   5.058  69.413  1.00  0.00    -0.053 A  
HETATM    4  C   UNL     1      -7.527   5.617  68.308  1.00  0.00    -0.077 A  
HETATM    5  C   UNL     1      -8.903   5.864  68.363  1.00  0.00    -0.111 A  
HETATM    6  C   UNL     1      -8.985   4.988  70.609  1.00  0.00    -0.164 A  
HETATM    7  C   UNL     1      -9.638   5.541  69.505  1.00  0.00    -0.202 A  
ENDROOT
BRANCH   5   8
HETATM    8  S   UNL     1      -9.693   6.639  66.976  1.00  0.00    -0.165 S  
HETATM    9  O   UNL     1      -9.286   5.983  65.752  1.00  0.00    -0.120 OA 
HETATM   10  O   UNL     1     -11.100   6.771  67.310  1.00  0.00    -0.358 OA 
BRANCH   8  11
HETATM   11  N   UNL     1      -9.093   8.191  66.979  1.00  0.00    -0.138 N  
HETATM   12  H   UNL     1      -8.680   8.560  66.122  1.00  0.00     0.000 HD 
BRANCH  11  13
HETATM   13  C   UNL     1      -9.136   9.001  68.103  1.00  0.00    -0.132 C  
HETATM   14  O   UNL     1      -8.143   9.213  68.785  1.00  0.00    -0.099 OA 
BRANCH  13  15
HETATM   15  N   UNL     1     -10.399   9.498  68.378  1.00  0.00    -0.198 N  
HETATM   16  H   UNL     1     -11.029   9.696  67.601  1.00  0.00     0.000 HD 
BRANCH  15  17
HETATM   17  N   UNL     1     -10.851   9.746  69.712  1.00  0.00    -0.244 NA 
HETATM   18  C   UNL     1     -11.903  10.780  69.717  1.00  0.00    -0.335 C  
HETATM   19  C   UNL     1     -12.526  11.149  71.068  1.00  0.00    -0.506 C  
HETATM   20  C   UNL     1     -13.393  10.036  71.648  1.00  0.00    -0.468 C  
HETATM   21  C   UNL     1     -12.617   8.998  72.450  1.00  0.00    -0.403 C  
HETATM   22  C   UNL     1     -11.241   8.628  71.905  1.00  0.00    -0.413 C  
HETATM   23  C   UNL     1     -11.196   8.483  70.386  1.00  0.00    -0.211 C  
ENDBRANCH  15  17
ENDBRANCH  13  15
ENDBRANCH  11  13
ENDBRANCH   8  11
ENDBRANCH   5   8
TORSDOF 5
ENDMDL
MODEL      247
REMARK 921   NORMALIZED FREE ENERGY PREDICTED BY IDOCK:   -3.82 KCAL/MOL
REMARK 922        TOTAL FREE ENERGY PREDICTED BY IDOCK:   -5.48 KCAL/MOL
REMARK 923 INTER-LIGAND FREE ENERGY PREDICTED BY IDOCK:   -4.94 KCAL/MOL
REMARK 924 INTRA-LIGAND FREE ENERGY PREDICTED BY IDOCK:   -0.54 KCAL/MOL
REMARK 927      BINDING AFFINITY PREDICTED BY RF-SCORE:    0.00 PKD
ROOT
HETATM    1  C   UNL     1      -5.852   3.675  71.132  1.00  0.00    -0.013 C  
HETATM    2  C   UNL     1      -7.110   4.325  70.632  1.00  0.00    -0.041 A  
HETATM    3  C   UNL     1      -7.249   4.671  69.281  1.00  0.00    -0.052 A  
HETATM    4  C   UNL     1      -8.393   5.336  68.835  1.00  0.00    -0.092 A  
HETATM    5  C   UNL     1      -9.407   5.649  69.745  1.00  0.00    -0.143 A  
HETATM    6  C   UNL     1      -8.145   4.629  71.529  1.00  0.00    -0.102 A  
HETATM    7  C   UNL     1      -9.295   5.288  71.089  1.00  0.00    -0.192 A  
ENDROOT
BRANCH   5   8
HETATM    8  S   UNL     1     -10.822   6.556  69.175  1.00  0.00    -0.321 S  
HETATM    9  O   UNL     1     -11.183   6.113  67.845  1.00  0.00    -0.304 OA 
HETATM   10  O   UNL     1     -11.798   6.537  70.250  1.00  0.00    -0.413 OA 
BRANCH   8  11
HETATM   11  N   UNL     1     -10.292   8.131  69.091  1.00  0.00    -0.219 N  
HETATM   12  H   UNL     1      -9.709   8.412  68.303  1.00  0.00     0.000 HD 
BRANCH  11  13
HETATM   13  C   UNL     1     -10.614   9.075  70.054  1.00  0.00    -0.228 C  
HETATM   14  O   UNL     1      -9.834   9.381  70.945  1.00  0.00    -0.276 OA 
BRANCH  13  15
HETATM   15  N   UNL     1     -11.893   9.589  69.919  1.00  0.00    -0.449 N  
HETATM   16  H   UNL     1     -12.681   9.043  70.265  1.00  0.00     0.000 HD 
BRANCH  15  17
HETATM   17  N   UNL     1     -12.148  10.857  69.311  1.00  0.00    -0.363 NA 
HETATM   18  C   UNL     1     -12.241  11.913  70.338  1.00  0.00    -0.314 C  
HETATM   19  C   UNL     1     -12.481  13.348  69.858  1.00  0.00    -0.155 C  
HETATM   20  C   UNL     1     -11.281  13.941  69.127  1.00  0.00    -0.311 C  
HETATM   21  C   UNL     1     -11.230  13.604  67.641  1.00  0.00    -0.303 C  
HETATM   22  C   UNL     1     -11.680  12.197  67.263  1.00  0.00    -0.369 C  
HETATM   23  C   UNL     1     -11.193  11.113  68.220  1.00  0.00    -0.279 C  
ENDBRANCH  15  17
ENDBRANCH  13  15
ENDBRANCH  11  13
ENDBRANCH   8  11
ENDBRANCH   5   8
TORSDOF 5
ENDMDL
MODEL      248
REMARK 921   NORMALIZED FREE ENERGY PREDICTED BY IDOCK:   -3.82 KCAL/MOL
REMARK 922        TOTAL FREE ENERGY PREDICTED BY IDOCK:   -5.48 KCAL/MOL
REMARK 923 INTER-LIGAND FREE ENERGY PREDICTED BY IDOCK:   -5.16 KCAL/MOL
REMARK 924 INTRA-LIGAND FREE ENERGY PREDICTED BY IDOCK:   -0.32 KCAL/MOL
REMARK 927      BINDING AFFINITY PREDICTED BY RF-SCORE:    0.00 PKD
ROOT
HETATM    1  C   UNL     1      -5.135   9.057  68.720  1.00  0.00    -0.034 C  
HETATM    2  C   UNL     1      -6.598   9.364  68.860  1.00  0.00    -0.047 A  
HETATM    3  C   UNL     1      -7.186   9.488  70.126  1.00  0.00    -0.114 A  
HETATM    4  C   UNL     1      -8.559   9.706  70.250  1.00  0.00    -0.234 A  
HETATM    5  C   UNL     1      -9.348   9.810  69.100  1.00  0.00    -0.182 A  
HETATM    6  C   UNL     1      -7.399   9.491  67.715  1.00  0.00    -0.083 A  
HETATM    7  C   UNL     1      -8.773   9.715  67.832  1.00  0.00    -0.119 A  
ENDROOT
BRANCH   5   8
HETATM    8  S   UNL     1     -11.102  10.018  69.277  1.00  0.00    -0.173 S  
HETATM    9  O   UNL     1     -11.681  10.392  68.005  1.00  0.00    -0.383 OA 
HETATM   10  O   UNL     1     -11.594   8.857  69.999  1.00  0.00    -0.067 OA 
BRANCH   8  11
HETATM   11  N   UNL     1     -11.258  11.291  70.336  1.00  0.00    -0.425 N  
HETATM   12  H   UNL     1     -11.126  11.121  71.333  1.00  0.00     0.000 HD 
BRANCH  11  13
HETATM   13  C   UNL     1     -11.561  12.576  69.912  1.00  0.00    -0.169 C  
HETATM   14  O   UNL     1     -12.598  13.136  70.237  1.00  0.00    -0.191 OA 
BRANCH  13  15
HETATM   15  N   UNL     1     -10.602  13.123  69.075  1.00  0.00    -0.424 N  
HETATM   16  H   UNL     1      -9.618  13.012  69.317  1.00  0.00     0.000 HD 
BRANCH  15  17
HETATM   17  N   UNL     1     -10.941  13.837  67.884  1.00  0.00    -0.248 NA 
HETATM   18  C   UNL     1      -9.724  14.327  67.211  1.00  0.00    -0.234 C  
HETATM   19  C   UNL     1      -9.902  15.091  65.894  1.00  0.00    -0.369 C  
HETATM   20  C   UNL     1     -10.371  14.202  64.748  1.00  0.00    -0.387 C  
HETATM   21  C   UNL     1     -11.883  14.020  64.682  1.00  0.00    -0.433 C  
HETATM   22  C   UNL     1     -12.598  13.901  66.023  1.00  0.00    -0.467 C  
HETATM   23  C   UNL     1     -11.857  13.044  67.046  1.00  0.00    -0.377 C  
ENDBRANCH  15  17
ENDBRANCH  13  15
ENDBRANCH  11  13
ENDBRANCH   8  11
ENDBRANCH   5   8
TORSDOF 5
ENDMDL
MODEL      249
REMARK 921   NORMALIZED FREE ENERGY PREDICTED BY IDOCK:   -3.78 KCAL/MOL
REMARK 922        TOTAL FREE ENERGY PREDICTED BY IDOCK:   -5.42 KCAL/MOL
REMARK 923 INTER-LIGAND FREE ENERGY PREDICTED BY IDOCK:   -4.94 KCAL/MOL
REMARK 924 INTRA-LIGAND FREE ENERGY PREDICTED BY IDOCK:   -0.49 KCAL/MOL
REMARK 927      BINDING AFFINITY PREDICTED BY RF-SCORE:    0.00 PKD
ROOT
HETATM    1  C   UNL     1     -10.711   7.555  69.204  1.00  0.00    -0.163 C  
HETATM    2  C   UNL     1     -10.360   8.999  68.983  1.00  0.00    -0.233 A  
HETATM    3  C   UNL     1     -11.058  10.015  69.650  1.00  0.00    -0.300 A  
HETATM    4  C   UNL     1     -10.773  11.357  69.390  1.00  0.00    -0.152 A  
HETATM    5  C   UNL     1      -9.779  11.684  68.463  1.00  0.00    -0.184 A  
HETATM    6  C   UNL     1      -9.352   9.342  68.071  1.00  0.00    -0.140 A  
HETATM    7  C   UNL     1      -9.058  10.683  67.810  1.00  0.00    -0.144 A  
ENDROOT
BRANCH   5   8
HETATM    8  S   UNL     1      -9.479  13.394  68.093  1.00  0.00    -0.216 S  
HETATM    9  O   UNL     1      -9.464  14.163  69.318  1.00  0.00     0.082 OA 
HETATM   10  O   UNL     1      -8.351  13.437  67.179  1.00  0.00    -0.187 OA 
BRANCH   8  11
HETATM   11  N   UNL     1     -10.796  13.853  67.186  1.00  0.00    -0.282 N  
HETATM   12  H   UNL     1     -11.148  13.214  66.473  1.00  0.00     0.000 HD 
BRANCH  11  13
HETATM   13  C   UNL     1     -11.431  15.072  67.363  1.00  0.00    -0.317 C  
HETATM   14  O   UNL     1     -12.338  15.216  68.172  1.00  0.00     0.029 OA 
BRANCH  13  15
HETATM   15  N   UNL     1     -10.962  16.067  66.523  1.00  0.00    -0.161 N  
HETATM   16  H   UNL     1     -10.766  15.836  65.549  1.00  0.00     0.000 HD 
BRANCH  15  17
HETATM   17  N   UNL     1     -10.744  17.407  66.969  1.00  0.00    -0.229 NA 
HETATM   18  C   UNL     1      -9.834  17.423  68.130  1.00  0.00    -0.301 C  
HETATM   19  C   UNL     1      -9.465  18.788  68.721  1.00  0.00    -0.380 C  
HETATM   20  C   UNL     1      -8.568  19.612  67.804  1.00  0.00    -0.366 C  
HETATM   21  C   UNL     1      -9.325  20.427  66.762  1.00  0.00    -0.440 C  
HETATM   22  C   UNL     1     -10.552  19.755  66.155  1.00  0.00    -0.569 C  
HETATM   23  C   UNL     1     -10.356  18.274  65.844  1.00  0.00    -0.284 C  
ENDBRANCH  15  17
ENDBRANCH  13  15
ENDBRANCH  11  13
ENDBRANCH   8  11
ENDBRANCH   5   8
TORSDOF 5
ENDMDL
MODEL      250
REMARK 921   NORMALIZED FREE ENERGY PREDICTED BY IDOCK:   -3.77 KCAL/MOL
REMARK 922        TOTAL FREE ENERGY PREDICTED BY IDOCK:   -5.41 KCAL/MOL
REMARK 923 INTER-LIGAND FREE ENERGY PREDICTED BY IDOCK:   -5.60 KCAL/MOL
REMARK 924 INTRA-LIGAND FREE ENERGY PREDICTED BY IDOCK:    0.19 KCAL/MOL
REMARK 927      BINDING AFFINITY PREDICTED BY RF-SCORE:    0.00 PKD
ROOT
HETATM    1  C   UNL     1     -12.557  11.360  63.080  1.00  0.00     0.384 C  
HETATM    2  C   UNL     1     -11.948  12.499  63.846  1.00  0.00    -0.563 A  
HETATM    3  C   UNL     1     -10.923  12.270  64.774  1.00  0.00    -0.346 A  
HETATM    4  C   UNL     1     -10.407  13.323  65.532  1.00  0.00    -0.298 A  
HETATM    5  C   UNL     1     -10.913  14.614  65.354  1.00  0.00    -0.353 A  
HETATM    6  C   UNL     1     -12.432  13.803  63.665  1.00  0.00    -0.150 A  
HETATM    7  C   UNL     1     -11.916  14.862  64.416  1.00  0.00    -0.408 A  
ENDROOT
BRANCH   5   8
HETATM    8  S   UNL     1     -10.295  15.927  66.376  1.00  0.00    -0.316 S  
HETATM    9  O   UNL     1      -9.724  16.965  65.545  1.00  0.00    -0.541 OA 
HETATM   10  O   UNL     1     -11.336  16.241  67.338  1.00  0.00    -0.081 OA 
BRANCH   8  11
HETATM   11  N   UNL     1      -9.079  15.217  67.262  1.00  0.00    -0.191 N  
HETATM   12  H   UNL     1      -9.264  14.328  67.726  1.00  0.00     0.000 HD 
BRANCH  11  13
HETATM   13  C   UNL     1      -7.824  15.791  67.392  1.00  0.00    -0.175 C  
HETATM   14  O   UNL     1      -6.920  15.555  66.603  1.00  0.00    -0.072 OA 
BRANCH  13  15
HETATM   15  N   UNL     1      -7.702  16.608  68.504  1.00  0.00    -0.203 N  
HETATM   16  H   UNL     1      -7.298  16.220  69.357  1.00  0.00     0.000 HD 
BRANCH  15  17
HETATM   17  N   UNL     1      -8.121  17.974  68.501  1.00  0.00    -0.296 NA 
HETATM   18  C   UNL     1      -7.721  18.634  67.244  1.00  0.00    -0.231 C  
HETATM   19  C   UNL     1      -8.119  20.102  67.058  1.00  0.00    -0.368 C  
HETATM   20  C   UNL     1      -9.621  20.292  66.867  1.00  0.00    -0.564 C  
HETATM   21  C   UNL     1     -10.405  20.393  68.170  1.00  0.00    -0.255 C  
HETATM   22  C   UNL     1      -9.932  19.487  69.302  1.00  0.00    -0.344 C  
HETATM   23  C   UNL     1      -9.548  18.081  68.850  1.00  0.00    -0.231 C  
ENDBRANCH  15  17
ENDBRANCH  13  15
ENDBRANCH  11  13
ENDBRANCH   8  11
ENDBRANCH   5   8
TORSDOF 5
ENDMDL
MODEL      251
REMARK 921   NORMALIZED FREE ENERGY PREDICTED BY IDOCK:   -3.77 KCAL/MOL
REMARK 922        TOTAL FREE ENERGY PREDICTED BY IDOCK:   -5.40 KCAL/MOL
REMARK 923 INTER-LIGAND FREE ENERGY PREDICTED BY IDOCK:   -4.97 KCAL/MOL
REMARK 924 INTRA-LIGAND FREE ENERGY PREDICTED BY IDOCK:   -0.43 KCAL/MOL
REMARK 927      BINDING AFFINITY PREDICTED BY RF-SCORE:    0.00 PKD
ROOT
HETATM    1  C   UNL     1     -13.124  13.150  71.717  1.00  0.00    -0.478 C  
HETATM    2  C   UNL     1     -12.358  13.409  70.452  1.00  0.00    -0.382 A  
HETATM    3  C   UNL     1     -11.708  12.364  69.782  1.00  0.00    -0.361 A  
HETATM    4  C   UNL     1     -10.941  12.621  68.644  1.00  0.00    -0.292 A  
HETATM    5  C   UNL     1     -10.831  13.932  68.169  1.00  0.00    -0.249 A  
HETATM    6  C   UNL     1     -12.254  14.715  69.951  1.00  0.00    -0.365 A  
HETATM    7  C   UNL     1     -11.494  14.979  68.810  1.00  0.00    -0.337 A  
ENDROOT
BRANCH   5   8
HETATM    8  S   UNL     1      -9.796  14.250  66.762  1.00  0.00    -0.279 S  
HETATM    9  O   UNL     1      -9.765  15.671  66.490  1.00  0.00    -0.239 OA 
HETATM   10  O   UNL     1      -8.563  13.512  66.970  1.00  0.00    -0.208 OA 
BRANCH   8  11
HETATM   11  N   UNL     1     -10.564  13.478  65.506  1.00  0.00    -0.288 N  
HETATM   12  H   UNL     1     -11.203  14.013  64.917  1.00  0.00     0.000 HD 
BRANCH  11  13
HETATM   13  C   UNL     1     -10.368  12.134  65.229  1.00  0.00    -0.277 C  
HETATM   14  O   UNL     1     -11.263  11.310  65.355  1.00  0.00    -0.143 OA 
BRANCH  13  15
HETATM   15  N   UNL     1      -9.073  11.833  64.840  1.00  0.00    -0.405 N  
HETATM   16  H   UNL     1      -8.449  12.596  64.577  1.00  0.00     0.000 HD 
BRANCH  15  17
HETATM   17  N   UNL     1      -8.579  10.493  64.792  1.00  0.00    -0.178 NA 
HETATM   18  C   UNL     1      -7.244  10.456  64.165  1.00  0.00     0.020 C  
HETATM   19  C   UNL     1      -6.549   9.094  64.060  1.00  0.00    -0.089 C  
HETATM   20  C   UNL     1      -6.106   8.545  65.413  1.00  0.00    -0.049 C  
HETATM   21  C   UNL     1      -7.191   7.774  66.156  1.00  0.00    -0.074 C  
HETATM   22  C   UNL     1      -8.605   8.332  66.034  1.00  0.00    -0.167 C  
HETATM   23  C   UNL     1      -8.680   9.854  66.115  1.00  0.00    -0.136 C  
ENDBRANCH  15  17
ENDBRANCH  13  15
ENDBRANCH  11  13
ENDBRANCH   8  11
ENDBRANCH   5   8
TORSDOF 5
ENDMDL
MODEL      252
REMARK 921   NORMALIZED FREE ENERGY PREDICTED BY IDOCK:   -3.76 KCAL/MOL
REMARK 922        TOTAL FREE ENERGY PREDICTED BY IDOCK:   -5.40 KCAL/MOL
REMARK 923 INTER-LIGAND FREE ENERGY PREDICTED BY IDOCK:   -5.21 KCAL/MOL
REMARK 924 INTRA-LIGAND FREE ENERGY PREDICTED BY IDOCK:   -0.19 KCAL/MOL
REMARK 927      BINDING AFFINITY PREDICTED BY RF-SCORE:    0.00 PKD
ROOT
HETATM    1  C   UNL     1      -7.231   9.046  62.885  1.00  0.00    -0.095 C  
HETATM    2  C   UNL     1      -8.032   9.476  64.080  1.00  0.00    -0.137 A  
HETATM    3  C   UNL     1      -9.051  10.430  63.953  1.00  0.00    -0.272 A  
HETATM    4  C   UNL     1      -9.747  10.876  65.078  1.00  0.00    -0.319 A  
HETATM    5  C   UNL     1      -9.427  10.358  66.337  1.00  0.00    -0.169 A  
HETATM    6  C   UNL     1      -7.736   8.952  65.347  1.00  0.00    -0.092 A  
HETATM    7  C   UNL     1      -8.433   9.389  66.476  1.00  0.00    -0.137 A  
ENDROOT
BRANCH   5   8
HETATM    8  S   UNL     1     -10.274  10.988  67.765  1.00  0.00    -0.190 S  
HETATM    9  O   UNL     1     -11.613  10.442  67.819  1.00  0.00    -0.405 OA 
HETATM   10  O   UNL     1      -9.370  10.840  68.892  1.00  0.00    -0.176 OA 
BRANCH   8  11
HETATM   11  N   UNL     1     -10.371  12.626  67.493  1.00  0.00    -0.216 N  
HETATM   12  H   UNL     1      -9.514  13.179  67.507  1.00  0.00     0.000 HD 
BRANCH  11  13
HETATM   13  C   UNL     1     -11.575  13.268  67.247  1.00  0.00    -0.359 C  
HETATM   14  O   UNL     1     -12.454  12.754  66.570  1.00  0.00    -0.406 OA 
BRANCH  13  15
HETATM   15  N   UNL     1     -11.652  14.532  67.807  1.00  0.00    -0.348 N  
HETATM   16  H   UNL     1     -12.392  14.726  68.481  1.00  0.00     0.000 HD 
BRANCH  15  17
HETATM   17  N   UNL     1     -10.733  15.575  67.473  1.00  0.00    -0.295 NA 
HETATM   18  C   UNL     1     -10.813  15.893  66.035  1.00  0.00    -0.225 C  
HETATM   19  C   UNL     1      -9.913  17.017  65.508  1.00  0.00     0.039 C  
HETATM   20  C   UNL     1     -10.334  18.397  66.001  1.00  0.00    -0.397 C  
HETATM   21  C   UNL     1      -9.761  18.772  67.363  1.00  0.00    -0.340 C  
HETATM   22  C   UNL     1      -9.675  17.640  68.382  1.00  0.00    -0.321 C  
HETATM   23  C   UNL     1     -10.891  16.718  68.388  1.00  0.00    -0.355 C  
ENDBRANCH  15  17
ENDBRANCH  13  15
ENDBRANCH  11  13
ENDBRANCH   8  11
ENDBRANCH   5   8
TORSDOF 5
ENDMDL
MODEL      253
REMARK 921   NORMALIZED FREE ENERGY PREDICTED BY IDOCK:   -3.76 KCAL/MOL
REMARK 922        TOTAL FREE ENERGY PREDICTED BY IDOCK:   -5.40 KCAL/MOL
REMARK 923 INTER-LIGAND FREE ENERGY PREDICTED BY IDOCK:   -5.38 KCAL/MOL
REMARK 924 INTRA-LIGAND FREE ENERGY PREDICTED BY IDOCK:   -0.01 KCAL/MOL
REMARK 927      BINDING AFFINITY PREDICTED BY RF-SCORE:    0.00 PKD
ROOT
HETATM    1  C   UNL     1      -7.595   7.246  73.978  1.00  0.00    -0.129 C  
HETATM    2  C   UNL     1      -8.204   7.728  72.693  1.00  0.00    -0.171 A  
HETATM    3  C   UNL     1      -9.418   8.428  72.695  1.00  0.00    -0.335 A  
HETATM    4  C   UNL     1     -10.014   8.814  71.492  1.00  0.00    -0.370 A  
HETATM    5  C   UNL     1      -9.385   8.507  70.282  1.00  0.00    -0.162 A  
HETATM    6  C   UNL     1      -7.576   7.445  71.471  1.00  0.00    -0.085 A  
HETATM    7  C   UNL     1      -8.163   7.834  70.265  1.00  0.00    -0.125 A  
ENDROOT
BRANCH   5   8
HETATM    8  S   UNL     1     -10.191   8.944  68.761  1.00  0.00    -0.208 S  
HETATM    9  O   UNL     1     -10.714   7.754  68.126  1.00  0.00    -0.158 OA 
HETATM   10  O   UNL     1     -11.062  10.069  69.053  1.00  0.00    -0.223 OA 
BRANCH   8  11
HETATM   11  N   UNL     1      -8.972   9.567  67.817  1.00  0.00    -0.123 N  
HETATM   12  H   UNL     1      -8.046   9.690  68.227  1.00  0.00     0.000 HD 
BRANCH  11  13
HETATM   13  C   UNL     1      -9.168   9.925  66.492  1.00  0.00    -0.155 C  
HETATM   14  O   UNL     1      -9.556   9.121  65.656  1.00  0.00    -0.262 OA 
BRANCH  13  15
HETATM   15  N   UNL     1      -8.850  11.246  66.224  1.00  0.00    -0.188 N  
HETATM   16  H   UNL     1      -7.924  11.589  66.477  1.00  0.00     0.000 HD 
BRANCH  15  17
HETATM   17  N   UNL     1      -9.772  12.145  65.605  1.00  0.00    -0.234 NA 
HETATM   18  C   UNL     1     -10.245  11.597  64.319  1.00  0.00    -0.311 C  
HETATM   19  C   UNL     1     -11.269  12.422  63.532  1.00  0.00    -0.540 C  
HETATM   20  C   UNL     1     -12.639  12.466  64.200  1.00  0.00    -0.498 C  
HETATM   21  C   UNL     1     -12.782  13.558  65.253  1.00  0.00    -0.481 C  
HETATM   22  C   UNL     1     -11.551  13.814  66.117  1.00  0.00    -0.369 C  
HETATM   23  C   UNL     1     -10.826  12.543  66.553  1.00  0.00    -0.256 C  
ENDBRANCH  15  17
ENDBRANCH  13  15
ENDBRANCH  11  13
ENDBRANCH   8  11
ENDBRANCH   5   8
TORSDOF 5
ENDMDL
MODEL      254
REMARK 921   NORMALIZED FREE ENERGY PREDICTED BY IDOCK:   -3.73 KCAL/MOL
REMARK 922        TOTAL FREE ENERGY PREDICTED BY IDOCK:   -5.35 KCAL/MOL
REMARK 923 INTER-LIGAND FREE ENERGY PREDICTED BY IDOCK:   -4.54 KCAL/MOL
REMARK 924 INTRA-LIGAND FREE ENERGY PREDICTED BY IDOCK:   -0.81 KCAL/MOL
REMARK 927      BINDING AFFINITY PREDICTED BY RF-SCORE:    0.00 PKD
ROOT
HETATM    1  C   UNL     1     -10.817  12.928  64.906  1.00  0.00    -0.331 C  
HETATM    2  C   UNL     1     -10.517  11.645  65.626  1.00  0.00    -0.314 A  
HETATM    3  C   UNL     1      -9.988  10.545  64.937  1.00  0.00    -0.401 A  
HETATM    4  C   UNL     1      -9.774   9.333  65.597  1.00  0.00    -0.302 A  
HETATM    5  C   UNL     1     -10.082   9.225  66.957  1.00  0.00    -0.247 A  
HETATM    6  C   UNL     1     -10.803  11.526  66.994  1.00  0.00    -0.320 A  
HETATM    7  C   UNL     1     -10.585  10.319  67.662  1.00  0.00    -0.312 A  
ENDROOT
BRANCH   5   8
HETATM    8  S   UNL     1      -9.869   7.657  67.763  1.00  0.00    -0.167 S  
HETATM    9  O   UNL     1     -11.156   7.143  68.179  1.00  0.00    -0.087 OA 
HETATM   10  O   UNL     1      -8.995   6.863  66.918  1.00  0.00    -0.115 OA 
BRANCH   8  11
HETATM   11  N   UNL     1      -8.969   8.012  69.116  1.00  0.00    -0.145 N  
HETATM   12  H   UNL     1      -9.043   8.943  69.525  1.00  0.00     0.000 HD 
BRANCH  11  13
HETATM   13  C   UNL     1      -8.120   7.089  69.706  1.00  0.00    -0.126 C  
HETATM   14  O   UNL     1      -6.976   7.376  70.029  1.00  0.00    -0.057 OA 
BRANCH  13  15
HETATM   15  N   UNL     1      -8.686   5.833  69.852  1.00  0.00    -0.126 N  
HETATM   16  H   UNL     1      -8.907   5.294  69.015  1.00  0.00     0.000 HD 
BRANCH  15  17
HETATM   17  N   UNL     1      -8.971   5.264  71.132  1.00  0.00    -0.138 NA 
HETATM   18  C   UNL     1      -9.852   6.157  71.909  1.00  0.00    -0.156 C  
HETATM   19  C   UNL     1     -10.285   5.687  73.302  1.00  0.00    -0.217 C  
HETATM   20  C   UNL     1     -11.251   4.507  73.258  1.00  0.00    -0.388 C  
HETATM   21  C   UNL     1     -10.567   3.147  73.168  1.00  0.00    -0.261 C  
HETATM   22  C   UNL     1      -9.319   3.088  72.295  1.00  0.00    -0.168 C  
HETATM   23  C   UNL     1      -9.436   3.874  70.992  1.00  0.00    -0.166 C  
ENDBRANCH  15  17
ENDBRANCH  13  15
ENDBRANCH  11  13
ENDBRANCH   8  11
ENDBRANCH   5   8
TORSDOF 5
ENDMDL
MODEL      255
REMARK 921   NORMALIZED FREE ENERGY PREDICTED BY IDOCK:   -3.71 KCAL/MOL
REMARK 922        TOTAL FREE ENERGY PREDICTED BY IDOCK:   -5.33 KCAL/MOL
REMARK 923 INTER-LIGAND FREE ENERGY PREDICTED BY IDOCK:   -6.03 KCAL/MOL
REMARK 924 INTRA-LIGAND FREE ENERGY PREDICTED BY IDOCK:    0.69 KCAL/MOL
REMARK 927      BINDING AFFINITY PREDICTED BY RF-SCORE:    0.00 PKD
ROOT
HETATM    1  C   UNL     1     -12.732  10.563  71.325  1.00  0.00    -0.532 C  
HETATM    2  C   UNL     1     -12.086  11.370  70.236  1.00  0.00    -0.459 A  
HETATM    3  C   UNL     1     -11.587  10.748  69.084  1.00  0.00    -0.376 A  
HETATM    4  C   UNL     1     -10.926  11.495  68.106  1.00  0.00    -0.279 A  
HETATM    5  C   UNL     1     -10.773  12.874  68.278  1.00  0.00    -0.244 A  
HETATM    6  C   UNL     1     -11.941  12.757  70.385  1.00  0.00    -0.331 A  
HETATM    7  C   UNL     1     -11.287  13.512  69.407  1.00  0.00    -0.293 A  
ENDROOT
BRANCH   5   8
HETATM    8  S   UNL     1      -9.870  13.796  67.059  1.00  0.00    -0.257 S  
HETATM    9  O   UNL     1      -8.819  12.971  66.502  1.00  0.00    -0.134 OA 
HETATM   10  O   UNL     1     -10.851  14.426  66.193  1.00  0.00    -0.300 OA 
BRANCH   8  11
HETATM   11  N   UNL     1      -9.179  15.041  67.917  1.00  0.00    -0.180 N  
HETATM   12  H   UNL     1      -8.193  14.976  68.170  1.00  0.00     0.000 HD 
BRANCH  11  13
HETATM   13  C   UNL     1      -9.894  16.165  68.301  1.00  0.00    -0.224 C  
HETATM   14  O   UNL     1     -11.025  16.383  67.890  1.00  0.00    -0.339 OA 
BRANCH  13  15
HETATM   15  N   UNL     1      -9.191  17.005  69.149  1.00  0.00    -0.146 N  
HETATM   16  H   UNL     1      -9.209  16.819  70.151  1.00  0.00     0.000 HD 
BRANCH  15  17
HETATM   17  N   UNL     1      -8.440  18.123  68.670  1.00  0.00    -0.298 NA 
HETATM   18  C   UNL     1      -7.000  17.807  68.647  1.00  0.00    -0.247 C  
HETATM   19  C   UNL     1      -6.045  18.888  68.128  1.00  0.00    -0.217 C  
HETATM   20  C   UNL     1      -6.179  19.131  66.629  1.00  0.00    -0.188 C  
HETATM   21  C   UNL     1      -7.276  20.121  66.255  1.00  0.00    -0.311 C  
HETATM   22  C   UNL     1      -8.551  20.046  67.088  1.00  0.00    -0.400 C  
HETATM   23  C   UNL     1      -9.002  18.623  67.403  1.00  0.00    -0.272 C  
ENDBRANCH  15  17
ENDBRANCH  13  15
ENDBRANCH  11  13
ENDBRANCH   8  11
ENDBRANCH   5   8
TORSDOF 5
ENDMDL
MODEL      256
REMARK 921   NORMALIZED FREE ENERGY PREDICTED BY IDOCK:   -3.71 KCAL/MOL
REMARK 922        TOTAL FREE ENERGY PREDICTED BY IDOCK:   -5.33 KCAL/MOL
REMARK 923 INTER-LIGAND FREE ENERGY PREDICTED BY IDOCK:   -5.06 KCAL/MOL
REMARK 924 INTRA-LIGAND FREE ENERGY PREDICTED BY IDOCK:   -0.26 KCAL/MOL
REMARK 927      BINDING AFFINITY PREDICTED BY RF-SCORE:    0.00 PKD
ROOT
HETATM    1  C   UNL     1      -8.299   6.439  65.151  1.00  0.00    -0.109 C  
HETATM    2  C   UNL     1      -8.847   7.250  66.289  1.00  0.00    -0.179 A  
HETATM    3  C   UNL     1      -8.009   8.080  67.045  1.00  0.00    -0.108 A  
HETATM    4  C   UNL     1      -8.510   8.779  68.145  1.00  0.00    -0.130 A  
HETATM    5  C   UNL     1      -9.861   8.655  68.484  1.00  0.00    -0.169 A  
HETATM    6  C   UNL     1     -10.204   7.151  66.630  1.00  0.00    -0.224 A  
HETATM    7  C   UNL     1     -10.714   7.852  67.725  1.00  0.00    -0.189 A  
ENDROOT
BRANCH   5   8
HETATM    8  S   UNL     1     -10.466   9.496  69.926  1.00  0.00    -0.259 S  
HETATM    9  O   UNL     1     -11.845   9.128  70.164  1.00  0.00    -0.045 OA 
HETATM   10  O   UNL     1      -9.466   9.324  70.965  1.00  0.00    -0.266 OA 
BRANCH   8  11
HETATM   11  N   UNL     1     -10.401  11.106  69.516  1.00  0.00    -0.441 N  
HETATM   12  H   UNL     1      -9.967  11.762  70.166  1.00  0.00     0.000 HD 
BRANCH  11  13
HETATM   13  C   UNL     1     -10.917  11.590  68.324  1.00  0.00    -0.224 C  
HETATM   14  O   UNL     1     -12.075  11.382  67.989  1.00  0.00    -0.629 OA 
BRANCH  13  15
HETATM   15  N   UNL     1      -9.991  12.284  67.562  1.00  0.00    -0.197 N  
HETATM   16  H   UNL     1      -9.504  11.792  66.814  1.00  0.00     0.000 HD 
BRANCH  15  17
HETATM   17  N   UNL     1      -9.694  13.664  67.787  1.00  0.00    -0.218 NA 
HETATM   18  C   UNL     1      -9.786  14.424  66.526  1.00  0.00    -0.290 C  
HETATM   19  C   UNL     1      -9.527  15.934  66.589  1.00  0.00    -0.263 C  
HETATM   20  C   UNL     1     -10.628  16.697  67.317  1.00  0.00    -0.281 C  
HETATM   21  C   UNL     1     -10.454  16.748  68.830  1.00  0.00    -0.332 C  
HETATM   22  C   UNL     1      -9.908  15.481  69.480  1.00  0.00    -0.284 C  
HETATM   23  C   UNL     1     -10.490  14.191  68.908  1.00  0.00    -0.222 C  
ENDBRANCH  15  17
ENDBRANCH  13  15
ENDBRANCH  11  13
ENDBRANCH   8  11
ENDBRANCH   5   8
TORSDOF 5
ENDMDL
MODEL      257
REMARK 921   NORMALIZED FREE ENERGY PREDICTED BY IDOCK:   -3.69 KCAL/MOL
REMARK 922        TOTAL FREE ENERGY PREDICTED BY IDOCK:   -5.31 KCAL/MOL
REMARK 923 INTER-LIGAND FREE ENERGY PREDICTED BY IDOCK:   -5.58 KCAL/MOL
REMARK 924 INTRA-LIGAND FREE ENERGY PREDICTED BY IDOCK:    0.27 KCAL/MOL
REMARK 927      BINDING AFFINITY PREDICTED BY RF-SCORE:    0.00 PKD
ROOT
HETATM    1  C   UNL     1      -6.641  20.410  64.913  1.00  0.00    -0.327 C  
HETATM    2  C   UNL     1      -6.606  19.172  65.761  1.00  0.00    -0.280 A  
HETATM    3  C   UNL     1      -5.399  18.503  66.002  1.00  0.00    -0.190 A  
HETATM    4  C   UNL     1      -5.382  17.314  66.735  1.00  0.00    -0.214 A  
HETATM    5  C   UNL     1      -6.580  16.797  67.237  1.00  0.00    -0.172 A  
HETATM    6  C   UNL     1      -7.797  18.650  66.288  1.00  0.00    -0.288 A  
HETATM    7  C   UNL     1      -7.787  17.465  67.027  1.00  0.00    -0.238 A  
ENDROOT
BRANCH   5   8
HETATM    8  S   UNL     1      -6.549  15.249  68.106  1.00  0.00    -0.139 S  
HETATM    9  O   UNL     1      -5.645  14.335  67.443  1.00  0.00    -0.342 OA 
HETATM   10  O   UNL     1      -6.384  15.559  69.515  1.00  0.00    -0.135 OA 
BRANCH   8  11
HETATM   11  N   UNL     1      -8.101  14.669  67.963  1.00  0.00    -0.126 N  
HETATM   12  H   UNL     1      -8.295  13.951  67.265  1.00  0.00     0.000 HD 
BRANCH  11  13
HETATM   13  C   UNL     1      -9.141  15.127  68.757  1.00  0.00    -0.200 C  
HETATM   14  O   UNL     1      -8.940  15.768  69.779  1.00  0.00    -0.184 OA 
BRANCH  13  15
HETATM   15  N   UNL     1     -10.393  14.756  68.297  1.00  0.00    -0.233 N  
HETATM   16  H   UNL     1     -11.210  14.968  68.869  1.00  0.00     0.000 HD 
BRANCH  15  17
HETATM   17  N   UNL     1     -10.583  14.086  67.048  1.00  0.00    -0.278 NA 
HETATM   18  C   UNL     1     -11.402  12.872  67.233  1.00  0.00    -0.310 C  
HETATM   19  C   UNL     1     -11.731  12.045  65.985  1.00  0.00    -0.311 C  
HETATM   20  C   UNL     1     -12.700  12.749  65.042  1.00  0.00    -0.455 C  
HETATM   21  C   UNL     1     -12.028  13.701  64.058  1.00  0.00    -0.478 C  
HETATM   22  C   UNL     1     -10.848  14.498  64.605  1.00  0.00    -0.351 C  
HETATM   23  C   UNL     1     -11.061  15.026  66.021  1.00  0.00    -0.329 C  
ENDBRANCH  15  17
ENDBRANCH  13  15
ENDBRANCH  11  13
ENDBRANCH   8  11
ENDBRANCH   5   8
TORSDOF 5
ENDMDL
MODEL      258
REMARK 921   NORMALIZED FREE ENERGY PREDICTED BY IDOCK:   -3.68 KCAL/MOL
REMARK 922        TOTAL FREE ENERGY PREDICTED BY IDOCK:   -5.30 KCAL/MOL
REMARK 923 INTER-LIGAND FREE ENERGY PREDICTED BY IDOCK:   -4.71 KCAL/MOL
REMARK 924 INTRA-LIGAND FREE ENERGY PREDICTED BY IDOCK:   -0.59 KCAL/MOL
REMARK 927      BINDING AFFINITY PREDICTED BY RF-SCORE:    0.00 PKD
ROOT
HETATM    1  C   UNL     1     -11.733  16.049  64.314  1.00  0.00    -0.081 C  
HETATM    2  C   UNL     1     -11.159  14.855  65.020  1.00  0.00    -0.422 A  
HETATM    3  C   UNL     1     -11.855  13.639  65.053  1.00  0.00    -0.379 A  
HETATM    4  C   UNL     1     -11.348  12.553  65.769  1.00  0.00    -0.373 A  
HETATM    5  C   UNL     1     -10.133  12.681  66.449  1.00  0.00    -0.253 A  
HETATM    6  C   UNL     1      -9.931  14.962  65.691  1.00  0.00    -0.389 A  
HETATM    7  C   UNL     1      -9.415  13.877  66.404  1.00  0.00    -0.268 A  
ENDROOT
BRANCH   5   8
HETATM    8  S   UNL     1      -9.538  11.313  67.411  1.00  0.00    -0.170 S  
HETATM    9  O   UNL     1      -8.794  11.803  68.550  1.00  0.00    -0.169 OA 
HETATM   10  O   UNL     1     -10.659  10.408  67.595  1.00  0.00    -0.218 OA 
BRANCH   8  11
HETATM   11  N   UNL     1      -8.495  10.517  66.388  1.00  0.00    -0.138 N  
HETATM   12  H   UNL     1      -7.502  10.749  66.421  1.00  0.00     0.000 HD 
BRANCH  11  13
HETATM   13  C   UNL     1      -8.926   9.550  65.493  1.00  0.00    -0.194 C  
HETATM   14  O   UNL     1      -9.516   9.842  64.462  1.00  0.00    -0.282 OA 
BRANCH  13  15
HETATM   15  N   UNL     1      -8.654   8.256  65.903  1.00  0.00    -0.142 N  
HETATM   16  H   UNL     1      -8.023   7.685  65.341  1.00  0.00     0.000 HD 
BRANCH  15  17
HETATM   17  N   UNL     1      -9.225   7.691  67.085  1.00  0.00    -0.128 NA 
HETATM   18  C   UNL     1     -10.013   6.488  66.754  1.00  0.00    -0.166 C  
HETATM   19  C   UNL     1     -10.673   5.734  67.913  1.00  0.00    -0.295 C  
HETATM   20  C   UNL     1      -9.667   5.023  68.812  1.00  0.00    -0.226 C  
HETATM   21  C   UNL     1      -9.081   5.905  69.908  1.00  0.00    -0.156 C  
HETATM   22  C   UNL     1      -8.800   7.352  69.518  1.00  0.00    -0.137 C  
HETATM   23  C   UNL     1      -8.197   7.512  68.125  1.00  0.00    -0.125 C  
ENDBRANCH  15  17
ENDBRANCH  13  15
ENDBRANCH  11  13
ENDBRANCH   8  11
ENDBRANCH   5   8
TORSDOF 5
ENDMDL
MODEL      259
REMARK 921   NORMALIZED FREE ENERGY PREDICTED BY IDOCK:   -3.67 KCAL/MOL
REMARK 922        TOTAL FREE ENERGY PREDICTED BY IDOCK:   -5.28 KCAL/MOL
REMARK 923 INTER-LIGAND FREE ENERGY PREDICTED BY IDOCK:   -5.64 KCAL/MOL
REMARK 924 INTRA-LIGAND FREE ENERGY PREDICTED BY IDOCK:    0.36 KCAL/MOL
REMARK 927      BINDING AFFINITY PREDICTED BY RF-SCORE:    0.00 PKD
ROOT
HETATM    1  C   UNL     1     -12.747  11.998  63.296  1.00  0.00    -0.437 C  
HETATM    2  C   UNL     1     -11.762  12.015  64.430  1.00  0.00    -0.399 A  
HETATM    3  C   UNL     1     -10.469  11.503  64.263  1.00  0.00    -0.393 A  
HETATM    4  C   UNL     1      -9.580  11.459  65.339  1.00  0.00    -0.255 A  
HETATM    5  C   UNL     1      -9.986  11.940  66.588  1.00  0.00    -0.199 A  
HETATM    6  C   UNL     1     -12.148  12.511  65.684  1.00  0.00    -0.464 A  
HETATM    7  C   UNL     1     -11.262  12.476  66.764  1.00  0.00    -0.347 A  
ENDROOT
BRANCH   5   8
HETATM    8  S   UNL     1      -8.868  11.812  67.962  1.00  0.00    -0.169 S  
HETATM    9  O   UNL     1      -9.261  10.708  68.810  1.00  0.00    -0.164 OA 
HETATM   10  O   UNL     1      -7.523  11.885  67.419  1.00  0.00    -0.128 OA 
BRANCH   8  11
HETATM   11  N   UNL     1      -9.082  13.235  68.796  1.00  0.00    -0.390 N  
HETATM   12  H   UNL     1      -9.820  13.286  69.499  1.00  0.00     0.000 HD 
BRANCH  11  13
HETATM   13  C   UNL     1      -8.295  14.353  68.572  1.00  0.00    -0.157 C  
HETATM   14  O   UNL     1      -7.548  14.435  67.606  1.00  0.00    -0.148 OA 
BRANCH  13  15
HETATM   15  N   UNL     1      -8.418  15.323  69.553  1.00  0.00    -0.364 N  
HETATM   16  H   UNL     1      -8.510  15.029  70.525  1.00  0.00     0.000 HD 
BRANCH  15  17
HETATM   17  N   UNL     1      -8.422  16.720  69.254  1.00  0.00    -0.068 NA 
HETATM   18  C   UNL     1      -7.047  17.255  69.264  1.00  0.00    -0.155 C  
HETATM   19  C   UNL     1      -6.863  18.739  68.931  1.00  0.00    -0.316 C  
HETATM   20  C   UNL     1      -7.148  19.061  67.468  1.00  0.00    -0.226 C  
HETATM   21  C   UNL     1      -8.619  19.323  67.165  1.00  0.00    -0.311 C  
HETATM   22  C   UNL     1      -9.618  18.451  67.918  1.00  0.00    -0.309 C  
HETATM   23  C   UNL     1      -9.200  16.988  68.032  1.00  0.00    -0.241 C  
ENDBRANCH  15  17
ENDBRANCH  13  15
ENDBRANCH  11  13
ENDBRANCH   8  11
ENDBRANCH   5   8
TORSDOF 5
ENDMDL
MODEL      260
REMARK 921   NORMALIZED FREE ENERGY PREDICTED BY IDOCK:   -3.67 KCAL/MOL
REMARK 922        TOTAL FREE ENERGY PREDICTED BY IDOCK:   -5.27 KCAL/MOL
REMARK 923 INTER-LIGAND FREE ENERGY PREDICTED BY IDOCK:   -4.18 KCAL/MOL
REMARK 924 INTRA-LIGAND FREE ENERGY PREDICTED BY IDOCK:   -1.10 KCAL/MOL
REMARK 927      BINDING AFFINITY PREDICTED BY RF-SCORE:    0.00 PKD
ROOT
HETATM    1  C   UNL     1      -6.547  10.373  67.018  1.00  0.00    -0.075 C  
HETATM    2  C   UNL     1      -7.615  10.171  68.054  1.00  0.00    -0.088 A  
HETATM    3  C   UNL     1      -7.503   9.150  69.007  1.00  0.00    -0.074 A  
HETATM    4  C   UNL     1      -8.531   8.923  69.925  1.00  0.00    -0.135 A  
HETATM    5  C   UNL     1      -9.673   9.729  69.894  1.00  0.00    -0.238 A  
HETATM    6  C   UNL     1      -8.758  10.983  68.049  1.00  0.00    -0.138 A  
HETATM    7  C   UNL     1      -9.787  10.767  68.968  1.00  0.00    -0.208 A  
ENDROOT
BRANCH   5   8
HETATM    8  S   UNL     1     -10.999   9.382  71.023  1.00  0.00    -0.367 S  
HETATM    9  O   UNL     1     -10.459   9.045  72.322  1.00  0.00    -0.269 OA 
HETATM   10  O   UNL     1     -11.966  10.457  70.881  1.00  0.00    -0.319 OA 
BRANCH   8  11
HETATM   11  N   UNL     1     -11.740   8.038  70.382  1.00  0.00    -0.469 N  
HETATM   12  H   UNL     1     -11.914   8.004  69.377  1.00  0.00     0.000 HD 
BRANCH  11  13
HETATM   13  C   UNL     1     -12.130   6.962  71.163  1.00  0.00    -0.381 C  
HETATM   14  O   UNL     1     -13.275   6.846  71.578  1.00  0.00    -0.345 OA 
BRANCH  13  15
HETATM   15  N   UNL     1     -11.100   6.080  71.443  1.00  0.00    -0.281 N  
HETATM   16  H   UNL     1     -11.124   5.558  72.319  1.00  0.00     0.000 HD 
BRANCH  15  17
HETATM   17  N   UNL     1     -10.003   5.874  70.550  1.00  0.00    -0.182 NA 
HETATM   18  C   UNL     1      -8.787   5.508  71.300  1.00  0.00    -0.135 C  
HETATM   19  C   UNL     1      -7.517   5.219  70.492  1.00  0.00    -0.071 C  
HETATM   20  C   UNL     1      -7.604   3.926  69.688  1.00  0.00    -0.052 C  
HETATM   21  C   UNL     1      -8.264   4.086  68.323  1.00  0.00    -0.095 C  
HETATM   22  C   UNL     1      -9.444   5.051  68.265  1.00  0.00    -0.173 C  
HETATM   23  C   UNL     1     -10.383   4.954  69.464  1.00  0.00    -0.084 C  
ENDBRANCH  15  17
ENDBRANCH  13  15
ENDBRANCH  11  13
ENDBRANCH   8  11
ENDBRANCH   5   8
TORSDOF 5
ENDMDL
MODEL      261
REMARK 921   NORMALIZED FREE ENERGY PREDICTED BY IDOCK:   -3.65 KCAL/MOL
REMARK 922        TOTAL FREE ENERGY PREDICTED BY IDOCK:   -5.25 KCAL/MOL
REMARK 923 INTER-LIGAND FREE ENERGY PREDICTED BY IDOCK:   -4.32 KCAL/MOL
REMARK 924 INTRA-LIGAND FREE ENERGY PREDICTED BY IDOCK:   -0.93 KCAL/MOL
REMARK 927      BINDING AFFINITY PREDICTED BY RF-SCORE:    0.00 PKD
ROOT
HETATM    1  C   UNL     1      -6.933  10.660  69.333  1.00  0.00    -0.106 C  
HETATM    2  C   UNL     1      -8.112   9.916  69.891  1.00  0.00    -0.200 A  
HETATM    3  C   UNL     1      -9.403  10.150  69.399  1.00  0.00    -0.235 A  
HETATM    4  C   UNL     1     -10.504   9.506  69.967  1.00  0.00    -0.283 A  
HETATM    5  C   UNL     1     -10.311   8.616  71.028  1.00  0.00    -0.217 A  
HETATM    6  C   UNL     1      -7.932   9.006  70.943  1.00  0.00    -0.194 A  
HETATM    7  C   UNL     1      -9.028   8.354  71.512  1.00  0.00    -0.251 A  
ENDROOT
BRANCH   5   8
HETATM    8  S   UNL     1     -11.728   7.860  71.784  1.00  0.00    -0.304 S  
HETATM    9  O   UNL     1     -12.566   8.879  72.379  1.00  0.00    -0.382 OA 
HETATM   10  O   UNL     1     -12.275   6.926  70.816  1.00  0.00    -0.381 OA 
BRANCH   8  11
HETATM   11  N   UNL     1     -11.090   6.914  72.994  1.00  0.00    -0.433 N  
HETATM   12  H   UNL     1     -10.628   7.369  73.782  1.00  0.00     0.000 HD 
BRANCH  11  13
HETATM   13  C   UNL     1     -11.163   5.530  72.971  1.00  0.00    -0.293 C  
HETATM   14  O   UNL     1     -12.206   4.934  73.202  1.00  0.00    -0.068 OA 
BRANCH  13  15
HETATM   15  N   UNL     1      -9.951   4.917  72.701  1.00  0.00    -0.160 N  
HETATM   16  H   UNL     1      -9.574   4.254  73.378  1.00  0.00     0.000 HD 
BRANCH  15  17
HETATM   17  N   UNL     1      -9.209   5.179  71.507  1.00  0.00    -0.144 NA 
HETATM   18  C   UNL     1      -7.781   4.866  71.708  1.00  0.00    -0.102 C  
HETATM   19  C   UNL     1      -6.840   5.061  70.514  1.00  0.00    -0.041 C  
HETATM   20  C   UNL     1      -7.071   4.044  69.401  1.00  0.00    -0.046 C  
HETATM   21  C   UNL     1      -8.167   4.438  68.418  1.00  0.00    -0.086 C  
HETATM   22  C   UNL     1      -9.383   5.133  69.022  1.00  0.00    -0.166 C  
HETATM   23  C   UNL     1      -9.845   4.533  70.347  1.00  0.00    -0.232 C  
ENDBRANCH  15  17
ENDBRANCH  13  15
ENDBRANCH  11  13
ENDBRANCH   8  11
ENDBRANCH   5   8
TORSDOF 5
ENDMDL
MODEL      262
REMARK 921   NORMALIZED FREE ENERGY PREDICTED BY IDOCK:   -3.64 KCAL/MOL
REMARK 922        TOTAL FREE ENERGY PREDICTED BY IDOCK:   -5.24 KCAL/MOL
REMARK 923 INTER-LIGAND FREE ENERGY PREDICTED BY IDOCK:   -4.61 KCAL/MOL
REMARK 924 INTRA-LIGAND FREE ENERGY PREDICTED BY IDOCK:   -0.62 KCAL/MOL
REMARK 927      BINDING AFFINITY PREDICTED BY RF-SCORE:    0.00 PKD
ROOT
HETATM    1  C   UNL     1     -11.646   6.318  70.370  1.00  0.00    -0.371 C  
HETATM    2  C   UNL     1     -10.667   6.724  69.306  1.00  0.00    -0.288 A  
HETATM    3  C   UNL     1     -11.075   6.864  67.973  1.00  0.00    -0.179 A  
HETATM    4  C   UNL     1     -10.147   7.175  66.978  1.00  0.00    -0.308 A  
HETATM    5  C   UNL     1      -8.803   7.357  67.320  1.00  0.00    -0.124 A  
HETATM    6  C   UNL     1      -9.319   6.929  69.637  1.00  0.00    -0.145 A  
HETATM    7  C   UNL     1      -8.386   7.247  68.647  1.00  0.00    -0.125 A  
ENDROOT
BRANCH   5   8
HETATM    8  S   UNL     1      -7.626   7.684  66.032  1.00  0.00    -0.090 S  
HETATM    9  O   UNL     1      -6.631   6.634  66.003  1.00  0.00    -0.042 OA 
HETATM   10  O   UNL     1      -8.385   8.016  64.840  1.00  0.00    -0.150 OA 
BRANCH   8  11
HETATM   11  N   UNL     1      -6.895   9.104  66.497  1.00  0.00    -0.079 N  
HETATM   12  H   UNL     1      -5.877   9.147  66.524  1.00  0.00     0.000 HD 
BRANCH  11  13
HETATM   13  C   UNL     1      -7.621  10.232  66.849  1.00  0.00    -0.105 C  
HETATM   14  O   UNL     1      -7.934  10.463  68.008  1.00  0.00    -0.103 OA 
BRANCH  13  15
HETATM   15  N   UNL     1      -7.971  11.024  65.767  1.00  0.00    -0.340 N  
HETATM   16  H   UNL     1      -7.274  11.205  65.045  1.00  0.00     0.000 HD 
BRANCH  15  17
HETATM   17  N   UNL     1      -9.273  11.596  65.627  1.00  0.00    -0.184 NA 
HETATM   18  C   UNL     1      -9.312  12.943  66.227  1.00  0.00    -0.141 C  
HETATM   19  C   UNL     1     -10.631  13.719  66.138  1.00  0.00    -0.291 C  
HETATM   20  C   UNL     1     -10.964  14.167  64.719  1.00  0.00    -0.409 C  
HETATM   21  C   UNL     1     -11.693  13.115  63.890  1.00  0.00    -0.515 C  
HETATM   22  C   UNL     1     -11.244  11.673  64.103  1.00  0.00    -0.421 C  
HETATM   23  C   UNL     1      -9.732  11.508  64.230  1.00  0.00    -0.202 C  
ENDBRANCH  15  17
ENDBRANCH  13  15
ENDBRANCH  11  13
ENDBRANCH   8  11
ENDBRANCH   5   8
TORSDOF 5
ENDMDL
MODEL      263
REMARK 921   NORMALIZED FREE ENERGY PREDICTED BY IDOCK:   -3.62 KCAL/MOL
REMARK 922        TOTAL FREE ENERGY PREDICTED BY IDOCK:   -5.21 KCAL/MOL
REMARK 923 INTER-LIGAND FREE ENERGY PREDICTED BY IDOCK:   -4.47 KCAL/MOL
REMARK 924 INTRA-LIGAND FREE ENERGY PREDICTED BY IDOCK:   -0.74 KCAL/MOL
REMARK 927      BINDING AFFINITY PREDICTED BY RF-SCORE:    0.00 PKD
ROOT
HETATM    1  C   UNL     1     -12.335  13.011  63.409  1.00  0.00    -0.478 C  
HETATM    2  C   UNL     1     -11.476  12.131  64.272  1.00  0.00    -0.437 A  
HETATM    3  C   UNL     1     -10.615  11.187  63.698  1.00  0.00    -0.414 A  
HETATM    4  C   UNL     1      -9.870  10.326  64.505  1.00  0.00    -0.384 A  
HETATM    5  C   UNL     1      -9.981  10.416  65.896  1.00  0.00    -0.255 A  
HETATM    6  C   UNL     1     -11.562  12.222  65.669  1.00  0.00    -0.433 A  
HETATM    7  C   UNL     1     -10.815  11.368  66.483  1.00  0.00    -0.334 A  
ENDROOT
BRANCH   5   8
HETATM    8  S   UNL     1      -9.080   9.267  66.906  1.00  0.00    -0.134 S  
HETATM    9  O   UNL     1      -9.136   9.684  68.290  1.00  0.00    -0.124 OA 
HETATM   10  O   UNL     1      -9.511   7.935  66.518  1.00  0.00    -0.196 OA 
BRANCH   8  11
HETATM   11  N   UNL     1      -7.511   9.393  66.368  1.00  0.00    -0.092 N  
HETATM   12  H   UNL     1      -7.235   8.881  65.531  1.00  0.00     0.000 HD 
BRANCH  11  13
HETATM   13  C   UNL     1      -6.564  10.170  67.017  1.00  0.00    -0.074 C  
HETATM   14  O   UNL     1      -5.511   9.700  67.424  1.00  0.00    -0.036 OA 
BRANCH  13  15
HETATM   15  N   UNL     1      -6.950  11.490  67.181  1.00  0.00    -0.127 N  
HETATM   16  H   UNL     1      -7.771  11.828  66.679  1.00  0.00     0.000 HD 
BRANCH  15  17
HETATM   17  N   UNL     1      -6.240  12.397  68.028  1.00  0.00    -0.072 NA 
HETATM   18  C   UNL     1      -6.464  13.790  67.596  1.00  0.00    -0.150 C  
HETATM   19  C   UNL     1      -5.799  14.901  68.416  1.00  0.00    -0.106 C  
HETATM   20  C   UNL     1      -6.409  15.064  69.804  1.00  0.00    -0.152 C  
HETATM   21  C   UNL     1      -5.819  14.130  70.855  1.00  0.00    -0.213 C  
HETATM   22  C   UNL     1      -5.480  12.722  70.379  1.00  0.00    -0.149 C  
HETATM   23  C   UNL     1      -6.525  12.116  69.445  1.00  0.00    -0.110 C  
ENDBRANCH  15  17
ENDBRANCH  13  15
ENDBRANCH  11  13
ENDBRANCH   8  11
ENDBRANCH   5   8
TORSDOF 5
ENDMDL
MODEL      264
REMARK 921   NORMALIZED FREE ENERGY PREDICTED BY IDOCK:   -3.60 KCAL/MOL
REMARK 922        TOTAL FREE ENERGY PREDICTED BY IDOCK:   -5.19 KCAL/MOL
REMARK 923 INTER-LIGAND FREE ENERGY PREDICTED BY IDOCK:   -4.61 KCAL/MOL
REMARK 924 INTRA-LIGAND FREE ENERGY PREDICTED BY IDOCK:   -0.58 KCAL/MOL
REMARK 927      BINDING AFFINITY PREDICTED BY RF-SCORE:    0.00 PKD
ROOT
HETATM    1  C   UNL     1     -12.265  14.688  64.390  1.00  0.00    -0.473 C  
HETATM    2  C   UNL     1     -11.391  13.724  65.140  1.00  0.00    -0.317 A  
HETATM    3  C   UNL     1     -11.347  12.370  64.782  1.00  0.00    -0.360 A  
HETATM    4  C   UNL     1     -10.586  11.466  65.525  1.00  0.00    -0.328 A  
HETATM    5  C   UNL     1      -9.856  11.922  66.627  1.00  0.00    -0.201 A  
HETATM    6  C   UNL     1     -10.638  14.169  66.236  1.00  0.00    -0.284 A  
HETATM    7  C   UNL     1      -9.868  13.272  66.980  1.00  0.00    -0.242 A  
ENDROOT
BRANCH   5   8
HETATM    8  S   UNL     1      -8.949  10.747  67.601  1.00  0.00    -0.140 S  
HETATM    9  O   UNL     1      -7.982  10.065  66.768  1.00  0.00    -0.112 OA 
HETATM   10  O   UNL     1      -8.529  11.434  68.809  1.00  0.00    -0.151 OA 
BRANCH   8  11
HETATM   11  N   UNL     1     -10.099   9.652  68.096  1.00  0.00    -0.167 N  
HETATM   12  H   UNL     1     -10.615   9.128  67.390  1.00  0.00     0.000 HD 
BRANCH  11  13
HETATM   13  C   UNL     1     -10.382   9.427  69.435  1.00  0.00    -0.212 C  
HETATM   14  O   UNL     1     -11.493   9.632  69.904  1.00  0.00    -0.203 OA 
BRANCH  13  15
HETATM   15  N   UNL     1      -9.289   8.991  70.165  1.00  0.00    -0.178 N  
HETATM   16  H   UNL     1      -8.410   9.504  70.087  1.00  0.00     0.000 HD 
BRANCH  15  17
HETATM   17  N   UNL     1      -9.346   7.850  71.024  1.00  0.00    -0.151 NA 
HETATM   18  C   UNL     1      -8.110   7.054  70.909  1.00  0.00    -0.109 C  
HETATM   19  C   UNL     1      -7.988   5.805  71.788  1.00  0.00    -0.114 C  
HETATM   20  C   UNL     1      -7.830   6.132  73.269  1.00  0.00    -0.100 C  
HETATM   21  C   UNL     1      -9.150   6.345  74.002  1.00  0.00    -0.158 C  
HETATM   22  C   UNL     1     -10.237   7.071  73.217  1.00  0.00    -0.309 C  
HETATM   23  C   UNL     1      -9.723   8.247  72.391  1.00  0.00    -0.303 C  
ENDBRANCH  15  17
ENDBRANCH  13  15
ENDBRANCH  11  13
ENDBRANCH   8  11
ENDBRANCH   5   8
TORSDOF 5
ENDMDL
MODEL      265
REMARK 921   NORMALIZED FREE ENERGY PREDICTED BY IDOCK:   -3.59 KCAL/MOL
REMARK 922        TOTAL FREE ENERGY PREDICTED BY IDOCK:   -5.18 KCAL/MOL
REMARK 923 INTER-LIGAND FREE ENERGY PREDICTED BY IDOCK:   -4.42 KCAL/MOL
REMARK 924 INTRA-LIGAND FREE ENERGY PREDICTED BY IDOCK:   -0.76 KCAL/MOL
REMARK 927      BINDING AFFINITY PREDICTED BY RF-SCORE:    0.00 PKD
ROOT
HETATM    1  C   UNL     1      -7.335   9.908  66.010  1.00  0.00    -0.106 C  
HETATM    2  C   UNL     1      -8.372   9.887  67.095  1.00  0.00    -0.121 A  
HETATM    3  C   UNL     1      -7.999   9.761  68.440  1.00  0.00    -0.089 A  
HETATM    4  C   UNL     1      -8.970   9.673  69.439  1.00  0.00    -0.186 A  
HETATM    5  C   UNL     1     -10.324   9.720  69.091  1.00  0.00    -0.211 A  
HETATM    6  C   UNL     1      -9.734   9.952  66.764  1.00  0.00    -0.244 A  
HETATM    7  C   UNL     1     -10.711   9.872  67.759  1.00  0.00    -0.332 A  
ENDROOT
BRANCH   5   8
HETATM    8  S   UNL     1     -11.545   9.537  70.366  1.00  0.00    -0.168 S  
HETATM    9  O   UNL     1     -10.954   9.830  71.654  1.00  0.00    -0.240 OA 
HETATM   10  O   UNL     1     -12.731  10.246  69.920  1.00  0.00    -0.086 OA 
BRANCH   8  11
HETATM   11  N   UNL     1     -11.951   7.925  70.314  1.00  0.00    -0.448 N  
HETATM   12  H   UNL     1     -11.754   7.395  69.465  1.00  0.00     0.000 HD 
BRANCH  11  13
HETATM   13  C   UNL     1     -12.548   7.275  71.383  1.00  0.00    -0.388 C  
HETATM   14  O   UNL     1     -13.658   7.588  71.792  1.00  0.00    -0.353 OA 
BRANCH  13  15
HETATM   15  N   UNL     1     -11.756   6.286  71.941  1.00  0.00    -0.321 N  
HETATM   16  H   UNL     1     -12.191   5.407  72.221  1.00  0.00     0.000 HD 
BRANCH  15  17
HETATM   17  N   UNL     1     -10.350   6.451  72.139  1.00  0.00    -0.187 NA 
HETATM   18  C   UNL     1     -10.076   6.962  73.496  1.00  0.00    -0.292 C  
HETATM   19  C   UNL     1      -8.610   7.170  73.892  1.00  0.00    -0.195 C  
HETATM   20  C   UNL     1      -7.846   5.860  74.057  1.00  0.00    -0.098 C  
HETATM   21  C   UNL     1      -7.269   5.309  72.758  1.00  0.00    -0.090 C  
HETATM   22  C   UNL     1      -8.139   5.482  71.518  1.00  0.00    -0.118 C  
HETATM   23  C   UNL     1      -9.624   5.227  71.762  1.00  0.00    -0.150 C  
ENDBRANCH  15  17
ENDBRANCH  13  15
ENDBRANCH  11  13
ENDBRANCH   8  11
ENDBRANCH   5   8
TORSDOF 5
ENDMDL
MODEL      266
REMARK 921   NORMALIZED FREE ENERGY PREDICTED BY IDOCK:   -3.58 KCAL/MOL
REMARK 922        TOTAL FREE ENERGY PREDICTED BY IDOCK:   -5.17 KCAL/MOL
REMARK 923 INTER-LIGAND FREE ENERGY PREDICTED BY IDOCK:   -4.68 KCAL/MOL
REMARK 924 INTRA-LIGAND FREE ENERGY PREDICTED BY IDOCK:   -0.49 KCAL/MOL
REMARK 927      BINDING AFFINITY PREDICTED BY RF-SCORE:    0.00 PKD
ROOT
HETATM    1  C   UNL     1     -12.022  14.731  64.230  1.00  0.00    -0.387 C  
HETATM    2  C   UNL     1     -11.214  13.509  64.564  1.00  0.00    -0.392 A  
HETATM    3  C   UNL     1     -11.205  12.401  63.707  1.00  0.00    -0.520 A  
HETATM    4  C   UNL     1     -10.507  11.243  64.055  1.00  0.00    -0.440 A  
HETATM    5  C   UNL     1      -9.807  11.197  65.265  1.00  0.00    -0.249 A  
HETATM    6  C   UNL     1     -10.491  13.455  65.765  1.00  0.00    -0.291 A  
HETATM    7  C   UNL     1      -9.785  12.302  66.117  1.00  0.00    -0.256 A  
ENDROOT
BRANCH   5   8
HETATM    8  S   UNL     1      -8.983   9.693  65.724  1.00  0.00    -0.183 S  
HETATM    9  O   UNL     1      -8.536   8.999  64.535  1.00  0.00    -0.176 OA 
HETATM   10  O   UNL     1      -8.044  10.030  66.779  1.00  0.00    -0.116 OA 
BRANCH   8  11
HETATM   11  N   UNL     1     -10.167   8.788  66.463  1.00  0.00    -0.282 N  
HETATM   12  H   UNL     1     -10.650   8.073  65.919  1.00  0.00     0.000 HD 
BRANCH  11  13
HETATM   13  C   UNL     1     -10.521   8.971  67.791  1.00  0.00    -0.245 C  
HETATM   14  O   UNL     1     -10.970  10.032  68.200  1.00  0.00    -0.255 OA 
BRANCH  13  15
HETATM   15  N   UNL     1     -10.281   7.861  68.584  1.00  0.00    -0.202 N  
HETATM   16  H   UNL     1     -11.051   7.220  68.778  1.00  0.00     0.000 HD 
BRANCH  15  17
HETATM   17  N   UNL     1      -8.996   7.582  69.142  1.00  0.00    -0.136 NA 
HETATM   18  C   UNL     1      -8.855   8.224  70.463  1.00  0.00    -0.145 C  
HETATM   19  C   UNL     1      -7.542   8.001  71.222  1.00  0.00    -0.081 C  
HETATM   20  C   UNL     1      -7.379   6.570  71.722  1.00  0.00    -0.087 C  
HETATM   21  C   UNL     1      -6.780   5.617  70.694  1.00  0.00    -0.048 C  
HETATM   22  C   UNL     1      -7.228   5.828  69.252  1.00  0.00    -0.066 C  
HETATM   23  C   UNL     1      -8.715   6.137  69.104  1.00  0.00    -0.121 C  
ENDBRANCH  15  17
ENDBRANCH  13  15
ENDBRANCH  11  13
ENDBRANCH   8  11
ENDBRANCH   5   8
TORSDOF 5
ENDMDL
MODEL      267
REMARK 921   NORMALIZED FREE ENERGY PREDICTED BY IDOCK:   -3.58 KCAL/MOL
REMARK 922        TOTAL FREE ENERGY PREDICTED BY IDOCK:   -5.17 KCAL/MOL
REMARK 923 INTER-LIGAND FREE ENERGY PREDICTED BY IDOCK:   -4.04 KCAL/MOL
REMARK 924 INTRA-LIGAND FREE ENERGY PREDICTED BY IDOCK:   -1.13 KCAL/MOL
REMARK 927      BINDING AFFINITY PREDICTED BY RF-SCORE:    0.00 PKD
ROOT
HETATM    1  C   UNL     1     -12.373  12.277  70.395  1.00  0.00    -0.309 C  
HETATM    2  C   UNL     1     -11.841  11.780  69.081  1.00  0.00    -0.389 A  
HETATM    3  C   UNL     1     -11.343  10.476  68.958  1.00  0.00    -0.319 A  
HETATM    4  C   UNL     1     -10.787  10.042  67.753  1.00  0.00    -0.337 A  
HETATM    5  C   UNL     1     -10.739  10.915  66.662  1.00  0.00    -0.230 A  
HETATM    6  C   UNL     1     -11.803  12.637  67.972  1.00  0.00    -0.376 A  
HETATM    7  C   UNL     1     -11.255  12.208  66.761  1.00  0.00    -0.375 A  
ENDROOT
BRANCH   5   8
HETATM    8  S   UNL     1      -9.967  10.369  65.159  1.00  0.00    -0.315 S  
HETATM    9  O   UNL     1      -9.953   8.923  65.115  1.00  0.00     0.383 OA 
HETATM   10  O   UNL     1     -10.558  11.136  64.077  1.00  0.00    -0.349 OA 
BRANCH   8  11
HETATM   11  N   UNL     1      -8.401  10.919  65.282  1.00  0.00    -0.345 N  
HETATM   12  H   UNL     1      -8.241  11.911  65.455  1.00  0.00     0.000 HD 
BRANCH  11  13
HETATM   13  C   UNL     1      -7.307  10.077  65.157  1.00  0.00    -0.139 C  
HETATM   14  O   UNL     1      -6.958   9.627  64.074  1.00  0.00    -0.103 OA 
BRANCH  13  15
HETATM   15  N   UNL     1      -6.695   9.783  66.364  1.00  0.00    -0.078 N  
HETATM   16  H   UNL     1      -5.677   9.813  66.419  1.00  0.00     0.000 HD 
BRANCH  15  17
HETATM   17  N   UNL     1      -7.438   9.438  67.535  1.00  0.00    -0.090 NA 
HETATM   18  C   UNL     1      -7.623   7.976  67.618  1.00  0.00    -0.102 C  
HETATM   19  C   UNL     1      -8.375   7.426  68.835  1.00  0.00    -0.129 C  
HETATM   20  C   UNL     1      -7.587   7.561  70.134  1.00  0.00    -0.088 C  
HETATM   21  C   UNL     1      -7.751   8.912  70.822  1.00  0.00    -0.126 C  
HETATM   22  C   UNL     1      -7.830  10.123  69.899  1.00  0.00    -0.164 C  
HETATM   23  C   UNL     1      -6.853  10.074  68.728  1.00  0.00    -0.057 C  
ENDBRANCH  15  17
ENDBRANCH  13  15
ENDBRANCH  11  13
ENDBRANCH   8  11
ENDBRANCH   5   8
TORSDOF 5
ENDMDL
MODEL      268
REMARK 921   NORMALIZED FREE ENERGY PREDICTED BY IDOCK:   -3.58 KCAL/MOL
REMARK 922        TOTAL FREE ENERGY PREDICTED BY IDOCK:   -5.16 KCAL/MOL
REMARK 923 INTER-LIGAND FREE ENERGY PREDICTED BY IDOCK:   -4.40 KCAL/MOL
REMARK 924 INTRA-LIGAND FREE ENERGY PREDICTED BY IDOCK:   -0.76 KCAL/MOL
REMARK 927      BINDING AFFINITY PREDICTED BY RF-SCORE:    0.00 PKD
ROOT
HETATM    1  C   UNL     1     -10.961  15.037  70.584  1.00  0.00    -0.188 C  
HETATM    2  C   UNL     1     -10.928  14.361  69.244  1.00  0.00    -0.281 A  
HETATM    3  C   UNL     1     -11.456  13.074  69.078  1.00  0.00    -0.353 A  
HETATM    4  C   UNL     1     -11.362  12.423  67.846  1.00  0.00    -0.344 A  
HETATM    5  C   UNL     1     -10.744  13.069  66.771  1.00  0.00    -0.262 A  
HETATM    6  C   UNL     1     -10.328  15.003  68.151  1.00  0.00    -0.239 A  
HETATM    7  C   UNL     1     -10.236  14.361  66.913  1.00  0.00    -0.265 A  
ENDROOT
BRANCH   5   8
HETATM    8  S   UNL     1     -10.571  12.201  65.232  1.00  0.00    -0.292 S  
HETATM    9  O   UNL     1     -11.216  10.909  65.326  1.00  0.00     0.053 OA 
HETATM   10  O   UNL     1     -10.934  13.132  64.178  1.00  0.00    -0.381 OA 
BRANCH   8  11
HETATM   11  N   UNL     1      -8.931  11.974  65.073  1.00  0.00    -0.189 N  
HETATM   12  H   UNL     1      -8.460  12.352  64.250  1.00  0.00     0.000 HD 
BRANCH  11  13
HETATM   13  C   UNL     1      -8.181  11.291  66.017  1.00  0.00    -0.045 C  
HETATM   14  O   UNL     1      -7.353  11.856  66.717  1.00  0.00    -0.110 OA 
BRANCH  13  15
HETATM   15  N   UNL     1      -8.441   9.931  66.051  1.00  0.00    -0.127 N  
HETATM   16  H   UNL     1      -7.978   9.325  65.373  1.00  0.00     0.000 HD 
BRANCH  15  17
HETATM   17  N   UNL     1      -9.335   9.345  67.000  1.00  0.00    -0.144 NA 
HETATM   18  C   UNL     1      -9.829   8.044  66.510  1.00  0.00    -0.219 C  
HETATM   19  C   UNL     1     -10.779   7.260  67.421  1.00  0.00    -0.358 C  
HETATM   20  C   UNL     1     -10.092   6.710  68.666  1.00  0.00    -0.169 C  
HETATM   21  C   UNL     1     -10.025   7.697  69.826  1.00  0.00    -0.184 C  
HETATM   22  C   UNL     1      -9.770   9.152  69.446  1.00  0.00    -0.170 C  
HETATM   23  C   UNL     1      -8.731   9.332  68.343  1.00  0.00    -0.129 C  
ENDBRANCH  15  17
ENDBRANCH  13  15
ENDBRANCH  11  13
ENDBRANCH   8  11
ENDBRANCH   5   8
TORSDOF 5
ENDMDL
MODEL      269
REMARK 921   NORMALIZED FREE ENERGY PREDICTED BY IDOCK:   -3.57 KCAL/MOL
REMARK 922        TOTAL FREE ENERGY PREDICTED BY IDOCK:   -5.15 KCAL/MOL
REMARK 923 INTER-LIGAND FREE ENERGY PREDICTED BY IDOCK:   -3.83 KCAL/MOL
REMARK 924 INTRA-LIGAND FREE ENERGY PREDICTED BY IDOCK:   -1.32 KCAL/MOL
REMARK 927      BINDING AFFINITY PREDICTED BY RF-SCORE:    0.00 PKD
ROOT
HETATM    1  C   UNL     1     -11.395  10.555  70.401  1.00  0.00    -0.411 C  
HETATM    2  C   UNL     1     -10.572  10.234  69.187  1.00  0.00    -0.254 A  
HETATM    3  C   UNL     1      -9.173  10.287  69.237  1.00  0.00    -0.215 A  
HETATM    4  C   UNL     1      -8.414  10.055  68.088  1.00  0.00    -0.114 A  
HETATM    5  C   UNL     1      -9.060   9.758  66.884  1.00  0.00    -0.142 A  
HETATM    6  C   UNL     1     -11.204   9.916  67.976  1.00  0.00    -0.129 A  
HETATM    7  C   UNL     1     -10.452   9.676  66.824  1.00  0.00    -0.257 A  
ENDROOT
BRANCH   5   8
HETATM    8  S   UNL     1      -8.084   9.534  65.418  1.00  0.00    -0.131 S  
HETATM    9  O   UNL     1      -8.952   9.358  64.275  1.00  0.00    -0.219 OA 
HETATM   10  O   UNL     1      -7.070  10.574  65.423  1.00  0.00    -0.133 OA 
BRANCH   8  11
HETATM   11  N   UNL     1      -7.258   8.116  65.690  1.00  0.00    -0.070 N  
HETATM   12  H   UNL     1      -6.246   8.152  65.814  1.00  0.00     0.000 HD 
BRANCH  11  13
HETATM   13  C   UNL     1      -7.895   6.887  65.755  1.00  0.00    -0.106 C  
HETATM   14  O   UNL     1      -8.512   6.428  64.803  1.00  0.00    -0.082 OA 
BRANCH  13  15
HETATM   15  N   UNL     1      -7.788   6.272  66.991  1.00  0.00    -0.103 N  
HETATM   16  H   UNL     1      -7.087   5.543  67.118  1.00  0.00     0.000 HD 
BRANCH  15  17
HETATM   17  N   UNL     1      -8.624   6.623  68.096  1.00  0.00    -0.116 NA 
HETATM   18  C   UNL     1     -10.009   6.172  67.859  1.00  0.00    -0.134 C  
HETATM   19  C   UNL     1     -11.038   6.440  68.962  1.00  0.00    -0.424 C  
HETATM   20  C   UNL     1     -10.807   5.596  70.211  1.00  0.00    -0.336 C  
HETATM   21  C   UNL     1      -9.809   6.199  71.193  1.00  0.00    -0.210 C  
HETATM   22  C   UNL     1      -8.611   6.908  70.572  1.00  0.00    -0.142 C  
HETATM   23  C   UNL     1      -8.020   6.184  69.365  1.00  0.00    -0.104 C  
ENDBRANCH  15  17
ENDBRANCH  13  15
ENDBRANCH  11  13
ENDBRANCH   8  11
ENDBRANCH   5   8
TORSDOF 5
ENDMDL
MODEL      270
REMARK 921   NORMALIZED FREE ENERGY PREDICTED BY IDOCK:   -3.52 KCAL/MOL
REMARK 922        TOTAL FREE ENERGY PREDICTED BY IDOCK:   -5.08 KCAL/MOL
REMARK 923 INTER-LIGAND FREE ENERGY PREDICTED BY IDOCK:   -4.60 KCAL/MOL
REMARK 924 INTRA-LIGAND FREE ENERGY PREDICTED BY IDOCK:   -0.48 KCAL/MOL
REMARK 927      BINDING AFFINITY PREDICTED BY RF-SCORE:    0.00 PKD
ROOT
HETATM    1  C   UNL     1      -6.258   8.498  69.187  1.00  0.00    -0.043 C  
HETATM    2  C   UNL     1      -6.616   9.930  68.910  1.00  0.00    -0.045 A  
HETATM    3  C   UNL     1      -7.365  10.275  67.777  1.00  0.00    -0.087 A  
HETATM    4  C   UNL     1      -7.636  11.614  67.488  1.00  0.00    -0.128 A  
HETATM    5  C   UNL     1      -7.163  12.613  68.344  1.00  0.00    -0.111 A  
HETATM    6  C   UNL     1      -6.165  10.943  69.769  1.00  0.00    -0.103 A  
HETATM    7  C   UNL     1      -6.438  12.284  69.490  1.00  0.00    -0.094 A  
ENDROOT
BRANCH   5   8
HETATM    8  S   UNL     1      -7.457  14.313  67.924  1.00  0.00    -0.170 S  
HETATM    9  O   UNL     1      -7.951  15.024  69.084  1.00  0.00    -0.174 OA 
HETATM   10  O   UNL     1      -6.280  14.783  67.215  1.00  0.00    -0.309 OA 
BRANCH   8  11
HETATM   11  N   UNL     1      -8.663  14.248  66.780  1.00  0.00    -0.397 N  
HETATM   12  H   UNL     1      -8.939  13.339  66.407  1.00  0.00     0.000 HD 
BRANCH  11  13
HETATM   13  C   UNL     1      -9.305  15.384  66.313  1.00  0.00    -0.316 C  
HETATM   14  O   UNL     1     -10.525  15.481  66.308  1.00  0.00    -0.288 OA 
BRANCH  13  15
HETATM   15  N   UNL     1      -8.438  16.353  65.835  1.00  0.00    -0.151 N  
HETATM   16  H   UNL     1      -7.786  16.105  65.092  1.00  0.00     0.000 HD 
BRANCH  15  17
HETATM   17  N   UNL     1      -8.424  17.688  66.346  1.00  0.00    -0.358 NA 
HETATM   18  C   UNL     1      -9.104  17.748  67.654  1.00  0.00    -0.246 C  
HETATM   19  C   UNL     1      -9.154  19.105  68.364  1.00  0.00    -0.405 C  
HETATM   20  C   UNL     1      -7.790  19.563  68.871  1.00  0.00    -0.349 C  
HETATM   21  C   UNL     1      -6.956  20.299  67.829  1.00  0.00    -0.323 C  
HETATM   22  C   UNL     1      -7.051  19.767  66.403  1.00  0.00    -0.248 C  
HETATM   23  C   UNL     1      -7.061  18.244  66.310  1.00  0.00    -0.258 C  
ENDBRANCH  15  17
ENDBRANCH  13  15
ENDBRANCH  11  13
ENDBRANCH   8  11
ENDBRANCH   5   8
TORSDOF 5
ENDMDL
MODEL      271
REMARK 921   NORMALIZED FREE ENERGY PREDICTED BY IDOCK:   -3.50 KCAL/MOL
REMARK 922        TOTAL FREE ENERGY PREDICTED BY IDOCK:   -5.07 KCAL/MOL
REMARK 923 INTER-LIGAND FREE ENERGY PREDICTED BY IDOCK:   -4.50 KCAL/MOL
REMARK 924 INTRA-LIGAND FREE ENERGY PREDICTED BY IDOCK:   -0.56 KCAL/MOL
REMARK 927      BINDING AFFINITY PREDICTED BY RF-SCORE:    0.00 PKD
ROOT
HETATM    1  C   UNL     1     -14.034   8.951  72.431  1.00  0.00    -0.516 C  
HETATM    2  C   UNL     1     -12.789   8.765  71.611  1.00  0.00    -0.392 A  
HETATM    3  C   UNL     1     -12.042   9.870  71.183  1.00  0.00    -0.466 A  
HETATM    4  C   UNL     1     -10.925   9.695  70.365  1.00  0.00    -0.356 A  
HETATM    5  C   UNL     1     -10.547   8.405  69.981  1.00  0.00    -0.235 A  
HETATM    6  C   UNL     1     -12.386   7.476  71.234  1.00  0.00    -0.356 A  
HETATM    7  C   UNL     1     -11.265   7.292  70.421  1.00  0.00    -0.302 A  
ENDROOT
BRANCH   5   8
HETATM    8  S   UNL     1      -9.165   8.206  68.884  1.00  0.00    -0.147 S  
HETATM    9  O   UNL     1      -9.213   9.216  67.850  1.00  0.00    -0.134 OA 
HETATM   10  O   UNL     1      -7.984   8.056  69.716  1.00  0.00    -0.110 OA 
BRANCH   8  11
HETATM   11  N   UNL     1      -9.405   6.713  68.191  1.00  0.00    -0.116 N  
HETATM   12  H   UNL     1      -8.978   5.895  68.625  1.00  0.00     0.000 HD 
BRANCH  11  13
HETATM   13  C   UNL     1     -10.165   6.541  67.044  1.00  0.00    -0.215 C  
HETATM   14  O   UNL     1     -11.270   6.018  67.074  1.00  0.00    -0.238 OA 
BRANCH  13  15
HETATM   15  N   UNL     1      -9.536   6.982  65.892  1.00  0.00    -0.394 N  
HETATM   16  H   UNL     1      -9.779   7.900  65.520  1.00  0.00     0.000 HD 
BRANCH  15  17
HETATM   17  N   UNL     1      -8.557   6.199  65.206  1.00  0.00    -0.119 NA 
HETATM   18  C   UNL     1      -7.198   6.563  65.652  1.00  0.00    -0.073 C  
HETATM   19  C   UNL     1      -6.023   5.795  65.038  1.00  0.00    -0.025 C  
HETATM   20  C   UNL     1      -5.957   4.341  65.495  1.00  0.00    -0.023 C  
HETATM   21  C   UNL     1      -6.821   3.392  64.673  1.00  0.00    -0.048 C  
HETATM   22  C   UNL     1      -8.168   3.943  64.219  1.00  0.00    -0.090 C  
HETATM   23  C   UNL     1      -8.890   4.767  65.283  1.00  0.00    -0.149 C  
ENDBRANCH  15  17
ENDBRANCH  13  15
ENDBRANCH  11  13
ENDBRANCH   8  11
ENDBRANCH   5   8
TORSDOF 5
ENDMDL
MODEL      272
REMARK 921   NORMALIZED FREE ENERGY PREDICTED BY IDOCK:   -3.49 KCAL/MOL
REMARK 922        TOTAL FREE ENERGY PREDICTED BY IDOCK:   -5.04 KCAL/MOL
REMARK 923 INTER-LIGAND FREE ENERGY PREDICTED BY IDOCK:   -5.34 KCAL/MOL
REMARK 924 INTRA-LIGAND FREE ENERGY PREDICTED BY IDOCK:    0.30 KCAL/MOL
REMARK 927      BINDING AFFINITY PREDICTED BY RF-SCORE:    0.00 PKD
ROOT
HETATM    1  C   UNL     1     -14.044  14.817  72.289  1.00  0.00    -0.587 C  
HETATM    2  C   UNL     1     -13.036  14.346  71.282  1.00  0.00    -0.414 A  
HETATM    3  C   UNL     1     -12.349  15.262  70.473  1.00  0.00    -0.434 A  
HETATM    4  C   UNL     1     -11.463  14.814  69.492  1.00  0.00    -0.331 A  
HETATM    5  C   UNL     1     -11.255  13.441  69.325  1.00  0.00    -0.219 A  
HETATM    6  C   UNL     1     -12.802  12.973  71.115  1.00  0.00    -0.331 A  
HETATM    7  C   UNL     1     -11.912  12.518  70.140  1.00  0.00    -0.377 A  
ENDROOT
BRANCH   5   8
HETATM    8  S   UNL     1     -10.179  12.887  68.026  1.00  0.00    -0.234 S  
HETATM    9  O   UNL     1     -10.965  12.455  66.891  1.00  0.00    -0.246 OA 
HETATM   10  O   UNL     1      -9.151  13.901  67.869  1.00  0.00    -0.178 OA 
BRANCH   8  11
HETATM   11  N   UNL     1      -9.400  11.569  68.675  1.00  0.00    -0.310 N  
HETATM   12  H   UNL     1      -9.389  11.454  69.689  1.00  0.00     0.000 HD 
BRANCH  11  13
HETATM   13  C   UNL     1      -8.766  10.620  67.889  1.00  0.00    -0.127 C  
HETATM   14  O   UNL     1      -8.868  10.618  66.670  1.00  0.00    -0.138 OA 
BRANCH  13  15
HETATM   15  N   UNL     1      -8.055   9.682  68.619  1.00  0.00    -0.099 N  
HETATM   16  H   UNL     1      -7.255   9.992  69.170  1.00  0.00     0.000 HD 
BRANCH  15  17
HETATM   17  N   UNL     1      -8.401   8.295  68.628  1.00  0.00    -0.124 NA 
HETATM   18  C   UNL     1      -8.672   7.839  70.004  1.00  0.00    -0.141 C  
HETATM   19  C   UNL     1      -9.091   6.377  70.196  1.00  0.00    -0.154 C  
HETATM   20  C   UNL     1     -10.484   6.080  69.652  1.00  0.00    -0.325 C  
HETATM   21  C   UNL     1     -10.511   5.744  68.165  1.00  0.00    -0.277 C  
HETATM   22  C   UNL     1      -9.549   6.536  67.287  1.00  0.00    -0.148 C  
HETATM   23  C   UNL     1      -9.461   8.017  67.644  1.00  0.00    -0.145 C  
ENDBRANCH  15  17
ENDBRANCH  13  15
ENDBRANCH  11  13
ENDBRANCH   8  11
ENDBRANCH   5   8
TORSDOF 5
ENDMDL
MODEL      273
REMARK 921   NORMALIZED FREE ENERGY PREDICTED BY IDOCK:   -3.47 KCAL/MOL
REMARK 922        TOTAL FREE ENERGY PREDICTED BY IDOCK:   -5.02 KCAL/MOL
REMARK 923 INTER-LIGAND FREE ENERGY PREDICTED BY IDOCK:   -5.01 KCAL/MOL
REMARK 924 INTRA-LIGAND FREE ENERGY PREDICTED BY IDOCK:   -0.01 KCAL/MOL
REMARK 927      BINDING AFFINITY PREDICTED BY RF-SCORE:    0.00 PKD
ROOT
HETATM    1  C   UNL     1     -12.267  13.283  63.342  1.00  0.00    -0.476 C  
HETATM    2  C   UNL     1     -11.350  12.344  64.070  1.00  0.00    -0.465 A  
HETATM    3  C   UNL     1     -10.497  11.485  63.364  1.00  0.00    -0.466 A  
HETATM    4  C   UNL     1      -9.695  10.567  64.046  1.00  0.00    -0.383 A  
HETATM    5  C   UNL     1      -9.740  10.515  65.442  1.00  0.00    -0.257 A  
HETATM    6  C   UNL     1     -11.369  12.294  65.472  1.00  0.00    -0.394 A  
HETATM    7  C   UNL     1     -10.565  11.382  66.160  1.00  0.00    -0.316 A  
ENDROOT
BRANCH   5   8
HETATM    8  S   UNL     1      -8.767   9.295  66.288  1.00  0.00    -0.148 S  
HETATM    9  O   UNL     1      -8.740   8.071  65.516  1.00  0.00    -0.157 OA 
HETATM   10  O   UNL     1      -7.531   9.943  66.688  1.00  0.00    -0.097 OA 
BRANCH   8  11
HETATM   11  N   UNL     1      -9.596   9.020  67.703  1.00  0.00    -0.147 N  
HETATM   12  H   UNL     1      -9.683   9.780  68.378  1.00  0.00     0.000 HD 
BRANCH  11  13
HETATM   13  C   UNL     1     -10.173   7.795  68.000  1.00  0.00    -0.201 C  
HETATM   14  O   UNL     1     -10.737   7.123  67.147  1.00  0.00    -0.307 OA 
BRANCH  13  15
HETATM   15  N   UNL     1     -10.074   7.445  69.336  1.00  0.00    -0.181 N  
HETATM   16  H   UNL     1     -10.528   8.035  70.033  1.00  0.00     0.000 HD 
BRANCH  15  17
HETATM   17  N   UNL     1      -9.357   6.288  69.774  1.00  0.00    -0.145 NA 
HETATM   18  C   UNL     1     -10.284   5.164  70.006  1.00  0.00    -0.284 C  
HETATM   19  C   UNL     1      -9.679   3.829  70.452  1.00  0.00    -0.225 C  
HETATM   20  C   UNL     1      -8.869   3.145  69.355  1.00  0.00    -0.154 C  
HETATM   21  C   UNL     1      -7.420   3.610  69.271  1.00  0.00    -0.052 C  
HETATM   22  C   UNL     1      -7.184   5.096  69.519  1.00  0.00    -0.057 C  
HETATM   23  C   UNL     1      -8.226   6.006  68.875  1.00  0.00    -0.104 C  
ENDBRANCH  15  17
ENDBRANCH  13  15
ENDBRANCH  11  13
ENDBRANCH   8  11
ENDBRANCH   5   8
TORSDOF 5
ENDMDL
MODEL      274
REMARK 921   NORMALIZED FREE ENERGY PREDICTED BY IDOCK:   -3.46 KCAL/MOL
REMARK 922        TOTAL FREE ENERGY PREDICTED BY IDOCK:   -5.00 KCAL/MOL
REMARK 923 INTER-LIGAND FREE ENERGY PREDICTED BY IDOCK:   -4.72 KCAL/MOL
REMARK 924 INTRA-LIGAND FREE ENERGY PREDICTED BY IDOCK:   -0.28 KCAL/MOL
REMARK 927      BINDING AFFINITY PREDICTED BY RF-SCORE:    0.00 PKD
ROOT
HETATM    1  C   UNL     1     -11.176  16.551  70.160  1.00  0.00    -0.151 C  
HETATM    2  C   UNL     1     -10.979  15.147  69.667  1.00  0.00    -0.291 A  
HETATM    3  C   UNL     1      -9.837  14.799  68.934  1.00  0.00    -0.222 A  
HETATM    4  C   UNL     1      -9.692  13.509  68.420  1.00  0.00    -0.207 A  
HETATM    5  C   UNL     1     -10.692  12.559  68.648  1.00  0.00    -0.234 A  
HETATM    6  C   UNL     1     -11.965  14.177  69.904  1.00  0.00    -0.398 A  
HETATM    7  C   UNL     1     -11.823  12.883  69.398  1.00  0.00    -0.371 A  
ENDROOT
BRANCH   5   8
HETATM    8  S   UNL     1     -10.523  10.945  67.929  1.00  0.00    -0.209 S  
HETATM    9  O   UNL     1     -11.610  10.707  67.003  1.00  0.00    -0.254 OA 
HETATM   10  O   UNL     1      -9.143  10.817  67.496  1.00  0.00    -0.139 OA 
BRANCH   8  11
HETATM   11  N   UNL     1     -10.677   9.904  69.217  1.00  0.00    -0.216 N  
HETATM   12  H   UNL     1     -11.445  10.045  69.874  1.00  0.00     0.000 HD 
BRANCH  11  13
HETATM   13  C   UNL     1      -9.800   8.853  69.431  1.00  0.00    -0.183 C  
HETATM   14  O   UNL     1      -9.480   8.085  68.534  1.00  0.00    -0.142 OA 
BRANCH  13  15
HETATM   15  N   UNL     1      -9.368   8.751  70.743  1.00  0.00    -0.189 N  
HETATM   16  H   UNL     1      -8.984   9.579  71.200  1.00  0.00     0.000 HD 
BRANCH  15  17
HETATM   17  N   UNL     1      -9.441   7.529  71.481  1.00  0.00    -0.150 NA 
HETATM   18  C   UNL     1      -8.489   7.549  72.609  1.00  0.00    -0.117 C  
HETATM   19  C   UNL     1      -8.456   6.324  73.529  1.00  0.00    -0.121 C  
HETATM   20  C   UNL     1      -9.712   6.186  74.383  1.00  0.00    -0.265 C  
HETATM   21  C   UNL     1     -10.857   5.457  73.690  1.00  0.00    -0.321 C  
HETATM   22  C   UNL     1     -11.027   5.747  72.202  1.00  0.00    -0.311 C  
HETATM   23  C   UNL     1     -10.836   7.216  71.832  1.00  0.00    -0.226 C  
ENDBRANCH  15  17
ENDBRANCH  13  15
ENDBRANCH  11  13
ENDBRANCH   8  11
ENDBRANCH   5   8
TORSDOF 5
ENDMDL
MODEL      275
REMARK 921   NORMALIZED FREE ENERGY PREDICTED BY IDOCK:   -3.46 KCAL/MOL
REMARK 922        TOTAL FREE ENERGY PREDICTED BY IDOCK:   -5.00 KCAL/MOL
REMARK 923 INTER-LIGAND FREE ENERGY PREDICTED BY IDOCK:   -4.53 KCAL/MOL
REMARK 924 INTRA-LIGAND FREE ENERGY PREDICTED BY IDOCK:   -0.47 KCAL/MOL
REMARK 927      BINDING AFFINITY PREDICTED BY RF-SCORE:    0.00 PKD
ROOT
HETATM    1  C   UNL     1     -12.743  13.461  71.700  1.00  0.00    -0.360 C  
HETATM    2  C   UNL     1     -12.287  13.268  70.282  1.00  0.00    -0.334 A  
HETATM    3  C   UNL     1     -12.123  11.981  69.752  1.00  0.00    -0.317 A  
HETATM    4  C   UNL     1     -11.633  11.807  68.457  1.00  0.00    -0.380 A  
HETATM    5  C   UNL     1     -11.314  12.927  67.683  1.00  0.00    -0.303 A  
HETATM    6  C   UNL     1     -11.981  14.382  69.487  1.00  0.00    -0.376 A  
HETATM    7  C   UNL     1     -11.497  14.216  68.188  1.00  0.00    -0.340 A  
ENDROOT
BRANCH   5   8
HETATM    8  S   UNL     1     -10.627  12.686  66.064  1.00  0.00    -0.277 S  
HETATM    9  O   UNL     1     -11.093  11.429  65.519  1.00  0.00    -0.239 OA 
HETATM   10  O   UNL     1     -10.822  13.925  65.333  1.00  0.00    -0.298 OA 
BRANCH   8  11
HETATM   11  N   UNL     1      -8.988  12.584  66.326  1.00  0.00    -0.421 N  
HETATM   12  H   UNL     1      -8.497  13.400  66.692  1.00  0.00     0.000 HD 
BRANCH  11  13
HETATM   13  C   UNL     1      -8.265  11.431  66.066  1.00  0.00     0.017 C  
HETATM   14  O   UNL     1      -8.306  10.873  64.978  1.00  0.00    -0.100 OA 
BRANCH  13  15
HETATM   15  N   UNL     1      -7.540  10.975  67.155  1.00  0.00    -0.111 N  
HETATM   16  H   UNL     1      -6.777  11.549  67.513  1.00  0.00     0.000 HD 
BRANCH  15  17
HETATM   17  N   UNL     1      -7.822   9.728  67.796  1.00  0.00    -0.094 NA 
HETATM   18  C   UNL     1      -6.575   8.980  68.041  1.00  0.00    -0.061 C  
HETATM   19  C   UNL     1      -6.690   7.627  68.753  1.00  0.00    -0.054 C  
HETATM   20  C   UNL     1      -7.090   7.758  70.219  1.00  0.00    -0.050 C  
HETATM   21  C   UNL     1      -8.595   7.845  70.447  1.00  0.00    -0.132 C  
HETATM   22  C   UNL     1      -9.379   8.646  69.414  1.00  0.00    -0.150 C  
HETATM   23  C   UNL     1      -8.685   9.932  68.971  1.00  0.00    -0.151 C  
ENDBRANCH  15  17
ENDBRANCH  13  15
ENDBRANCH  11  13
ENDBRANCH   8  11
ENDBRANCH   5   8
TORSDOF 5
ENDMDL
MODEL      276
REMARK 921   NORMALIZED FREE ENERGY PREDICTED BY IDOCK:   -3.45 KCAL/MOL
REMARK 922        TOTAL FREE ENERGY PREDICTED BY IDOCK:   -4.99 KCAL/MOL
REMARK 923 INTER-LIGAND FREE ENERGY PREDICTED BY IDOCK:   -4.60 KCAL/MOL
REMARK 924 INTRA-LIGAND FREE ENERGY PREDICTED BY IDOCK:   -0.39 KCAL/MOL
REMARK 927      BINDING AFFINITY PREDICTED BY RF-SCORE:    0.00 PKD
ROOT
HETATM    1  C   UNL     1      -7.922  18.825  68.194  1.00  0.00    -0.317 C  
HETATM    2  C   UNL     1      -8.589  17.582  67.681  1.00  0.00    -0.219 A  
HETATM    3  C   UNL     1      -7.888  16.370  67.612  1.00  0.00    -0.160 A  
HETATM    4  C   UNL     1      -8.492  15.234  67.071  1.00  0.00    -0.258 A  
HETATM    5  C   UNL     1      -9.808  15.308  66.605  1.00  0.00    -0.250 A  
HETATM    6  C   UNL     1      -9.915  17.635  67.227  1.00  0.00    -0.322 A  
HETATM    7  C   UNL     1     -10.528  16.500  66.691  1.00  0.00    -0.266 A  
ENDROOT
BRANCH   5   8
HETATM    8  S   UNL     1     -10.536  13.872  65.857  1.00  0.00    -0.301 S  
HETATM    9  O   UNL     1     -11.824  13.606  66.460  1.00  0.00    -0.360 OA 
HETATM   10  O   UNL     1     -10.414  14.036  64.419  1.00  0.00    -0.368 OA 
BRANCH   8  11
HETATM   11  N   UNL     1      -9.494  12.635  66.247  1.00  0.00    -0.325 N  
HETATM   12  H   UNL     1      -8.512  12.854  66.413  1.00  0.00     0.000 HD 
BRANCH  11  13
HETATM   13  C   UNL     1      -9.913  11.318  66.354  1.00  0.00    -0.215 C  
HETATM   14  O   UNL     1     -10.025  10.594  65.374  1.00  0.00    -0.246 OA 
BRANCH  13  15
HETATM   15  N   UNL     1     -10.214  10.937  67.651  1.00  0.00    -0.178 N  
HETATM   16  H   UNL     1     -11.138  11.153  68.024  1.00  0.00     0.000 HD 
BRANCH  15  17
HETATM   17  N   UNL     1      -9.277  10.253  68.486  1.00  0.00    -0.139 NA 
HETATM   18  C   UNL     1      -9.931   9.128  69.182  1.00  0.00    -0.187 C  
HETATM   19  C   UNL     1      -9.061   8.262  70.099  1.00  0.00    -0.147 C  
HETATM   20  C   UNL     1      -8.051   7.412  69.335  1.00  0.00    -0.129 C  
HETATM   21  C   UNL     1      -6.747   8.133  69.017  1.00  0.00    -0.048 C  
HETATM   22  C   UNL     1      -6.875   9.606  68.644  1.00  0.00    -0.056 C  
HETATM   23  C   UNL     1      -8.059   9.913  67.731  1.00  0.00    -0.109 C  
ENDBRANCH  15  17
ENDBRANCH  13  15
ENDBRANCH  11  13
ENDBRANCH   8  11
ENDBRANCH   5   8
TORSDOF 5
ENDMDL
MODEL      277
REMARK 921   NORMALIZED FREE ENERGY PREDICTED BY IDOCK:   -3.44 KCAL/MOL
REMARK 922        TOTAL FREE ENERGY PREDICTED BY IDOCK:   -4.99 KCAL/MOL
REMARK 923 INTER-LIGAND FREE ENERGY PREDICTED BY IDOCK:   -4.79 KCAL/MOL
REMARK 924 INTRA-LIGAND FREE ENERGY PREDICTED BY IDOCK:   -0.19 KCAL/MOL
REMARK 927      BINDING AFFINITY PREDICTED BY RF-SCORE:    0.00 PKD
ROOT
HETATM    1  C   UNL     1      -6.727  16.357  67.268  1.00  0.00    -0.221 C  
HETATM    2  C   UNL     1      -7.594  15.133  67.201  1.00  0.00    -0.204 A  
HETATM    3  C   UNL     1      -8.863  15.186  66.610  1.00  0.00    -0.321 A  
HETATM    4  C   UNL     1      -9.692  14.063  66.612  1.00  0.00    -0.296 A  
HETATM    5  C   UNL     1      -9.244  12.876  67.200  1.00  0.00    -0.225 A  
HETATM    6  C   UNL     1      -7.151  13.930  67.770  1.00  0.00    -0.181 A  
HETATM    7  C   UNL     1      -7.972  12.800  67.770  1.00  0.00    -0.157 A  
ENDROOT
BRANCH   5   8
HETATM    8  S   UNL     1     -10.338  11.479  67.255  1.00  0.00    -0.213 S  
HETATM    9  O   UNL     1     -10.989  11.418  68.546  1.00  0.00    -0.191 OA 
HETATM   10  O   UNL     1     -11.122  11.508  66.033  1.00  0.00    -0.291 OA 
BRANCH   8  11
HETATM   11  N   UNL     1      -9.330  10.165  67.098  1.00  0.00    -0.152 N  
HETATM   12  H   UNL     1      -8.335  10.324  66.943  1.00  0.00     0.000 HD 
BRANCH  11  13
HETATM   13  C   UNL     1      -9.794   8.861  67.170  1.00  0.00    -0.207 C  
HETATM   14  O   UNL     1     -10.828   8.511  66.618  1.00  0.00    -0.090 OA 
BRANCH  13  15
HETATM   15  N   UNL     1      -8.998   8.032  67.943  1.00  0.00    -0.130 N  
HETATM   16  H   UNL     1      -8.103   7.721  67.567  1.00  0.00     0.000 HD 
BRANCH  15  17
HETATM   17  N   UNL     1      -9.386   7.597  69.248  1.00  0.00    -0.148 NA 
HETATM   18  C   UNL     1      -9.567   8.754  70.146  1.00  0.00    -0.173 C  
HETATM   19  C   UNL     1     -10.015   8.471  71.584  1.00  0.00    -0.329 C  
HETATM   20  C   UNL     1     -11.454   7.973  71.672  1.00  0.00    -0.310 C  
HETATM   21  C   UNL     1     -11.604   6.468  71.481  1.00  0.00    -0.366 C  
HETATM   22  C   UNL     1     -10.687   5.836  70.439  1.00  0.00    -0.372 C  
HETATM   23  C   UNL     1     -10.525   6.668  69.169  1.00  0.00    -0.219 C  
ENDBRANCH  15  17
ENDBRANCH  13  15
ENDBRANCH  11  13
ENDBRANCH   8  11
ENDBRANCH   5   8
TORSDOF 5
ENDMDL
MODEL      278
REMARK 921   NORMALIZED FREE ENERGY PREDICTED BY IDOCK:   -3.41 KCAL/MOL
REMARK 922        TOTAL FREE ENERGY PREDICTED BY IDOCK:   -4.95 KCAL/MOL
REMARK 923 INTER-LIGAND FREE ENERGY PREDICTED BY IDOCK:   -4.73 KCAL/MOL
REMARK 924 INTRA-LIGAND FREE ENERGY PREDICTED BY IDOCK:   -0.22 KCAL/MOL
REMARK 927      BINDING AFFINITY PREDICTED BY RF-SCORE:    0.00 PKD
ROOT
HETATM    1  C   UNL     1     -11.736  14.803  67.683  1.00  0.00    -0.364 C  
HETATM    2  C   UNL     1     -11.133  13.491  67.273  1.00  0.00    -0.302 A  
HETATM    3  C   UNL     1     -10.065  13.446  66.366  1.00  0.00    -0.292 A  
HETATM    4  C   UNL     1      -9.553  12.220  65.936  1.00  0.00    -0.207 A  
HETATM    5  C   UNL     1     -10.106  11.032  66.424  1.00  0.00    -0.229 A  
HETATM    6  C   UNL     1     -11.664  12.291  67.768  1.00  0.00    -0.403 A  
HETATM    7  C   UNL     1     -11.153  11.061  67.347  1.00  0.00    -0.370 A  
ENDROOT
BRANCH   5   8
HETATM    8  S   UNL     1      -9.489   9.484  65.813  1.00  0.00    -0.266 S  
HETATM    9  O   UNL     1     -10.284   8.398  66.344  1.00  0.00    -0.265 OA 
HETATM   10  O   UNL     1      -9.310   9.636  64.380  1.00  0.00    -0.254 OA 
BRANCH   8  11
HETATM   11  N   UNL     1      -7.952   9.381  66.439  1.00  0.00    -0.107 N  
HETATM   12  H   UNL     1      -7.175   9.187  65.807  1.00  0.00     0.000 HD 
BRANCH  11  13
HETATM   13  C   UNL     1      -7.687   9.551  67.789  1.00  0.00    -0.088 C  
HETATM   14  O   UNL     1      -7.680  10.656  68.313  1.00  0.00    -0.099 OA 
BRANCH  13  15
HETATM   15  N   UNL     1      -7.404   8.367  68.450  1.00  0.00    -0.092 N  
HETATM   16  H   UNL     1      -6.467   7.973  68.374  1.00  0.00     0.000 HD 
BRANCH  15  17
HETATM   17  N   UNL     1      -8.379   7.677  69.236  1.00  0.00    -0.133 NA 
HETATM   18  C   UNL     1      -9.610   8.481  69.355  1.00  0.00    -0.170 C  
HETATM   19  C   UNL     1     -10.777   7.876  70.143  1.00  0.00    -0.244 C  
HETATM   20  C   UNL     1     -11.427   6.693  69.431  1.00  0.00    -0.288 C  
HETATM   21  C   UNL     1     -10.742   5.357  69.695  1.00  0.00    -0.267 C  
HETATM   22  C   UNL     1      -9.220   5.396  69.784  1.00  0.00    -0.169 C  
HETATM   23  C   UNL     1      -8.562   6.301  68.746  1.00  0.00    -0.122 C  
ENDBRANCH  15  17
ENDBRANCH  13  15
ENDBRANCH  11  13
ENDBRANCH   8  11
ENDBRANCH   5   8
TORSDOF 5
ENDMDL
MODEL      279
REMARK 921   NORMALIZED FREE ENERGY PREDICTED BY IDOCK:   -3.38 KCAL/MOL
REMARK 922        TOTAL FREE ENERGY PREDICTED BY IDOCK:   -4.91 KCAL/MOL
REMARK 923 INTER-LIGAND FREE ENERGY PREDICTED BY IDOCK:   -4.80 KCAL/MOL
REMARK 924 INTRA-LIGAND FREE ENERGY PREDICTED BY IDOCK:   -0.11 KCAL/MOL
REMARK 927      BINDING AFFINITY PREDICTED BY RF-SCORE:    0.00 PKD
ROOT
HETATM    1  C   UNL     1      -5.923  10.335  68.792  1.00  0.00    -0.040 C  
HETATM    2  C   UNL     1      -6.470  11.726  68.657  1.00  0.00    -0.060 A  
HETATM    3  C   UNL     1      -7.132  12.125  67.488  1.00  0.00    -0.135 A  
HETATM    4  C   UNL     1      -7.579  13.439  67.341  1.00  0.00    -0.138 A  
HETATM    5  C   UNL     1      -7.369  14.359  68.374  1.00  0.00    -0.117 A  
HETATM    6  C   UNL     1      -6.285  12.655  69.692  1.00  0.00    -0.122 A  
HETATM    7  C   UNL     1      -6.734  13.970  69.554  1.00  0.00    -0.091 A  
ENDROOT
BRANCH   5   8
HETATM    8  S   UNL     1      -7.881  16.042  68.141  1.00  0.00    -0.144 S  
HETATM    9  O   UNL     1      -7.893  16.730  69.414  1.00  0.00    -0.128 OA 
HETATM   10  O   UNL     1      -7.113  16.567  67.026  1.00  0.00    -0.171 OA 
BRANCH   8  11
HETATM   11  N   UNL     1      -9.442  15.921  67.580  1.00  0.00    -0.218 N  
HETATM   12  H   UNL     1      -9.612  15.435  66.700  1.00  0.00     0.000 HD 
BRANCH  11  13
HETATM   13  C   UNL     1     -10.521  16.457  68.266  1.00  0.00    -0.302 C  
HETATM   14  O   UNL     1     -10.714  17.664  68.326  1.00  0.00    -0.360 OA 
BRANCH  13  15
HETATM   15  N   UNL     1     -11.311  15.504  68.887  1.00  0.00    -0.302 N  
HETATM   16  H   UNL     1     -11.619  15.669  69.844  1.00  0.00     0.000 HD 
BRANCH  15  17
HETATM   17  N   UNL     1     -11.710  14.296  68.234  1.00  0.00    -0.325 NA 
HETATM   18  C   UNL     1     -11.455  14.385  66.783  1.00  0.00    -0.370 C  
HETATM   19  C   UNL     1     -11.796  13.159  65.929  1.00  0.00    -0.453 C  
HETATM   20  C   UNL     1     -10.866  11.978  66.182  1.00  0.00    -0.325 C  
HETATM   21  C   UNL     1     -11.283  11.099  67.355  1.00  0.00    -0.363 C  
HETATM   22  C   UNL     1     -11.862  11.830  68.562  1.00  0.00    -0.365 C  
HETATM   23  C   UNL     1     -11.131  13.124  68.911  1.00  0.00    -0.266 C  
ENDBRANCH  15  17
ENDBRANCH  13  15
ENDBRANCH  11  13
ENDBRANCH   8  11
ENDBRANCH   5   8
TORSDOF 5
ENDMDL
MODEL      280
REMARK 921   NORMALIZED FREE ENERGY PREDICTED BY IDOCK:   -3.38 KCAL/MOL
REMARK 922        TOTAL FREE ENERGY PREDICTED BY IDOCK:   -4.91 KCAL/MOL
REMARK 923 INTER-LIGAND FREE ENERGY PREDICTED BY IDOCK:   -4.16 KCAL/MOL
REMARK 924 INTRA-LIGAND FREE ENERGY PREDICTED BY IDOCK:   -0.75 KCAL/MOL
REMARK 927      BINDING AFFINITY PREDICTED BY RF-SCORE:    0.00 PKD
ROOT
HETATM    1  C   UNL     1     -12.403  13.264  65.582  1.00  0.00    -0.521 C  
HETATM    2  C   UNL     1     -11.277  12.321  65.267  1.00  0.00    -0.372 A  
HETATM    3  C   UNL     1     -10.970  11.992  63.940  1.00  0.00    -0.465 A  
HETATM    4  C   UNL     1      -9.967  11.063  63.656  1.00  0.00    -0.415 A  
HETATM    5  C   UNL     1      -9.261  10.467  64.706  1.00  0.00    -0.227 A  
HETATM    6  C   UNL     1     -10.548  11.730  66.308  1.00  0.00    -0.292 A  
HETATM    7  C   UNL     1      -9.538  10.804  66.032  1.00  0.00    -0.244 A  
ENDROOT
BRANCH   5   8
HETATM    8  S   UNL     1      -8.038   9.237  64.329  1.00  0.00    -0.154 S  
HETATM    9  O   UNL     1      -8.611   8.228  63.464  1.00  0.00    -0.007 OA 
HETATM   10  O   UNL     1      -6.832   9.946  63.939  1.00  0.00    -0.117 OA 
BRANCH   8  11
HETATM   11  N   UNL     1      -7.685   8.547  65.801  1.00  0.00    -0.095 N  
HETATM   12  H   UNL     1      -6.994   8.997  66.401  1.00  0.00     0.000 HD 
BRANCH  11  13
HETATM   13  C   UNL     1      -8.296   7.383  66.241  1.00  0.00    -0.132 C  
HETATM   14  O   UNL     1      -9.039   7.371  67.213  1.00  0.00    -0.121 OA 
BRANCH  13  15
HETATM   15  N   UNL     1      -7.953   6.264  65.501  1.00  0.00    -0.108 N  
HETATM   16  H   UNL     1      -7.149   6.316  64.877  1.00  0.00     0.000 HD 
BRANCH  15  17
HETATM   17  N   UNL     1      -8.685   5.039  65.580  1.00  0.00    -0.134 NA 
HETATM   18  C   UNL     1      -9.158   4.633  64.243  1.00  0.00    -0.112 C  
HETATM   19  C   UNL     1      -9.939   3.318  64.138  1.00  0.00    -0.177 C  
HETATM   20  C   UNL     1      -9.070   2.088  64.381  1.00  0.00    -0.117 C  
HETATM   21  C   UNL     1      -8.918   1.715  65.851  1.00  0.00    -0.099 C  
HETATM   22  C   UNL     1      -8.800   2.883  66.825  1.00  0.00    -0.153 C  
HETATM   23  C   UNL     1      -7.919   4.023  66.321  1.00  0.00    -0.098 C  
ENDBRANCH  15  17
ENDBRANCH  13  15
ENDBRANCH  11  13
ENDBRANCH   8  11
ENDBRANCH   5   8
TORSDOF 5
ENDMDL
MODEL      281
REMARK 921   NORMALIZED FREE ENERGY PREDICTED BY IDOCK:   -3.37 KCAL/MOL
REMARK 922        TOTAL FREE ENERGY PREDICTED BY IDOCK:   -4.89 KCAL/MOL
REMARK 923 INTER-LIGAND FREE ENERGY PREDICTED BY IDOCK:   -3.47 KCAL/MOL
REMARK 924 INTRA-LIGAND FREE ENERGY PREDICTED BY IDOCK:   -1.42 KCAL/MOL
REMARK 927      BINDING AFFINITY PREDICTED BY RF-SCORE:    0.00 PKD
ROOT
HETATM    1  C   UNL     1      -7.777   9.096  65.229  1.00  0.00    -0.099 C  
HETATM    2  C   UNL     1      -8.515   8.727  66.483  1.00  0.00    -0.120 A  
HETATM    3  C   UNL     1      -7.840   8.630  67.708  1.00  0.00    -0.103 A  
HETATM    4  C   UNL     1      -8.517   8.221  68.858  1.00  0.00    -0.128 A  
HETATM    5  C   UNL     1      -9.880   7.916  68.784  1.00  0.00    -0.167 A  
HETATM    6  C   UNL     1      -9.886   8.436  66.429  1.00  0.00    -0.310 A  
HETATM    7  C   UNL     1     -10.571   8.032  67.578  1.00  0.00    -0.302 A  
ENDROOT
BRANCH   5   8
HETATM    8  S   UNL     1     -10.709   7.330  70.241  1.00  0.00    -0.240 S  
HETATM    9  O   UNL     1     -11.009   8.445  71.113  1.00  0.00    -0.231 OA 
HETATM   10  O   UNL     1     -11.762   6.435  69.797  1.00  0.00    -0.414 OA 
BRANCH   8  11
HETATM   11  N   UNL     1      -9.587   6.352  70.984  1.00  0.00    -0.175 N  
HETATM   12  H   UNL     1      -8.748   6.778  71.379  1.00  0.00     0.000 HD 
BRANCH  11  13
HETATM   13  C   UNL     1      -9.750   4.980  71.087  1.00  0.00    -0.178 C  
HETATM   14  O   UNL     1      -9.713   4.404  72.166  1.00  0.00    -0.147 OA 
BRANCH  13  15
HETATM   15  N   UNL     1      -9.920   4.350  69.866  1.00  0.00    -0.218 N  
HETATM   16  H   UNL     1     -10.744   3.766  69.724  1.00  0.00     0.000 HD 
BRANCH  15  17
HETATM   17  N   UNL     1      -8.983   4.489  68.795  1.00  0.00    -0.105 NA 
HETATM   18  C   UNL     1      -7.833   3.586  68.995  1.00  0.00    -0.051 C  
HETATM   19  C   UNL     1      -6.741   3.582  67.920  1.00  0.00    -0.046 C  
HETATM   20  C   UNL     1      -7.203   2.964  66.604  1.00  0.00    -0.062 C  
HETATM   21  C   UNL     1      -7.914   3.941  65.675  1.00  0.00    -0.093 C  
HETATM   22  C   UNL     1      -8.828   4.957  66.353  1.00  0.00    -0.113 C  
HETATM   23  C   UNL     1      -9.660   4.378  67.493  1.00  0.00    -0.172 C  
ENDBRANCH  15  17
ENDBRANCH  13  15
ENDBRANCH  11  13
ENDBRANCH   8  11
ENDBRANCH   5   8
TORSDOF 5
ENDMDL
MODEL      282
REMARK 921   NORMALIZED FREE ENERGY PREDICTED BY IDOCK:   -3.37 KCAL/MOL
REMARK 922        TOTAL FREE ENERGY PREDICTED BY IDOCK:   -4.89 KCAL/MOL
REMARK 923 INTER-LIGAND FREE ENERGY PREDICTED BY IDOCK:   -4.64 KCAL/MOL
REMARK 924 INTRA-LIGAND FREE ENERGY PREDICTED BY IDOCK:   -0.26 KCAL/MOL
REMARK 927      BINDING AFFINITY PREDICTED BY RF-SCORE:    0.00 PKD
ROOT
HETATM    1  C   UNL     1      -7.982   2.765  69.462  1.00  0.00    -0.053 C  
HETATM    2  C   UNL     1      -7.975   4.044  68.675  1.00  0.00    -0.071 A  
HETATM    3  C   UNL     1      -7.865   5.282  69.321  1.00  0.00    -0.088 A  
HETATM    4  C   UNL     1      -7.928   6.470  68.590  1.00  0.00    -0.114 A  
HETATM    5  C   UNL     1      -8.092   6.418  67.202  1.00  0.00    -0.113 A  
HETATM    6  C   UNL     1      -8.120   4.008  67.280  1.00  0.00    -0.095 A  
HETATM    7  C   UNL     1      -8.177   5.192  66.541  1.00  0.00    -0.108 A  
ENDROOT
BRANCH   5   8
HETATM    8  S   UNL     1      -8.240   7.938  66.298  1.00  0.00    -0.124 S  
HETATM    9  O   UNL     1      -7.466   8.972  66.951  1.00  0.00    -0.089 OA 
HETATM   10  O   UNL     1      -8.016   7.621  64.899  1.00  0.00    -0.124 OA 
BRANCH   8  11
HETATM   11  N   UNL     1      -9.854   8.324  66.408  1.00  0.00    -0.381 N  
HETATM   12  H   UNL     1     -10.208   9.115  65.869  1.00  0.00     0.000 HD 
BRANCH  11  13
HETATM   13  C   UNL     1     -10.735   7.610  67.204  1.00  0.00    -0.290 C  
HETATM   14  O   UNL     1     -11.202   6.537  66.850  1.00  0.00    -0.387 OA 
BRANCH  13  15
HETATM   15  N   UNL     1     -11.046   8.248  68.394  1.00  0.00    -0.329 N  
HETATM   16  H   UNL     1     -11.650   9.069  68.368  1.00  0.00     0.000 HD 
BRANCH  15  17
HETATM   17  N   UNL     1     -10.551   7.797  69.657  1.00  0.00    -0.243 NA 
HETATM   18  C   UNL     1     -10.405   8.931  70.589  1.00  0.00    -0.215 C  
HETATM   19  C   UNL     1      -9.912   8.622  72.007  1.00  0.00    -0.399 C  
HETATM   20  C   UNL     1     -10.936   7.860  72.841  1.00  0.00    -0.452 C  
HETATM   21  C   UNL     1     -10.892   6.349  72.650  1.00  0.00    -0.270 C  
HETATM   22  C   UNL     1     -10.618   5.866  71.230  1.00  0.00    -0.311 C  
HETATM   23  C   UNL     1     -11.348   6.663  70.153  1.00  0.00    -0.382 C  
ENDBRANCH  15  17
ENDBRANCH  13  15
ENDBRANCH  11  13
ENDBRANCH   8  11
ENDBRANCH   5   8
TORSDOF 5
ENDMDL
MODEL      283
REMARK 921   NORMALIZED FREE ENERGY PREDICTED BY IDOCK:   -3.34 KCAL/MOL
REMARK 922        TOTAL FREE ENERGY PREDICTED BY IDOCK:   -4.85 KCAL/MOL
REMARK 923 INTER-LIGAND FREE ENERGY PREDICTED BY IDOCK:   -3.92 KCAL/MOL
REMARK 924 INTRA-LIGAND FREE ENERGY PREDICTED BY IDOCK:   -0.93 KCAL/MOL
REMARK 927      BINDING AFFINITY PREDICTED BY RF-SCORE:    0.00 PKD
ROOT
HETATM    1  C   UNL     1     -10.275   4.264  65.355  1.00  0.00    -0.235 C  
HETATM    2  C   UNL     1      -9.427   5.414  65.817  1.00  0.00    -0.104 A  
HETATM    3  C   UNL     1      -9.653   6.015  67.063  1.00  0.00    -0.148 A  
HETATM    4  C   UNL     1      -8.907   7.127  67.458  1.00  0.00    -0.119 A  
HETATM    5  C   UNL     1      -7.921   7.634  66.605  1.00  0.00    -0.107 A  
HETATM    6  C   UNL     1      -8.422   5.923  64.981  1.00  0.00    -0.111 A  
HETATM    7  C   UNL     1      -7.667   7.031  65.373  1.00  0.00    -0.111 A  
ENDROOT
BRANCH   5   8
HETATM    8  S   UNL     1      -7.031   9.090  67.093  1.00  0.00    -0.079 S  
HETATM    9  O   UNL     1      -6.494   8.911  68.425  1.00  0.00    -0.054 OA 
HETATM   10  O   UNL     1      -6.158   9.443  65.987  1.00  0.00    -0.060 OA 
BRANCH   8  11
HETATM   11  N   UNL     1      -8.189  10.283  67.136  1.00  0.00    -0.121 N  
HETATM   12  H   UNL     1      -8.872  10.332  66.380  1.00  0.00     0.000 HD 
BRANCH  11  13
HETATM   13  C   UNL     1      -8.259  11.213  68.161  1.00  0.00    -0.131 C  
HETATM   14  O   UNL     1      -7.964  12.388  67.990  1.00  0.00    -0.134 OA 
BRANCH  13  15
HETATM   15  N   UNL     1      -8.655  10.672  69.373  1.00  0.00    -0.354 N  
HETATM   16  H   UNL     1      -7.971  10.600  70.126  1.00  0.00     0.000 HD 
BRANCH  15  17
HETATM   17  N   UNL     1      -9.986  10.208  69.607  1.00  0.00    -0.233 NA 
HETATM   18  C   UNL     1     -10.014   9.267  70.743  1.00  0.00    -0.290 C  
HETATM   19  C   UNL     1     -11.374   8.693  71.154  1.00  0.00    -0.329 C  
HETATM   20  C   UNL     1     -12.294   9.734  71.785  1.00  0.00    -0.470 C  
HETATM   21  C   UNL     1     -13.100  10.544  70.777  1.00  0.00    -0.335 C  
HETATM   22  C   UNL     1     -12.374  10.914  69.488  1.00  0.00    -0.241 C  
HETATM   23  C   UNL     1     -10.923  11.341  69.695  1.00  0.00    -0.151 C  
ENDBRANCH  15  17
ENDBRANCH  13  15
ENDBRANCH  11  13
ENDBRANCH   8  11
ENDBRANCH   5   8
TORSDOF 5
ENDMDL
MODEL      284
REMARK 921   NORMALIZED FREE ENERGY PREDICTED BY IDOCK:   -3.32 KCAL/MOL
REMARK 922        TOTAL FREE ENERGY PREDICTED BY IDOCK:   -4.82 KCAL/MOL
REMARK 923 INTER-LIGAND FREE ENERGY PREDICTED BY IDOCK:   -4.19 KCAL/MOL
REMARK 924 INTRA-LIGAND FREE ENERGY PREDICTED BY IDOCK:   -0.64 KCAL/MOL
REMARK 927      BINDING AFFINITY PREDICTED BY RF-SCORE:    0.00 PKD
ROOT
HETATM    1  C   UNL     1     -12.653  12.919  65.361  1.00  0.00    -0.440 C  
HETATM    2  C   UNL     1     -11.266  12.793  65.921  1.00  0.00    -0.334 A  
HETATM    3  C   UNL     1     -10.358  11.872  65.383  1.00  0.00    -0.306 A  
HETATM    4  C   UNL     1      -9.092  11.711  65.951  1.00  0.00    -0.155 A  
HETATM    5  C   UNL     1      -8.731  12.485  67.059  1.00  0.00    -0.205 A  
HETATM    6  C   UNL     1     -10.881  13.575  67.020  1.00  0.00    -0.287 A  
HETATM    7  C   UNL     1      -9.615  13.425  67.589  1.00  0.00    -0.219 A  
ENDROOT
BRANCH   5   8
HETATM    8  S   UNL     1      -7.145  12.218  67.811  1.00  0.00    -0.129 S  
HETATM    9  O   UNL     1      -6.107  12.306  66.806  1.00  0.00    -0.222 OA 
HETATM   10  O   UNL     1      -7.095  13.052  68.999  1.00  0.00    -0.093 OA 
BRANCH   8  11
HETATM   11  N   UNL     1      -7.217  10.655  68.374  1.00  0.00    -0.081 N  
HETATM   12  H   UNL     1      -7.747  10.463  69.224  1.00  0.00     0.000 HD 
BRANCH  11  13
HETATM   13  C   UNL     1      -6.584   9.603  67.730  1.00  0.00    -0.065 C  
HETATM   14  O   UNL     1      -5.387   9.389  67.866  1.00  0.00    -0.037 OA 
BRANCH  13  15
HETATM   15  N   UNL     1      -7.425   8.868  66.913  1.00  0.00    -0.083 N  
HETATM   16  H   UNL     1      -7.363   8.994  65.903  1.00  0.00     0.000 HD 
BRANCH  15  17
HETATM   17  N   UNL     1      -8.378   7.938  67.432  1.00  0.00    -0.122 NA 
HETATM   18  C   UNL     1      -9.696   8.141  66.801  1.00  0.00    -0.235 C  
HETATM   19  C   UNL     1     -10.834   7.204  67.220  1.00  0.00    -0.382 C  
HETATM   20  C   UNL     1     -10.640   5.774  66.729  1.00  0.00    -0.373 C  
HETATM   21  C   UNL     1      -9.783   4.912  67.648  1.00  0.00    -0.197 C  
HETATM   22  C   UNL     1      -8.599   5.614  68.305  1.00  0.00    -0.107 C  
HETATM   23  C   UNL     1      -7.850   6.565  67.375  1.00  0.00    -0.112 C  
ENDBRANCH  15  17
ENDBRANCH  13  15
ENDBRANCH  11  13
ENDBRANCH   8  11
ENDBRANCH   5   8
TORSDOF 5
ENDMDL
MODEL      285
REMARK 921   NORMALIZED FREE ENERGY PREDICTED BY IDOCK:   -3.32 KCAL/MOL
REMARK 922        TOTAL FREE ENERGY PREDICTED BY IDOCK:   -4.82 KCAL/MOL
REMARK 923 INTER-LIGAND FREE ENERGY PREDICTED BY IDOCK:   -4.12 KCAL/MOL
REMARK 924 INTRA-LIGAND FREE ENERGY PREDICTED BY IDOCK:   -0.70 KCAL/MOL
REMARK 927      BINDING AFFINITY PREDICTED BY RF-SCORE:    0.00 PKD
ROOT
HETATM    1  C   UNL     1      -7.186   2.660  65.247  1.00  0.00    -0.062 C  
HETATM    2  C   UNL     1      -7.687   3.985  65.743  1.00  0.00    -0.090 A  
HETATM    3  C   UNL     1      -7.914   4.199  67.109  1.00  0.00    -0.096 A  
HETATM    4  C   UNL     1      -8.444   5.410  67.558  1.00  0.00    -0.106 A  
HETATM    5  C   UNL     1      -8.739   6.418  66.634  1.00  0.00    -0.127 A  
HETATM    6  C   UNL     1      -7.970   5.013  64.831  1.00  0.00    -0.099 A  
HETATM    7  C   UNL     1      -8.494   6.230  65.273  1.00  0.00    -0.113 A  
ENDROOT
BRANCH   5   8
HETATM    8  S   UNL     1      -9.476   7.925  67.215  1.00  0.00    -0.158 S  
HETATM    9  O   UNL     1     -10.897   7.910  66.941  1.00  0.00    -0.288 OA 
HETATM   10  O   UNL     1      -8.986   8.143  68.564  1.00  0.00    -0.137 OA 
BRANCH   8  11
HETATM   11  N   UNL     1      -8.763   9.111  66.292  1.00  0.00    -0.135 N  
HETATM   12  H   UNL     1      -7.767   9.294  66.411  1.00  0.00     0.000 HD 
BRANCH  11  13
HETATM   13  C   UNL     1      -9.474   9.860  65.367  1.00  0.00    -0.257 C  
HETATM   14  O   UNL     1      -9.374   9.664  64.163  1.00  0.00    -0.236 OA 
BRANCH  13  15
HETATM   15  N   UNL     1     -10.257  10.848  65.940  1.00  0.00    -0.250 N  
HETATM   16  H   UNL     1     -11.076  10.573  66.481  1.00  0.00     0.000 HD 
BRANCH  15  17
HETATM   17  N   UNL     1      -9.958  12.239  65.800  1.00  0.00    -0.252 NA 
HETATM   18  C   UNL     1     -10.961  12.898  64.941  1.00  0.00    -0.301 C  
HETATM   19  C   UNL     1     -10.811  14.406  64.709  1.00  0.00    -0.415 C  
HETATM   20  C   UNL     1     -11.101  15.233  65.957  1.00  0.00    -0.278 C  
HETATM   21  C   UNL     1      -9.902  15.401  66.883  1.00  0.00    -0.251 C  
HETATM   22  C   UNL     1      -8.992  14.185  67.021  1.00  0.00    -0.251 C  
HETATM   23  C   UNL     1      -9.742  12.859  67.118  1.00  0.00    -0.221 C  
ENDBRANCH  15  17
ENDBRANCH  13  15
ENDBRANCH  11  13
ENDBRANCH   8  11
ENDBRANCH   5   8
TORSDOF 5
ENDMDL
MODEL      286
REMARK 921   NORMALIZED FREE ENERGY PREDICTED BY IDOCK:   -3.27 KCAL/MOL
REMARK 922        TOTAL FREE ENERGY PREDICTED BY IDOCK:   -4.76 KCAL/MOL
REMARK 923 INTER-LIGAND FREE ENERGY PREDICTED BY IDOCK:   -4.05 KCAL/MOL
REMARK 924 INTRA-LIGAND FREE ENERGY PREDICTED BY IDOCK:   -0.72 KCAL/MOL
REMARK 927      BINDING AFFINITY PREDICTED BY RF-SCORE:    0.00 PKD
ROOT
HETATM    1  C   UNL     1      -6.056   2.944  65.375  1.00  0.00    -0.019 C  
HETATM    2  C   UNL     1      -6.758   4.232  65.693  1.00  0.00    -0.052 A  
HETATM    3  C   UNL     1      -6.945   4.637  67.022  1.00  0.00    -0.057 A  
HETATM    4  C   UNL     1      -7.657   5.801  67.314  1.00  0.00    -0.096 A  
HETATM    5  C   UNL     1      -8.178   6.571  66.269  1.00  0.00    -0.119 A  
HETATM    6  C   UNL     1      -7.269   5.026  64.656  1.00  0.00    -0.062 A  
HETATM    7  C   UNL     1      -7.978   6.195  64.940  1.00  0.00    -0.123 A  
ENDROOT
BRANCH   5   8
HETATM    8  S   UNL     1      -9.141   8.010  66.660  1.00  0.00    -0.172 S  
HETATM    9  O   UNL     1     -10.518   7.629  66.890  1.00  0.00    -0.315 OA 
HETATM   10  O   UNL     1      -8.402   8.752  67.667  1.00  0.00    -0.113 OA 
BRANCH   8  11
HETATM   11  N   UNL     1      -9.062   8.941  65.284  1.00  0.00    -0.379 N  
HETATM   12  H   UNL     1      -8.552   8.583  64.477  1.00  0.00     0.000 HD 
BRANCH  11  13
HETATM   13  C   UNL     1      -9.664  10.187  65.195  1.00  0.00    -0.304 C  
HETATM   14  O   UNL     1     -10.350  10.505  64.233  1.00  0.00    -0.332 OA 
BRANCH  13  15
HETATM   15  N   UNL     1      -9.382  11.016  66.268  1.00  0.00    -0.178 N  
HETATM   16  H   UNL     1      -8.413  11.118  66.568  1.00  0.00     0.000 HD 
BRANCH  15  17
HETATM   17  N   UNL     1     -10.399  11.734  66.970  1.00  0.00    -0.210 NA 
HETATM   18  C   UNL     1     -10.631  11.134  68.298  1.00  0.00    -0.190 C  
HETATM   19  C   UNL     1     -11.674  11.801  69.203  1.00  0.00    -0.388 C  
HETATM   20  C   UNL     1     -11.229  13.166  69.719  1.00  0.00    -0.017 C  
HETATM   21  C   UNL     1     -11.528  14.318  68.766  1.00  0.00    -0.327 C  
HETATM   22  C   UNL     1     -11.349  14.017  67.282  1.00  0.00    -0.350 C  
HETATM   23  C   UNL     1     -10.114  13.178  66.964  1.00  0.00    -0.241 C  
ENDBRANCH  15  17
ENDBRANCH  13  15
ENDBRANCH  11  13
ENDBRANCH   8  11
ENDBRANCH   5   8
TORSDOF 5
ENDMDL
MODEL      287
REMARK 921   NORMALIZED FREE ENERGY PREDICTED BY IDOCK:   -3.27 KCAL/MOL
REMARK 922        TOTAL FREE ENERGY PREDICTED BY IDOCK:   -4.76 KCAL/MOL
REMARK 923 INTER-LIGAND FREE ENERGY PREDICTED BY IDOCK:   -4.38 KCAL/MOL
REMARK 924 INTRA-LIGAND FREE ENERGY PREDICTED BY IDOCK:   -0.38 KCAL/MOL
REMARK 927      BINDING AFFINITY PREDICTED BY RF-SCORE:    0.00 PKD
ROOT
HETATM    1  C   UNL     1     -14.392   7.932  71.527  1.00  0.00    -0.563 C  
HETATM    2  C   UNL     1     -12.897   7.949  71.391  1.00  0.00    -0.305 A  
HETATM    3  C   UNL     1     -12.130   8.926  72.040  1.00  0.00    -0.442 A  
HETATM    4  C   UNL     1     -10.747   8.978  71.855  1.00  0.00    -0.401 A  
HETATM    5  C   UNL     1     -10.126   8.040  71.024  1.00  0.00    -0.186 A  
HETATM    6  C   UNL     1     -12.258   7.003  70.576  1.00  0.00    -0.222 A  
HETATM    7  C   UNL     1     -10.873   7.045  70.392  1.00  0.00    -0.283 A  
ENDROOT
BRANCH   5   8
HETATM    8  S   UNL     1      -8.378   8.163  70.746  1.00  0.00    -0.126 S  
HETATM    9  O   UNL     1      -8.121   8.384  69.339  1.00  0.00    -0.110 OA 
HETATM   10  O   UNL     1      -7.854   9.079  71.745  1.00  0.00    -0.333 OA 
BRANCH   8  11
HETATM   11  N   UNL     1      -7.789   6.667  71.172  1.00  0.00    -0.101 N  
HETATM   12  H   UNL     1      -7.120   6.602  71.939  1.00  0.00     0.000 HD 
BRANCH  11  13
HETATM   13  C   UNL     1      -8.176   5.505  70.522  1.00  0.00    -0.112 C  
HETATM   14  O   UNL     1      -8.517   4.504  71.136  1.00  0.00    -0.101 OA 
BRANCH  13  15
HETATM   15  N   UNL     1      -8.098   5.591  69.142  1.00  0.00    -0.094 N  
HETATM   16  H   UNL     1      -7.475   6.283  68.727  1.00  0.00     0.000 HD 
BRANCH  15  17
HETATM   17  N   UNL     1      -8.861   4.747  68.277  1.00  0.00    -0.102 NA 
HETATM   18  C   UNL     1      -9.776   5.551  67.445  1.00  0.00    -0.135 C  
HETATM   19  C   UNL     1     -10.652   4.804  66.433  1.00  0.00    -0.203 C  
HETATM   20  C   UNL     1      -9.855   4.218  65.273  1.00  0.00    -0.214 C  
HETATM   21  C   UNL     1      -9.262   2.843  65.559  1.00  0.00    -0.123 C  
HETATM   22  C   UNL     1      -8.739   2.626  66.974  1.00  0.00    -0.137 C  
HETATM   23  C   UNL     1      -7.981   3.822  67.545  1.00  0.00    -0.089 C  
ENDBRANCH  15  17
ENDBRANCH  13  15
ENDBRANCH  11  13
ENDBRANCH   8  11
ENDBRANCH   5   8
TORSDOF 5
ENDMDL
MODEL      288
REMARK 921   NORMALIZED FREE ENERGY PREDICTED BY IDOCK:   -3.25 KCAL/MOL
REMARK 922        TOTAL FREE ENERGY PREDICTED BY IDOCK:   -4.74 KCAL/MOL
REMARK 923 INTER-LIGAND FREE ENERGY PREDICTED BY IDOCK:   -4.01 KCAL/MOL
REMARK 924 INTRA-LIGAND FREE ENERGY PREDICTED BY IDOCK:   -0.73 KCAL/MOL
REMARK 927      BINDING AFFINITY PREDICTED BY RF-SCORE:    0.00 PKD
ROOT
HETATM    1  C   UNL     1     -14.397   8.459  71.767  1.00  0.00    -0.558 C  
HETATM    2  C   UNL     1     -12.954   8.054  71.679  1.00  0.00    -0.351 A  
HETATM    3  C   UNL     1     -11.934   8.980  71.934  1.00  0.00    -0.445 A  
HETATM    4  C   UNL     1     -10.594   8.616  71.784  1.00  0.00    -0.395 A  
HETATM    5  C   UNL     1     -10.274   7.314  71.386  1.00  0.00    -0.188 A  
HETATM    6  C   UNL     1     -12.616   6.746  71.300  1.00  0.00    -0.328 A  
HETATM    7  C   UNL     1     -11.278   6.373  71.155  1.00  0.00    -0.357 A  
ENDROOT
BRANCH   5   8
HETATM    8  S   UNL     1      -8.569   6.889  71.134  1.00  0.00    -0.131 S  
HETATM    9  O   UNL     1      -7.822   8.069  70.754  1.00  0.00    -0.086 OA 
HETATM   10  O   UNL     1      -8.158   6.092  72.276  1.00  0.00    -0.109 OA 
BRANCH   8  11
HETATM   11  N   UNL     1      -8.597   5.834  69.849  1.00  0.00    -0.126 N  
HETATM   12  H   UNL     1      -8.565   4.831  70.035  1.00  0.00     0.000 HD 
BRANCH  11  13
HETATM   13  C   UNL     1      -8.661   6.267  68.534  1.00  0.00    -0.112 C  
HETATM   14  O   UNL     1      -9.670   6.128  67.857  1.00  0.00    -0.114 OA 
BRANCH  13  15
HETATM   15  N   UNL     1      -7.479   6.824  68.076  1.00  0.00    -0.096 N  
HETATM   16  H   UNL     1      -6.600   6.350  68.284  1.00  0.00     0.000 HD 
BRANCH  15  17
HETATM   17  N   UNL     1      -7.445   8.039  67.324  1.00  0.00    -0.091 NA 
HETATM   18  C   UNL     1      -6.250   8.830  67.673  1.00  0.00    -0.052 C  
HETATM   19  C   UNL     1      -6.037  10.156  66.934  1.00  0.00    -0.056 C  
HETATM   20  C   UNL     1      -5.680   9.968  65.464  1.00  0.00    -0.071 C  
HETATM   21  C   UNL     1      -6.888   9.814  64.546  1.00  0.00    -0.118 C  
HETATM   22  C   UNL     1      -8.055   9.011  65.111  1.00  0.00    -0.130 C  
HETATM   23  C   UNL     1      -7.632   7.767  65.889  1.00  0.00    -0.090 C  
ENDBRANCH  15  17
ENDBRANCH  13  15
ENDBRANCH  11  13
ENDBRANCH   8  11
ENDBRANCH   5   8
TORSDOF 5
ENDMDL
MODEL      289
REMARK 921   NORMALIZED FREE ENERGY PREDICTED BY IDOCK:   -3.22 KCAL/MOL
REMARK 922        TOTAL FREE ENERGY PREDICTED BY IDOCK:   -4.70 KCAL/MOL
REMARK 923 INTER-LIGAND FREE ENERGY PREDICTED BY IDOCK:   -4.65 KCAL/MOL
REMARK 924 INTRA-LIGAND FREE ENERGY PREDICTED BY IDOCK:   -0.05 KCAL/MOL
REMARK 927      BINDING AFFINITY PREDICTED BY RF-SCORE:    0.00 PKD
ROOT
HETATM    1  C   UNL     1      -5.817   8.345  68.304  1.00  0.00    -0.042 C  
HETATM    2  C   UNL     1      -6.413   9.723  68.283  1.00  0.00    -0.056 A  
HETATM    3  C   UNL     1      -6.914  10.269  67.094  1.00  0.00    -0.088 A  
HETATM    4  C   UNL     1      -7.405  11.576  67.067  1.00  0.00    -0.145 A  
HETATM    5  C   UNL     1      -7.404  12.337  68.240  1.00  0.00    -0.108 A  
HETATM    6  C   UNL     1      -6.437  10.493  69.456  1.00  0.00    -0.072 A  
HETATM    7  C   UNL     1      -6.934  11.799  69.438  1.00  0.00    -0.026 A  
ENDROOT
BRANCH   5   8
HETATM    8  S   UNL     1      -7.968  14.019  68.171  1.00  0.00    -0.163 S  
HETATM    9  O   UNL     1      -6.947  14.898  68.700  1.00  0.00    -0.100 OA 
HETATM   10  O   UNL     1      -8.507  14.231  66.839  1.00  0.00    -0.192 OA 
BRANCH   8  11
HETATM   11  N   UNL     1      -9.284  14.051  69.187  1.00  0.00    -0.380 N  
HETATM   12  H   UNL     1      -9.145  14.306  70.165  1.00  0.00     0.000 HD 
BRANCH  11  13
HETATM   13  C   UNL     1     -10.564  13.743  68.754  1.00  0.00    -0.239 C  
HETATM   14  O   UNL     1     -11.547  14.353  69.153  1.00  0.00    -0.269 OA 
BRANCH  13  15
HETATM   15  N   UNL     1     -10.608  12.675  67.872  1.00  0.00    -0.215 N  
HETATM   16  H   UNL     1     -10.027  11.858  68.061  1.00  0.00     0.000 HD 
BRANCH  15  17
HETATM   17  N   UNL     1     -11.436  12.676  66.707  1.00  0.00    -0.330 NA 
HETATM   18  C   UNL     1     -11.997  14.021  66.474  1.00  0.00    -0.444 C  
HETATM   19  C   UNL     1     -12.889  14.211  65.242  1.00  0.00    -0.370 C  
HETATM   20  C   UNL     1     -12.117  14.130  63.929  1.00  0.00    -0.301 C  
HETATM   21  C   UNL     1     -11.936  12.711  63.402  1.00  0.00    -0.613 C  
HETATM   22  C   UNL     1     -11.680  11.638  64.455  1.00  0.00    -0.226 C  
HETATM   23  C   UNL     1     -10.728  12.075  65.565  1.00  0.00    -0.276 C  
ENDBRANCH  15  17
ENDBRANCH  13  15
ENDBRANCH  11  13
ENDBRANCH   8  11
ENDBRANCH   5   8
TORSDOF 5
ENDMDL
MODEL      290
REMARK 921   NORMALIZED FREE ENERGY PREDICTED BY IDOCK:   -3.22 KCAL/MOL
REMARK 922        TOTAL FREE ENERGY PREDICTED BY IDOCK:   -4.69 KCAL/MOL
REMARK 923 INTER-LIGAND FREE ENERGY PREDICTED BY IDOCK:   -3.65 KCAL/MOL
REMARK 924 INTRA-LIGAND FREE ENERGY PREDICTED BY IDOCK:   -1.04 KCAL/MOL
REMARK 927      BINDING AFFINITY PREDICTED BY RF-SCORE:    0.00 PKD
ROOT
HETATM    1  C   UNL     1     -10.487  10.166  70.023  1.00  0.00    -0.325 C  
HETATM    2  C   UNL     1      -9.837   9.121  69.162  1.00  0.00    -0.171 A  
HETATM    3  C   UNL     1      -8.632   8.520  69.553  1.00  0.00    -0.131 A  
HETATM    4  C   UNL     1      -7.997   7.599  68.717  1.00  0.00    -0.126 A  
HETATM    5  C   UNL     1      -8.576   7.270  67.488  1.00  0.00    -0.122 A  
HETATM    6  C   UNL     1     -10.415   8.765  67.935  1.00  0.00    -0.275 A  
HETATM    7  C   UNL     1      -9.789   7.840  67.097  1.00  0.00    -0.270 A  
ENDROOT
BRANCH   5   8
HETATM    8  S   UNL     1      -7.720   6.150  66.408  1.00  0.00    -0.104 S  
HETATM    9  O   UNL     1      -8.224   6.291  65.059  1.00  0.00    -0.139 OA 
HETATM   10  O   UNL     1      -6.302   6.297  66.686  1.00  0.00    -0.038 OA 
BRANCH   8  11
HETATM   11  N   UNL     1      -8.126   4.642  66.980  1.00  0.00    -0.102 N  
HETATM   12  H   UNL     1      -7.379   4.001  67.248  1.00  0.00     0.000 HD 
BRANCH  11  13
HETATM   13  C   UNL     1      -9.441   4.224  67.104  1.00  0.00    -0.181 C  
HETATM   14  O   UNL     1     -10.284   4.481  66.255  1.00  0.00    -0.247 OA 
BRANCH  13  15
HETATM   15  N   UNL     1      -9.694   3.534  68.278  1.00  0.00    -0.078 N  
HETATM   16  H   UNL     1     -10.035   2.574  68.220  1.00  0.00     0.000 HD 
BRANCH  15  17
HETATM   17  N   UNL     1      -9.495   4.117  69.567  1.00  0.00    -0.170 NA 
HETATM   18  C   UNL     1     -10.519   5.145  69.834  1.00  0.00    -0.226 C  
HETATM   19  C   UNL     1     -10.474   5.854  71.191  1.00  0.00    -0.291 C  
HETATM   20  C   UNL     1     -10.856   4.943  72.353  1.00  0.00    -0.204 C  
HETATM   21  C   UNL     1      -9.697   4.120  72.904  1.00  0.00    -0.176 C  
HETATM   22  C   UNL     1      -8.705   3.594  71.873  1.00  0.00    -0.122 C  
HETATM   23  C   UNL     1      -9.358   3.072  70.596  1.00  0.00    -0.151 C  
ENDBRANCH  15  17
ENDBRANCH  13  15
ENDBRANCH  11  13
ENDBRANCH   8  11
ENDBRANCH   5   8
TORSDOF 5
ENDMDL
MODEL      291
REMARK 921   NORMALIZED FREE ENERGY PREDICTED BY IDOCK:   -3.21 KCAL/MOL
REMARK 922        TOTAL FREE ENERGY PREDICTED BY IDOCK:   -4.69 KCAL/MOL
REMARK 923 INTER-LIGAND FREE ENERGY PREDICTED BY IDOCK:   -3.92 KCAL/MOL
REMARK 924 INTRA-LIGAND FREE ENERGY PREDICTED BY IDOCK:   -0.77 KCAL/MOL
REMARK 927      BINDING AFFINITY PREDICTED BY RF-SCORE:    0.00 PKD
ROOT
HETATM    1  C   UNL     1     -11.651   6.297  70.349  1.00  0.00    -0.371 C  
HETATM    2  C   UNL     1     -10.666   6.311  69.216  1.00  0.00    -0.367 A  
HETATM    3  C   UNL     1     -11.100   6.446  67.891  1.00  0.00    -0.370 A  
HETATM    4  C   UNL     1     -10.186   6.390  66.837  1.00  0.00    -0.277 A  
HETATM    5  C   UNL     1      -8.827   6.208  67.112  1.00  0.00    -0.108 A  
HETATM    6  C   UNL     1      -9.297   6.148  69.477  1.00  0.00    -0.147 A  
HETATM    7  C   UNL     1      -8.376   6.098  68.428  1.00  0.00    -0.114 A  
ENDROOT
BRANCH   5   8
HETATM    8  S   UNL     1      -7.687   6.070  65.758  1.00  0.00    -0.101 S  
HETATM    9  O   UNL     1      -7.221   4.705  65.649  1.00  0.00    -0.069 OA 
HETATM   10  O   UNL     1      -8.301   6.733  64.621  1.00  0.00    -0.076 OA 
BRANCH   8  11
HETATM   11  N   UNL     1      -6.411   7.042  66.197  1.00  0.00    -0.050 N  
HETATM   12  H   UNL     1      -5.461   6.700  66.054  1.00  0.00     0.000 HD 
BRANCH  11  13
HETATM   13  C   UNL     1      -6.592   8.300  66.749  1.00  0.00    -0.057 C  
HETATM   14  O   UNL     1      -5.960   8.674  67.727  1.00  0.00    -0.045 OA 
BRANCH  13  15
HETATM   15  N   UNL     1      -7.564   9.051  66.109  1.00  0.00    -0.094 N  
HETATM   16  H   UNL     1      -7.663   8.967  65.097  1.00  0.00     0.000 HD 
BRANCH  15  17
HETATM   17  N   UNL     1      -8.435   9.938  66.814  1.00  0.00    -0.124 NA 
HETATM   18  C   UNL     1      -7.953  11.328  66.707  1.00  0.00    -0.159 C  
HETATM   19  C   UNL     1      -8.789  12.421  67.383  1.00  0.00    -0.188 C  
HETATM   20  C   UNL     1     -10.127  12.661  66.690  1.00  0.00    -0.248 C  
HETATM   21  C   UNL     1     -11.240  11.726  67.148  1.00  0.00    -0.375 C  
HETATM   22  C   UNL     1     -10.825  10.286  67.430  1.00  0.00    -0.336 C  
HETATM   23  C   UNL     1      -9.836   9.717  66.417  1.00  0.00    -0.244 C  
ENDBRANCH  15  17
ENDBRANCH  13  15
ENDBRANCH  11  13
ENDBRANCH   8  11
ENDBRANCH   5   8
TORSDOF 5
ENDMDL
MODEL      292
REMARK 921   NORMALIZED FREE ENERGY PREDICTED BY IDOCK:   -3.21 KCAL/MOL
REMARK 922        TOTAL FREE ENERGY PREDICTED BY IDOCK:   -4.68 KCAL/MOL
REMARK 923 INTER-LIGAND FREE ENERGY PREDICTED BY IDOCK:   -4.52 KCAL/MOL
REMARK 924 INTRA-LIGAND FREE ENERGY PREDICTED BY IDOCK:   -0.17 KCAL/MOL
REMARK 927      BINDING AFFINITY PREDICTED BY RF-SCORE:    0.00 PKD
ROOT
HETATM    1  C   UNL     1      -6.852   8.573  63.898  1.00  0.00    -0.079 C  
HETATM    2  C   UNL     1      -7.137   8.853  65.346  1.00  0.00    -0.080 A  
HETATM    3  C   UNL     1      -7.877   9.982  65.724  1.00  0.00    -0.128 A  
HETATM    4  C   UNL     1      -8.081  10.275  67.073  1.00  0.00    -0.121 A  
HETATM    5  C   UNL     1      -7.550   9.427  68.051  1.00  0.00    -0.083 A  
HETATM    6  C   UNL     1      -6.627   8.003  66.337  1.00  0.00    -0.051 A  
HETATM    7  C   UNL     1      -6.833   8.286  67.690  1.00  0.00    -0.070 A  
ENDROOT
BRANCH   5   8
HETATM    8  S   UNL     1      -7.760   9.853  69.762  1.00  0.00    -0.169 S  
HETATM    9  O   UNL     1      -8.049   8.661  70.529  1.00  0.00    -0.094 OA 
HETATM   10  O   UNL     1      -6.646  10.712  70.123  1.00  0.00    -0.138 OA 
BRANCH   8  11
HETATM   11  N   UNL     1      -9.098  10.840  69.776  1.00  0.00    -0.306 N  
HETATM   12  H   UNL     1      -8.980  11.825  70.015  1.00  0.00     0.000 HD 
BRANCH  11  13
HETATM   13  C   UNL     1     -10.368  10.373  69.475  1.00  0.00    -0.237 C  
HETATM   14  O   UNL     1     -10.631   9.179  69.459  1.00  0.00    -0.218 OA 
BRANCH  13  15
HETATM   15  N   UNL     1     -11.269  11.380  69.170  1.00  0.00    -0.250 N  
HETATM   16  H   UNL     1     -12.032  11.570  69.819  1.00  0.00     0.000 HD 
BRANCH  15  17
HETATM   17  N   UNL     1     -11.169  12.162  67.977  1.00  0.00    -0.244 NA 
HETATM   18  C   UNL     1     -11.237  11.296  66.785  1.00  0.00    -0.195 C  
HETATM   19  C   UNL     1     -11.176  11.975  65.413  1.00  0.00    -0.374 C  
HETATM   20  C   UNL     1     -12.427  12.785  65.093  1.00  0.00    -0.565 C  
HETATM   21  C   UNL     1     -12.403  14.208  65.639  1.00  0.00    -0.473 C  
HETATM   22  C   UNL     1     -11.766  14.381  67.014  1.00  0.00    -0.420 C  
HETATM   23  C   UNL     1     -12.127  13.280  68.007  1.00  0.00    -0.221 C  
ENDBRANCH  15  17
ENDBRANCH  13  15
ENDBRANCH  11  13
ENDBRANCH   8  11
ENDBRANCH   5   8
TORSDOF 5
ENDMDL
MODEL      293
REMARK 921   NORMALIZED FREE ENERGY PREDICTED BY IDOCK:   -3.17 KCAL/MOL
REMARK 922        TOTAL FREE ENERGY PREDICTED BY IDOCK:   -4.64 KCAL/MOL
REMARK 923 INTER-LIGAND FREE ENERGY PREDICTED BY IDOCK:   -3.80 KCAL/MOL
REMARK 924 INTRA-LIGAND FREE ENERGY PREDICTED BY IDOCK:   -0.84 KCAL/MOL
REMARK 927      BINDING AFFINITY PREDICTED BY RF-SCORE:    0.00 PKD
ROOT
HETATM    1  C   UNL     1     -10.641   4.633  65.902  1.00  0.00    -0.265 C  
HETATM    2  C   UNL     1      -9.519   5.461  66.460  1.00  0.00    -0.158 A  
HETATM    3  C   UNL     1      -9.448   5.739  67.831  1.00  0.00    -0.114 A  
HETATM    4  C   UNL     1      -8.441   6.565  68.335  1.00  0.00    -0.120 A  
HETATM    5  C   UNL     1      -7.494   7.108  67.462  1.00  0.00    -0.101 A  
HETATM    6  C   UNL     1      -8.550   5.998  65.599  1.00  0.00    -0.154 A  
HETATM    7  C   UNL     1      -7.536   6.820  66.097  1.00  0.00    -0.081 A  
ENDROOT
BRANCH   5   8
HETATM    8  S   UNL     1      -6.263   8.212  68.109  1.00  0.00    -0.052 S  
HETATM    9  O   UNL     1      -5.640   7.619  69.273  1.00  0.00    -0.025 OA 
HETATM   10  O   UNL     1      -5.458   8.653  66.984  1.00  0.00    -0.036 OA 
BRANCH   8  11
HETATM   11  N   UNL     1      -7.126   9.552  68.585  1.00  0.00    -0.068 N  
HETATM   12  H   UNL     1      -7.608  10.103  67.875  1.00  0.00     0.000 HD 
BRANCH  11  13
HETATM   13  C   UNL     1      -7.212   9.947  69.911  1.00  0.00    -0.129 C  
HETATM   14  O   UNL     1      -6.861  11.060  70.278  1.00  0.00    -0.217 OA 
BRANCH  13  15
HETATM   15  N   UNL     1      -7.693   8.958  70.752  1.00  0.00    -0.101 N  
HETATM   16  H   UNL     1      -7.111   8.140  70.932  1.00  0.00     0.000 HD 
BRANCH  15  17
HETATM   17  N   UNL     1      -8.975   9.040  71.378  1.00  0.00    -0.297 NA 
HETATM   18  C   UNL     1      -9.974   9.585  70.439  1.00  0.00    -0.267 C  
HETATM   19  C   UNL     1     -11.418   9.713  70.938  1.00  0.00    -0.427 C  
HETATM   20  C   UNL     1     -12.102   8.365  71.135  1.00  0.00    -0.275 C  
HETATM   21  C   UNL     1     -11.840   7.728  72.495  1.00  0.00    -0.354 C  
HETATM   22  C   UNL     1     -10.433   7.909  73.054  1.00  0.00    -0.410 C  
HETATM   23  C   UNL     1      -9.328   7.758  72.011  1.00  0.00    -0.152 C  
ENDBRANCH  15  17
ENDBRANCH  13  15
ENDBRANCH  11  13
ENDBRANCH   8  11
ENDBRANCH   5   8
TORSDOF 5
ENDMDL
MODEL      294
REMARK 921   NORMALIZED FREE ENERGY PREDICTED BY IDOCK:   -3.16 KCAL/MOL
REMARK 922        TOTAL FREE ENERGY PREDICTED BY IDOCK:   -4.62 KCAL/MOL
REMARK 923 INTER-LIGAND FREE ENERGY PREDICTED BY IDOCK:   -4.13 KCAL/MOL
REMARK 924 INTRA-LIGAND FREE ENERGY PREDICTED BY IDOCK:   -0.48 KCAL/MOL
REMARK 927      BINDING AFFINITY PREDICTED BY RF-SCORE:    0.00 PKD
ROOT
HETATM    1  C   UNL     1      -9.692   5.045  68.936  1.00  0.00    -0.234 C  
HETATM    2  C   UNL     1      -9.925   6.528  68.912  1.00  0.00    -0.165 A  
HETATM    3  C   UNL     1     -10.748   7.139  69.867  1.00  0.00    -0.258 A  
HETATM    4  C   UNL     1     -11.015   8.508  69.799  1.00  0.00    -0.131 A  
HETATM    5  C   UNL     1     -10.447   9.272  68.774  1.00  0.00    -0.210 A  
HETATM    6  C   UNL     1      -9.347   7.311  67.901  1.00  0.00    -0.131 A  
HETATM    7  C   UNL     1      -9.604   8.682  67.831  1.00  0.00    -0.173 A  
ENDROOT
BRANCH   5   8
HETATM    8  S   UNL     1     -10.853  10.996  68.662  1.00  0.00    -0.235 S  
HETATM    9  O   UNL     1     -11.939  11.182  67.723  1.00  0.00    -0.630 OA 
HETATM   10  O   UNL     1     -10.960  11.494  70.022  1.00  0.00    -0.030 OA 
BRANCH   8  11
HETATM   11  N   UNL     1      -9.480  11.700  68.043  1.00  0.00    -0.178 N  
HETATM   12  H   UNL     1      -8.577  11.462  68.454  1.00  0.00     0.000 HD 
BRANCH  11  13
HETATM   13  C   UNL     1      -9.517  12.600  66.989  1.00  0.00    -0.220 C  
HETATM   14  O   UNL     1      -9.228  13.779  67.136  1.00  0.00    -0.223 OA 
BRANCH  13  15
HETATM   15  N   UNL     1      -9.940  12.037  65.797  1.00  0.00    -0.237 N  
HETATM   16  H   UNL     1     -10.758  12.430  65.331  1.00  0.00     0.000 HD 
BRANCH  15  17
HETATM   17  N   UNL     1      -9.272  10.926  65.194  1.00  0.00    -0.210 NA 
HETATM   18  C   UNL     1      -9.444  10.953  63.729  1.00  0.00    -0.275 C  
HETATM   19  C   UNL     1      -8.763   9.845  62.917  1.00  0.00    -0.213 C  
HETATM   20  C   UNL     1      -7.243   9.966  62.902  1.00  0.00    -0.123 C  
HETATM   21  C   UNL     1      -6.556   9.315  64.097  1.00  0.00    -0.091 C  
HETATM   22  C   UNL     1      -7.276   9.454  65.434  1.00  0.00    -0.092 C  
HETATM   23  C   UNL     1      -7.882  10.834  65.671  1.00  0.00    -0.076 C  
ENDBRANCH  15  17
ENDBRANCH  13  15
ENDBRANCH  11  13
ENDBRANCH   8  11
ENDBRANCH   5   8
TORSDOF 5
ENDMDL
MODEL      295
REMARK 921   NORMALIZED FREE ENERGY PREDICTED BY IDOCK:   -3.15 KCAL/MOL
REMARK 922        TOTAL FREE ENERGY PREDICTED BY IDOCK:   -4.61 KCAL/MOL
REMARK 923 INTER-LIGAND FREE ENERGY PREDICTED BY IDOCK:   -3.97 KCAL/MOL
REMARK 924 INTRA-LIGAND FREE ENERGY PREDICTED BY IDOCK:   -0.64 KCAL/MOL
REMARK 927      BINDING AFFINITY PREDICTED BY RF-SCORE:    0.00 PKD
ROOT
HETATM    1  C   UNL     1     -11.885  10.886  69.296  1.00  0.00    -0.395 C  
HETATM    2  C   UNL     1     -11.299  10.772  67.918  1.00  0.00    -0.372 A  
HETATM    3  C   UNL     1     -10.673   9.589  67.502  1.00  0.00    -0.311 A  
HETATM    4  C   UNL     1     -10.070   9.512  66.245  1.00  0.00    -0.327 A  
HETATM    5  C   UNL     1     -10.103  10.623  65.396  1.00  0.00    -0.291 A  
HETATM    6  C   UNL     1     -11.341  11.870  67.047  1.00  0.00    -0.392 A  
HETATM    7  C   UNL     1     -10.745  11.799  65.785  1.00  0.00    -0.328 A  
ENDROOT
BRANCH   5   8
HETATM    8  S   UNL     1      -9.271  10.530  63.830  1.00  0.00    -0.286 S  
HETATM    9  O   UNL     1      -9.377   9.188  63.299  1.00  0.00     0.195 OA 
HETATM   10  O   UNL     1      -9.715  11.670  63.048  1.00  0.00    -0.396 OA 
BRANCH   8  11
HETATM   11  N   UNL     1      -7.678  10.840  64.194  1.00  0.00    -0.342 N  
HETATM   12  H   UNL     1      -7.401  11.798  64.409  1.00  0.00     0.000 HD 
BRANCH  11  13
HETATM   13  C   UNL     1      -6.714   9.845  64.215  1.00  0.00    -0.126 C  
HETATM   14  O   UNL     1      -5.808   9.805  63.394  1.00  0.00    -0.095 OA 
BRANCH  13  15
HETATM   15  N   UNL     1      -6.907   8.909  65.218  1.00  0.00    -0.072 N  
HETATM   16  H   UNL     1      -7.013   9.234  66.179  1.00  0.00     0.000 HD 
BRANCH  15  17
HETATM   17  N   UNL     1      -6.963   7.505  64.955  1.00  0.00    -0.057 NA 
HETATM   18  C   UNL     1      -5.605   6.961  64.763  1.00  0.00    -0.032 C  
HETATM   19  C   UNL     1      -5.477   5.456  64.502  1.00  0.00    -0.016 C  
HETATM   20  C   UNL     1      -5.818   4.608  65.722  1.00  0.00    -0.022 C  
HETATM   21  C   UNL     1      -7.305   4.309  65.875  1.00  0.00    -0.080 C  
HETATM   22  C   UNL     1      -8.253   5.443  65.500  1.00  0.00    -0.127 C  
HETATM   23  C   UNL     1      -7.787   6.820  65.965  1.00  0.00    -0.104 C  
ENDBRANCH  15  17
ENDBRANCH  13  15
ENDBRANCH  11  13
ENDBRANCH   8  11
ENDBRANCH   5   8
TORSDOF 5
ENDMDL
MODEL      296
REMARK 921   NORMALIZED FREE ENERGY PREDICTED BY IDOCK:   -3.12 KCAL/MOL
REMARK 922        TOTAL FREE ENERGY PREDICTED BY IDOCK:   -4.57 KCAL/MOL
REMARK 923 INTER-LIGAND FREE ENERGY PREDICTED BY IDOCK:   -3.46 KCAL/MOL
REMARK 924 INTRA-LIGAND FREE ENERGY PREDICTED BY IDOCK:   -1.12 KCAL/MOL
REMARK 927      BINDING AFFINITY PREDICTED BY RF-SCORE:    0.00 PKD
ROOT
HETATM    1  C   UNL     1      -7.383  10.429  66.386  1.00  0.00    -0.120 C  
HETATM    2  C   UNL     1      -7.639   9.809  67.729  1.00  0.00    -0.090 A  
HETATM    3  C   UNL     1      -6.712   8.926  68.299  1.00  0.00    -0.065 A  
HETATM    4  C   UNL     1      -6.986   8.300  69.516  1.00  0.00    -0.046 A  
HETATM    5  C   UNL     1      -8.192   8.566  70.173  1.00  0.00    -0.121 A  
HETATM    6  C   UNL     1      -8.835  10.081  68.410  1.00  0.00    -0.117 A  
HETATM    7  C   UNL     1      -9.114   9.463  69.631  1.00  0.00    -0.190 A  
ENDROOT
BRANCH   5   8
HETATM    8  S   UNL     1      -8.554   7.709  71.684  1.00  0.00    -0.119 S  
HETATM    9  O   UNL     1      -7.517   6.737  71.955  1.00  0.00    -0.091 OA 
HETATM   10  O   UNL     1      -8.896   8.718  72.671  1.00  0.00    -0.394 OA 
BRANCH   8  11
HETATM   11  N   UNL     1      -9.975   6.905  71.368  1.00  0.00    -0.182 N  
HETATM   12  H   UNL     1     -10.813   7.450  71.162  1.00  0.00     0.000 HD 
BRANCH  11  13
HETATM   13  C   UNL     1     -10.063   5.522  71.374  1.00  0.00    -0.201 C  
HETATM   14  O   UNL     1     -10.775   4.923  72.168  1.00  0.00    -0.198 OA 
BRANCH  13  15
HETATM   15  N   UNL     1      -9.251   4.912  70.432  1.00  0.00    -0.128 N  
HETATM   16  H   UNL     1      -8.467   4.345  70.753  1.00  0.00     0.000 HD 
BRANCH  15  17
HETATM   17  N   UNL     1      -9.472   5.049  69.027  1.00  0.00    -0.127 NA 
HETATM   18  C   UNL     1     -10.540   6.033  68.765  1.00  0.00    -0.282 C  
HETATM   19  C   UNL     1     -10.887   6.328  67.302  1.00  0.00    -0.457 C  
HETATM   20  C   UNL     1      -9.786   7.089  66.570  1.00  0.00    -0.175 C  
HETATM   21  C   UNL     1      -8.699   6.197  65.983  1.00  0.00    -0.157 C  
HETATM   22  C   UNL     1      -8.300   4.991  66.827  1.00  0.00    -0.107 C  
HETATM   23  C   UNL     1      -8.201   5.287  68.322  1.00  0.00    -0.094 C  
ENDBRANCH  15  17
ENDBRANCH  13  15
ENDBRANCH  11  13
ENDBRANCH   8  11
ENDBRANCH   5   8
TORSDOF 5
ENDMDL
MODEL      297
REMARK 921   NORMALIZED FREE ENERGY PREDICTED BY IDOCK:   -3.09 KCAL/MOL
REMARK 922        TOTAL FREE ENERGY PREDICTED BY IDOCK:   -4.53 KCAL/MOL
REMARK 923 INTER-LIGAND FREE ENERGY PREDICTED BY IDOCK:   -3.95 KCAL/MOL
REMARK 924 INTRA-LIGAND FREE ENERGY PREDICTED BY IDOCK:   -0.58 KCAL/MOL
REMARK 927      BINDING AFFINITY PREDICTED BY RF-SCORE:    0.00 PKD
ROOT
HETATM    1  C   UNL     1     -11.935   5.266  72.816  1.00  0.00    -0.062 C  
HETATM    2  C   UNL     1     -10.654   5.980  72.494  1.00  0.00    -0.249 A  
HETATM    3  C   UNL     1     -10.544   7.366  72.666  1.00  0.00    -0.322 A  
HETATM    4  C   UNL     1      -9.373   8.034  72.301  1.00  0.00    -0.259 A  
HETATM    5  C   UNL     1      -8.302   7.308  71.770  1.00  0.00    -0.104 A  
HETATM    6  C   UNL     1      -9.564   5.263  71.978  1.00  0.00    -0.189 A  
HETATM    7  C   UNL     1      -8.387   5.923  71.617  1.00  0.00    -0.127 A  
ENDROOT
BRANCH   5   8
HETATM    8  S   UNL     1      -6.848   8.182  71.247  1.00  0.00    -0.059 S  
HETATM    9  O   UNL     1      -6.800   9.477  71.890  1.00  0.00    -0.292 OA 
HETATM   10  O   UNL     1      -5.734   7.257  71.365  1.00  0.00    -0.035 OA 
BRANCH   8  11
HETATM   11  N   UNL     1      -7.067   8.399  69.613  1.00  0.00    -0.051 N  
HETATM   12  H   UNL     1      -7.013   7.587  68.998  1.00  0.00     0.000 HD 
BRANCH  11  13
HETATM   13  C   UNL     1      -7.320   9.643  69.057  1.00  0.00    -0.073 C  
HETATM   14  O   UNL     1      -6.633  10.098  68.153  1.00  0.00    -0.058 OA 
BRANCH  13  15
HETATM   15  N   UNL     1      -8.383  10.307  69.646  1.00  0.00    -0.302 N  
HETATM   16  H   UNL     1      -8.427  10.356  70.664  1.00  0.00     0.000 HD 
BRANCH  15  17
HETATM   17  N   UNL     1      -9.420  10.925  68.881  1.00  0.00    -0.189 NA 
HETATM   18  C   UNL     1     -10.667  10.999  69.665  1.00  0.00    -0.139 C  
HETATM   19  C   UNL     1     -11.879  11.665  69.005  1.00  0.00    -0.391 C  
HETATM   20  C   UNL     1     -11.711  13.170  68.830  1.00  0.00    -0.368 C  
HETATM   21  C   UNL     1     -10.978  13.569  67.555  1.00  0.00    -0.283 C  
HETATM   22  C   UNL     1      -9.823  12.663  67.141  1.00  0.00    -0.212 C  
HETATM   23  C   UNL     1      -8.953  12.197  68.305  1.00  0.00    -0.186 C  
ENDBRANCH  15  17
ENDBRANCH  13  15
ENDBRANCH  11  13
ENDBRANCH   8  11
ENDBRANCH   5   8
TORSDOF 5
ENDMDL
MODEL      298
REMARK 921   NORMALIZED FREE ENERGY PREDICTED BY IDOCK:   -3.00 KCAL/MOL
REMARK 922        TOTAL FREE ENERGY PREDICTED BY IDOCK:   -4.42 KCAL/MOL
REMARK 923 INTER-LIGAND FREE ENERGY PREDICTED BY IDOCK:   -4.35 KCAL/MOL
REMARK 924 INTRA-LIGAND FREE ENERGY PREDICTED BY IDOCK:   -0.07 KCAL/MOL
REMARK 927      BINDING AFFINITY PREDICTED BY RF-SCORE:    0.00 PKD
ROOT
HETATM    1  C   UNL     1      -8.282   2.872  73.196  1.00  0.00    -0.071 C  
HETATM    2  C   UNL     1      -8.861   4.169  72.710  1.00  0.00    -0.111 A  
HETATM    3  C   UNL     1      -9.196   5.186  73.614  1.00  0.00    -0.129 A  
HETATM    4  C   UNL     1      -9.797   6.364  73.164  1.00  0.00    -0.178 A  
HETATM    5  C   UNL     1     -10.053   6.528  71.799  1.00  0.00    -0.184 A  
HETATM    6  C   UNL     1      -9.107   4.358  71.342  1.00  0.00    -0.176 A  
HETATM    7  C   UNL     1      -9.701   5.536  70.883  1.00  0.00    -0.231 A  
ENDROOT
BRANCH   5   8
HETATM    8  S   UNL     1     -10.880   8.002  71.253  1.00  0.00    -0.237 S  
HETATM    9  O   UNL     1     -12.275   7.714  71.001  1.00  0.00    -0.301 OA 
HETATM   10  O   UNL     1     -10.498   9.064  72.167  1.00  0.00    -0.321 OA 
BRANCH   8  11
HETATM   11  N   UNL     1     -10.139   8.376  69.812  1.00  0.00    -0.193 N  
HETATM   12  H   UNL     1      -9.271   7.899  69.567  1.00  0.00     0.000 HD 
BRANCH  11  13
HETATM   13  C   UNL     1     -10.657   9.313  68.932  1.00  0.00    -0.199 C  
HETATM   14  O   UNL     1     -10.718  10.501  69.215  1.00  0.00    -0.204 OA 
BRANCH  13  15
HETATM   15  N   UNL     1     -11.117   8.763  67.747  1.00  0.00    -0.432 N  
HETATM   16  H   UNL     1     -11.944   9.166  67.306  1.00  0.00     0.000 HD 
BRANCH  15  17
HETATM   17  N   UNL     1     -10.476   7.651  67.118  1.00  0.00    -0.318 NA 
HETATM   18  C   UNL     1      -9.027   7.898  66.985  1.00  0.00    -0.128 C  
HETATM   19  C   UNL     1      -8.175   6.789  66.357  1.00  0.00    -0.117 C  
HETATM   20  C   UNL     1      -8.047   5.559  67.249  1.00  0.00    -0.101 C  
HETATM   21  C   UNL     1      -9.192   4.564  67.104  1.00  0.00    -0.148 C  
HETATM   22  C   UNL     1     -10.578   5.169  66.910  1.00  0.00    -0.234 C  
HETATM   23  C   UNL     1     -10.849   6.391  67.783  1.00  0.00    -0.334 C  
ENDBRANCH  15  17
ENDBRANCH  13  15
ENDBRANCH  11  13
ENDBRANCH   8  11
ENDBRANCH   5   8
TORSDOF 5
ENDMDL
MODEL      299
REMARK 921   NORMALIZED FREE ENERGY PREDICTED BY IDOCK:   -2.99 KCAL/MOL
REMARK 922        TOTAL FREE ENERGY PREDICTED BY IDOCK:   -4.40 KCAL/MOL
REMARK 923 INTER-LIGAND FREE ENERGY PREDICTED BY IDOCK:   -5.00 KCAL/MOL
REMARK 924 INTRA-LIGAND FREE ENERGY PREDICTED BY IDOCK:    0.60 KCAL/MOL
REMARK 927      BINDING AFFINITY PREDICTED BY RF-SCORE:    0.00 PKD
ROOT
HETATM    1  C   UNL     1     -11.315   6.599  69.749  1.00  0.00    -0.412 C  
HETATM    2  C   UNL     1     -10.423   7.779  69.492  1.00  0.00    -0.225 A  
HETATM    3  C   UNL     1     -10.597   8.975  70.201  1.00  0.00    -0.250 A  
HETATM    4  C   UNL     1      -9.810  10.091  69.910  1.00  0.00    -0.266 A  
HETATM    5  C   UNL     1      -8.836  10.006  68.911  1.00  0.00    -0.148 A  
HETATM    6  C   UNL     1      -9.428   7.704  68.506  1.00  0.00    -0.147 A  
HETATM    7  C   UNL     1      -8.633   8.814  68.214  1.00  0.00    -0.134 A  
ENDROOT
BRANCH   5   8
HETATM    8  S   UNL     1      -7.892  11.454  68.507  1.00  0.00    -0.144 S  
HETATM    9  O   UNL     1      -6.880  11.676  69.517  1.00  0.00    -0.111 OA 
HETATM   10  O   UNL     1      -7.524  11.342  67.106  1.00  0.00    -0.122 OA 
BRANCH   8  11
HETATM   11  N   UNL     1      -8.998  12.695  68.572  1.00  0.00    -0.365 N  
HETATM   12  H   UNL     1      -9.848  12.567  69.122  1.00  0.00     0.000 HD 
BRANCH  11  13
HETATM   13  C   UNL     1      -8.807  13.896  67.907  1.00  0.00    -0.184 C  
HETATM   14  O   UNL     1      -7.752  14.166  67.351  1.00  0.00    -0.180 OA 
BRANCH  13  15
HETATM   15  N   UNL     1      -9.901  14.743  67.970  1.00  0.00    -0.215 N  
HETATM   16  H   UNL     1     -10.834  14.350  67.849  1.00  0.00     0.000 HD 
BRANCH  15  17
HETATM   17  N   UNL     1      -9.770  16.148  68.199  1.00  0.00    -0.220 NA 
HETATM   18  C   UNL     1      -8.356  16.504  68.426  1.00  0.00    -0.200 C  
HETATM   19  C   UNL     1      -8.028  17.983  68.658  1.00  0.00    -0.303 C  
HETATM   20  C   UNL     1      -8.210  18.837  67.408  1.00  0.00    -0.278 C  
HETATM   21  C   UNL     1      -9.635  19.334  67.197  1.00  0.00    -0.397 C  
HETATM   22  C   UNL     1     -10.743  18.353  67.565  1.00  0.00    -0.399 C  
HETATM   23  C   UNL     1     -10.459  16.913  67.146  1.00  0.00    -0.296 C  
ENDBRANCH  15  17
ENDBRANCH  13  15
ENDBRANCH  11  13
ENDBRANCH   8  11
ENDBRANCH   5   8
TORSDOF 5
ENDMDL
MODEL      300
REMARK 921   NORMALIZED FREE ENERGY PREDICTED BY IDOCK:   -2.94 KCAL/MOL
REMARK 922        TOTAL FREE ENERGY PREDICTED BY IDOCK:   -4.33 KCAL/MOL
REMARK 923 INTER-LIGAND FREE ENERGY PREDICTED BY IDOCK:   -3.94 KCAL/MOL
REMARK 924 INTRA-LIGAND FREE ENERGY PREDICTED BY IDOCK:   -0.39 KCAL/MOL
REMARK 927      BINDING AFFINITY PREDICTED BY RF-SCORE:    0.00 PKD
ROOT
HETATM    1  C   UNL     1      -8.068   6.761  73.857  1.00  0.00    -0.127 C  
HETATM    2  C   UNL     1      -7.884   7.399  72.510  1.00  0.00    -0.108 A  
HETATM    3  C   UNL     1      -8.497   6.857  71.372  1.00  0.00    -0.119 A  
HETATM    4  C   UNL     1      -8.267   7.414  70.112  1.00  0.00    -0.133 A  
HETATM    5  C   UNL     1      -7.427   8.525  69.992  1.00  0.00    -0.060 A  
HETATM    6  C   UNL     1      -7.060   8.525  72.375  1.00  0.00    -0.079 A  
HETATM    7  C   UNL     1      -6.831   9.092  71.119  1.00  0.00    -0.092 A  
ENDROOT
BRANCH   5   8
HETATM    8  S   UNL     1      -7.091   9.176  68.375  1.00  0.00    -0.073 S  
HETATM    9  O   UNL     1      -6.095  10.223  68.467  1.00  0.00    -0.044 OA 
HETATM   10  O   UNL     1      -6.888   8.039  67.495  1.00  0.00    -0.067 OA 
BRANCH   8  11
HETATM   11  N   UNL     1      -8.536   9.849  67.897  1.00  0.00    -0.121 N  
HETATM   12  H   UNL     1      -9.381   9.620  68.420  1.00  0.00     0.000 HD 
BRANCH  11  13
HETATM   13  C   UNL     1      -8.632  10.709  66.814  1.00  0.00    -0.129 C  
HETATM   14  O   UNL     1      -8.012  10.515  65.778  1.00  0.00    -0.151 OA 
BRANCH  13  15
HETATM   15  N   UNL     1      -9.457  11.797  67.044  1.00  0.00    -0.182 N  
HETATM   16  H   UNL     1      -9.630  12.088  68.006  1.00  0.00     0.000 HD 
BRANCH  15  17
HETATM   17  N   UNL     1     -10.074  12.529  65.983  1.00  0.00    -0.249 NA 
HETATM   18  C   UNL     1     -11.386  11.944  65.648  1.00  0.00    -0.284 C  
HETATM   19  C   UNL     1     -12.204  12.626  64.546  1.00  0.00    -0.514 C  
HETATM   20  C   UNL     1     -12.740  13.992  64.961  1.00  0.00    -0.359 C  
HETATM   21  C   UNL     1     -11.757  15.137  64.742  1.00  0.00    -0.331 C  
HETATM   22  C   UNL     1     -10.293  14.821  65.029  1.00  0.00    -0.420 C  
HETATM   23  C   UNL     1     -10.077  13.971  66.278  1.00  0.00    -0.300 C  
ENDBRANCH  15  17
ENDBRANCH  13  15
ENDBRANCH  11  13
ENDBRANCH   8  11
ENDBRANCH   5   8
TORSDOF 5
ENDMDL
MODEL      301
REMARK 921   NORMALIZED FREE ENERGY PREDICTED BY IDOCK:   -2.90 KCAL/MOL
REMARK 922        TOTAL FREE ENERGY PREDICTED BY IDOCK:   -4.28 KCAL/MOL
REMARK 923 INTER-LIGAND FREE ENERGY PREDICTED BY IDOCK:   -3.16 KCAL/MOL
REMARK 924 INTRA-LIGAND FREE ENERGY PREDICTED BY IDOCK:   -1.12 KCAL/MOL
REMARK 927      BINDING AFFINITY PREDICTED BY RF-SCORE:    0.00 PKD
ROOT
HETATM    1  C   UNL     1     -10.465  11.130  68.907  1.00  0.00    -0.233 C  
HETATM    2  C   UNL     1     -10.101   9.805  68.302  1.00  0.00    -0.189 A  
HETATM    3  C   UNL     1      -9.786   9.702  66.941  1.00  0.00    -0.240 A  
HETATM    4  C   UNL     1      -9.515   8.457  66.370  1.00  0.00    -0.293 A  
HETATM    5  C   UNL     1      -9.550   7.309  67.168  1.00  0.00    -0.160 A  
HETATM    6  C   UNL     1     -10.113   8.647  69.094  1.00  0.00    -0.203 A  
HETATM    7  C   UNL     1      -9.837   7.399  68.531  1.00  0.00    -0.164 A  
ENDROOT
BRANCH   5   8
HETATM    8  S   UNL     1      -9.271   5.728  66.412  1.00  0.00    -0.152 S  
HETATM    9  O   UNL     1     -10.360   4.832  66.736  1.00  0.00    -0.231 OA 
HETATM   10  O   UNL     1      -8.910   5.980  65.028  1.00  0.00    -0.043 OA 
BRANCH   8  11
HETATM   11  N   UNL     1      -7.881   5.169  67.134  1.00  0.00    -0.096 N  
HETATM   12  H   UNL     1      -7.118   5.824  67.304  1.00  0.00     0.000 HD 
BRANCH  11  13
HETATM   13  C   UNL     1      -7.722   3.844  67.512  1.00  0.00    -0.075 C  
HETATM   14  O   UNL     1      -7.135   3.037  66.805  1.00  0.00    -0.052 OA 
BRANCH  13  15
HETATM   15  N   UNL     1      -8.315   3.541  68.726  1.00  0.00    -0.071 N  
HETATM   16  H   UNL     1      -8.573   2.573  68.918  1.00  0.00     0.000 HD 
BRANCH  15  17
HETATM   17  N   UNL     1      -8.578   4.534  69.719  1.00  0.00    -0.069 NA 
HETATM   18  C   UNL     1      -9.865   4.266  70.389  1.00  0.00    -0.198 C  
HETATM   19  C   UNL     1     -10.292   5.221  71.510  1.00  0.00    -0.287 C  
HETATM   20  C   UNL     1      -9.430   5.092  72.762  1.00  0.00    -0.159 C  
HETATM   21  C   UNL     1      -8.157   5.930  72.728  1.00  0.00    -0.104 C  
HETATM   22  C   UNL     1      -7.455   6.017  71.377  1.00  0.00    -0.093 C  
HETATM   23  C   UNL     1      -7.418   4.698  70.611  1.00  0.00    -0.053 C  
ENDBRANCH  15  17
ENDBRANCH  13  15
ENDBRANCH  11  13
ENDBRANCH   8  11
ENDBRANCH   5   8
TORSDOF 5
ENDMDL
MODEL      302
REMARK 921   NORMALIZED FREE ENERGY PREDICTED BY IDOCK:   -2.89 KCAL/MOL
REMARK 922        TOTAL FREE ENERGY PREDICTED BY IDOCK:   -4.27 KCAL/MOL
REMARK 923 INTER-LIGAND FREE ENERGY PREDICTED BY IDOCK:   -3.40 KCAL/MOL
REMARK 924 INTRA-LIGAND FREE ENERGY PREDICTED BY IDOCK:   -0.86 KCAL/MOL
REMARK 927      BINDING AFFINITY PREDICTED BY RF-SCORE:    0.00 PKD
ROOT
HETATM    1  C   UNL     1     -10.249  13.788  65.413  1.00  0.00    -0.344 C  
HETATM    2  C   UNL     1     -10.049  12.531  66.210  1.00  0.00    -0.264 A  
HETATM    3  C   UNL     1      -9.679  11.336  65.580  1.00  0.00    -0.267 A  
HETATM    4  C   UNL     1      -9.560  10.155  66.317  1.00  0.00    -0.245 A  
HETATM    5  C   UNL     1      -9.805  10.174  67.693  1.00  0.00    -0.172 A  
HETATM    6  C   UNL     1     -10.271  12.538  67.595  1.00  0.00    -0.220 A  
HETATM    7  C   UNL     1     -10.148  11.362  68.339  1.00  0.00    -0.207 A  
ENDROOT
BRANCH   5   8
HETATM    8  S   UNL     1      -9.718   8.651  68.601  1.00  0.00    -0.167 S  
HETATM    9  O   UNL     1      -8.355   8.413  69.027  1.00  0.00    -0.117 OA 
HETATM   10  O   UNL     1     -10.800   8.674  69.569  1.00  0.00    -0.215 OA 
BRANCH   8  11
HETATM   11  N   UNL     1     -10.145   7.488  67.492  1.00  0.00    -0.182 N  
HETATM   12  H   UNL     1     -10.084   7.711  66.498  1.00  0.00     0.000 HD 
BRANCH  11  13
HETATM   13  C   UNL     1     -10.583   6.228  67.868  1.00  0.00    -0.262 C  
HETATM   14  O   UNL     1     -11.392   5.599  67.201  1.00  0.00     0.236 OA 
BRANCH  13  15
HETATM   15  N   UNL     1     -10.043   5.791  69.066  1.00  0.00    -0.174 N  
HETATM   16  H   UNL     1      -9.885   6.470  69.810  1.00  0.00     0.000 HD 
BRANCH  15  17
HETATM   17  N   UNL     1      -9.701   4.422  69.298  1.00  0.00    -0.191 NA 
HETATM   18  C   UNL     1      -8.490   4.057  68.539  1.00  0.00    -0.091 C  
HETATM   19  C   UNL     1      -7.960   2.628  68.696  1.00  0.00    -0.062 C  
HETATM   20  C   UNL     1      -7.370   2.359  70.077  1.00  0.00    -0.043 C  
HETATM   21  C   UNL     1      -8.399   1.941  71.121  1.00  0.00    -0.069 C  
HETATM   22  C   UNL     1      -9.751   2.641  71.040  1.00  0.00    -0.157 C  
HETATM   23  C   UNL     1      -9.658   4.135  70.742  1.00  0.00    -0.190 C  
ENDBRANCH  15  17
ENDBRANCH  13  15
ENDBRANCH  11  13
ENDBRANCH   8  11
ENDBRANCH   5   8
TORSDOF 5
ENDMDL
MODEL      303
REMARK 921   NORMALIZED FREE ENERGY PREDICTED BY IDOCK:   -2.84 KCAL/MOL
REMARK 922        TOTAL FREE ENERGY PREDICTED BY IDOCK:   -4.21 KCAL/MOL
REMARK 923 INTER-LIGAND FREE ENERGY PREDICTED BY IDOCK:   -3.62 KCAL/MOL
REMARK 924 INTRA-LIGAND FREE ENERGY PREDICTED BY IDOCK:   -0.59 KCAL/MOL
REMARK 927      BINDING AFFINITY PREDICTED BY RF-SCORE:    0.00 PKD
ROOT
HETATM    1  C   UNL     1      -8.201   9.859  64.342  1.00  0.00    -0.164 C  
HETATM    2  C   UNL     1      -8.613   9.490  65.738  1.00  0.00    -0.152 A  
HETATM    3  C   UNL     1      -7.654   9.328  66.747  1.00  0.00    -0.090 A  
HETATM    4  C   UNL     1      -8.036   8.918  68.026  1.00  0.00    -0.106 A  
HETATM    5  C   UNL     1      -9.387   8.679  68.299  1.00  0.00    -0.137 A  
HETATM    6  C   UNL     1      -9.965   9.265  66.033  1.00  0.00    -0.325 A  
HETATM    7  C   UNL     1     -10.356   8.862  67.312  1.00  0.00    -0.350 A  
ENDROOT
BRANCH   5   8
HETATM    8  S   UNL     1      -9.846   8.092  69.911  1.00  0.00    -0.188 S  
HETATM    9  O   UNL     1      -9.308   8.975  70.923  1.00  0.00    -0.219 OA 
HETATM   10  O   UNL     1     -11.267   7.800  69.865  1.00  0.00    -0.190 OA 
BRANCH   8  11
HETATM   11  N   UNL     1      -9.097   6.612  70.035  1.00  0.00    -0.151 N  
HETATM   12  H   UNL     1      -9.206   5.941  69.275  1.00  0.00     0.000 HD 
BRANCH  11  13
HETATM   13  C   UNL     1      -8.331   6.258  71.135  1.00  0.00    -0.124 C  
HETATM   14  O   UNL     1      -7.109   6.250  71.095  1.00  0.00    -0.070 OA 
BRANCH  13  15
HETATM   15  N   UNL     1      -9.084   5.890  72.238  1.00  0.00    -0.142 N  
HETATM   16  H   UNL     1      -9.085   6.498  73.056  1.00  0.00     0.000 HD 
BRANCH  15  17
HETATM   17  N   UNL     1      -9.859   4.690  72.270  1.00  0.00    -0.161 NA 
HETATM   18  C   UNL     1      -9.065   3.548  71.777  1.00  0.00    -0.111 C  
HETATM   19  C   UNL     1      -9.734   2.170  71.772  1.00  0.00    -0.214 C  
HETATM   20  C   UNL     1      -9.961   1.613  73.174  1.00  0.00    -0.150 C  
HETATM   21  C   UNL     1     -11.256   2.081  73.827  1.00  0.00    -0.291 C  
HETATM   22  C   UNL     1     -11.651   3.529  73.556  1.00  0.00    -0.059 C  
HETATM   23  C   UNL     1     -10.481   4.508  73.593  1.00  0.00    -0.222 C  
ENDBRANCH  15  17
ENDBRANCH  13  15
ENDBRANCH  11  13
ENDBRANCH   8  11
ENDBRANCH   5   8
TORSDOF 5
ENDMDL
MODEL      304
REMARK 921   NORMALIZED FREE ENERGY PREDICTED BY IDOCK:   -2.83 KCAL/MOL
REMARK 922        TOTAL FREE ENERGY PREDICTED BY IDOCK:   -4.20 KCAL/MOL
REMARK 923 INTER-LIGAND FREE ENERGY PREDICTED BY IDOCK:   -4.35 KCAL/MOL
REMARK 924 INTRA-LIGAND FREE ENERGY PREDICTED BY IDOCK:    0.15 KCAL/MOL
REMARK 927      BINDING AFFINITY PREDICTED BY RF-SCORE:    0.00 PKD
ROOT
HETATM    1  C   UNL     1      -6.016   8.035  64.055  1.00  0.00    -0.058 C  
HETATM    2  C   UNL     1      -6.883   8.048  65.281  1.00  0.00    -0.058 A  
HETATM    3  C   UNL     1      -6.387   8.518  66.504  1.00  0.00    -0.058 A  
HETATM    4  C   UNL     1      -7.175   8.464  67.656  1.00  0.00    -0.088 A  
HETATM    5  C   UNL     1      -8.471   7.945  67.580  1.00  0.00    -0.127 A  
HETATM    6  C   UNL     1      -8.193   7.549  65.218  1.00  0.00    -0.130 A  
HETATM    7  C   UNL     1      -8.989   7.498  66.364  1.00  0.00    -0.196 A  
ENDROOT
BRANCH   5   8
HETATM    8  S   UNL     1      -9.433   7.820  69.067  1.00  0.00    -0.150 S  
HETATM    9  O   UNL     1     -10.662   7.106  68.795  1.00  0.00    -0.212 OA 
HETATM   10  O   UNL     1      -8.535   7.371  70.115  1.00  0.00    -0.134 OA 
BRANCH   8  11
HETATM   11  N   UNL     1      -9.801   9.397  69.450  1.00  0.00    -0.170 N  
HETATM   12  H   UNL     1      -9.682   9.709  70.414  1.00  0.00     0.000 HD 
BRANCH  11  13
HETATM   13  C   UNL     1     -10.262  10.302  68.507  1.00  0.00    -0.172 C  
HETATM   14  O   UNL     1     -10.978   9.958  67.577  1.00  0.00    -0.282 OA 
BRANCH  13  15
HETATM   15  N   UNL     1      -9.805  11.593  68.710  1.00  0.00    -0.361 N  
HETATM   16  H   UNL     1      -9.135  11.765  69.460  1.00  0.00     0.000 HD 
BRANCH  15  17
HETATM   17  N   UNL     1     -10.238  12.695  67.909  1.00  0.00    -0.215 NA 
HETATM   18  C   UNL     1      -9.478  12.745  66.646  1.00  0.00    -0.249 C  
HETATM   19  C   UNL     1      -9.836  13.851  65.647  1.00  0.00    -0.231 C  
HETATM   20  C   UNL     1     -11.204  13.652  65.002  1.00  0.00    -0.329 C  
HETATM   21  C   UNL     1     -12.363  14.210  65.819  1.00  0.00    -0.481 C  
HETATM   22  C   UNL     1     -12.250  14.047  67.331  1.00  0.00    -0.289 C  
HETATM   23  C   UNL     1     -11.704  12.691  67.769  1.00  0.00    -0.356 C  
ENDBRANCH  15  17
ENDBRANCH  13  15
ENDBRANCH  11  13
ENDBRANCH   8  11
ENDBRANCH   5   8
TORSDOF 5
ENDMDL
MODEL      305
REMARK 921   NORMALIZED FREE ENERGY PREDICTED BY IDOCK:   -2.82 KCAL/MOL
REMARK 922        TOTAL FREE ENERGY PREDICTED BY IDOCK:   -4.19 KCAL/MOL
REMARK 923 INTER-LIGAND FREE ENERGY PREDICTED BY IDOCK:   -4.27 KCAL/MOL
REMARK 924 INTRA-LIGAND FREE ENERGY PREDICTED BY IDOCK:    0.08 KCAL/MOL
REMARK 927      BINDING AFFINITY PREDICTED BY RF-SCORE:    0.00 PKD
ROOT
HETATM    1  C   UNL     1      -7.110   9.100  62.848  1.00  0.00    -0.091 C  
HETATM    2  C   UNL     1      -7.952   9.502  64.024  1.00  0.00    -0.141 A  
HETATM    3  C   UNL     1      -8.958  10.468  63.889  1.00  0.00    -0.232 A  
HETATM    4  C   UNL     1      -9.691  10.887  65.001  1.00  0.00    -0.319 A  
HETATM    5  C   UNL     1      -9.423  10.328  66.254  1.00  0.00    -0.177 A  
HETATM    6  C   UNL     1      -7.708   8.937  65.285  1.00  0.00    -0.100 A  
HETATM    7  C   UNL     1      -8.442   9.346  66.400  1.00  0.00    -0.131 A  
ENDROOT
BRANCH   5   8
HETATM    8  S   UNL     1     -10.317  10.922  67.668  1.00  0.00    -0.209 S  
HETATM    9  O   UNL     1      -9.594  12.018  68.278  1.00  0.00    -0.197 OA 
HETATM   10  O   UNL     1     -11.699  11.089  67.254  1.00  0.00    -0.504 OA 
BRANCH   8  11
HETATM   11  N   UNL     1     -10.325   9.632  68.718  1.00  0.00    -0.206 N  
HETATM   12  H   UNL     1     -11.099   8.969  68.675  1.00  0.00     0.000 HD 
BRANCH  11  13
HETATM   13  C   UNL     1      -9.319   9.426  69.649  1.00  0.00    -0.189 C  
HETATM   14  O   UNL     1      -8.137   9.540  69.358  1.00  0.00    -0.099 OA 
BRANCH  13  15
HETATM   15  N   UNL     1      -9.789   9.053  70.897  1.00  0.00    -0.240 N  
HETATM   16  H   UNL     1      -9.673   9.698  71.679  1.00  0.00     0.000 HD 
BRANCH  15  17
HETATM   17  N   UNL     1     -10.430   7.797  71.131  1.00  0.00    -0.208 NA 
HETATM   18  C   UNL     1      -9.500   6.684  70.861  1.00  0.00    -0.164 C  
HETATM   19  C   UNL     1     -10.016   5.259  71.092  1.00  0.00    -0.265 C  
HETATM   20  C   UNL     1     -10.230   4.935  72.566  1.00  0.00    -0.248 C  
HETATM   21  C   UNL     1     -11.591   5.362  73.105  1.00  0.00    -0.204 C  
HETATM   22  C   UNL     1     -12.131   6.685  72.573  1.00  0.00    -0.025 C  
HETATM   23  C   UNL     1     -11.076   7.781  72.454  1.00  0.00    -0.323 C  
ENDBRANCH  15  17
ENDBRANCH  13  15
ENDBRANCH  11  13
ENDBRANCH   8  11
ENDBRANCH   5   8
TORSDOF 5
ENDMDL
MODEL      306
REMARK 921   NORMALIZED FREE ENERGY PREDICTED BY IDOCK:   -2.59 KCAL/MOL
REMARK 922        TOTAL FREE ENERGY PREDICTED BY IDOCK:   -3.89 KCAL/MOL
REMARK 923 INTER-LIGAND FREE ENERGY PREDICTED BY IDOCK:   -4.05 KCAL/MOL
REMARK 924 INTRA-LIGAND FREE ENERGY PREDICTED BY IDOCK:    0.17 KCAL/MOL
REMARK 927      BINDING AFFINITY PREDICTED BY RF-SCORE:    0.00 PKD
ROOT
HETATM    1  C   UNL     1     -10.298   6.010  73.532  1.00  0.00    -0.255 C  
HETATM    2  C   UNL     1     -10.436   7.087  72.494  1.00  0.00    -0.243 A  
HETATM    3  C   UNL     1     -11.155   8.257  72.768  1.00  0.00    -0.319 A  
HETATM    4  C   UNL     1     -11.338   9.224  71.778  1.00  0.00    -0.437 A  
HETATM    5  C   UNL     1     -10.788   9.023  70.508  1.00  0.00    -0.251 A  
HETATM    6  C   UNL     1      -9.874   6.908  71.221  1.00  0.00    -0.182 A  
HETATM    7  C   UNL     1     -10.047   7.874  70.227  1.00  0.00    -0.196 A  
ENDROOT
BRANCH   5   8
HETATM    8  S   UNL     1     -11.088  10.230  69.241  1.00  0.00    -0.239 S  
HETATM    9  O   UNL     1     -11.156   9.578  67.951  1.00  0.00    -0.179 OA 
HETATM   10  O   UNL     1     -12.182  11.065  69.704  1.00  0.00    -0.330 OA 
BRANCH   8  11
HETATM   11  N   UNL     1      -9.743  11.207  69.281  1.00  0.00    -0.424 N  
HETATM   12  H   UNL     1      -9.869  12.211  69.406  1.00  0.00     0.000 HD 
BRANCH  11  13
HETATM   13  C   UNL     1      -8.457  10.706  69.148  1.00  0.00    -0.128 C  
HETATM   14  O   UNL     1      -7.849  10.229  70.096  1.00  0.00    -0.137 OA 
BRANCH  13  15
HETATM   15  N   UNL     1      -7.942  10.836  67.869  1.00  0.00    -0.109 N  
HETATM   16  H   UNL     1      -7.975  11.749  67.417  1.00  0.00     0.000 HD 
BRANCH  15  17
HETATM   17  N   UNL     1      -7.366   9.736  67.160  1.00  0.00    -0.087 NA 
HETATM   18  C   UNL     1      -7.179   8.582  68.060  1.00  0.00    -0.087 C  
HETATM   19  C   UNL     1      -6.598   7.300  67.454  1.00  0.00    -0.063 C  
HETATM   20  C   UNL     1      -7.561   6.603  66.499  1.00  0.00    -0.090 C  
HETATM   21  C   UNL     1      -7.509   7.131  65.070  1.00  0.00    -0.093 C  
HETATM   22  C   UNL     1      -7.315   8.637  64.924  1.00  0.00    -0.090 C  
HETATM   23  C   UNL     1      -8.118   9.464  65.924  1.00  0.00    -0.114 C  
ENDBRANCH  15  17
ENDBRANCH  13  15
ENDBRANCH  11  13
ENDBRANCH   8  11
ENDBRANCH   5   8
TORSDOF 5
ENDMDL
MODEL      307
REMARK 921   NORMALIZED FREE ENERGY PREDICTED BY IDOCK:   -2.33 KCAL/MOL
REMARK 922        TOTAL FREE ENERGY PREDICTED BY IDOCK:   -3.54 KCAL/MOL
REMARK 923 INTER-LIGAND FREE ENERGY PREDICTED BY IDOCK:   -3.05 KCAL/MOL
REMARK 924 INTRA-LIGAND FREE ENERGY PREDICTED BY IDOCK:   -0.49 KCAL/MOL
REMARK 927      BINDING AFFINITY PREDICTED BY RF-SCORE:    0.00 PKD
ROOT
HETATM    1  C   UNL     1      -6.693   2.363  70.786  1.00  0.00    -0.032 C  
HETATM    2  C   UNL     1      -7.722   3.456  70.755  1.00  0.00    -0.040 A  
HETATM    3  C   UNL     1      -8.929   3.322  71.454  1.00  0.00    -0.154 A  
HETATM    4  C   UNL     1      -9.910   4.312  71.367  1.00  0.00    -0.260 A  
HETATM    5  C   UNL     1      -9.678   5.446  70.583  1.00  0.00    -0.181 A  
HETATM    6  C   UNL     1      -7.496   4.608  69.988  1.00  0.00    -0.054 A  
HETATM    7  C   UNL     1      -8.471   5.606  69.902  1.00  0.00    -0.121 A  
ENDROOT
BRANCH   5   8
HETATM    8  S   UNL     1     -10.964   6.660  70.429  1.00  0.00    -0.315 S  
HETATM    9  O   UNL     1     -11.679   6.459  69.187  1.00  0.00    -0.217 OA 
HETATM   10  O   UNL     1     -11.676   6.685  71.694  1.00  0.00    -0.284 OA 
BRANCH   8  11
HETATM   11  N   UNL     1     -10.151   8.109  70.353  1.00  0.00    -0.192 N  
HETATM   12  H   UNL     1      -9.143   8.116  70.506  1.00  0.00     0.000 HD 
BRANCH  11  13
HETATM   13  C   UNL     1     -10.794   9.309  70.090  1.00  0.00    -0.242 C  
HETATM   14  O   UNL     1     -11.832   9.623  70.656  1.00  0.00    -0.270 OA 
BRANCH  13  15
HETATM   15  N   UNL     1     -10.168  10.070  69.118  1.00  0.00    -0.196 N  
HETATM   16  H   UNL     1     -10.736  10.679  68.529  1.00  0.00     0.000 HD 
BRANCH  15  17
HETATM   17  N   UNL     1      -8.754  10.036  68.911  1.00  0.00    -0.138 NA 
HETATM   18  C   UNL     1      -8.442   9.516  67.565  1.00  0.00    -0.126 C  
HETATM   19  C   UNL     1      -6.965   9.440  67.161  1.00  0.00    -0.085 C  
HETATM   20  C   UNL     1      -6.333  10.812  66.954  1.00  0.00    -0.084 C  
HETATM   21  C   UNL     1      -5.802  11.451  68.232  1.00  0.00    -0.045 C  
HETATM   22  C   UNL     1      -6.642  11.229  69.485  1.00  0.00    -0.129 C  
HETATM   23  C   UNL     1      -8.147  11.334  69.249  1.00  0.00     0.114 C  
ENDBRANCH  15  17
ENDBRANCH  13  15
ENDBRANCH  11  13
ENDBRANCH   8  11
ENDBRANCH   5   8
TORSDOF 5
ENDMDL
MODEL      308
REMARK 921   NORMALIZED FREE ENERGY PREDICTED BY IDOCK:   -2.15 KCAL/MOL
REMARK 922        TOTAL FREE ENERGY PREDICTED BY IDOCK:   -3.32 KCAL/MOL
REMARK 923 INTER-LIGAND FREE ENERGY PREDICTED BY IDOCK:   -2.66 KCAL/MOL
REMARK 924 INTRA-LIGAND FREE ENERGY PREDICTED BY IDOCK:   -0.66 KCAL/MOL
REMARK 927      BINDING AFFINITY PREDICTED BY RF-SCORE:    0.00 PKD
ROOT
HETATM    1  C   UNL     1     -10.425   9.267  68.601  1.00  0.00    -0.236 C  
HETATM    2  C   UNL     1      -9.595   8.860  67.418  1.00  0.00    -0.201 A  
HETATM    3  C   UNL     1      -8.440   8.084  67.586  1.00  0.00    -0.131 A  
HETATM    4  C   UNL     1      -7.635   7.766  66.491  1.00  0.00    -0.096 A  
HETATM    5  C   UNL     1      -7.993   8.220  65.217  1.00  0.00    -0.128 A  
HETATM    6  C   UNL     1      -9.951   9.291  66.132  1.00  0.00    -0.348 A  
HETATM    7  C   UNL     1      -9.154   8.971  65.030  1.00  0.00    -0.171 A  
ENDROOT
BRANCH   5   8
HETATM    8  S   UNL     1      -6.922   7.865  63.847  1.00  0.00    -0.066 S  
HETATM    9  O   UNL     1      -7.563   8.258  62.611  1.00  0.00    -0.106 OA 
HETATM   10  O   UNL     1      -5.608   8.379  64.194  1.00  0.00    -0.061 OA 
BRANCH   8  11
HETATM   11  N   UNL     1      -6.765   6.209  63.869  1.00  0.00    -0.036 N  
HETATM   12  H   UNL     1      -5.865   5.804  64.126  1.00  0.00     0.000 HD 
BRANCH  11  13
HETATM   13  C   UNL     1      -7.813   5.360  63.551  1.00  0.00    -0.094 C  
HETATM   14  O   UNL     1      -8.677   5.674  62.744  1.00  0.00    -0.043 OA 
BRANCH  13  15
HETATM   15  N   UNL     1      -7.792   4.167  64.255  1.00  0.00    -0.084 N  
HETATM   16  H   UNL     1      -7.674   3.295  63.740  1.00  0.00     0.000 HD 
BRANCH  15  17
HETATM   17  N   UNL     1      -7.929   4.114  65.676  1.00  0.00    -0.097 NA 
HETATM   18  C   UNL     1      -9.338   4.308  66.067  1.00  0.00    -0.163 C  
HETATM   19  C   UNL     1      -9.673   4.249  67.562  1.00  0.00    -0.198 C  
HETATM   20  C   UNL     1      -9.535   2.848  68.148  1.00  0.00    -0.220 C  
HETATM   21  C   UNL     1      -8.121   2.498  68.597  1.00  0.00    -0.066 C  
HETATM   22  C   UNL     1      -6.994   3.021  67.712  1.00  0.00    -0.049 C  
HETATM   23  C   UNL     1      -7.278   2.909  66.217  1.00  0.00    -0.066 C  
ENDBRANCH  15  17
ENDBRANCH  13  15
ENDBRANCH  11  13
ENDBRANCH   8  11
ENDBRANCH   5   8
TORSDOF 5
ENDMDL
MODEL      309
REMARK 921   NORMALIZED FREE ENERGY PREDICTED BY IDOCK:   -2.11 KCAL/MOL
REMARK 922        TOTAL FREE ENERGY PREDICTED BY IDOCK:   -3.26 KCAL/MOL
REMARK 923 INTER-LIGAND FREE ENERGY PREDICTED BY IDOCK:   -3.22 KCAL/MOL
REMARK 924 INTRA-LIGAND FREE ENERGY PREDICTED BY IDOCK:   -0.04 KCAL/MOL
REMARK 927      BINDING AFFINITY PREDICTED BY RF-SCORE:    0.00 PKD
ROOT
HETATM    1  C   UNL     1      -8.032   2.712  71.795  1.00  0.00    -0.053 C  
HETATM    2  C   UNL     1      -8.510   3.700  70.769  1.00  0.00    -0.101 A  
HETATM    3  C   UNL     1      -9.743   4.349  70.921  1.00  0.00    -0.267 A  
HETATM    4  C   UNL     1     -10.213   5.215  69.932  1.00  0.00    -0.361 A  
HETATM    5  C   UNL     1      -9.441   5.439  68.788  1.00  0.00    -0.130 A  
HETATM    6  C   UNL     1      -7.739   3.950  69.625  1.00  0.00    -0.052 A  
HETATM    7  C   UNL     1      -8.200   4.820  68.634  1.00  0.00    -0.083 A  
ENDROOT
BRANCH   5   8
HETATM    8  S   UNL     1     -10.086   6.487  67.509  1.00  0.00    -0.176 S  
HETATM    9  O   UNL     1      -9.453   6.166  66.248  1.00  0.00    -0.159 OA 
HETATM   10  O   UNL     1     -11.533   6.466  67.635  1.00  0.00    -0.142 OA 
BRANCH   8  11
HETATM   11  N   UNL     1      -9.628   8.019  67.967  1.00  0.00    -0.149 N  
HETATM   12  H   UNL     1      -8.661   8.308  67.820  1.00  0.00     0.000 HD 
BRANCH  11  13
HETATM   13  C   UNL     1     -10.513   8.919  68.540  1.00  0.00    -0.182 C  
HETATM   14  O   UNL     1     -10.792   8.881  69.731  1.00  0.00    -0.235 OA 
BRANCH  13  15
HETATM   15  N   UNL     1     -11.057   9.814  67.634  1.00  0.00    -0.455 N  
HETATM   16  H   UNL     1     -12.051  10.034  67.697  1.00  0.00     0.000 HD 
BRANCH  15  17
HETATM   17  N   UNL     1     -10.277  10.441  66.614  1.00  0.00    -0.227 NA 
HETATM   18  C   UNL     1      -8.904  10.690  67.094  1.00  0.00    -0.137 C  
HETATM   19  C   UNL     1      -7.917  11.332  66.112  1.00  0.00    -0.038 C  
HETATM   20  C   UNL     1      -7.521  10.400  64.972  1.00  0.00    -0.079 C  
HETATM   21  C   UNL     1      -8.485  10.418  63.791  1.00  0.00    -0.162 C  
HETATM   22  C   UNL     1      -9.964  10.536  64.143  1.00  0.00    -0.385 C  
HETATM   23  C   UNL     1     -10.383   9.697  65.348  1.00  0.00     0.358 C  
ENDBRANCH  15  17
ENDBRANCH  13  15
ENDBRANCH  11  13
ENDBRANCH   8  11
ENDBRANCH   5   8
TORSDOF 5
ENDMDL
MODEL      310
REMARK 921   NORMALIZED FREE ENERGY PREDICTED BY IDOCK:   -1.91 KCAL/MOL
REMARK 922        TOTAL FREE ENERGY PREDICTED BY IDOCK:   -3.00 KCAL/MOL
REMARK 923 INTER-LIGAND FREE ENERGY PREDICTED BY IDOCK:   -2.99 KCAL/MOL
REMARK 924 INTRA-LIGAND FREE ENERGY PREDICTED BY IDOCK:   -0.01 KCAL/MOL
REMARK 927      BINDING AFFINITY PREDICTED BY RF-SCORE:    0.00 PKD
ROOT
HETATM    1  C   UNL     1      -5.766  14.614  67.939  1.00  0.00    -0.129 C  
HETATM    2  C   UNL     1      -6.779  13.523  68.133  1.00  0.00    -0.120 A  
HETATM    3  C   UNL     1      -7.903  13.434  67.301  1.00  0.00    -0.107 A  
HETATM    4  C   UNL     1      -8.876  12.458  67.529  1.00  0.00    -0.181 A  
HETATM    5  C   UNL     1      -8.718  11.560  68.589  1.00  0.00    -0.103 A  
HETATM    6  C   UNL     1      -6.625  12.603  69.180  1.00  0.00    -0.099 A  
HETATM    7  C   UNL     1      -7.591  11.620  69.410  1.00  0.00     0.213 A  
ENDROOT
BRANCH   5   8
HETATM    8  S   UNL     1      -9.998  10.372  68.906  1.00  0.00    -0.209 S  
HETATM    9  O   UNL     1     -10.698  10.721  70.123  1.00  0.00    -0.188 OA 
HETATM   10  O   UNL     1     -10.725  10.192  67.662  1.00  0.00    -0.246 OA 
BRANCH   8  11
HETATM   11  N   UNL     1      -9.179   8.944  69.147  1.00  0.00    -0.144 N  
HETATM   12  H   UNL     1      -8.160   8.959  69.163  1.00  0.00     0.000 HD 
BRANCH  11  13
HETATM   13  C   UNL     1      -9.833   7.735  69.325  1.00  0.00    -0.173 C  
HETATM   14  O   UNL     1     -11.035   7.615  69.132  1.00  0.00    -0.125 OA 
BRANCH  13  15
HETATM   15  N   UNL     1      -9.003   6.718  69.767  1.00  0.00    -0.144 N  
HETATM   16  H   UNL     1      -8.538   6.128  69.077  1.00  0.00     0.000 HD 
BRANCH  15  17
HETATM   17  N   UNL     1      -8.775   6.464  71.155  1.00  0.00    -0.134 NA 
HETATM   18  C   UNL     1      -8.632   7.732  71.895  1.00  0.00    -0.114 C  
HETATM   19  C   UNL     1      -8.412   7.646  73.410  1.00  0.00    -0.220 C  
HETATM   20  C   UNL     1      -9.644   7.159  74.164  1.00  0.00    -0.272 C  
HETATM   21  C   UNL     1      -9.766   5.641  74.240  1.00  0.00    -0.189 C  
HETATM   22  C   UNL     1      -9.337   4.876  72.992  1.00  0.00    -0.142 C  
HETATM   23  C   UNL     1      -9.780   5.527  71.684  1.00  0.00    -0.161 C  
ENDBRANCH  15  17
ENDBRANCH  13  15
ENDBRANCH  11  13
ENDBRANCH   8  11
ENDBRANCH   5   8
TORSDOF 5
ENDMDL
MODEL      311
REMARK 921   NORMALIZED FREE ENERGY PREDICTED BY IDOCK:   -1.88 KCAL/MOL
REMARK 922        TOTAL FREE ENERGY PREDICTED BY IDOCK:   -2.97 KCAL/MOL
REMARK 923 INTER-LIGAND FREE ENERGY PREDICTED BY IDOCK:   -2.81 KCAL/MOL
REMARK 924 INTRA-LIGAND FREE ENERGY PREDICTED BY IDOCK:   -0.15 KCAL/MOL
REMARK 927      BINDING AFFINITY PREDICTED BY RF-SCORE:    0.00 PKD
ROOT
HETATM    1  C   UNL     1      -6.585  14.303  67.661  1.00  0.00    -0.172 C  
HETATM    2  C   UNL     1      -7.455  13.093  67.837  1.00  0.00    -0.136 A  
HETATM    3  C   UNL     1      -8.570  12.887  67.014  1.00  0.00    -0.171 A  
HETATM    4  C   UNL     1      -9.415  11.796  67.226  1.00  0.00    -0.173 A  
HETATM    5  C   UNL     1      -9.137  10.900  68.263  1.00  0.00    -0.158 A  
HETATM    6  C   UNL     1      -7.179  12.174  68.861  1.00  0.00    -0.079 A  
HETATM    7  C   UNL     1      -8.016  11.076  69.075  1.00  0.00    -0.114 A  
ENDROOT
BRANCH   5   8
HETATM    8  S   UNL     1     -10.259   9.557  68.562  1.00  0.00    -0.207 S  
HETATM    9  O   UNL     1     -10.790   9.654  69.905  1.00  0.00    -0.231 OA 
HETATM   10  O   UNL     1     -11.152   9.491  67.418  1.00  0.00    -0.148 OA 
BRANCH   8  11
HETATM   11  N   UNL     1      -9.308   8.197  68.455  1.00  0.00    -0.139 N  
HETATM   12  H   UNL     1      -8.302   8.310  68.332  1.00  0.00     0.000 HD 
BRANCH  11  13
HETATM   13  C   UNL     1      -9.833   6.916  68.528  1.00  0.00    -0.144 C  
HETATM   14  O   UNL     1     -11.032   6.716  68.664  1.00  0.00    -0.260 OA 
BRANCH  13  15
HETATM   15  N   UNL     1      -8.872   5.921  68.469  1.00  0.00    -0.112 N  
HETATM   16  H   UNL     1      -8.445   5.598  69.337  1.00  0.00     0.000 HD 
BRANCH  15  17
HETATM   17  N   UNL     1      -8.458   5.329  67.236  1.00  0.00    -0.107 NA 
HETATM   18  C   UNL     1      -9.616   5.130  66.343  1.00  0.00    -0.161 C  
HETATM   19  C   UNL     1      -9.347   4.530  64.959  1.00  0.00    -0.157 C  
HETATM   20  C   UNL     1      -8.594   5.481  64.034  1.00  0.00     0.024 C  
HETATM   21  C   UNL     1      -7.079   5.431  64.192  1.00  0.00    -0.049 C  
HETATM   22  C   UNL     1      -6.564   5.255  65.617  1.00  0.00    -0.044 C  
HETATM   23  C   UNL     1      -7.327   6.073  66.656  1.00  0.00    -0.078 C  
ENDBRANCH  15  17
ENDBRANCH  13  15
ENDBRANCH  11  13
ENDBRANCH   8  11
ENDBRANCH   5   8
TORSDOF 5
ENDMDL
MODEL      312
REMARK 921   NORMALIZED FREE ENERGY PREDICTED BY IDOCK:   -1.85 KCAL/MOL
REMARK 922        TOTAL FREE ENERGY PREDICTED BY IDOCK:   -2.93 KCAL/MOL
REMARK 923 INTER-LIGAND FREE ENERGY PREDICTED BY IDOCK:   -2.76 KCAL/MOL
REMARK 924 INTRA-LIGAND FREE ENERGY PREDICTED BY IDOCK:   -0.17 KCAL/MOL
REMARK 927      BINDING AFFINITY PREDICTED BY RF-SCORE:    0.00 PKD
ROOT
HETATM    1  C   UNL     1     -10.307  15.754  70.950  1.00  0.00     0.476 C  
HETATM    2  C   UNL     1     -10.897  15.162  69.703  1.00  0.00    -0.297 A  
HETATM    3  C   UNL     1     -10.400  13.962  69.176  1.00  0.00    -0.024 A  
HETATM    4  C   UNL     1     -10.907  13.451  67.980  1.00  0.00    -0.264 A  
HETATM    5  C   UNL     1     -11.924  14.140  67.312  1.00  0.00    -0.414 A  
HETATM    6  C   UNL     1     -11.931  15.831  69.032  1.00  0.00    -0.294 A  
HETATM    7  C   UNL     1     -12.447  15.322  67.838  1.00  0.00     0.796 A  
ENDROOT
BRANCH   5   8
HETATM    8  S   UNL     1     -12.507  13.513  65.757  1.00  0.00    -0.438 S  
HETATM    9  O   UNL     1     -12.475  12.066  65.771  1.00  0.00    -0.366 OA 
HETATM   10  O   UNL     1     -13.738  14.221  65.451  1.00  0.00    -0.311 OA 
BRANCH   8  11
HETATM   11  N   UNL     1     -11.396  14.065  64.650  1.00  0.00    -0.368 N  
HETATM   12  H   UNL     1     -11.683  14.777  63.978  1.00  0.00     0.000 HD 
BRANCH  11  13
HETATM   13  C   UNL     1     -10.093  13.594  64.608  1.00  0.00    -0.197 C  
HETATM   14  O   UNL     1      -9.196  14.113  65.258  1.00  0.00     0.406 OA 
BRANCH  13  15
HETATM   15  N   UNL     1      -9.920  12.524  63.745  1.00  0.00    -0.574 N  
HETATM   16  H   UNL     1     -10.425  12.521  62.859  1.00  0.00     0.000 HD 
BRANCH  15  17
HETATM   17  N   UNL     1      -9.059  11.425  64.051  1.00  0.00     0.017 NA 
HETATM   18  C   UNL     1      -8.865  11.311  65.509  1.00  0.00    -0.088 C  
HETATM   19  C   UNL     1      -7.990  10.161  66.019  1.00  0.00    -0.124 C  
HETATM   20  C   UNL     1      -8.639   8.793  65.837  1.00  0.00    -0.174 C  
HETATM   21  C   UNL     1      -8.406   8.172  64.464  1.00  0.00    -0.067 C  
HETATM   22  C   UNL     1      -8.424   9.140  63.286  1.00  0.00    -0.197 C  
HETATM   23  C   UNL     1      -9.517  10.201  63.373  1.00  0.00    -0.261 C  
ENDBRANCH  15  17
ENDBRANCH  13  15
ENDBRANCH  11  13
ENDBRANCH   8  11
ENDBRANCH   5   8
TORSDOF 5
ENDMDL
MODEL      313
REMARK 921   NORMALIZED FREE ENERGY PREDICTED BY IDOCK:   -1.14 KCAL/MOL
REMARK 922        TOTAL FREE ENERGY PREDICTED BY IDOCK:   -2.01 KCAL/MOL
REMARK 923 INTER-LIGAND FREE ENERGY PREDICTED BY IDOCK:   -2.51 KCAL/MOL
REMARK 924 INTRA-LIGAND FREE ENERGY PREDICTED BY IDOCK:    0.50 KCAL/MOL
REMARK 927      BINDING AFFINITY PREDICTED BY RF-SCORE:    0.00 PKD
ROOT
HETATM    1  C   UNL     1     -10.109  15.375  70.695  1.00  0.00     0.365 C  
HETATM    2  C   UNL     1     -10.746  14.774  69.475  1.00  0.00    -0.229 A  
HETATM    3  C   UNL     1     -10.173  13.663  68.842  1.00  0.00    -0.088 A  
HETATM    4  C   UNL     1     -10.732  13.150  67.670  1.00  0.00    -0.250 A  
HETATM    5  C   UNL     1     -11.878  13.747  67.134  1.00  0.00    -0.406 A  
HETATM    6  C   UNL     1     -11.906  15.350  68.936  1.00  0.00    -0.350 A  
HETATM    7  C   UNL     1     -12.475  14.838  67.767  1.00  0.00     0.417 A  
ENDROOT
BRANCH   5   8
HETATM    8  S   UNL     1     -12.534  13.126  65.606  1.00  0.00    -0.345 S  
HETATM    9  O   UNL     1     -12.359  11.690  65.547  1.00  0.00    -0.026 OA 
HETATM   10  O   UNL     1     -13.850  13.716  65.440  1.00  0.00     0.107 OA 
BRANCH   8  11
HETATM   11  N   UNL     1     -11.586  13.832  64.436  1.00  0.00    -0.422 N  
HETATM   12  H   UNL     1     -11.971  14.602  63.889  1.00  0.00     0.000 HD 
BRANCH  11  13
HETATM   13  C   UNL     1     -10.290  13.412  64.178  1.00  0.00    -0.080 C  
HETATM   14  O   UNL     1     -10.045  12.542  63.354  1.00  0.00    -0.396 OA 
BRANCH  13  15
HETATM   15  N   UNL     1      -9.338  14.045  64.960  1.00  0.00     0.097 N  
HETATM   16  H   UNL     1      -8.656  13.475  65.461  1.00  0.00     0.000 HD 
BRANCH  15  17
HETATM   17  N   UNL     1      -9.275  15.467  65.090  1.00  0.00     0.348 NA 
HETATM   18  C   UNL     1     -10.619  16.059  64.945  1.00  0.00    -0.214 C  
HETATM   19  C   UNL     1     -10.742  17.580  65.089  1.00  0.00     0.215 C  
HETATM   20  C   UNL     1     -10.507  18.064  66.516  1.00  0.00    -0.341 C  
HETATM   21  C   UNL     1      -9.040  18.293  66.861  1.00  0.00    -0.282 C  
HETATM   22  C   UNL     1      -8.054  17.291  66.270  1.00  0.00    -0.315 C  
HETATM   23  C   UNL     1      -8.541  15.845  66.309  1.00  0.00    -0.313 C  
ENDBRANCH  15  17
ENDBRANCH  13  15
ENDBRANCH  11  13
ENDBRANCH   8  11
ENDBRANCH   5   8
TORSDOF 5
ENDMDL
MODEL      314
REMARK 921   NORMALIZED FREE ENERGY PREDICTED BY IDOCK:    2.03 KCAL/MOL
REMARK 922        TOTAL FREE ENERGY PREDICTED BY IDOCK:    2.09 KCAL/MOL
REMARK 923 INTER-LIGAND FREE ENERGY PREDICTED BY IDOCK:    2.40 KCAL/MOL
REMARK 924 INTRA-LIGAND FREE ENERGY PREDICTED BY IDOCK:   -0.31 KCAL/MOL
REMARK 927      BINDING AFFINITY PREDICTED BY RF-SCORE:    0.00 PKD
ROOT
HETATM    1  C   UNL     1     -12.792  10.493  68.330  1.00  0.00     3.418 C  
HETATM    2  C   UNL     1     -11.651  10.196  67.401  1.00  0.00     0.806 A  
HETATM    3  C   UNL     1     -10.645   9.291  67.768  1.00  0.00    -0.307 A  
HETATM    4  C   UNL     1      -9.551   9.071  66.929  1.00  0.00    -0.242 A  
HETATM    5  C   UNL     1      -9.468   9.753  65.711  1.00  0.00    -0.240 A  
HETATM    6  C   UNL     1     -11.562  10.858  66.167  1.00  0.00     0.777 A  
HETATM    7  C   UNL     1     -10.474  10.637  65.320  1.00  0.00    -0.264 A  
ENDROOT
BRANCH   5   8
HETATM    8  S   UNL     1      -8.036   9.512  64.689  1.00  0.00    -0.147 S  
HETATM    9  O   UNL     1      -7.308   8.344  65.135  1.00  0.00    -0.078 OA 
HETATM   10  O   UNL     1      -8.477   9.625  63.310  1.00  0.00    -0.160 OA 
BRANCH   8  11
HETATM   11  N   UNL     1      -7.106  10.863  64.964  1.00  0.00    -0.341 N  
HETATM   12  H   UNL     1      -7.382  11.746  64.534  1.00  0.00     0.000 HD 
BRANCH  11  13
HETATM   13  C   UNL     1      -5.969  10.833  65.757  1.00  0.00    -0.126 C  
HETATM   14  O   UNL     1      -5.131  11.723  65.719  1.00  0.00    -0.218 OA 
BRANCH  13  15
HETATM   15  N   UNL     1      -5.875   9.699  66.545  1.00  0.00    -0.054 N  
HETATM   16  H   UNL     1      -5.619   8.815  66.106  1.00  0.00     0.000 HD 
BRANCH  15  17
HETATM   17  N   UNL     1      -6.123   9.721  67.953  1.00  0.00    -0.051 NA 
HETATM   18  C   UNL     1      -7.084  10.788  68.291  1.00  0.00    -0.078 C  
HETATM   19  C   UNL     1      -7.489  10.935  69.762  1.00  0.00     0.042 C  
HETATM   20  C   UNL     1      -8.351   9.780  70.261  1.00  0.00    -0.172 C  
HETATM   21  C   UNL     1      -7.554   8.576  70.749  1.00  0.00    -0.074 C  
HETATM   22  C   UNL     1      -6.296   8.244  69.953  1.00  0.00    -0.032 C  
HETATM   23  C   UNL     1      -6.467   8.375  68.442  1.00  0.00    -0.059 C  
ENDBRANCH  15  17
ENDBRANCH  13  15
ENDBRANCH  11  13
ENDBRANCH   8  11
ENDBRANCH   5   8
TORSDOF 5
ENDMDL
MODEL      315
REMARK 921   NORMALIZED FREE ENERGY PREDICTED BY IDOCK:    6.06 KCAL/MOL
REMARK 922        TOTAL FREE ENERGY PREDICTED BY IDOCK:    7.29 KCAL/MOL
REMARK 923 INTER-LIGAND FREE ENERGY PREDICTED BY IDOCK:    5.18 KCAL/MOL
REMARK 924 INTRA-LIGAND FREE ENERGY PREDICTED BY IDOCK:    2.11 KCAL/MOL
REMARK 927      BINDING AFFINITY PREDICTED BY RF-SCORE:    0.00 PKD
ROOT
HETATM    1  C   UNL     1     -12.197  12.546  70.105  1.00  0.00    -0.307 C  
HETATM    2  C   UNL     1     -12.022  13.232  68.780  1.00  0.00    -0.335 A  
HETATM    3  C   UNL     1     -12.331  12.569  67.585  1.00  0.00     0.438 A  
HETATM    4  C   UNL     1     -12.102  13.187  66.354  1.00  0.00    -0.447 A  
HETATM    5  C   UNL     1     -11.570  14.480  66.319  1.00  0.00    -0.360 A  
HETATM    6  C   UNL     1     -11.507  14.535  68.730  1.00  0.00    -0.322 A  
HETATM    7  C   UNL     1     -11.282  15.162  67.502  1.00  0.00    -0.331 A  
ENDROOT
BRANCH   5   8
HETATM    8  S   UNL     1     -11.221  15.223  64.745  1.00  0.00    -0.349 S  
HETATM    9  O   UNL     1     -11.369  14.237  63.696  1.00  0.00     0.344 OA 
HETATM   10  O   UNL     1     -11.961  16.471  64.694  1.00  0.00    -0.014 OA 
BRANCH   8  11
HETATM   11  N   UNL     1      -9.621  15.665  64.848  1.00  0.00     0.404 N  
HETATM   12  H   UNL     1      -8.906  14.984  64.592  1.00  0.00     0.000 HD 
BRANCH  11  13
HETATM   13  C   UNL     1      -9.224  16.924  65.268  1.00  0.00     1.321 C  
HETATM   14  O   UNL     1      -8.691  17.721  64.509  1.00  0.00     4.561 OA 
BRANCH  13  15
HETATM   15  N   UNL     1      -9.459  17.158  66.613  1.00  0.00    -0.254 N  
HETATM   16  H   UNL     1      -9.939  18.015  66.886  1.00  0.00     0.000 HD 
BRANCH  15  17
HETATM   17  N   UNL     1      -9.054  16.241  67.632  1.00  0.00    -0.193 NA 
HETATM   18  C   UNL     1      -8.067  15.282  67.101  1.00  0.00    -0.216 C  
HETATM   19  C   UNL     1      -7.498  14.242  68.072  1.00  0.00    -0.144 C  
HETATM   20  C   UNL     1      -6.579  14.850  69.127  1.00  0.00    -0.117 C  
HETATM   21  C   UNL     1      -7.310  15.386  70.353  1.00  0.00     0.605 C  
HETATM   22  C   UNL     1      -8.648  16.067  70.085  1.00  0.00     1.103 C  
HETATM   23  C   UNL     1      -8.649  16.964  68.850  1.00  0.00    -0.206 C  
ENDBRANCH  15  17
ENDBRANCH  13  15
ENDBRANCH  11  13
ENDBRANCH   8  11
ENDBRANCH   5   8
TORSDOF 5
ENDMDL
