MODEL        1
REMARK 921   NORMALIZED FREE ENERGY PREDICTED BY IDOCK:   -6.02 KCAL/MOL
REMARK 922        TOTAL FREE ENERGY PREDICTED BY IDOCK:   -9.11 KCAL/MOL
REMARK 923 INTER-LIGAND FREE ENERGY PREDICTED BY IDOCK:   -8.49 KCAL/MOL
REMARK 924 INTRA-LIGAND FREE ENERGY PREDICTED BY IDOCK:   -0.62 KCAL/MOL
REMARK 927      BINDING AFFINITY PREDICTED BY RF-SCORE:    0.00 PKD
ROOT
HETATM    1  C   UNL     1     -10.293  19.848  65.996  1.00  0.00    -0.591 C  
HETATM    2  C   UNL     1     -10.632  19.571  67.452  1.00  0.00    -0.607 C  
ENDROOT
BRANCH   2   3
HETATM    3  C   UNL     1     -10.547  18.078  67.778  1.00  0.00    -0.409 C  
BRANCH   3   4
HETATM    4  C   UNL     1      -9.834  17.283  66.683  1.00  0.00    -0.295 C  
BRANCH   4   5
HETATM    5  N   UNL     1     -10.600  16.138  66.230  1.00  0.00    -0.300 N  
HETATM    6  H   UNL     1     -10.929  15.453  66.911  1.00  0.00     0.000 HD 
BRANCH   5   7
HETATM    7  C   UNL     1     -10.889  15.962  64.906  1.00  0.00    -0.400 C  
HETATM    8  O   UNL     1     -11.228  16.875  64.170  1.00  0.00    -1.176 OA 
BRANCH   7   9
HETATM    9  N   UNL     1     -10.734  14.654  64.483  1.00  0.00    -0.610 N  
HETATM   10  H   UNL     1      -9.809  14.360  64.171  1.00  0.00     0.000 HD 
BRANCH   9  11
HETATM   11  S   UNL     1     -11.960  13.528  64.450  1.00  0.00    -0.434 S  
HETATM   12  O   UNL     1     -12.232  13.130  63.088  1.00  0.00    -0.631 OA 
HETATM   13  O   UNL     1     -13.011  14.088  65.278  1.00  0.00    -0.743 OA 
BRANCH  11  14
HETATM   14  C   UNL     1     -11.262  12.155  65.336  1.00  0.00    -0.333 A  
HETATM   15  C   UNL     1     -11.494  12.027  66.708  1.00  0.00    -0.410 A  
HETATM   16  C   UNL     1     -10.902  10.978  67.413  1.00  0.00    -0.327 A  
HETATM   17  C   UNL     1     -10.083  10.053  66.754  1.00  0.00    -0.286 A  
HETATM   18  C   UNL     1      -9.905  10.160  65.367  1.00  0.00    -0.375 A  
HETATM   19  C   UNL     1      -9.388   8.961  67.513  1.00  0.00    -0.160 C  
HETATM   20  C   UNL     1     -10.498  11.204  64.655  1.00  0.00    -0.400 A  
ENDBRANCH  11  14
ENDBRANCH   9  11
ENDBRANCH   7   9
ENDBRANCH   5   7
ENDBRANCH   4   5
ENDBRANCH   3   4
ENDBRANCH   2   3
TORSDOF 7
ENDMDL
MODEL        2
REMARK 921   NORMALIZED FREE ENERGY PREDICTED BY IDOCK:   -5.93 KCAL/MOL
REMARK 922        TOTAL FREE ENERGY PREDICTED BY IDOCK:   -8.98 KCAL/MOL
REMARK 923 INTER-LIGAND FREE ENERGY PREDICTED BY IDOCK:   -8.20 KCAL/MOL
REMARK 924 INTRA-LIGAND FREE ENERGY PREDICTED BY IDOCK:   -0.78 KCAL/MOL
REMARK 927      BINDING AFFINITY PREDICTED BY RF-SCORE:    0.00 PKD
ROOT
HETATM    1  C   UNL     1      -9.208   9.962  64.184  1.00  0.00    -0.312 C  
HETATM    2  C   UNL     1     -10.382  10.853  64.560  1.00  0.00    -0.417 C  
ENDROOT
BRANCH   2   3
HETATM    3  C   UNL     1     -10.694  11.871  63.461  1.00  0.00    -0.504 C  
BRANCH   3   4
HETATM    4  C   UNL     1     -12.189  12.178  63.360  1.00  0.00    -0.530 C  
BRANCH   4   5
HETATM    5  N   UNL     1     -12.750  12.657  64.608  1.00  0.00    -0.704 N  
HETATM    6  H   UNL     1     -13.228  12.003  65.228  1.00  0.00     0.000 HD 
BRANCH   5   7
HETATM    7  C   UNL     1     -12.649  13.972  64.968  1.00  0.00    -0.390 C  
HETATM    8  O   UNL     1     -12.697  14.890  64.164  1.00  0.00    -0.750 OA 
BRANCH   7   9
HETATM    9  N   UNL     1     -12.511  14.156  66.332  1.00  0.00    -0.512 N  
HETATM   10  H   UNL     1     -13.107  14.851  66.782  1.00  0.00     0.000 HD 
BRANCH   9  11
HETATM   11  S   UNL     1     -11.436  13.317  67.287  1.00  0.00    -0.359 S  
HETATM   12  O   UNL     1     -10.096  13.455  66.766  1.00  0.00    -0.250 OA 
HETATM   13  O   UNL     1     -12.028  12.004  67.459  1.00  0.00    -0.572 OA 
BRANCH  11  14
HETATM   14  C   UNL     1     -11.550  14.159  68.847  1.00  0.00    -0.310 A  
HETATM   15  C   UNL     1     -12.116  13.506  69.945  1.00  0.00    -0.408 A  
HETATM   16  C   UNL     1     -12.253  14.186  71.157  1.00  0.00    -0.435 A  
HETATM   17  C   UNL     1     -11.824  15.514  71.278  1.00  0.00    -0.453 A  
HETATM   18  C   UNL     1     -11.206  16.138  70.184  1.00  0.00    -0.374 A  
HETATM   19  C   UNL     1     -12.027  16.277  72.554  1.00  0.00    -0.648 C  
HETATM   20  C   UNL     1     -11.061  15.462  68.972  1.00  0.00    -0.268 A  
ENDBRANCH  11  14
ENDBRANCH   9  11
ENDBRANCH   7   9
ENDBRANCH   5   7
ENDBRANCH   4   5
ENDBRANCH   3   4
ENDBRANCH   2   3
TORSDOF 7
ENDMDL
MODEL        3
REMARK 921   NORMALIZED FREE ENERGY PREDICTED BY IDOCK:   -5.89 KCAL/MOL
REMARK 922        TOTAL FREE ENERGY PREDICTED BY IDOCK:   -8.93 KCAL/MOL
REMARK 923 INTER-LIGAND FREE ENERGY PREDICTED BY IDOCK:   -8.09 KCAL/MOL
REMARK 924 INTRA-LIGAND FREE ENERGY PREDICTED BY IDOCK:   -0.84 KCAL/MOL
REMARK 927      BINDING AFFINITY PREDICTED BY RF-SCORE:    0.00 PKD
ROOT
HETATM    1  C   UNL     1      -9.145  10.163  63.596  1.00  0.00    -0.289 C  
HETATM    2  C   UNL     1     -10.312  10.850  64.288  1.00  0.00    -0.436 C  
ENDROOT
BRANCH   2   3
HETATM    3  C   UNL     1     -10.801  12.066  63.498  1.00  0.00    -0.509 C  
BRANCH   3   4
HETATM    4  C   UNL     1     -12.323  12.090  63.350  1.00  0.00    -0.523 C  
BRANCH   4   5
HETATM    5  N   UNL     1     -12.991  12.666  64.501  1.00  0.00    -0.758 N  
HETATM    6  H   UNL     1     -13.643  12.096  65.041  1.00  0.00     0.000 HD 
BRANCH   5   7
HETATM    7  C   UNL     1     -12.761  13.960  64.875  1.00  0.00    -0.278 C  
HETATM    8  O   UNL     1     -12.693  14.883  64.078  1.00  0.00    -0.792 OA 
BRANCH   7   9
HETATM    9  N   UNL     1     -12.640  14.119  66.243  1.00  0.00    -0.501 N  
HETATM   10  H   UNL     1     -13.251  14.795  66.701  1.00  0.00     0.000 HD 
BRANCH   9  11
HETATM   11  S   UNL     1     -11.560  13.280  67.193  1.00  0.00    -0.378 S  
HETATM   12  O   UNL     1     -10.210  13.512  66.733  1.00  0.00    -0.256 OA 
HETATM   13  O   UNL     1     -12.092  11.933  67.269  1.00  0.00    -0.582 OA 
BRANCH  11  14
HETATM   14  C   UNL     1     -11.773  14.026  68.791  1.00  0.00    -0.353 A  
HETATM   15  C   UNL     1     -11.536  15.394  68.952  1.00  0.00    -0.369 A  
HETATM   16  C   UNL     1     -11.653  15.970  70.219  1.00  0.00    -0.335 A  
HETATM   17  C   UNL     1     -12.009  15.187  71.325  1.00  0.00    -0.399 A  
HETATM   18  C   UNL     1     -12.300  13.828  71.137  1.00  0.00    -0.428 A  
HETATM   19  C   UNL     1     -12.073  15.781  72.701  1.00  0.00    -0.591 C  
HETATM   20  C   UNL     1     -12.191  13.247  69.873  1.00  0.00    -0.313 A  
ENDBRANCH  11  14
ENDBRANCH   9  11
ENDBRANCH   7   9
ENDBRANCH   5   7
ENDBRANCH   4   5
ENDBRANCH   3   4
ENDBRANCH   2   3
TORSDOF 7
ENDMDL
MODEL        4
REMARK 921   NORMALIZED FREE ENERGY PREDICTED BY IDOCK:   -5.83 KCAL/MOL
REMARK 922        TOTAL FREE ENERGY PREDICTED BY IDOCK:   -8.84 KCAL/MOL
REMARK 923 INTER-LIGAND FREE ENERGY PREDICTED BY IDOCK:   -8.03 KCAL/MOL
REMARK 924 INTRA-LIGAND FREE ENERGY PREDICTED BY IDOCK:   -0.81 KCAL/MOL
REMARK 927      BINDING AFFINITY PREDICTED BY RF-SCORE:    0.00 PKD
ROOT
HETATM    1  C   UNL     1      -9.740  10.636  65.229  1.00  0.00    -0.315 C  
HETATM    2  C   UNL     1     -10.047  10.822  63.751  1.00  0.00    -0.391 C  
ENDROOT
BRANCH   2   3
HETATM    3  C   UNL     1     -10.700  12.179  63.475  1.00  0.00    -0.509 C  
BRANCH   3   4
HETATM    4  C   UNL     1     -12.227  12.104  63.493  1.00  0.00    -0.567 C  
BRANCH   4   5
HETATM    5  N   UNL     1     -12.804  12.670  64.697  1.00  0.00    -0.739 N  
HETATM    6  H   UNL     1     -13.280  12.059  65.361  1.00  0.00     0.000 HD 
BRANCH   5   7
HETATM    7  C   UNL     1     -12.722  14.010  64.956  1.00  0.00    -0.328 C  
HETATM    8  O   UNL     1     -12.626  14.854  64.079  1.00  0.00    -0.832 OA 
BRANCH   7   9
HETATM    9  N   UNL     1     -12.782  14.309  66.305  1.00  0.00    -0.462 N  
HETATM   10  H   UNL     1     -13.703  14.451  66.721  1.00  0.00     0.000 HD 
BRANCH   9  11
HETATM   11  S   UNL     1     -11.451  14.452  67.294  1.00  0.00    -0.375 S  
HETATM   12  O   UNL     1     -11.381  15.787  67.842  1.00  0.00    -0.338 OA 
HETATM   13  O   UNL     1     -10.348  13.911  66.524  1.00  0.00    -0.276 OA 
BRANCH  11  14
HETATM   14  C   UNL     1     -11.801  13.299  68.600  1.00  0.00    -0.345 A  
HETATM   15  C   UNL     1     -11.759  11.927  68.340  1.00  0.00    -0.387 A  
HETATM   16  C   UNL     1     -12.086  11.022  69.352  1.00  0.00    -0.389 A  
HETATM   17  C   UNL     1     -12.450  11.482  70.625  1.00  0.00    -0.405 A  
HETATM   18  C   UNL     1     -12.433  12.859  70.887  1.00  0.00    -0.383 A  
HETATM   19  C   UNL     1     -12.868  10.523  71.700  1.00  0.00    -0.581 C  
HETATM   20  C   UNL     1     -12.102  13.768  69.881  1.00  0.00    -0.412 A  
ENDBRANCH  11  14
ENDBRANCH   9  11
ENDBRANCH   7   9
ENDBRANCH   5   7
ENDBRANCH   4   5
ENDBRANCH   3   4
ENDBRANCH   2   3
TORSDOF 7
ENDMDL
MODEL        5
REMARK 921   NORMALIZED FREE ENERGY PREDICTED BY IDOCK:   -5.77 KCAL/MOL
REMARK 922        TOTAL FREE ENERGY PREDICTED BY IDOCK:   -8.76 KCAL/MOL
REMARK 923 INTER-LIGAND FREE ENERGY PREDICTED BY IDOCK:   -7.30 KCAL/MOL
REMARK 924 INTRA-LIGAND FREE ENERGY PREDICTED BY IDOCK:   -1.46 KCAL/MOL
REMARK 927      BINDING AFFINITY PREDICTED BY RF-SCORE:    0.00 PKD
ROOT
HETATM    1  C   UNL     1      -7.527  13.024  68.472  1.00  0.00    -0.123 C  
HETATM    2  C   UNL     1      -8.341  13.487  67.274  1.00  0.00    -0.188 C  
ENDROOT
BRANCH   2   3
HETATM    3  C   UNL     1      -9.207  14.701  67.614  1.00  0.00    -0.193 C  
BRANCH   3   4
HETATM    4  C   UNL     1      -9.279  15.706  66.463  1.00  0.00    -0.293 C  
BRANCH   4   5
HETATM    5  N   UNL     1     -10.641  16.038  66.090  1.00  0.00    -0.313 N  
HETATM    6  H   UNL     1     -11.272  16.427  66.790  1.00  0.00     0.000 HD 
BRANCH   5   7
HETATM    7  C   UNL     1     -11.091  15.836  64.815  1.00  0.00    -0.400 C  
HETATM    8  O   UNL     1     -11.530  16.734  64.113  1.00  0.00    -1.171 OA 
BRANCH   7   9
HETATM    9  N   UNL     1     -10.978  14.523  64.397  1.00  0.00    -0.621 N  
HETATM   10  H   UNL     1     -10.096  14.231  63.976  1.00  0.00     0.000 HD 
BRANCH   9  11
HETATM   11  S   UNL     1     -12.187  13.387  64.537  1.00  0.00    -0.388 S  
HETATM   12  O   UNL     1     -12.471  12.804  63.246  1.00  0.00    -0.665 OA 
HETATM   13  O   UNL     1     -13.234  14.040  65.298  1.00  0.00    -0.782 OA 
BRANCH  11  14
HETATM   14  C   UNL     1     -11.455  12.156  65.588  1.00  0.00    -0.355 A  
HETATM   15  C   UNL     1     -11.780  12.126  66.947  1.00  0.00    -0.374 A  
HETATM   16  C   UNL     1     -11.165  11.192  67.783  1.00  0.00    -0.359 A  
HETATM   17  C   UNL     1     -10.230  10.285  67.268  1.00  0.00    -0.267 A  
HETATM   18  C   UNL     1      -9.957  10.289  65.892  1.00  0.00    -0.321 A  
HETATM   19  C   UNL     1      -9.514   9.322  68.168  1.00  0.00    -0.150 C  
HETATM   20  C   UNL     1     -10.572  11.216  65.050  1.00  0.00    -0.340 A  
ENDBRANCH  11  14
ENDBRANCH   9  11
ENDBRANCH   7   9
ENDBRANCH   5   7
ENDBRANCH   4   5
ENDBRANCH   3   4
ENDBRANCH   2   3
TORSDOF 7
ENDMDL
MODEL        6
REMARK 921   NORMALIZED FREE ENERGY PREDICTED BY IDOCK:   -5.74 KCAL/MOL
REMARK 922        TOTAL FREE ENERGY PREDICTED BY IDOCK:   -8.72 KCAL/MOL
REMARK 923 INTER-LIGAND FREE ENERGY PREDICTED BY IDOCK:   -7.93 KCAL/MOL
REMARK 924 INTRA-LIGAND FREE ENERGY PREDICTED BY IDOCK:   -0.79 KCAL/MOL
REMARK 927      BINDING AFFINITY PREDICTED BY RF-SCORE:    0.00 PKD
ROOT
HETATM    1  C   UNL     1     -11.911  15.267  70.408  1.00  0.00    -0.374 C  
HETATM    2  C   UNL     1     -11.131  14.785  69.195  1.00  0.00    -0.278 C  
ENDROOT
BRANCH   2   3
HETATM    3  C   UNL     1     -11.275  15.745  68.012  1.00  0.00    -0.338 C  
BRANCH   3   4
HETATM    4  C   UNL     1     -10.123  15.616  67.015  1.00  0.00    -0.253 C  
BRANCH   4   5
HETATM    5  N   UNL     1     -10.318  16.418  65.823  1.00  0.00    -0.371 N  
HETATM    6  H   UNL     1      -9.918  17.356  65.778  1.00  0.00     0.000 HD 
BRANCH   5   7
HETATM    7  C   UNL     1     -11.028  15.939  64.758  1.00  0.00    -0.375 C  
HETATM    8  O   UNL     1     -11.708  16.650  64.034  1.00  0.00    -1.143 OA 
BRANCH   7   9
HETATM    9  N   UNL     1     -10.879  14.577  64.571  1.00  0.00    -0.621 N  
HETATM   10  H   UNL     1      -9.943  14.222  64.374  1.00  0.00     0.000 HD 
BRANCH   9  11
HETATM   11  S   UNL     1     -12.126  13.477  64.647  1.00  0.00    -0.419 S  
HETATM   12  O   UNL     1     -12.511  13.071  63.315  1.00  0.00    -0.699 OA 
HETATM   13  O   UNL     1     -13.097  14.069  65.547  1.00  0.00    -0.713 OA 
BRANCH  11  14
HETATM   14  C   UNL     1     -11.390  12.099  65.492  1.00  0.00    -0.344 A  
HETATM   15  C   UNL     1     -10.567  11.216  64.788  1.00  0.00    -0.371 A  
HETATM   16  C   UNL     1     -10.030  10.104  65.440  1.00  0.00    -0.377 A  
HETATM   17  C   UNL     1     -10.310   9.871  66.793  1.00  0.00    -0.285 A  
HETATM   18  C   UNL     1     -11.091  10.796  67.501  1.00  0.00    -0.374 A  
HETATM   19  C   UNL     1      -9.794   8.644  67.486  1.00  0.00    -0.234 C  
HETATM   20  C   UNL     1     -11.625  11.913  66.856  1.00  0.00    -0.358 A  
ENDBRANCH  11  14
ENDBRANCH   9  11
ENDBRANCH   7   9
ENDBRANCH   5   7
ENDBRANCH   4   5
ENDBRANCH   3   4
ENDBRANCH   2   3
TORSDOF 7
ENDMDL
MODEL        7
REMARK 921   NORMALIZED FREE ENERGY PREDICTED BY IDOCK:   -5.68 KCAL/MOL
REMARK 922        TOTAL FREE ENERGY PREDICTED BY IDOCK:   -8.63 KCAL/MOL
REMARK 923 INTER-LIGAND FREE ENERGY PREDICTED BY IDOCK:   -7.73 KCAL/MOL
REMARK 924 INTRA-LIGAND FREE ENERGY PREDICTED BY IDOCK:   -0.90 KCAL/MOL
REMARK 927      BINDING AFFINITY PREDICTED BY RF-SCORE:    0.00 PKD
ROOT
HETATM    1  C   UNL     1     -10.406  18.656  66.964  1.00  0.00    -0.445 C  
HETATM    2  C   UNL     1     -10.363  17.163  67.252  1.00  0.00    -0.320 C  
ENDROOT
BRANCH   2   3
HETATM    3  C   UNL     1      -9.789  16.376  66.072  1.00  0.00    -0.362 C  
BRANCH   3   4
HETATM    4  C   UNL     1     -10.882  15.821  65.157  1.00  0.00    -0.428 C  
BRANCH   4   5
HETATM    5  N   UNL     1     -11.068  14.391  65.306  1.00  0.00    -0.324 N  
HETATM    6  H   UNL     1     -10.308  13.757  65.058  1.00  0.00     0.000 HD 
BRANCH   5   7
HETATM    7  C   UNL     1     -12.245  13.877  65.773  1.00  0.00    -0.460 C  
HETATM    8  O   UNL     1     -13.063  13.324  65.055  1.00  0.00    -0.737 OA 
BRANCH   7   9
HETATM    9  N   UNL     1     -12.402  14.028  67.139  1.00  0.00    -0.539 N  
HETATM   10  H   UNL     1     -13.117  14.676  67.468  1.00  0.00     0.000 HD 
BRANCH   9  11
HETATM   11  S   UNL     1     -11.499  13.220  68.281  1.00  0.00    -0.340 S  
HETATM   12  O   UNL     1     -10.091  13.433  68.042  1.00  0.00    -0.228 OA 
HETATM   13  O   UNL     1     -12.047  11.878  68.315  1.00  0.00    -0.485 OA 
BRANCH  11  14
HETATM   14  C   UNL     1     -11.966  14.022  69.796  1.00  0.00    -0.334 A  
HETATM   15  C   UNL     1     -11.702  15.383  69.967  1.00  0.00    -0.349 A  
HETATM   16  C   UNL     1     -12.021  16.002  71.178  1.00  0.00    -0.443 A  
HETATM   17  C   UNL     1     -12.608  15.268  72.216  1.00  0.00    -0.436 A  
HETATM   18  C   UNL     1     -12.920  13.916  72.010  1.00  0.00    -0.438 A  
HETATM   19  C   UNL     1     -12.894  15.905  73.544  1.00  0.00    -0.705 C  
HETATM   20  C   UNL     1     -12.609  13.294  70.800  1.00  0.00    -0.357 A  
ENDBRANCH  11  14
ENDBRANCH   9  11
ENDBRANCH   7   9
ENDBRANCH   5   7
ENDBRANCH   4   5
ENDBRANCH   3   4
ENDBRANCH   2   3
TORSDOF 7
ENDMDL
MODEL        8
REMARK 921   NORMALIZED FREE ENERGY PREDICTED BY IDOCK:   -5.56 KCAL/MOL
REMARK 922        TOTAL FREE ENERGY PREDICTED BY IDOCK:   -8.47 KCAL/MOL
REMARK 923 INTER-LIGAND FREE ENERGY PREDICTED BY IDOCK:   -7.69 KCAL/MOL
REMARK 924 INTRA-LIGAND FREE ENERGY PREDICTED BY IDOCK:   -0.78 KCAL/MOL
REMARK 927      BINDING AFFINITY PREDICTED BY RF-SCORE:    0.00 PKD
ROOT
HETATM    1  C   UNL     1     -11.061  11.621  67.433  1.00  0.00    -0.337 C  
HETATM    2  C   UNL     1      -9.907  11.563  66.444  1.00  0.00    -0.233 C  
ENDROOT
BRANCH   2   3
HETATM    3  C   UNL     1     -10.204  10.609  65.285  1.00  0.00    -0.351 C  
BRANCH   3   4
HETATM    4  C   UNL     1      -9.800  11.195  63.931  1.00  0.00    -0.308 C  
BRANCH   4   5
HETATM    5  N   UNL     1     -10.929  11.384  63.041  1.00  0.00    -0.825 N  
HETATM    6  H   UNL     1     -10.984  10.843  62.178  1.00  0.00     0.000 HD 
BRANCH   5   7
HETATM    7  C   UNL     1     -11.921  12.277  63.339  1.00  0.00    -0.494 C  
HETATM    8  O   UNL     1     -13.108  11.995  63.291  1.00  0.00    -0.701 OA 
BRANCH   7   9
HETATM    9  N   UNL     1     -11.443  13.516  63.721  1.00  0.00    -0.614 N  
HETATM   10  H   UNL     1     -10.521  13.796  63.384  1.00  0.00     0.000 HD 
BRANCH   9  11
HETATM   11  S   UNL     1     -12.272  14.583  64.694  1.00  0.00    -0.409 S  
HETATM   12  O   UNL     1     -13.390  13.917  65.320  1.00  0.00    -0.732 OA 
HETATM   13  O   UNL     1     -12.479  15.760  63.873  1.00  0.00    -0.744 OA 
BRANCH  11  14
HETATM   14  C   UNL     1     -11.071  15.005  65.933  1.00  0.00    -0.334 A  
HETATM   15  C   UNL     1     -11.495  15.337  67.222  1.00  0.00    -0.227 A  
HETATM   16  C   UNL     1     -10.556  15.719  68.181  1.00  0.00    -0.275 A  
HETATM   17  C   UNL     1      -9.193  15.768  67.860  1.00  0.00    -0.191 A  
HETATM   18  C   UNL     1      -8.776  15.377  66.579  1.00  0.00    -0.335 A  
HETATM   19  C   UNL     1      -8.182  16.242  68.862  1.00  0.00    -0.231 C  
HETATM   20  C   UNL     1      -9.710  14.988  65.618  1.00  0.00    -0.344 A  
ENDBRANCH  11  14
ENDBRANCH   9  11
ENDBRANCH   7   9
ENDBRANCH   5   7
ENDBRANCH   4   5
ENDBRANCH   3   4
ENDBRANCH   2   3
TORSDOF 7
ENDMDL
MODEL        9
REMARK 921   NORMALIZED FREE ENERGY PREDICTED BY IDOCK:   -5.45 KCAL/MOL
REMARK 922        TOTAL FREE ENERGY PREDICTED BY IDOCK:   -8.30 KCAL/MOL
REMARK 923 INTER-LIGAND FREE ENERGY PREDICTED BY IDOCK:   -7.50 KCAL/MOL
REMARK 924 INTRA-LIGAND FREE ENERGY PREDICTED BY IDOCK:   -0.80 KCAL/MOL
REMARK 927      BINDING AFFINITY PREDICTED BY RF-SCORE:    0.00 PKD
ROOT
HETATM    1  C   UNL     1     -12.259  15.405  70.455  1.00  0.00    -0.430 C  
HETATM    2  C   UNL     1     -10.974  15.573  69.659  1.00  0.00    -0.288 C  
ENDROOT
BRANCH   2   3
HETATM    3  C   UNL     1     -11.195  16.412  68.398  1.00  0.00    -0.324 C  
BRANCH   3   4
HETATM    4  C   UNL     1     -10.358  15.919  67.217  1.00  0.00    -0.293 C  
BRANCH   4   5
HETATM    5  N   UNL     1     -10.592  16.680  66.005  1.00  0.00    -0.277 N  
HETATM    6  H   UNL     1     -10.452  17.691  66.012  1.00  0.00     0.000 HD 
BRANCH   5   7
HETATM    7  C   UNL     1     -10.998  16.066  64.853  1.00  0.00    -0.384 C  
HETATM    8  O   UNL     1     -11.505  16.667  63.919  1.00  0.00    -1.186 OA 
BRANCH   7   9
HETATM    9  N   UNL     1     -10.754  14.705  64.846  1.00  0.00    -0.469 N  
HETATM   10  H   UNL     1      -9.784  14.394  64.904  1.00  0.00     0.000 HD 
BRANCH   9  11
HETATM   11  S   UNL     1     -11.939  13.540  64.750  1.00  0.00    -0.413 S  
HETATM   12  O   UNL     1     -11.861  12.855  63.480  1.00  0.00    -0.493 OA 
HETATM   13  O   UNL     1     -13.161  14.210  65.153  1.00  0.00    -0.757 OA 
BRANCH  11  14
HETATM   14  C   UNL     1     -11.497  12.415  66.052  1.00  0.00    -0.382 A  
HETATM   15  C   UNL     1     -11.900  12.682  67.363  1.00  0.00    -0.393 A  
HETATM   16  C   UNL     1     -11.507  11.825  68.394  1.00  0.00    -0.354 A  
HETATM   17  C   UNL     1     -10.718  10.701  68.120  1.00  0.00    -0.267 A  
HETATM   18  C   UNL     1     -10.369  10.414  66.792  1.00  0.00    -0.294 A  
HETATM   19  C   UNL     1     -10.234   9.811  69.227  1.00  0.00    -0.216 C  
HETATM   20  C   UNL     1     -10.763  11.263  65.757  1.00  0.00    -0.284 A  
ENDBRANCH  11  14
ENDBRANCH   9  11
ENDBRANCH   7   9
ENDBRANCH   5   7
ENDBRANCH   4   5
ENDBRANCH   3   4
ENDBRANCH   2   3
TORSDOF 7
ENDMDL
MODEL       10
REMARK 921   NORMALIZED FREE ENERGY PREDICTED BY IDOCK:   -5.45 KCAL/MOL
REMARK 922        TOTAL FREE ENERGY PREDICTED BY IDOCK:   -8.30 KCAL/MOL
REMARK 923 INTER-LIGAND FREE ENERGY PREDICTED BY IDOCK:   -7.80 KCAL/MOL
REMARK 924 INTRA-LIGAND FREE ENERGY PREDICTED BY IDOCK:   -0.50 KCAL/MOL
REMARK 927      BINDING AFFINITY PREDICTED BY RF-SCORE:    0.00 PKD
ROOT
HETATM    1  C   UNL     1     -10.244  10.833  64.696  1.00  0.00    -0.419 C  
HETATM    2  C   UNL     1     -10.819  11.495  63.453  1.00  0.00    -0.423 C  
ENDROOT
BRANCH   2   3
HETATM    3  C   UNL     1     -12.256  11.970  63.680  1.00  0.00    -0.642 C  
BRANCH   3   4
HETATM    4  C   UNL     1     -12.406  12.778  64.970  1.00  0.00    -0.499 C  
BRANCH   4   5
HETATM    5  N   UNL     1     -12.820  14.147  64.731  1.00  0.00    -0.674 N  
HETATM    6  H   UNL     1     -13.803  14.399  64.831  1.00  0.00     0.000 HD 
BRANCH   5   7
HETATM    7  C   UNL     1     -11.913  15.106  64.375  1.00  0.00    -0.310 C  
HETATM    8  O   UNL     1     -12.186  16.042  63.640  1.00  0.00    -0.743 OA 
BRANCH   7   9
HETATM    9  N   UNL     1     -10.669  14.920  64.949  1.00  0.00    -0.496 N  
HETATM   10  H   UNL     1     -10.135  14.095  64.673  1.00  0.00     0.000 HD 
BRANCH   9  11
HETATM   11  S   UNL     1      -9.984  15.954  66.059  1.00  0.00    -0.360 S  
HETATM   12  O   UNL     1     -10.400  17.312  65.795  1.00  0.00    -0.531 OA 
HETATM   13  O   UNL     1      -8.577  15.605  66.083  1.00  0.00    -0.297 OA 
BRANCH  11  14
HETATM   14  C   UNL     1     -10.691  15.412  67.596  1.00  0.00    -0.292 A  
HETATM   15  C   UNL     1     -10.916  14.050  67.811  1.00  0.00    -0.271 A  
HETATM   16  C   UNL     1     -11.520  13.628  68.997  1.00  0.00    -0.346 A  
HETATM   17  C   UNL     1     -11.897  14.561  69.972  1.00  0.00    -0.372 A  
HETATM   18  C   UNL     1     -11.614  15.920  69.767  1.00  0.00    -0.340 A  
HETATM   19  C   UNL     1     -12.608  14.127  71.220  1.00  0.00    -0.438 C  
HETATM   20  C   UNL     1     -11.005  16.346  68.586  1.00  0.00    -0.345 A  
ENDBRANCH  11  14
ENDBRANCH   9  11
ENDBRANCH   7   9
ENDBRANCH   5   7
ENDBRANCH   4   5
ENDBRANCH   3   4
ENDBRANCH   2   3
TORSDOF 7
ENDMDL
MODEL       11
REMARK 921   NORMALIZED FREE ENERGY PREDICTED BY IDOCK:   -5.44 KCAL/MOL
REMARK 922        TOTAL FREE ENERGY PREDICTED BY IDOCK:   -8.29 KCAL/MOL
REMARK 923 INTER-LIGAND FREE ENERGY PREDICTED BY IDOCK:   -7.57 KCAL/MOL
REMARK 924 INTRA-LIGAND FREE ENERGY PREDICTED BY IDOCK:   -0.71 KCAL/MOL
REMARK 927      BINDING AFFINITY PREDICTED BY RF-SCORE:    0.00 PKD
ROOT
HETATM    1  C   UNL     1     -12.293  15.597  74.329  1.00  0.00    -0.813 C  
HETATM    2  C   UNL     1     -12.245  16.029  72.872  1.00  0.00    -0.621 C  
ENDROOT
BRANCH   2   3
HETATM    3  C   UNL     1     -13.518  15.630  72.121  1.00  0.00    -0.561 C  
BRANCH   3   4
HETATM    4  C   UNL     1     -13.247  14.601  71.023  1.00  0.00    -0.374 C  
BRANCH   4   5
HETATM    5  N   UNL     1     -12.869  15.210  69.762  1.00  0.00    -0.599 N  
HETATM    6  H   UNL     1     -13.544  15.787  69.260  1.00  0.00     0.000 HD 
BRANCH   5   7
HETATM    7  C   UNL     1     -11.621  15.025  69.236  1.00  0.00    -0.315 C  
HETATM    8  O   UNL     1     -11.054  15.864  68.553  1.00  0.00    -0.302 OA 
BRANCH   7   9
HETATM    9  N   UNL     1     -11.061  13.807  69.574  1.00  0.00    -0.431 N  
HETATM   10  H   UNL     1     -10.624  13.722  70.492  1.00  0.00     0.000 HD 
BRANCH   9  11
HETATM   11  S   UNL     1     -11.054  12.470  68.583  1.00  0.00    -0.281 S  
HETATM   12  O   UNL     1      -9.775  12.349  67.923  1.00  0.00    -0.191 OA 
HETATM   13  O   UNL     1     -12.277  12.566  67.809  1.00  0.00    -0.372 OA 
BRANCH  11  14
HETATM   14  C   UNL     1     -11.254  11.126  69.727  1.00  0.00    -0.245 A  
HETATM   15  C   UNL     1     -12.409  11.051  70.511  1.00  0.00    -0.462 A  
HETATM   16  C   UNL     1     -12.542  10.024  71.447  1.00  0.00    -0.518 A  
HETATM   17  C   UNL     1     -11.530   9.069  71.602  1.00  0.00    -0.431 A  
HETATM   18  C   UNL     1     -10.403   9.123  70.769  1.00  0.00    -0.323 A  
HETATM   19  C   UNL     1     -11.632   8.000  72.650  1.00  0.00    -0.448 C  
HETATM   20  C   UNL     1     -10.266  10.144  69.827  1.00  0.00    -0.286 A  
ENDBRANCH  11  14
ENDBRANCH   9  11
ENDBRANCH   7   9
ENDBRANCH   5   7
ENDBRANCH   4   5
ENDBRANCH   3   4
ENDBRANCH   2   3
TORSDOF 7
ENDMDL
MODEL       12
REMARK 921   NORMALIZED FREE ENERGY PREDICTED BY IDOCK:   -5.42 KCAL/MOL
REMARK 922        TOTAL FREE ENERGY PREDICTED BY IDOCK:   -8.27 KCAL/MOL
REMARK 923 INTER-LIGAND FREE ENERGY PREDICTED BY IDOCK:   -7.23 KCAL/MOL
REMARK 924 INTRA-LIGAND FREE ENERGY PREDICTED BY IDOCK:   -1.04 KCAL/MOL
REMARK 927      BINDING AFFINITY PREDICTED BY RF-SCORE:    0.00 PKD
ROOT
HETATM    1  C   UNL     1      -9.347   9.974  64.014  1.00  0.00    -0.324 C  
HETATM    2  C   UNL     1     -10.368  10.934  64.604  1.00  0.00    -0.407 C  
ENDROOT
BRANCH   2   3
HETATM    3  C   UNL     1     -10.793  12.001  63.592  1.00  0.00    -0.510 C  
BRANCH   3   4
HETATM    4  C   UNL     1     -12.200  12.533  63.863  1.00  0.00    -0.503 C  
BRANCH   4   5
HETATM    5  N   UNL     1     -12.379  13.902  63.419  1.00  0.00    -1.139 N  
HETATM    6  H   UNL     1     -12.671  14.084  62.459  1.00  0.00     0.000 HD 
BRANCH   5   7
HETATM    7  C   UNL     1     -12.164  14.953  64.267  1.00  0.00    -0.344 C  
HETATM    8  O   UNL     1     -12.134  16.115  63.894  1.00  0.00    -0.956 OA 
BRANCH   7   9
HETATM    9  N   UNL     1     -12.009  14.567  65.585  1.00  0.00    -0.342 N  
HETATM   10  H   UNL     1     -12.766  14.039  66.020  1.00  0.00     0.000 HD 
BRANCH   9  11
HETATM   11  S   UNL     1     -10.668  14.907  66.511  1.00  0.00    -0.314 S  
HETATM   12  O   UNL     1     -10.988  15.914  67.497  1.00  0.00    -0.323 OA 
HETATM   13  O   UNL     1      -9.596  15.123  65.558  1.00  0.00    -0.313 OA 
BRANCH  11  14
HETATM   14  C   UNL     1     -10.348  13.364  67.329  1.00  0.00    -0.244 A  
HETATM   15  C   UNL     1     -11.413  12.523  67.662  1.00  0.00    -0.392 A  
HETATM   16  C   UNL     1     -11.166  11.335  68.351  1.00  0.00    -0.324 A  
HETATM   17  C   UNL     1      -9.859  10.979  68.707  1.00  0.00    -0.206 A  
HETATM   18  C   UNL     1      -8.793  11.804  68.317  1.00  0.00    -0.172 A  
HETATM   19  C   UNL     1      -9.588   9.739  69.506  1.00  0.00    -0.225 C  
HETATM   20  C   UNL     1      -9.034  12.991  67.622  1.00  0.00    -0.192 A  
ENDBRANCH  11  14
ENDBRANCH   9  11
ENDBRANCH   7   9
ENDBRANCH   5   7
ENDBRANCH   4   5
ENDBRANCH   3   4
ENDBRANCH   2   3
TORSDOF 7
ENDMDL
MODEL       13
REMARK 921   NORMALIZED FREE ENERGY PREDICTED BY IDOCK:   -5.37 KCAL/MOL
REMARK 922        TOTAL FREE ENERGY PREDICTED BY IDOCK:   -8.19 KCAL/MOL
REMARK 923 INTER-LIGAND FREE ENERGY PREDICTED BY IDOCK:   -7.51 KCAL/MOL
REMARK 924 INTRA-LIGAND FREE ENERGY PREDICTED BY IDOCK:   -0.68 KCAL/MOL
REMARK 927      BINDING AFFINITY PREDICTED BY RF-SCORE:    0.00 PKD
ROOT
HETATM    1  C   UNL     1     -12.287   8.903  71.627  1.00  0.00    -0.405 C  
HETATM    2  C   UNL     1     -13.125  10.164  71.767  1.00  0.00    -0.568 C  
ENDROOT
BRANCH   2   3
HETATM    3  C   UNL     1     -12.623  11.281  70.847  1.00  0.00    -0.467 C  
BRANCH   3   4
HETATM    4  C   UNL     1     -12.993  12.671  71.366  1.00  0.00    -0.258 C  
BRANCH   4   5
HETATM    5  N   UNL     1     -12.143  13.716  70.829  1.00  0.00    -0.466 N  
HETATM    6  H   UNL     1     -11.162  13.515  70.634  1.00  0.00     0.000 HD 
BRANCH   5   7
HETATM    7  C   UNL     1     -12.635  14.967  70.580  1.00  0.00    -0.374 C  
HETATM    8  O   UNL     1     -13.113  15.681  71.448  1.00  0.00    -0.479 OA 
BRANCH   7   9
HETATM    9  N   UNL     1     -12.515  15.347  69.256  1.00  0.00    -0.603 N  
HETATM   10  H   UNL     1     -13.369  15.569  68.744  1.00  0.00     0.000 HD 
BRANCH   9  11
HETATM   11  S   UNL     1     -11.067  15.465  68.442  1.00  0.00    -0.317 S  
HETATM   12  O   UNL     1     -10.008  14.870  69.224  1.00  0.00    -0.217 OA 
HETATM   13  O   UNL     1     -10.983  16.850  68.019  1.00  0.00    -0.354 OA 
BRANCH  11  14
HETATM   14  C   UNL     1     -11.347  14.482  66.989  1.00  0.00    -0.349 A  
HETATM   15  C   UNL     1     -11.201  15.060  65.725  1.00  0.00    -0.318 A  
HETATM   16  C   UNL     1     -11.473  14.302  64.584  1.00  0.00    -0.389 A  
HETATM   17  C   UNL     1     -11.885  12.968  64.700  1.00  0.00    -0.422 A  
HETATM   18  C   UNL     1     -11.972  12.385  65.972  1.00  0.00    -0.419 A  
HETATM   19  C   UNL     1     -12.243  12.165  63.484  1.00  0.00    -0.670 C  
HETATM   20  C   UNL     1     -11.697  13.136  67.116  1.00  0.00    -0.430 A  
ENDBRANCH  11  14
ENDBRANCH   9  11
ENDBRANCH   7   9
ENDBRANCH   5   7
ENDBRANCH   4   5
ENDBRANCH   3   4
ENDBRANCH   2   3
TORSDOF 7
ENDMDL
MODEL       14
REMARK 921   NORMALIZED FREE ENERGY PREDICTED BY IDOCK:   -5.36 KCAL/MOL
REMARK 922        TOTAL FREE ENERGY PREDICTED BY IDOCK:   -8.18 KCAL/MOL
REMARK 923 INTER-LIGAND FREE ENERGY PREDICTED BY IDOCK:   -7.57 KCAL/MOL
REMARK 924 INTRA-LIGAND FREE ENERGY PREDICTED BY IDOCK:   -0.61 KCAL/MOL
REMARK 927      BINDING AFFINITY PREDICTED BY RF-SCORE:    0.00 PKD
ROOT
HETATM    1  C   UNL     1     -10.048  19.751  66.082  1.00  0.00    -0.600 C  
HETATM    2  C   UNL     1     -10.441  19.528  67.534  1.00  0.00    -0.596 C  
ENDROOT
BRANCH   2   3
HETATM    3  C   UNL     1     -10.783  18.062  67.809  1.00  0.00    -0.350 C  
BRANCH   3   4
HETATM    4  C   UNL     1     -10.018  17.105  66.893  1.00  0.00    -0.288 C  
BRANCH   4   5
HETATM    5  N   UNL     1     -10.877  16.120  66.265  1.00  0.00    -0.203 N  
HETATM    6  H   UNL     1     -11.450  15.508  66.847  1.00  0.00     0.000 HD 
BRANCH   5   7
HETATM    7  C   UNL     1     -10.932  15.997  64.904  1.00  0.00    -0.384 C  
HETATM    8  O   UNL     1     -11.246  16.916  64.164  1.00  0.00    -1.176 OA 
BRANCH   7   9
HETATM    9  N   UNL     1     -10.574  14.740  64.455  1.00  0.00    -0.564 N  
HETATM   10  H   UNL     1      -9.600  14.586  64.196  1.00  0.00     0.000 HD 
BRANCH   9  11
HETATM   11  S   UNL     1     -11.630  13.460  64.310  1.00  0.00    -0.405 S  
HETATM   12  O   UNL     1     -12.425  13.607  63.112  1.00  0.00    -0.786 OA 
HETATM   13  O   UNL     1     -12.265  13.345  65.608  1.00  0.00    -0.409 OA 
BRANCH  11  14
HETATM   14  C   UNL     1     -10.542  12.068  64.126  1.00  0.00    -0.355 A  
HETATM   15  C   UNL     1     -10.291  11.550  62.853  1.00  0.00    -0.157 A  
HETATM   16  C   UNL     1      -9.478  10.423  62.714  1.00  0.00    -0.351 A  
HETATM   17  C   UNL     1      -8.910   9.814  63.840  1.00  0.00    -0.259 A  
HETATM   18  C   UNL     1      -9.124  10.379  65.106  1.00  0.00    -0.232 A  
HETATM   19  C   UNL     1      -8.090   8.564  63.710  1.00  0.00    -0.154 C  
HETATM   20  C   UNL     1      -9.931  11.508  65.251  1.00  0.00    -0.302 A  
ENDBRANCH  11  14
ENDBRANCH   9  11
ENDBRANCH   7   9
ENDBRANCH   5   7
ENDBRANCH   4   5
ENDBRANCH   3   4
ENDBRANCH   2   3
TORSDOF 7
ENDMDL
MODEL       15
REMARK 921   NORMALIZED FREE ENERGY PREDICTED BY IDOCK:   -5.31 KCAL/MOL
REMARK 922        TOTAL FREE ENERGY PREDICTED BY IDOCK:   -8.10 KCAL/MOL
REMARK 923 INTER-LIGAND FREE ENERGY PREDICTED BY IDOCK:   -6.57 KCAL/MOL
REMARK 924 INTRA-LIGAND FREE ENERGY PREDICTED BY IDOCK:   -1.53 KCAL/MOL
REMARK 927      BINDING AFFINITY PREDICTED BY RF-SCORE:    0.00 PKD
ROOT
HETATM    1  C   UNL     1      -7.953  13.664  68.475  1.00  0.00    -0.127 C  
HETATM    2  C   UNL     1      -8.510  13.038  67.206  1.00  0.00    -0.199 C  
ENDROOT
BRANCH   2   3
HETATM    3  C   UNL     1      -9.034  11.622  67.457  1.00  0.00    -0.165 C  
BRANCH   3   4
HETATM    4  C   UNL     1      -9.638  10.994  66.200  1.00  0.00    -0.207 C  
BRANCH   4   5
HETATM    5  N   UNL     1      -9.282  11.706  64.989  1.00  0.00    -0.419 N  
HETATM    6  H   UNL     1      -8.325  12.037  64.863  1.00  0.00     0.000 HD 
BRANCH   5   7
HETATM    7  C   UNL     1     -10.207  11.941  64.010  1.00  0.00    -0.361 C  
HETATM    8  O   UNL     1     -10.568  11.089  63.214  1.00  0.00    -0.312 OA 
BRANCH   7   9
HETATM    9  N   UNL     1     -10.707  13.230  64.031  1.00  0.00    -0.535 N  
HETATM   10  H   UNL     1     -10.113  13.978  63.674  1.00  0.00     0.000 HD 
BRANCH   9  11
HETATM   11  S   UNL     1     -12.216  13.642  64.602  1.00  0.00    -0.400 S  
HETATM   12  O   UNL     1     -13.057  12.469  64.674  1.00  0.00    -0.845 OA 
HETATM   13  O   UNL     1     -12.618  14.790  63.812  1.00  0.00    -0.806 OA 
BRANCH  11  14
HETATM   14  C   UNL     1     -11.875  14.222  66.246  1.00  0.00    -0.406 A  
HETATM   15  C   UNL     1     -11.238  15.452  66.426  1.00  0.00    -0.164 A  
HETATM   16  C   UNL     1     -10.922  15.884  67.716  1.00  0.00    -0.315 A  
HETATM   17  C   UNL     1     -11.244  15.093  68.827  1.00  0.00    -0.293 A  
HETATM   18  C   UNL     1     -11.934  13.887  68.635  1.00  0.00    -0.401 A  
HETATM   19  C   UNL     1     -10.850  15.515  70.213  1.00  0.00    -0.358 C  
HETATM   20  C   UNL     1     -12.257  13.453  67.348  1.00  0.00    -0.262 A  
ENDBRANCH  11  14
ENDBRANCH   9  11
ENDBRANCH   7   9
ENDBRANCH   5   7
ENDBRANCH   4   5
ENDBRANCH   3   4
ENDBRANCH   2   3
TORSDOF 7
ENDMDL
MODEL       16
REMARK 921   NORMALIZED FREE ENERGY PREDICTED BY IDOCK:   -5.31 KCAL/MOL
REMARK 922        TOTAL FREE ENERGY PREDICTED BY IDOCK:   -8.10 KCAL/MOL
REMARK 923 INTER-LIGAND FREE ENERGY PREDICTED BY IDOCK:   -7.73 KCAL/MOL
REMARK 924 INTRA-LIGAND FREE ENERGY PREDICTED BY IDOCK:   -0.37 KCAL/MOL
REMARK 927      BINDING AFFINITY PREDICTED BY RF-SCORE:    0.00 PKD
ROOT
HETATM    1  C   UNL     1     -12.335  15.411  73.827  1.00  0.00    -0.735 C  
HETATM    2  C   UNL     1     -12.155  16.019  72.445  1.00  0.00    -0.629 C  
ENDROOT
BRANCH   2   3
HETATM    3  C   UNL     1     -12.974  15.274  71.388  1.00  0.00    -0.503 C  
BRANCH   3   4
HETATM    4  C   UNL     1     -12.207  14.100  70.778  1.00  0.00    -0.365 C  
BRANCH   4   5
HETATM    5  N   UNL     1     -11.277  14.512  69.744  1.00  0.00    -0.328 N  
HETATM    6  H   UNL     1     -10.280  14.328  69.863  1.00  0.00     0.000 HD 
BRANCH   5   7
HETATM    7  C   UNL     1     -11.714  15.144  68.613  1.00  0.00    -0.341 C  
HETATM    8  O   UNL     1     -11.494  16.322  68.380  1.00  0.00    -0.357 OA 
BRANCH   7   9
HETATM    9  N   UNL     1     -12.406  14.309  67.756  1.00  0.00    -0.578 N  
HETATM   10  H   UNL     1     -13.237  13.838  68.116  1.00  0.00     0.000 HD 
BRANCH   9  11
HETATM   11  S   UNL     1     -11.974  14.022  66.174  1.00  0.00    -0.440 S  
HETATM   12  O   UNL     1     -10.918  14.924  65.777  1.00  0.00    -0.326 OA 
HETATM   13  O   UNL     1     -13.225  13.983  65.442  1.00  0.00    -0.761 OA 
BRANCH  11  14
HETATM   14  C   UNL     1     -11.340  12.363  66.230  1.00  0.00    -0.340 A  
HETATM   15  C   UNL     1     -11.410  11.637  67.422  1.00  0.00    -0.367 A  
HETATM   16  C   UNL     1     -10.864  10.353  67.480  1.00  0.00    -0.358 A  
HETATM   17  C   UNL     1     -10.254   9.789  66.353  1.00  0.00    -0.288 A  
HETATM   18  C   UNL     1     -10.242  10.507  65.148  1.00  0.00    -0.358 A  
HETATM   19  C   UNL     1      -9.605   8.438  66.422  1.00  0.00    -0.307 C  
HETATM   20  C   UNL     1     -10.791  11.789  65.082  1.00  0.00    -0.351 A  
ENDBRANCH  11  14
ENDBRANCH   9  11
ENDBRANCH   7   9
ENDBRANCH   5   7
ENDBRANCH   4   5
ENDBRANCH   3   4
ENDBRANCH   2   3
TORSDOF 7
ENDMDL
MODEL       17
REMARK 921   NORMALIZED FREE ENERGY PREDICTED BY IDOCK:   -5.29 KCAL/MOL
REMARK 922        TOTAL FREE ENERGY PREDICTED BY IDOCK:   -8.08 KCAL/MOL
REMARK 923 INTER-LIGAND FREE ENERGY PREDICTED BY IDOCK:   -7.43 KCAL/MOL
REMARK 924 INTRA-LIGAND FREE ENERGY PREDICTED BY IDOCK:   -0.65 KCAL/MOL
REMARK 927      BINDING AFFINITY PREDICTED BY RF-SCORE:    0.00 PKD
ROOT
HETATM    1  C   UNL     1      -9.279   9.879  64.252  1.00  0.00    -0.317 C  
HETATM    2  C   UNL     1     -10.382  10.873  64.580  1.00  0.00    -0.407 C  
ENDROOT
BRANCH   2   3
HETATM    3  C   UNL     1     -10.750  11.730  63.367  1.00  0.00    -0.468 C  
BRANCH   3   4
HETATM    4  C   UNL     1     -12.217  12.161  63.382  1.00  0.00    -0.530 C  
BRANCH   4   5
HETATM    5  N   UNL     1     -12.631  12.703  64.662  1.00  0.00    -0.643 N  
HETATM    6  H   UNL     1     -12.973  12.072  65.388  1.00  0.00     0.000 HD 
BRANCH   5   7
HETATM    7  C   UNL     1     -12.571  14.045  64.913  1.00  0.00    -0.342 C  
HETATM    8  O   UNL     1     -12.570  14.889  64.030  1.00  0.00    -0.832 OA 
BRANCH   7   9
HETATM    9  N   UNL     1     -12.535  14.347  66.261  1.00  0.00    -0.433 N  
HETATM   10  H   UNL     1     -13.414  14.590  66.719  1.00  0.00     0.000 HD 
BRANCH   9  11
HETATM   11  S   UNL     1     -11.152  14.341  67.188  1.00  0.00    -0.321 S  
HETATM   12  O   UNL     1     -10.086  13.667  66.484  1.00  0.00    -0.272 OA 
HETATM   13  O   UNL     1     -11.576  13.884  68.497  1.00  0.00    -0.288 OA 
BRANCH  11  14
HETATM   14  C   UNL     1     -10.761  16.069  67.330  1.00  0.00    -0.295 A  
HETATM   15  C   UNL     1     -10.584  16.834  66.174  1.00  0.00    -0.212 A  
HETATM   16  C   UNL     1     -10.226  18.179  66.285  1.00  0.00    -0.401 A  
HETATM   17  C   UNL     1     -10.048  18.764  67.546  1.00  0.00    -0.408 A  
HETATM   18  C   UNL     1     -10.285  17.999  68.697  1.00  0.00    -0.385 A  
HETATM   19  C   UNL     1      -9.598  20.190  67.677  1.00  0.00    -0.534 C  
HETATM   20  C   UNL     1     -10.649  16.656  68.592  1.00  0.00    -0.337 A  
ENDBRANCH  11  14
ENDBRANCH   9  11
ENDBRANCH   7   9
ENDBRANCH   5   7
ENDBRANCH   4   5
ENDBRANCH   3   4
ENDBRANCH   2   3
TORSDOF 7
ENDMDL
MODEL       18
REMARK 921   NORMALIZED FREE ENERGY PREDICTED BY IDOCK:   -5.25 KCAL/MOL
REMARK 922        TOTAL FREE ENERGY PREDICTED BY IDOCK:   -8.02 KCAL/MOL
REMARK 923 INTER-LIGAND FREE ENERGY PREDICTED BY IDOCK:   -7.15 KCAL/MOL
REMARK 924 INTRA-LIGAND FREE ENERGY PREDICTED BY IDOCK:   -0.87 KCAL/MOL
REMARK 927      BINDING AFFINITY PREDICTED BY RF-SCORE:    0.00 PKD
ROOT
HETATM    1  C   UNL     1     -10.415  10.333  69.005  1.00  0.00    -0.238 C  
HETATM    2  C   UNL     1     -10.923  10.362  67.572  1.00  0.00    -0.358 C  
ENDROOT
BRANCH   2   3
HETATM    3  C   UNL     1     -10.160   9.378  66.682  1.00  0.00    -0.332 C  
BRANCH   3   4
HETATM    4  C   UNL     1      -9.892   9.944  65.287  1.00  0.00    -0.303 C  
BRANCH   4   5
HETATM    5  N   UNL     1     -10.600  11.184  65.037  1.00  0.00    -0.293 N  
HETATM    6  H   UNL     1     -11.284  11.518  65.716  1.00  0.00     0.000 HD 
BRANCH   5   7
HETATM    7  C   UNL     1     -10.366  11.915  63.905  1.00  0.00    -0.389 C  
HETATM    8  O   UNL     1      -9.922  11.428  62.877  1.00  0.00    -0.315 OA 
BRANCH   7   9
HETATM    9  N   UNL     1     -10.705  13.249  64.036  1.00  0.00    -0.535 N  
HETATM   10  H   UNL     1     -10.035  13.945  63.710  1.00  0.00     0.000 HD 
BRANCH   9  11
HETATM   11  S   UNL     1     -12.134  13.793  64.694  1.00  0.00    -0.427 S  
HETATM   12  O   UNL     1     -13.058  12.694  64.852  1.00  0.00    -0.850 OA 
HETATM   13  O   UNL     1     -12.496  14.952  63.901  1.00  0.00    -0.806 OA 
BRANCH  11  14
HETATM   14  C   UNL     1     -11.637  14.379  66.295  1.00  0.00    -0.372 A  
HETATM   15  C   UNL     1     -12.031  13.680  67.440  1.00  0.00    -0.413 A  
HETATM   16  C   UNL     1     -11.684  14.170  68.700  1.00  0.00    -0.385 A  
HETATM   17  C   UNL     1     -10.942  15.352  68.824  1.00  0.00    -0.264 A  
HETATM   18  C   UNL     1     -10.505  16.011  67.666  1.00  0.00    -0.292 A  
HETATM   19  C   UNL     1     -10.622  15.923  70.174  1.00  0.00    -0.302 C  
HETATM   20  C   UNL     1     -10.844  15.524  66.402  1.00  0.00    -0.277 A  
ENDBRANCH  11  14
ENDBRANCH   9  11
ENDBRANCH   7   9
ENDBRANCH   5   7
ENDBRANCH   4   5
ENDBRANCH   3   4
ENDBRANCH   2   3
TORSDOF 7
ENDMDL
MODEL       19
REMARK 921   NORMALIZED FREE ENERGY PREDICTED BY IDOCK:   -5.25 KCAL/MOL
REMARK 922        TOTAL FREE ENERGY PREDICTED BY IDOCK:   -8.02 KCAL/MOL
REMARK 923 INTER-LIGAND FREE ENERGY PREDICTED BY IDOCK:   -7.36 KCAL/MOL
REMARK 924 INTRA-LIGAND FREE ENERGY PREDICTED BY IDOCK:   -0.66 KCAL/MOL
REMARK 927      BINDING AFFINITY PREDICTED BY RF-SCORE:    0.00 PKD
ROOT
HETATM    1  C   UNL     1     -12.570  15.340  73.738  1.00  0.00    -0.736 C  
HETATM    2  C   UNL     1     -13.747  15.657  72.828  1.00  0.00    -0.662 C  
ENDROOT
BRANCH   2   3
HETATM    3  C   UNL     1     -14.278  14.401  72.133  1.00  0.00    -0.626 C  
BRANCH   3   4
HETATM    4  C   UNL     1     -13.154  13.488  71.642  1.00  0.00    -0.374 C  
BRANCH   4   5
HETATM    5  N   UNL     1     -12.633  13.883  70.348  1.00  0.00    -0.312 N  
HETATM    6  H   UNL     1     -12.986  14.729  69.901  1.00  0.00     0.000 HD 
BRANCH   5   7
HETATM    7  C   UNL     1     -11.675  13.139  69.716  1.00  0.00    -0.280 C  
HETATM    8  O   UNL     1     -11.819  11.956  69.448  1.00  0.00    -0.301 OA 
BRANCH   7   9
HETATM    9  N   UNL     1     -10.544  13.866  69.394  1.00  0.00    -0.444 N  
HETATM   10  H   UNL     1      -9.687  13.667  69.909  1.00  0.00     0.000 HD 
BRANCH   9  11
HETATM   11  S   UNL     1     -10.490  15.045  68.220  1.00  0.00    -0.242 S  
HETATM   12  O   UNL     1      -9.136  15.522  68.058  1.00  0.00    -0.180 OA 
HETATM   13  O   UNL     1     -11.560  15.964  68.558  1.00  0.00    -0.377 OA 
BRANCH  11  14
HETATM   14  C   UNL     1     -10.985  14.170  66.756  1.00  0.00    -0.300 A  
HETATM   15  C   UNL     1     -12.313  14.236  66.327  1.00  0.00    -0.399 A  
HETATM   16  C   UNL     1     -12.714  13.506  65.206  1.00  0.00    -0.481 A  
HETATM   17  C   UNL     1     -11.792  12.714  64.508  1.00  0.00    -0.441 A  
HETATM   18  C   UNL     1     -10.450  12.703  64.916  1.00  0.00    -0.331 A  
HETATM   19  C   UNL     1     -12.225  11.874  63.343  1.00  0.00    -0.561 C  
HETATM   20  C   UNL     1     -10.043  13.435  66.032  1.00  0.00    -0.308 A  
ENDBRANCH  11  14
ENDBRANCH   9  11
ENDBRANCH   7   9
ENDBRANCH   5   7
ENDBRANCH   4   5
ENDBRANCH   3   4
ENDBRANCH   2   3
TORSDOF 7
ENDMDL
MODEL       20
REMARK 921   NORMALIZED FREE ENERGY PREDICTED BY IDOCK:   -5.23 KCAL/MOL
REMARK 922        TOTAL FREE ENERGY PREDICTED BY IDOCK:   -8.00 KCAL/MOL
REMARK 923 INTER-LIGAND FREE ENERGY PREDICTED BY IDOCK:   -7.25 KCAL/MOL
REMARK 924 INTRA-LIGAND FREE ENERGY PREDICTED BY IDOCK:   -0.75 KCAL/MOL
REMARK 927      BINDING AFFINITY PREDICTED BY RF-SCORE:    0.00 PKD
ROOT
HETATM    1  C   UNL     1     -12.304  15.963  72.700  1.00  0.00    -0.581 C  
HETATM    2  C   UNL     1     -13.748  15.509  72.556  1.00  0.00    -0.668 C  
ENDROOT
BRANCH   2   3
HETATM    3  C   UNL     1     -13.856  14.217  71.742  1.00  0.00    -0.498 C  
BRANCH   3   4
HETATM    4  C   UNL     1     -12.550  13.869  71.028  1.00  0.00    -0.371 C  
BRANCH   4   5
HETATM    5  N   UNL     1     -12.612  14.099  69.597  1.00  0.00    -0.459 N  
HETATM    6  H   UNL     1     -13.515  14.275  69.156  1.00  0.00     0.000 HD 
BRANCH   5   7
HETATM    7  C   UNL     1     -11.480  14.083  68.830  1.00  0.00    -0.294 C  
HETATM    8  O   UNL     1     -11.228  14.938  67.996  1.00  0.00    -0.282 OA 
BRANCH   7   9
HETATM    9  N   UNL     1     -10.645  13.018  69.112  1.00  0.00    -0.441 N  
HETATM   10  H   UNL     1      -9.888  13.169  69.779  1.00  0.00     0.000 HD 
BRANCH   9  11
HETATM   11  S   UNL     1     -10.793  11.505  68.434  1.00  0.00    -0.228 S  
HETATM   12  O   UNL     1      -9.665  11.234  67.573  1.00  0.00    -0.175 OA 
HETATM   13  O   UNL     1     -12.146  11.454  67.915  1.00  0.00    -0.646 OA 
BRANCH  11  14
HETATM   14  C   UNL     1     -10.726  10.429  69.846  1.00  0.00    -0.279 A  
HETATM   15  C   UNL     1      -9.582   9.660  70.076  1.00  0.00    -0.281 A  
HETATM   16  C   UNL     1      -9.550   8.776  71.156  1.00  0.00    -0.309 A  
HETATM   17  C   UNL     1     -10.654   8.659  72.010  1.00  0.00    -0.421 A  
HETATM   18  C   UNL     1     -11.773   9.478  71.801  1.00  0.00    -0.411 A  
HETATM   19  C   UNL     1     -10.656   7.664  73.134  1.00  0.00    -0.438 C  
HETATM   20  C   UNL     1     -11.809  10.368  70.727  1.00  0.00    -0.466 A  
ENDBRANCH  11  14
ENDBRANCH   9  11
ENDBRANCH   7   9
ENDBRANCH   5   7
ENDBRANCH   4   5
ENDBRANCH   3   4
ENDBRANCH   2   3
TORSDOF 7
ENDMDL
MODEL       21
REMARK 921   NORMALIZED FREE ENERGY PREDICTED BY IDOCK:   -5.23 KCAL/MOL
REMARK 922        TOTAL FREE ENERGY PREDICTED BY IDOCK:   -8.00 KCAL/MOL
REMARK 923 INTER-LIGAND FREE ENERGY PREDICTED BY IDOCK:   -7.31 KCAL/MOL
REMARK 924 INTRA-LIGAND FREE ENERGY PREDICTED BY IDOCK:   -0.69 KCAL/MOL
REMARK 927      BINDING AFFINITY PREDICTED BY RF-SCORE:    0.00 PKD
ROOT
HETATM    1  C   UNL     1      -9.765   9.275  66.026  1.00  0.00    -0.359 C  
HETATM    2  C   UNL     1     -10.139  10.676  65.569  1.00  0.00    -0.343 C  
ENDROOT
BRANCH   2   3
HETATM    3  C   UNL     1      -9.797  10.900  64.094  1.00  0.00    -0.369 C  
BRANCH   3   4
HETATM    4  C   UNL     1     -10.999  11.390  63.287  1.00  0.00    -0.164 C  
BRANCH   4   5
HETATM    5  N   UNL     1     -11.226  12.816  63.424  1.00  0.00    -0.655 N  
HETATM    6  H   UNL     1     -10.634  13.471  62.913  1.00  0.00     0.000 HD 
BRANCH   5   7
HETATM    7  C   UNL     1     -12.221  13.297  64.229  1.00  0.00    -0.392 C  
HETATM    8  O   UNL     1     -13.137  12.605  64.644  1.00  0.00    -0.821 OA 
BRANCH   7   9
HETATM    9  N   UNL     1     -12.070  14.636  64.542  1.00  0.00    -0.486 N  
HETATM   10  H   UNL     1     -12.784  15.286  64.212  1.00  0.00     0.000 HD 
BRANCH   9  11
HETATM   11  S   UNL     1     -10.800  15.256  65.421  1.00  0.00    -0.408 S  
HETATM   12  O   UNL     1     -10.692  16.680  65.199  1.00  0.00    -0.621 OA 
HETATM   13  O   UNL     1      -9.681  14.378  65.138  1.00  0.00    -0.194 OA 
BRANCH  11  14
HETATM   14  C   UNL     1     -11.297  14.960  67.100  1.00  0.00    -0.343 A  
HETATM   15  C   UNL     1     -11.574  13.656  67.519  1.00  0.00    -0.384 A  
HETATM   16  C   UNL     1     -12.015  13.429  68.824  1.00  0.00    -0.359 A  
HETATM   17  C   UNL     1     -12.177  14.499  69.715  1.00  0.00    -0.360 A  
HETATM   18  C   UNL     1     -11.840  15.795  69.298  1.00  0.00    -0.358 A  
HETATM   19  C   UNL     1     -12.714  14.275  71.098  1.00  0.00    -0.430 C  
HETATM   20  C   UNL     1     -11.393  16.027  67.996  1.00  0.00    -0.266 A  
ENDBRANCH  11  14
ENDBRANCH   9  11
ENDBRANCH   7   9
ENDBRANCH   5   7
ENDBRANCH   4   5
ENDBRANCH   3   4
ENDBRANCH   2   3
TORSDOF 7
ENDMDL
MODEL       22
REMARK 921   NORMALIZED FREE ENERGY PREDICTED BY IDOCK:   -5.22 KCAL/MOL
REMARK 922        TOTAL FREE ENERGY PREDICTED BY IDOCK:   -7.98 KCAL/MOL
REMARK 923 INTER-LIGAND FREE ENERGY PREDICTED BY IDOCK:   -7.07 KCAL/MOL
REMARK 924 INTRA-LIGAND FREE ENERGY PREDICTED BY IDOCK:   -0.91 KCAL/MOL
REMARK 927      BINDING AFFINITY PREDICTED BY RF-SCORE:    0.00 PKD
ROOT
HETATM    1  C   UNL     1     -12.479  12.008  63.424  1.00  0.00    -0.625 C  
HETATM    2  C   UNL     1     -11.930  13.381  63.778  1.00  0.00    -0.517 C  
ENDROOT
BRANCH   2   3
HETATM    3  C   UNL     1     -10.622  13.281  64.566  1.00  0.00    -0.437 C  
BRANCH   3   4
HETATM    4  C   UNL     1     -10.327  14.550  65.366  1.00  0.00    -0.382 C  
BRANCH   4   5
HETATM    5  N   UNL     1     -10.434  14.350  66.798  1.00  0.00    -0.271 N  
HETATM    6  H   UNL     1     -11.243  14.719  67.298  1.00  0.00     0.000 HD 
BRANCH   5   7
HETATM    7  C   UNL     1      -9.467  13.675  67.490  1.00  0.00    -0.222 C  
HETATM    8  O   UNL     1      -8.273  13.822  67.283  1.00  0.00    -0.180 OA 
BRANCH   7   9
HETATM    9  N   UNL     1      -9.978  12.833  68.460  1.00  0.00    -0.344 N  
HETATM   10  H   UNL     1      -9.324  12.419  69.125  1.00  0.00     0.000 HD 
BRANCH   9  11
HETATM   11  S   UNL     1     -11.591  12.448  68.613  1.00  0.00    -0.338 S  
HETATM   12  O   UNL     1     -12.091  11.902  67.372  1.00  0.00    -0.577 OA 
HETATM   13  O   UNL     1     -12.204  13.622  69.204  1.00  0.00    -0.326 OA 
BRANCH  11  14
HETATM   14  C   UNL     1     -11.579  11.175  69.852  1.00  0.00    -0.337 A  
HETATM   15  C   UNL     1     -10.510  10.277  69.911  1.00  0.00    -0.304 A  
HETATM   16  C   UNL     1     -10.526   9.245  70.851  1.00  0.00    -0.372 A  
HETATM   17  C   UNL     1     -11.604   9.107  71.736  1.00  0.00    -0.457 A  
HETATM   18  C   UNL     1     -12.642  10.049  71.703  1.00  0.00    -0.524 A  
HETATM   19  C   UNL     1     -11.664   7.963  72.704  1.00  0.00    -0.398 C  
HETATM   20  C   UNL     1     -12.629  11.087  70.770  1.00  0.00    -0.463 A  
ENDBRANCH  11  14
ENDBRANCH   9  11
ENDBRANCH   7   9
ENDBRANCH   5   7
ENDBRANCH   4   5
ENDBRANCH   3   4
ENDBRANCH   2   3
TORSDOF 7
ENDMDL
MODEL       23
REMARK 921   NORMALIZED FREE ENERGY PREDICTED BY IDOCK:   -5.20 KCAL/MOL
REMARK 922        TOTAL FREE ENERGY PREDICTED BY IDOCK:   -7.95 KCAL/MOL
REMARK 923 INTER-LIGAND FREE ENERGY PREDICTED BY IDOCK:   -7.19 KCAL/MOL
REMARK 924 INTRA-LIGAND FREE ENERGY PREDICTED BY IDOCK:   -0.77 KCAL/MOL
REMARK 927      BINDING AFFINITY PREDICTED BY RF-SCORE:    0.00 PKD
ROOT
HETATM    1  C   UNL     1     -13.928   8.694  71.800  1.00  0.00    -0.492 C  
HETATM    2  C   UNL     1     -13.096   9.933  71.508  1.00  0.00    -0.516 C  
ENDROOT
BRANCH   2   3
HETATM    3  C   UNL     1     -11.603   9.606  71.435  1.00  0.00    -0.472 C  
BRANCH   3   4
HETATM    4  C   UNL     1     -10.921  10.267  70.236  1.00  0.00    -0.309 C  
BRANCH   4   5
HETATM    5  N   UNL     1     -11.763  10.295  69.055  1.00  0.00    -0.503 N  
HETATM    6  H   UNL     1     -12.572   9.676  69.001  1.00  0.00     0.000 HD 
BRANCH   5   7
HETATM    7  C   UNL     1     -11.490  11.138  68.014  1.00  0.00    -0.293 C  
HETATM    8  O   UNL     1     -10.829  10.806  67.043  1.00  0.00    -0.265 OA 
BRANCH   7   9
HETATM    9  N   UNL     1     -12.058  12.390  68.163  1.00  0.00    -0.192 N  
HETATM   10  H   UNL     1     -13.076  12.455  68.161  1.00  0.00     0.000 HD 
BRANCH   9  11
HETATM   11  S   UNL     1     -11.188  13.798  68.343  1.00  0.00    -0.291 S  
HETATM   12  O   UNL     1     -11.555  14.743  67.314  1.00  0.00    -0.370 OA 
HETATM   13  O   UNL     1      -9.810  13.374  68.498  1.00  0.00    -0.230 OA 
BRANCH  11  14
HETATM   14  C   UNL     1     -11.737  14.404  69.920  1.00  0.00    -0.303 A  
HETATM   15  C   UNL     1     -11.382  15.693  70.327  1.00  0.00    -0.357 A  
HETATM   16  C   UNL     1     -11.769  16.149  71.589  1.00  0.00    -0.558 A  
HETATM   17  C   UNL     1     -12.514  15.326  72.444  1.00  0.00    -0.443 A  
HETATM   18  C   UNL     1     -12.911  14.057  72.000  1.00  0.00    -0.450 A  
HETATM   19  C   UNL     1     -12.878  15.781  73.827  1.00  0.00    -0.710 C  
HETATM   20  C   UNL     1     -12.532  13.597  70.738  1.00  0.00    -0.432 A  
ENDBRANCH  11  14
ENDBRANCH   9  11
ENDBRANCH   7   9
ENDBRANCH   5   7
ENDBRANCH   4   5
ENDBRANCH   3   4
ENDBRANCH   2   3
TORSDOF 7
ENDMDL
MODEL       24
REMARK 921   NORMALIZED FREE ENERGY PREDICTED BY IDOCK:   -5.16 KCAL/MOL
REMARK 922        TOTAL FREE ENERGY PREDICTED BY IDOCK:   -7.89 KCAL/MOL
REMARK 923 INTER-LIGAND FREE ENERGY PREDICTED BY IDOCK:   -6.58 KCAL/MOL
REMARK 924 INTRA-LIGAND FREE ENERGY PREDICTED BY IDOCK:   -1.31 KCAL/MOL
REMARK 927      BINDING AFFINITY PREDICTED BY RF-SCORE:    0.00 PKD
ROOT
HETATM    1  C   UNL     1     -11.211  10.039  70.672  1.00  0.00    -0.425 C  
HETATM    2  C   UNL     1     -12.039  11.300  70.475  1.00  0.00    -0.481 C  
ENDROOT
BRANCH   2   3
HETATM    3  C   UNL     1     -13.121  11.439  71.548  1.00  0.00    -0.438 C  
BRANCH   3   4
HETATM    4  C   UNL     1     -13.345  12.894  71.963  1.00  0.00    -0.482 C  
BRANCH   4   5
HETATM    5  N   UNL     1     -12.445  13.814  71.295  1.00  0.00    -0.357 N  
HETATM    6  H   UNL     1     -11.471  13.549  71.151  1.00  0.00     0.000 HD 
BRANCH   5   7
HETATM    7  C   UNL     1     -12.881  15.033  70.855  1.00  0.00    -0.391 C  
HETATM    8  O   UNL     1     -13.478  15.825  71.568  1.00  0.00    -0.473 OA 
BRANCH   7   9
HETATM    9  N   UNL     1     -12.558  15.284  69.534  1.00  0.00    -0.607 N  
HETATM   10  H   UNL     1     -13.323  15.376  68.866  1.00  0.00     0.000 HD 
BRANCH   9  11
HETATM   11  S   UNL     1     -11.002  15.446  68.964  1.00  0.00    -0.271 S  
HETATM   12  O   UNL     1     -10.082  15.590  70.068  1.00  0.00    -0.301 OA 
HETATM   13  O   UNL     1     -11.082  16.461  67.932  1.00  0.00    -0.326 OA 
BRANCH  11  14
HETATM   14  C   UNL     1     -10.712  13.890  68.156  1.00  0.00    -0.250 A  
HETATM   15  C   UNL     1     -11.743  13.283  67.434  1.00  0.00    -0.419 A  
HETATM   16  C   UNL     1     -11.531  12.036  66.844  1.00  0.00    -0.402 A  
HETATM   17  C   UNL     1     -10.291  11.394  66.967  1.00  0.00    -0.258 A  
HETATM   18  C   UNL     1      -9.248  12.041  67.646  1.00  0.00    -0.182 A  
HETATM   19  C   UNL     1     -10.073  10.025  66.394  1.00  0.00    -0.307 C  
HETATM   20  C   UNL     1      -9.453  13.290  68.233  1.00  0.00    -0.209 A  
ENDBRANCH  11  14
ENDBRANCH   9  11
ENDBRANCH   7   9
ENDBRANCH   5   7
ENDBRANCH   4   5
ENDBRANCH   3   4
ENDBRANCH   2   3
TORSDOF 7
ENDMDL
MODEL       25
REMARK 921   NORMALIZED FREE ENERGY PREDICTED BY IDOCK:   -5.14 KCAL/MOL
REMARK 922        TOTAL FREE ENERGY PREDICTED BY IDOCK:   -7.87 KCAL/MOL
REMARK 923 INTER-LIGAND FREE ENERGY PREDICTED BY IDOCK:   -7.46 KCAL/MOL
REMARK 924 INTRA-LIGAND FREE ENERGY PREDICTED BY IDOCK:   -0.40 KCAL/MOL
REMARK 927      BINDING AFFINITY PREDICTED BY RF-SCORE:    0.00 PKD
ROOT
HETATM    1  C   UNL     1      -7.767  16.987  68.667  1.00  0.00    -0.251 C  
HETATM    2  C   UNL     1      -7.512  17.038  67.169  1.00  0.00    -0.205 C  
ENDROOT
BRANCH   2   3
HETATM    3  C   UNL     1      -8.642  17.755  66.427  1.00  0.00    -0.260 C  
BRANCH   3   4
HETATM    4  C   UNL     1     -10.024  17.242  66.837  1.00  0.00    -0.294 C  
BRANCH   4   5
HETATM    5  N   UNL     1     -10.335  15.946  66.265  1.00  0.00    -0.301 N  
HETATM    6  H   UNL     1     -10.221  15.106  66.833  1.00  0.00     0.000 HD 
BRANCH   5   7
HETATM    7  C   UNL     1     -10.780  15.832  64.978  1.00  0.00    -0.421 C  
HETATM    8  O   UNL     1     -11.192  16.779  64.327  1.00  0.00    -1.163 OA 
BRANCH   7   9
HETATM    9  N   UNL     1     -10.694  14.543  64.483  1.00  0.00    -0.618 N  
HETATM   10  H   UNL     1      -9.817  14.259  64.046  1.00  0.00     0.000 HD 
BRANCH   9  11
HETATM   11  S   UNL     1     -11.925  13.426  64.555  1.00  0.00    -0.428 S  
HETATM   12  O   UNL     1     -11.816  12.495  63.456  1.00  0.00    -0.470 OA 
HETATM   13  O   UNL     1     -13.133  14.206  64.744  1.00  0.00    -0.625 OA 
BRANCH  11  14
HETATM   14  C   UNL     1     -11.600  12.574  66.080  1.00  0.00    -0.395 A  
HETATM   15  C   UNL     1     -11.026  11.301  66.051  1.00  0.00    -0.237 A  
HETATM   16  C   UNL     1     -10.819  10.610  67.247  1.00  0.00    -0.345 A  
HETATM   17  C   UNL     1     -11.179  11.187  68.472  1.00  0.00    -0.318 A  
HETATM   18  C   UNL     1     -11.701  12.488  68.490  1.00  0.00    -0.369 A  
HETATM   19  C   UNL     1     -11.023  10.428  69.757  1.00  0.00    -0.345 C  
HETATM   20  C   UNL     1     -11.905  13.186  67.298  1.00  0.00    -0.420 A  
ENDBRANCH  11  14
ENDBRANCH   9  11
ENDBRANCH   7   9
ENDBRANCH   5   7
ENDBRANCH   4   5
ENDBRANCH   3   4
ENDBRANCH   2   3
TORSDOF 7
ENDMDL
MODEL       26
REMARK 921   NORMALIZED FREE ENERGY PREDICTED BY IDOCK:   -5.14 KCAL/MOL
REMARK 922        TOTAL FREE ENERGY PREDICTED BY IDOCK:   -7.87 KCAL/MOL
REMARK 923 INTER-LIGAND FREE ENERGY PREDICTED BY IDOCK:   -6.40 KCAL/MOL
REMARK 924 INTRA-LIGAND FREE ENERGY PREDICTED BY IDOCK:   -1.47 KCAL/MOL
REMARK 927      BINDING AFFINITY PREDICTED BY RF-SCORE:    0.00 PKD
ROOT
HETATM    1  C   UNL     1      -9.677  10.362  63.254  1.00  0.00    -0.308 C  
HETATM    2  C   UNL     1     -10.140  11.808  63.170  1.00  0.00    -0.386 C  
ENDROOT
BRANCH   2   3
HETATM    3  C   UNL     1     -11.538  11.989  63.765  1.00  0.00    -0.565 C  
BRANCH   3   4
HETATM    4  C   UNL     1     -12.156  13.339  63.398  1.00  0.00    -0.439 C  
BRANCH   4   5
HETATM    5  N   UNL     1     -12.206  14.258  64.519  1.00  0.00    -0.539 N  
HETATM    6  H   UNL     1     -12.881  14.101  65.268  1.00  0.00     0.000 HD 
BRANCH   5   7
HETATM    7  C   UNL     1     -11.364  15.332  64.588  1.00  0.00    -0.358 C  
HETATM    8  O   UNL     1     -11.483  16.320  63.880  1.00  0.00    -0.940 OA 
BRANCH   7   9
HETATM    9  N   UNL     1     -10.383  15.196  65.553  1.00  0.00    -0.343 N  
HETATM   10  H   UNL     1      -9.422  15.413  65.290  1.00  0.00     0.000 HD 
BRANCH   9  11
HETATM   11  S   UNL     1     -10.669  14.699  67.116  1.00  0.00    -0.298 S  
HETATM   12  O   UNL     1     -12.051  14.934  67.467  1.00  0.00    -0.246 OA 
HETATM   13  O   UNL     1      -9.599  15.285  67.900  1.00  0.00    -0.198 OA 
BRANCH  11  14
HETATM   14  C   UNL     1     -10.372  12.949  67.037  1.00  0.00    -0.242 A  
HETATM   15  C   UNL     1      -9.081  12.478  66.785  1.00  0.00    -0.214 A  
HETATM   16  C   UNL     1      -8.857  11.104  66.671  1.00  0.00    -0.168 A  
HETATM   17  C   UNL     1      -9.917  10.199  66.812  1.00  0.00    -0.266 A  
HETATM   18  C   UNL     1     -11.196  10.683  67.122  1.00  0.00    -0.177 A  
HETATM   19  C   UNL     1      -9.701   8.726  66.625  1.00  0.00    -0.309 C  
HETATM   20  C   UNL     1     -11.425  12.054  67.242  1.00  0.00    -0.403 A  
ENDBRANCH  11  14
ENDBRANCH   9  11
ENDBRANCH   7   9
ENDBRANCH   5   7
ENDBRANCH   4   5
ENDBRANCH   3   4
ENDBRANCH   2   3
TORSDOF 7
ENDMDL
MODEL       27
REMARK 921   NORMALIZED FREE ENERGY PREDICTED BY IDOCK:   -5.14 KCAL/MOL
REMARK 922        TOTAL FREE ENERGY PREDICTED BY IDOCK:   -7.86 KCAL/MOL
REMARK 923 INTER-LIGAND FREE ENERGY PREDICTED BY IDOCK:   -7.42 KCAL/MOL
REMARK 924 INTRA-LIGAND FREE ENERGY PREDICTED BY IDOCK:   -0.44 KCAL/MOL
REMARK 927      BINDING AFFINITY PREDICTED BY RF-SCORE:    0.00 PKD
ROOT
HETATM    1  C   UNL     1     -10.203  10.828  64.690  1.00  0.00    -0.419 C  
HETATM    2  C   UNL     1     -10.683  11.549  63.440  1.00  0.00    -0.444 C  
ENDROOT
BRANCH   2   3
HETATM    3  C   UNL     1     -12.126  12.036  63.587  1.00  0.00    -0.627 C  
BRANCH   3   4
HETATM    4  C   UNL     1     -12.208  13.540  63.853  1.00  0.00    -0.399 C  
BRANCH   4   5
HETATM    5  N   UNL     1     -12.699  13.850  65.182  1.00  0.00    -0.689 N  
HETATM    6  H   UNL     1     -13.698  13.784  65.377  1.00  0.00     0.000 HD 
BRANCH   5   7
HETATM    7  C   UNL     1     -11.843  14.230  66.178  1.00  0.00    -0.402 C  
HETATM    8  O   UNL     1     -11.091  15.187  66.083  1.00  0.00    -0.339 OA 
BRANCH   7   9
HETATM    9  N   UNL     1     -11.934  13.437  67.307  1.00  0.00    -0.363 N  
HETATM   10  H   UNL     1     -12.323  12.500  67.201  1.00  0.00     0.000 HD 
BRANCH   9  11
HETATM   11  S   UNL     1     -11.451  13.911  68.828  1.00  0.00    -0.316 S  
HETATM   12  O   UNL     1     -12.158  15.107  69.223  1.00  0.00    -0.298 OA 
HETATM   13  O   UNL     1     -10.001  13.890  68.787  1.00  0.00    -0.213 OA 
BRANCH  11  14
HETATM   14  C   UNL     1     -11.973  12.555  69.851  1.00  0.00    -0.301 A  
HETATM   15  C   UNL     1     -12.730  12.807  70.998  1.00  0.00    -0.331 A  
HETATM   16  C   UNL     1     -13.095  11.747  71.830  1.00  0.00    -0.480 A  
HETATM   17  C   UNL     1     -12.712  10.435  71.518  1.00  0.00    -0.564 A  
HETATM   18  C   UNL     1     -12.002  10.191  70.334  1.00  0.00    -0.353 A  
HETATM   19  C   UNL     1     -13.041   9.297  72.439  1.00  0.00    -0.481 C  
HETATM   20  C   UNL     1     -11.638  11.246  69.496  1.00  0.00    -0.398 A  
ENDBRANCH  11  14
ENDBRANCH   9  11
ENDBRANCH   7   9
ENDBRANCH   5   7
ENDBRANCH   4   5
ENDBRANCH   3   4
ENDBRANCH   2   3
TORSDOF 7
ENDMDL
MODEL       28
REMARK 921   NORMALIZED FREE ENERGY PREDICTED BY IDOCK:   -5.09 KCAL/MOL
REMARK 922        TOTAL FREE ENERGY PREDICTED BY IDOCK:   -7.79 KCAL/MOL
REMARK 923 INTER-LIGAND FREE ENERGY PREDICTED BY IDOCK:   -7.19 KCAL/MOL
REMARK 924 INTRA-LIGAND FREE ENERGY PREDICTED BY IDOCK:   -0.60 KCAL/MOL
REMARK 927      BINDING AFFINITY PREDICTED BY RF-SCORE:    0.00 PKD
ROOT
HETATM    1  C   UNL     1      -8.491  10.148  65.082  1.00  0.00    -0.167 C  
HETATM    2  C   UNL     1      -8.643   9.404  63.765  1.00  0.00    -0.224 C  
ENDROOT
BRANCH   2   3
HETATM    3  C   UNL     1      -9.359  10.257  62.714  1.00  0.00    -0.340 C  
BRANCH   3   4
HETATM    4  C   UNL     1      -9.947  11.538  63.306  1.00  0.00    -0.409 C  
BRANCH   4   5
HETATM    5  N   UNL     1     -11.363  11.687  63.030  1.00  0.00    -0.803 N  
HETATM    6  H   UNL     1     -11.808  11.078  62.343  1.00  0.00     0.000 HD 
BRANCH   5   7
HETATM    7  C   UNL     1     -12.112  12.630  63.677  1.00  0.00    -0.547 C  
HETATM    8  O   UNL     1     -12.630  13.577  63.105  1.00  0.00    -0.762 OA 
BRANCH   7   9
HETATM    9  N   UNL     1     -12.241  12.390  65.032  1.00  0.00    -0.435 N  
HETATM   10  H   UNL     1     -12.713  11.533  65.322  1.00  0.00     0.000 HD 
BRANCH   9  11
HETATM   11  S   UNL     1     -11.676  13.407  66.223  1.00  0.00    -0.387 S  
HETATM   12  O   UNL     1     -12.644  14.445  66.489  1.00  0.00    -0.301 OA 
HETATM   13  O   UNL     1     -10.324  13.744  65.822  1.00  0.00    -0.290 OA 
BRANCH  11  14
HETATM   14  C   UNL     1     -11.559  12.336  67.636  1.00  0.00    -0.354 A  
HETATM   15  C   UNL     1     -11.063  11.039  67.482  1.00  0.00    -0.366 A  
HETATM   16  C   UNL     1     -11.020  10.181  68.582  1.00  0.00    -0.273 A  
HETATM   17  C   UNL     1     -11.466  10.614  69.838  1.00  0.00    -0.393 A  
HETATM   18  C   UNL     1     -11.907  11.936  69.990  1.00  0.00    -0.407 A  
HETATM   19  C   UNL     1     -11.487   9.680  71.012  1.00  0.00    -0.444 C  
HETATM   20  C   UNL     1     -11.948  12.801  68.895  1.00  0.00    -0.286 A  
ENDBRANCH  11  14
ENDBRANCH   9  11
ENDBRANCH   7   9
ENDBRANCH   5   7
ENDBRANCH   4   5
ENDBRANCH   3   4
ENDBRANCH   2   3
TORSDOF 7
ENDMDL
MODEL       29
REMARK 921   NORMALIZED FREE ENERGY PREDICTED BY IDOCK:   -5.08 KCAL/MOL
REMARK 922        TOTAL FREE ENERGY PREDICTED BY IDOCK:   -7.79 KCAL/MOL
REMARK 923 INTER-LIGAND FREE ENERGY PREDICTED BY IDOCK:   -6.33 KCAL/MOL
REMARK 924 INTRA-LIGAND FREE ENERGY PREDICTED BY IDOCK:   -1.45 KCAL/MOL
REMARK 927      BINDING AFFINITY PREDICTED BY RF-SCORE:    0.00 PKD
ROOT
HETATM    1  C   UNL     1      -9.419   8.576  65.980  1.00  0.00    -0.256 C  
HETATM    2  C   UNL     1      -8.313   9.272  65.204  1.00  0.00    -0.155 C  
ENDROOT
BRANCH   2   3
HETATM    3  C   UNL     1      -8.799  10.582  64.579  1.00  0.00    -0.214 C  
BRANCH   3   4
HETATM    4  C   UNL     1     -10.251  10.497  64.106  1.00  0.00    -0.217 C  
BRANCH   4   5
HETATM    5  N   UNL     1     -10.613  11.575  63.205  1.00  0.00    -0.606 N  
HETATM    6  H   UNL     1     -10.005  11.797  62.417  1.00  0.00     0.000 HD 
BRANCH   5   7
HETATM    7  C   UNL     1     -11.757  12.298  63.396  1.00  0.00    -0.457 C  
HETATM    8  O   UNL     1     -12.875  11.816  63.301  1.00  0.00    -0.627 OA 
BRANCH   7   9
HETATM    9  N   UNL     1     -11.519  13.619  63.727  1.00  0.00    -0.603 N  
HETATM   10  H   UNL     1     -11.058  14.209  63.034  1.00  0.00     0.000 HD 
BRANCH   9  11
HETATM   11  S   UNL     1     -11.934  14.310  65.184  1.00  0.00    -0.409 S  
HETATM   12  O   UNL     1     -13.354  14.167  65.414  1.00  0.00    -0.705 OA 
HETATM   13  O   UNL     1     -11.318  15.623  65.169  1.00  0.00    -0.290 OA 
BRANCH  11  14
HETATM   14  C   UNL     1     -11.046  13.320  66.361  1.00  0.00    -0.295 A  
HETATM   15  C   UNL     1      -9.718  13.632  66.664  1.00  0.00    -0.287 A  
HETATM   16  C   UNL     1      -9.004  12.822  67.550  1.00  0.00    -0.192 A  
HETATM   17  C   UNL     1      -9.611  11.705  68.137  1.00  0.00    -0.190 A  
HETATM   18  C   UNL     1     -10.961  11.437  67.868  1.00  0.00    -0.295 A  
HETATM   19  C   UNL     1      -8.834  10.790  69.038  1.00  0.00    -0.135 C  
HETATM   20  C   UNL     1     -11.682  12.246  66.988  1.00  0.00    -0.399 A  
ENDBRANCH  11  14
ENDBRANCH   9  11
ENDBRANCH   7   9
ENDBRANCH   5   7
ENDBRANCH   4   5
ENDBRANCH   3   4
ENDBRANCH   2   3
TORSDOF 7
ENDMDL
MODEL       30
REMARK 921   NORMALIZED FREE ENERGY PREDICTED BY IDOCK:   -5.08 KCAL/MOL
REMARK 922        TOTAL FREE ENERGY PREDICTED BY IDOCK:   -7.79 KCAL/MOL
REMARK 923 INTER-LIGAND FREE ENERGY PREDICTED BY IDOCK:   -6.15 KCAL/MOL
REMARK 924 INTRA-LIGAND FREE ENERGY PREDICTED BY IDOCK:   -1.63 KCAL/MOL
REMARK 927      BINDING AFFINITY PREDICTED BY RF-SCORE:    0.00 PKD
ROOT
HETATM    1  C   UNL     1      -7.475  14.460  68.833  1.00  0.00    -0.132 C  
HETATM    2  C   UNL     1      -7.875  13.855  67.496  1.00  0.00    -0.193 C  
ENDROOT
BRANCH   2   3
HETATM    3  C   UNL     1      -8.570  12.503  67.673  1.00  0.00    -0.178 C  
BRANCH   3   4
HETATM    4  C   UNL     1      -8.455  11.622  66.428  1.00  0.00    -0.114 C  
BRANCH   4   5
HETATM    5  N   UNL     1      -9.741  11.328  65.826  1.00  0.00    -0.218 N  
HETATM    6  H   UNL     1     -10.501  10.978  66.410  1.00  0.00     0.000 HD 
BRANCH   5   7
HETATM    7  C   UNL     1      -9.952  11.512  64.488  1.00  0.00    -0.263 C  
HETATM    8  O   UNL     1      -9.796  10.628  63.660  1.00  0.00    -0.303 OA 
BRANCH   7   9
HETATM    9  N   UNL     1     -10.380  12.789  64.174  1.00  0.00    -0.485 N  
HETATM   10  H   UNL     1      -9.799  13.346  63.548  1.00  0.00     0.000 HD 
BRANCH   9  11
HETATM   11  S   UNL     1     -11.783  13.476  64.750  1.00  0.00    -0.390 S  
HETATM   12  O   UNL     1     -12.567  12.487  65.453  1.00  0.00    -0.656 OA 
HETATM   13  O   UNL     1     -12.342  14.196  63.622  1.00  0.00    -0.741 OA 
BRANCH  11  14
HETATM   14  C   UNL     1     -11.186  14.684  65.908  1.00  0.00    -0.336 A  
HETATM   15  C   UNL     1     -11.566  14.602  67.250  1.00  0.00    -0.404 A  
HETATM   16  C   UNL     1     -11.140  15.582  68.149  1.00  0.00    -0.325 A  
HETATM   17  C   UNL     1     -10.331  16.640  67.715  1.00  0.00    -0.306 A  
HETATM   18  C   UNL     1      -9.910  16.678  66.378  1.00  0.00    -0.308 A  
HETATM   19  C   UNL     1      -9.922  17.734  68.657  1.00  0.00    -0.379 C  
HETATM   20  C   UNL     1     -10.328  15.699  65.475  1.00  0.00    -0.421 A  
ENDBRANCH  11  14
ENDBRANCH   9  11
ENDBRANCH   7   9
ENDBRANCH   5   7
ENDBRANCH   4   5
ENDBRANCH   3   4
ENDBRANCH   2   3
TORSDOF 7
ENDMDL
MODEL       31
REMARK 921   NORMALIZED FREE ENERGY PREDICTED BY IDOCK:   -5.08 KCAL/MOL
REMARK 922        TOTAL FREE ENERGY PREDICTED BY IDOCK:   -7.78 KCAL/MOL
REMARK 923 INTER-LIGAND FREE ENERGY PREDICTED BY IDOCK:   -6.95 KCAL/MOL
REMARK 924 INTRA-LIGAND FREE ENERGY PREDICTED BY IDOCK:   -0.83 KCAL/MOL
REMARK 927      BINDING AFFINITY PREDICTED BY RF-SCORE:    0.00 PKD
ROOT
HETATM    1  C   UNL     1     -12.342  13.789  63.731  1.00  0.00    -0.313 C  
HETATM    2  C   UNL     1     -12.201  12.347  64.191  1.00  0.00    -0.558 C  
ENDROOT
BRANCH   2   3
HETATM    3  C   UNL     1     -10.814  11.784  63.870  1.00  0.00    -0.468 C  
BRANCH   3   4
HETATM    4  C   UNL     1      -9.983  11.532  65.128  1.00  0.00    -0.262 C  
BRANCH   4   5
HETATM    5  N   UNL     1      -9.692  12.747  65.864  1.00  0.00    -0.382 N  
HETATM    6  H   UNL     1      -9.805  13.651  65.405  1.00  0.00     0.000 HD 
BRANCH   5   7
HETATM    7  C   UNL     1      -9.267  12.701  67.162  1.00  0.00    -0.214 C  
HETATM    8  O   UNL     1      -8.309  12.038  67.528  1.00  0.00    -0.148 OA 
BRANCH   7   9
HETATM    9  N   UNL     1     -10.015  13.498  68.009  1.00  0.00    -0.241 N  
HETATM   10  H   UNL     1      -9.517  14.162  68.603  1.00  0.00     0.000 HD 
BRANCH   9  11
HETATM   11  S   UNL     1     -11.675  13.445  68.124  1.00  0.00    -0.370 S  
HETATM   12  O   UNL     1     -12.135  12.078  68.041  1.00  0.00    -0.514 OA 
HETATM   13  O   UNL     1     -12.151  14.442  67.184  1.00  0.00    -0.414 OA 
BRANCH  11  14
HETATM   14  C   UNL     1     -11.980  14.070  69.759  1.00  0.00    -0.334 A  
HETATM   15  C   UNL     1     -11.659  15.395  70.064  1.00  0.00    -0.343 A  
HETATM   16  C   UNL     1     -11.849  15.871  71.363  1.00  0.00    -0.524 A  
HETATM   17  C   UNL     1     -12.364  15.029  72.358  1.00  0.00    -0.435 A  
HETATM   18  C   UNL     1     -12.735  13.719  72.024  1.00  0.00    -0.321 A  
HETATM   19  C   UNL     1     -12.510  15.509  73.772  1.00  0.00    -0.748 C  
HETATM   20  C   UNL     1     -12.552  13.239  70.726  1.00  0.00    -0.357 A  
ENDBRANCH  11  14
ENDBRANCH   9  11
ENDBRANCH   7   9
ENDBRANCH   5   7
ENDBRANCH   4   5
ENDBRANCH   3   4
ENDBRANCH   2   3
TORSDOF 7
ENDMDL
MODEL       32
REMARK 921   NORMALIZED FREE ENERGY PREDICTED BY IDOCK:   -5.07 KCAL/MOL
REMARK 922        TOTAL FREE ENERGY PREDICTED BY IDOCK:   -7.77 KCAL/MOL
REMARK 923 INTER-LIGAND FREE ENERGY PREDICTED BY IDOCK:   -6.83 KCAL/MOL
REMARK 924 INTRA-LIGAND FREE ENERGY PREDICTED BY IDOCK:   -0.93 KCAL/MOL
REMARK 927      BINDING AFFINITY PREDICTED BY RF-SCORE:    0.00 PKD
ROOT
HETATM    1  C   UNL     1     -10.886  11.542  63.803  1.00  0.00    -0.486 C  
HETATM    2  C   UNL     1     -10.890  12.808  64.644  1.00  0.00    -0.361 C  
ENDROOT
BRANCH   2   3
HETATM    3  C   UNL     1     -12.313  13.237  65.013  1.00  0.00    -0.499 C  
BRANCH   3   4
HETATM    4  C   UNL     1     -12.341  14.189  66.210  1.00  0.00    -0.422 C  
BRANCH   4   5
HETATM    5  N   UNL     1     -11.295  13.912  67.174  1.00  0.00    -0.313 N  
HETATM    6  H   UNL     1     -10.371  13.629  66.847  1.00  0.00     0.000 HD 
BRANCH   5   7
HETATM    7  C   UNL     1     -11.526  14.024  68.517  1.00  0.00    -0.302 C  
HETATM    8  O   UNL     1     -12.031  15.012  69.027  1.00  0.00    -0.305 OA 
BRANCH   7   9
HETATM    9  N   UNL     1     -11.152  12.900  69.231  1.00  0.00    -0.424 N  
HETATM   10  H   UNL     1     -11.077  12.982  70.245  1.00  0.00     0.000 HD 
BRANCH   9  11
HETATM   11  S   UNL     1     -10.816  11.422  68.543  1.00  0.00    -0.228 S  
HETATM   12  O   UNL     1      -9.503  11.442  67.940  1.00  0.00    -0.164 OA 
HETATM   13  O   UNL     1     -11.987  11.098  67.752  1.00  0.00    -0.630 OA 
BRANCH  11  14
HETATM   14  C   UNL     1     -10.802  10.327  69.943  1.00  0.00    -0.302 A  
HETATM   15  C   UNL     1      -9.624   9.657  70.284  1.00  0.00    -0.307 A  
HETATM   16  C   UNL     1      -9.627   8.757  71.352  1.00  0.00    -0.337 A  
HETATM   17  C   UNL     1     -10.799   8.527  72.083  1.00  0.00    -0.427 A  
HETATM   18  C   UNL     1     -11.959   9.250  71.766  1.00  0.00    -0.455 A  
HETATM   19  C   UNL     1     -10.831   7.514  73.189  1.00  0.00    -0.448 C  
HETATM   20  C   UNL     1     -11.961  10.155  70.703  1.00  0.00    -0.423 A  
ENDBRANCH  11  14
ENDBRANCH   9  11
ENDBRANCH   7   9
ENDBRANCH   5   7
ENDBRANCH   4   5
ENDBRANCH   3   4
ENDBRANCH   2   3
TORSDOF 7
ENDMDL
MODEL       33
REMARK 921   NORMALIZED FREE ENERGY PREDICTED BY IDOCK:   -5.06 KCAL/MOL
REMARK 922        TOTAL FREE ENERGY PREDICTED BY IDOCK:   -7.76 KCAL/MOL
REMARK 923 INTER-LIGAND FREE ENERGY PREDICTED BY IDOCK:   -7.15 KCAL/MOL
REMARK 924 INTRA-LIGAND FREE ENERGY PREDICTED BY IDOCK:   -0.60 KCAL/MOL
REMARK 927      BINDING AFFINITY PREDICTED BY RF-SCORE:    0.00 PKD
ROOT
HETATM    1  C   UNL     1     -10.388  19.581  65.981  1.00  0.00    -0.604 C  
HETATM    2  C   UNL     1     -10.838  19.076  67.343  1.00  0.00    -0.496 C  
ENDROOT
BRANCH   2   3
HETATM    3  C   UNL     1      -9.676  18.468  68.133  1.00  0.00    -0.367 C  
BRANCH   3   4
HETATM    4  C   UNL     1     -10.074  17.178  68.852  1.00  0.00    -0.322 C  
BRANCH   4   5
HETATM    5  N   UNL     1     -11.130  16.456  68.169  1.00  0.00    -0.346 N  
HETATM    6  H   UNL     1     -11.615  16.897  67.387  1.00  0.00     0.000 HD 
BRANCH   5   7
HETATM    7  C   UNL     1     -11.486  15.194  68.556  1.00  0.00    -0.320 C  
HETATM    8  O   UNL     1     -11.131  14.696  69.613  1.00  0.00    -0.257 OA 
BRANCH   7   9
HETATM    9  N   UNL     1     -12.304  14.554  67.644  1.00  0.00    -0.585 N  
HETATM   10  H   UNL     1     -13.247  14.304  67.942  1.00  0.00     0.000 HD 
BRANCH   9  11
HETATM   11  S   UNL     1     -11.852  14.166  66.089  1.00  0.00    -0.420 S  
HETATM   12  O   UNL     1     -10.741  14.992  65.674  1.00  0.00    -0.315 OA 
HETATM   13  O   UNL     1     -13.086  14.153  65.328  1.00  0.00    -0.763 OA 
BRANCH  11  14
HETATM   14  C   UNL     1     -11.306  12.482  66.244  1.00  0.00    -0.338 A  
HETATM   15  C   UNL     1     -11.462  11.814  67.461  1.00  0.00    -0.373 A  
HETATM   16  C   UNL     1     -10.985  10.509  67.598  1.00  0.00    -0.375 A  
HETATM   17  C   UNL     1     -10.357   9.866  66.523  1.00  0.00    -0.259 A  
HETATM   18  C   UNL     1     -10.258  10.528  65.291  1.00  0.00    -0.352 A  
HETATM   19  C   UNL     1      -9.781   8.489  66.679  1.00  0.00    -0.318 C  
HETATM   20  C   UNL     1     -10.738  11.831  65.146  1.00  0.00    -0.343 A  
ENDBRANCH  11  14
ENDBRANCH   9  11
ENDBRANCH   7   9
ENDBRANCH   5   7
ENDBRANCH   4   5
ENDBRANCH   3   4
ENDBRANCH   2   3
TORSDOF 7
ENDMDL
MODEL       34
REMARK 921   NORMALIZED FREE ENERGY PREDICTED BY IDOCK:   -5.05 KCAL/MOL
REMARK 922        TOTAL FREE ENERGY PREDICTED BY IDOCK:   -7.74 KCAL/MOL
REMARK 923 INTER-LIGAND FREE ENERGY PREDICTED BY IDOCK:   -6.81 KCAL/MOL
REMARK 924 INTRA-LIGAND FREE ENERGY PREDICTED BY IDOCK:   -0.93 KCAL/MOL
REMARK 927      BINDING AFFINITY PREDICTED BY RF-SCORE:    0.00 PKD
ROOT
HETATM    1  C   UNL     1     -10.728  10.461  68.691  1.00  0.00    -0.250 C  
HETATM    2  C   UNL     1     -11.379  10.904  67.390  1.00  0.00    -0.273 C  
ENDROOT
BRANCH   2   3
HETATM    3  C   UNL     1     -10.336  11.250  66.325  1.00  0.00    -0.294 C  
BRANCH   3   4
HETATM    4  C   UNL     1     -10.968  11.517  64.958  1.00  0.00    -0.241 C  
BRANCH   4   5
HETATM    5  N   UNL     1     -12.120  12.394  65.032  1.00  0.00    -0.420 N  
HETATM    6  H   UNL     1     -12.858  12.198  65.708  1.00  0.00     0.000 HD 
BRANCH   5   7
HETATM    7  C   UNL     1     -12.233  13.481  64.210  1.00  0.00    -0.396 C  
HETATM    8  O   UNL     1     -12.340  13.391  62.997  1.00  0.00    -0.622 OA 
BRANCH   7   9
HETATM    9  N   UNL     1     -12.239  14.683  64.893  1.00  0.00    -0.388 N  
HETATM   10  H   UNL     1     -13.140  15.125  65.071  1.00  0.00     0.000 HD 
BRANCH   9  11
HETATM   11  S   UNL     1     -10.870  15.456  65.442  1.00  0.00    -0.401 S  
HETATM   12  O   UNL     1     -10.811  16.798  64.910  1.00  0.00    -0.707 OA 
HETATM   13  O   UNL     1      -9.787  14.521  65.205  1.00  0.00    -0.325 OA 
BRANCH  11  14
HETATM   14  C   UNL     1     -11.134  15.530  67.197  1.00  0.00    -0.256 A  
HETATM   15  C   UNL     1     -10.639  16.615  67.925  1.00  0.00    -0.342 A  
HETATM   16  C   UNL     1     -10.800  16.647  69.312  1.00  0.00    -0.310 A  
HETATM   17  C   UNL     1     -11.458  15.603  69.974  1.00  0.00    -0.352 A  
HETATM   18  C   UNL     1     -12.000  14.548  69.224  1.00  0.00    -0.355 A  
HETATM   19  C   UNL     1     -11.579  15.594  71.470  1.00  0.00    -0.507 C  
HETATM   20  C   UNL     1     -11.846  14.513  67.838  1.00  0.00    -0.370 A  
ENDBRANCH  11  14
ENDBRANCH   9  11
ENDBRANCH   7   9
ENDBRANCH   5   7
ENDBRANCH   4   5
ENDBRANCH   3   4
ENDBRANCH   2   3
TORSDOF 7
ENDMDL
MODEL       35
REMARK 921   NORMALIZED FREE ENERGY PREDICTED BY IDOCK:   -5.05 KCAL/MOL
REMARK 922        TOTAL FREE ENERGY PREDICTED BY IDOCK:   -7.74 KCAL/MOL
REMARK 923 INTER-LIGAND FREE ENERGY PREDICTED BY IDOCK:   -7.01 KCAL/MOL
REMARK 924 INTRA-LIGAND FREE ENERGY PREDICTED BY IDOCK:   -0.73 KCAL/MOL
REMARK 927      BINDING AFFINITY PREDICTED BY RF-SCORE:    0.00 PKD
ROOT
HETATM    1  C   UNL     1     -10.185  19.171  67.669  1.00  0.00    -0.492 C  
HETATM    2  C   UNL     1     -10.452  17.679  67.544  1.00  0.00    -0.365 C  
ENDROOT
BRANCH   2   3
HETATM    3  C   UNL     1      -9.813  17.094  66.282  1.00  0.00    -0.306 C  
BRANCH   3   4
HETATM    4  C   UNL     1     -10.798  16.257  65.466  1.00  0.00    -0.245 C  
BRANCH   4   5
HETATM    5  N   UNL     1     -10.843  14.871  65.889  1.00  0.00    -0.324 N  
HETATM    6  H   UNL     1      -9.973  14.376  66.085  1.00  0.00     0.000 HD 
BRANCH   5   7
HETATM    7  C   UNL     1     -12.035  14.215  66.030  1.00  0.00    -0.413 C  
HETATM    8  O   UNL     1     -12.924  14.259  65.194  1.00  0.00    -0.692 OA 
BRANCH   7   9
HETATM    9  N   UNL     1     -12.119  13.481  67.199  1.00  0.00    -0.368 N  
HETATM   10  H   UNL     1     -12.620  12.593  67.170  1.00  0.00     0.000 HD 
BRANCH   9  11
HETATM   11  S   UNL     1     -11.455  13.952  68.652  1.00  0.00    -0.322 S  
HETATM   12  O   UNL     1     -12.033  15.206  69.078  1.00  0.00    -0.309 OA 
HETATM   13  O   UNL     1     -10.022  13.823  68.472  1.00  0.00    -0.230 OA 
BRANCH  11  14
HETATM   14  C   UNL     1     -11.970  12.662  69.760  1.00  0.00    -0.295 A  
HETATM   15  C   UNL     1     -11.676  11.330  69.454  1.00  0.00    -0.409 A  
HETATM   16  C   UNL     1     -12.126  10.313  70.298  1.00  0.00    -0.330 A  
HETATM   17  C   UNL     1     -12.864  10.620  71.448  1.00  0.00    -0.556 A  
HETATM   18  C   UNL     1     -13.102  11.963  71.773  1.00  0.00    -0.465 A  
HETATM   19  C   UNL     1     -13.410   9.532  72.326  1.00  0.00    -0.526 C  
HETATM   20  C   UNL     1     -12.650  12.985  70.936  1.00  0.00    -0.364 A  
ENDBRANCH  11  14
ENDBRANCH   9  11
ENDBRANCH   7   9
ENDBRANCH   5   7
ENDBRANCH   4   5
ENDBRANCH   3   4
ENDBRANCH   2   3
TORSDOF 7
ENDMDL
MODEL       36
REMARK 921   NORMALIZED FREE ENERGY PREDICTED BY IDOCK:   -5.03 KCAL/MOL
REMARK 922        TOTAL FREE ENERGY PREDICTED BY IDOCK:   -7.71 KCAL/MOL
REMARK 923 INTER-LIGAND FREE ENERGY PREDICTED BY IDOCK:   -7.10 KCAL/MOL
REMARK 924 INTRA-LIGAND FREE ENERGY PREDICTED BY IDOCK:   -0.62 KCAL/MOL
REMARK 927      BINDING AFFINITY PREDICTED BY RF-SCORE:    0.00 PKD
ROOT
HETATM    1  C   UNL     1     -11.845   9.792  71.023  1.00  0.00    -0.442 C  
HETATM    2  C   UNL     1     -12.144  11.266  70.796  1.00  0.00    -0.450 C  
ENDROOT
BRANCH   2   3
HETATM    3  C   UNL     1     -13.197  11.787  71.777  1.00  0.00    -0.434 C  
BRANCH   3   4
HETATM    4  C   UNL     1     -13.046  13.284  72.051  1.00  0.00    -0.377 C  
BRANCH   4   5
HETATM    5  N   UNL     1     -12.104  13.928  71.157  1.00  0.00    -0.454 N  
HETATM    6  H   UNL     1     -11.340  13.383  70.754  1.00  0.00     0.000 HD 
BRANCH   5   7
HETATM    7  C   UNL     1     -12.221  15.253  70.843  1.00  0.00    -0.355 C  
HETATM    8  O   UNL     1     -12.167  16.143  71.677  1.00  0.00    -0.460 OA 
BRANCH   7   9
HETATM    9  N   UNL     1     -12.383  15.481  69.489  1.00  0.00    -0.583 N  
HETATM   10  H   UNL     1     -13.287  15.829  69.169  1.00  0.00     0.000 HD 
BRANCH   9  11
HETATM   11  S   UNL     1     -11.200  15.225  68.346  1.00  0.00    -0.323 S  
HETATM   12  O   UNL     1     -11.781  14.663  67.149  1.00  0.00    -0.378 OA 
HETATM   13  O   UNL     1     -10.140  14.528  69.050  1.00  0.00    -0.227 OA 
BRANCH  11  14
HETATM   14  C   UNL     1     -10.618  16.868  68.002  1.00  0.00    -0.367 A  
HETATM   15  C   UNL     1     -10.166  17.675  69.050  1.00  0.00    -0.314 A  
HETATM   16  C   UNL     1      -9.758  18.984  68.786  1.00  0.00    -0.473 A  
HETATM   17  C   UNL     1      -9.796  19.489  67.480  1.00  0.00    -0.470 A  
HETATM   18  C   UNL     1     -10.198  18.650  66.431  1.00  0.00    -0.461 A  
HETATM   19  C   UNL     1      -9.424  20.915  67.195  1.00  0.00    -0.349 C  
HETATM   20  C   UNL     1     -10.601  17.339  66.687  1.00  0.00    -0.179 A  
ENDBRANCH  11  14
ENDBRANCH   9  11
ENDBRANCH   7   9
ENDBRANCH   5   7
ENDBRANCH   4   5
ENDBRANCH   3   4
ENDBRANCH   2   3
TORSDOF 7
ENDMDL
MODEL       37
REMARK 921   NORMALIZED FREE ENERGY PREDICTED BY IDOCK:   -5.03 KCAL/MOL
REMARK 922        TOTAL FREE ENERGY PREDICTED BY IDOCK:   -7.71 KCAL/MOL
REMARK 923 INTER-LIGAND FREE ENERGY PREDICTED BY IDOCK:   -7.23 KCAL/MOL
REMARK 924 INTRA-LIGAND FREE ENERGY PREDICTED BY IDOCK:   -0.48 KCAL/MOL
REMARK 927      BINDING AFFINITY PREDICTED BY RF-SCORE:    0.00 PKD
ROOT
HETATM    1  C   UNL     1     -12.249  16.040  72.984  1.00  0.00    -0.637 C  
HETATM    2  C   UNL     1     -13.541  15.340  72.594  1.00  0.00    -0.617 C  
ENDROOT
BRANCH   2   3
HETATM    3  C   UNL     1     -13.739  15.324  71.076  1.00  0.00    -0.452 C  
BRANCH   3   4
HETATM    4  C   UNL     1     -12.642  14.541  70.354  1.00  0.00    -0.346 C  
BRANCH   4   5
HETATM    5  N   UNL     1     -12.209  15.180  69.127  1.00  0.00    -0.574 N  
HETATM    6  H   UNL     1     -12.785  15.102  68.289  1.00  0.00     0.000 HD 
BRANCH   5   7
HETATM    7  C   UNL     1     -11.039  15.887  69.075  1.00  0.00    -0.294 C  
HETATM    8  O   UNL     1     -10.205  15.863  69.966  1.00  0.00    -0.279 OA 
BRANCH   7   9
HETATM    9  N   UNL     1     -10.890  16.608  67.905  1.00  0.00    -0.344 N  
HETATM   10  H   UNL     1     -11.497  17.415  67.761  1.00  0.00     0.000 HD 
BRANCH   9  11
HETATM   11  S   UNL     1      -9.783  16.245  66.714  1.00  0.00    -0.254 S  
HETATM   12  O   UNL     1      -8.584  15.694  67.303  1.00  0.00    -0.171 OA 
HETATM   13  O   UNL     1      -9.719  17.432  65.884  1.00  0.00    -0.507 OA 
BRANCH  11  14
HETATM   14  C   UNL     1     -10.610  14.983  65.775  1.00  0.00    -0.339 A  
HETATM   15  C   UNL     1     -10.214  13.650  65.909  1.00  0.00    -0.318 A  
HETATM   16  C   UNL     1     -10.828  12.666  65.132  1.00  0.00    -0.321 A  
HETATM   17  C   UNL     1     -11.839  13.007  64.225  1.00  0.00    -0.456 A  
HETATM   18  C   UNL     1     -12.266  14.340  64.143  1.00  0.00    -0.410 A  
HETATM   19  C   UNL     1     -12.460  11.969  63.337  1.00  0.00    -0.625 C  
HETATM   20  C   UNL     1     -11.660  15.328  64.921  1.00  0.00    -0.289 A  
ENDBRANCH  11  14
ENDBRANCH   9  11
ENDBRANCH   7   9
ENDBRANCH   5   7
ENDBRANCH   4   5
ENDBRANCH   3   4
ENDBRANCH   2   3
TORSDOF 7
ENDMDL
MODEL       38
REMARK 921   NORMALIZED FREE ENERGY PREDICTED BY IDOCK:   -5.03 KCAL/MOL
REMARK 922        TOTAL FREE ENERGY PREDICTED BY IDOCK:   -7.71 KCAL/MOL
REMARK 923 INTER-LIGAND FREE ENERGY PREDICTED BY IDOCK:   -7.01 KCAL/MOL
REMARK 924 INTRA-LIGAND FREE ENERGY PREDICTED BY IDOCK:   -0.70 KCAL/MOL
REMARK 927      BINDING AFFINITY PREDICTED BY RF-SCORE:    0.00 PKD
ROOT
HETATM    1  C   UNL     1     -12.450  12.408  70.614  1.00  0.00    -0.320 C  
HETATM    2  C   UNL     1     -11.519  11.357  70.028  1.00  0.00    -0.331 C  
ENDROOT
BRANCH   2   3
HETATM    3  C   UNL     1     -11.758  11.163  68.529  1.00  0.00    -0.368 C  
BRANCH   3   4
HETATM    4  C   UNL     1     -11.668  12.477  67.751  1.00  0.00    -0.359 C  
BRANCH   4   5
HETATM    5  N   UNL     1     -11.663  12.281  66.314  1.00  0.00    -0.388 N  
HETATM    6  H   UNL     1     -11.035  11.589  65.904  1.00  0.00     0.000 HD 
BRANCH   5   7
HETATM    7  C   UNL     1     -12.486  13.007  65.500  1.00  0.00    -0.438 C  
HETATM    8  O   UNL     1     -13.253  12.496  64.699  1.00  0.00    -0.848 OA 
BRANCH   7   9
HETATM    9  N   UNL     1     -12.378  14.372  65.693  1.00  0.00    -0.371 N  
HETATM   10  H   UNL     1     -12.996  14.807  66.378  1.00  0.00     0.000 HD 
BRANCH   9  11
HETATM   11  S   UNL     1     -11.306  15.353  64.880  1.00  0.00    -0.308 S  
HETATM   12  O   UNL     1     -11.983  16.050  63.811  1.00  0.00    -0.844 OA 
HETATM   13  O   UNL     1     -10.160  14.509  64.601  1.00  0.00    -0.266 OA 
BRANCH  11  14
HETATM   14  C   UNL     1     -10.814  16.521  66.125  1.00  0.00    -0.050 A  
HETATM   15  C   UNL     1     -10.775  16.127  67.465  1.00  0.00    -0.304 A  
HETATM   16  C   UNL     1     -10.439  17.060  68.449  1.00  0.00    -0.370 A  
HETATM   17  C   UNL     1     -10.139  18.383  68.099  1.00  0.00    -0.408 A  
HETATM   18  C   UNL     1     -10.127  18.749  66.746  1.00  0.00    -0.409 A  
HETATM   19  C   UNL     1      -9.842  19.409  69.153  1.00  0.00    -0.425 C  
HETATM   20  C   UNL     1     -10.456  17.820  65.757  1.00  0.00    -0.199 A  
ENDBRANCH  11  14
ENDBRANCH   9  11
ENDBRANCH   7   9
ENDBRANCH   5   7
ENDBRANCH   4   5
ENDBRANCH   3   4
ENDBRANCH   2   3
TORSDOF 7
ENDMDL
MODEL       39
REMARK 921   NORMALIZED FREE ENERGY PREDICTED BY IDOCK:   -5.02 KCAL/MOL
REMARK 922        TOTAL FREE ENERGY PREDICTED BY IDOCK:   -7.69 KCAL/MOL
REMARK 923 INTER-LIGAND FREE ENERGY PREDICTED BY IDOCK:   -7.06 KCAL/MOL
REMARK 924 INTRA-LIGAND FREE ENERGY PREDICTED BY IDOCK:   -0.63 KCAL/MOL
REMARK 927      BINDING AFFINITY PREDICTED BY RF-SCORE:    0.00 PKD
ROOT
HETATM    1  C   UNL     1      -8.615   7.321  70.606  1.00  0.00    -0.142 C  
HETATM    2  C   UNL     1      -9.260   6.755  69.351  1.00  0.00    -0.143 C  
ENDROOT
BRANCH   2   3
HETATM    3  C   UNL     1     -10.787   6.839  69.413  1.00  0.00    -0.312 C  
BRANCH   3   4
HETATM    4  C   UNL     1     -11.305   6.959  70.847  1.00  0.00    -0.304 C  
BRANCH   4   5
HETATM    5  N   UNL     1     -12.672   7.439  70.914  1.00  0.00    -0.581 N  
HETATM    6  H   UNL     1     -13.423   6.873  70.519  1.00  0.00     0.000 HD 
BRANCH   5   7
HETATM    7  C   UNL     1     -12.970   8.639  71.497  1.00  0.00    -0.312 C  
HETATM    8  O   UNL     1     -13.019   8.799  72.707  1.00  0.00    -0.345 OA 
BRANCH   7   9
HETATM    9  N   UNL     1     -13.185   9.652  70.581  1.00  0.00    -0.581 N  
HETATM   10  H   UNL     1     -14.135   9.790  70.237  1.00  0.00     0.000 HD 
BRANCH   9  11
HETATM   11  S   UNL     1     -11.994  10.663  70.003  1.00  0.00    -0.332 S  
HETATM   12  O   UNL     1     -12.104  10.789  68.568  1.00  0.00    -0.493 OA 
HETATM   13  O   UNL     1     -10.766  10.185  70.610  1.00  0.00    -0.297 OA 
BRANCH  11  14
HETATM   14  C   UNL     1     -12.391  12.219  70.763  1.00  0.00    -0.290 A  
HETATM   15  C   UNL     1     -11.923  13.405  70.192  1.00  0.00    -0.396 A  
HETATM   16  C   UNL     1     -12.191  14.625  70.818  1.00  0.00    -0.394 A  
HETATM   17  C   UNL     1     -12.928  14.665  72.009  1.00  0.00    -0.411 A  
HETATM   18  C   UNL     1     -13.440  13.471  72.539  1.00  0.00    -0.660 A  
HETATM   19  C   UNL     1     -13.165  15.961  72.725  1.00  0.00    -0.590 C  
HETATM   20  C   UNL     1     -13.180  12.250  71.915  1.00  0.00    -0.481 A  
ENDBRANCH  11  14
ENDBRANCH   9  11
ENDBRANCH   7   9
ENDBRANCH   5   7
ENDBRANCH   4   5
ENDBRANCH   3   4
ENDBRANCH   2   3
TORSDOF 7
ENDMDL
MODEL       40
REMARK 921   NORMALIZED FREE ENERGY PREDICTED BY IDOCK:   -5.01 KCAL/MOL
REMARK 922        TOTAL FREE ENERGY PREDICTED BY IDOCK:   -7.69 KCAL/MOL
REMARK 923 INTER-LIGAND FREE ENERGY PREDICTED BY IDOCK:   -7.10 KCAL/MOL
REMARK 924 INTRA-LIGAND FREE ENERGY PREDICTED BY IDOCK:   -0.59 KCAL/MOL
REMARK 927      BINDING AFFINITY PREDICTED BY RF-SCORE:    0.00 PKD
ROOT
HETATM    1  C   UNL     1      -8.846  10.883  65.144  1.00  0.00    -0.167 C  
HETATM    2  C   UNL     1      -9.894  10.589  64.082  1.00  0.00    -0.401 C  
ENDROOT
BRANCH   2   3
HETATM    3  C   UNL     1     -10.383  11.869  63.400  1.00  0.00    -0.481 C  
BRANCH   3   4
HETATM    4  C   UNL     1     -10.603  13.010  64.395  1.00  0.00    -0.409 C  
BRANCH   4   5
HETATM    5  N   UNL     1     -11.884  12.930  65.068  1.00  0.00    -0.350 N  
HETATM    6  H   UNL     1     -12.743  12.963  64.519  1.00  0.00     0.000 HD 
BRANCH   5   7
HETATM    7  C   UNL     1     -11.960  12.811  66.428  1.00  0.00    -0.375 C  
HETATM    8  O   UNL     1     -11.928  11.736  67.006  1.00  0.00    -0.610 OA 
BRANCH   7   9
HETATM    9  N   UNL     1     -12.053  14.028  67.078  1.00  0.00    -0.459 N  
HETATM   10  H   UNL     1     -12.955  14.503  67.074  1.00  0.00     0.000 HD 
BRANCH   9  11
HETATM   11  S   UNL     1     -10.788  14.769  67.866  1.00  0.00    -0.277 S  
HETATM   12  O   UNL     1     -10.551  16.078  67.303  1.00  0.00    -0.309 OA 
HETATM   13  O   UNL     1      -9.730  13.778  67.898  1.00  0.00    -0.215 OA 
BRANCH  11  14
HETATM   14  C   UNL     1     -11.401  14.945  69.524  1.00  0.00    -0.281 A  
HETATM   15  C   UNL     1     -12.170  13.923  70.088  1.00  0.00    -0.425 A  
HETATM   16  C   UNL     1     -12.696  14.084  71.372  1.00  0.00    -0.442 A  
HETATM   17  C   UNL     1     -12.454  15.258  72.096  1.00  0.00    -0.434 A  
HETATM   18  C   UNL     1     -11.633  16.250  71.540  1.00  0.00    -0.435 A  
HETATM   19  C   UNL     1     -13.069  15.470  73.448  1.00  0.00    -0.651 C  
HETATM   20  C   UNL     1     -11.100  16.093  70.260  1.00  0.00    -0.375 A  
ENDBRANCH  11  14
ENDBRANCH   9  11
ENDBRANCH   7   9
ENDBRANCH   5   7
ENDBRANCH   4   5
ENDBRANCH   3   4
ENDBRANCH   2   3
TORSDOF 7
ENDMDL
MODEL       41
REMARK 921   NORMALIZED FREE ENERGY PREDICTED BY IDOCK:   -5.00 KCAL/MOL
REMARK 922        TOTAL FREE ENERGY PREDICTED BY IDOCK:   -7.67 KCAL/MOL
REMARK 923 INTER-LIGAND FREE ENERGY PREDICTED BY IDOCK:   -7.39 KCAL/MOL
REMARK 924 INTRA-LIGAND FREE ENERGY PREDICTED BY IDOCK:   -0.27 KCAL/MOL
REMARK 927      BINDING AFFINITY PREDICTED BY RF-SCORE:    0.00 PKD
ROOT
HETATM    1  C   UNL     1     -13.206  15.625  73.009  1.00  0.00    -0.664 C  
HETATM    2  C   UNL     1     -13.714  15.274  71.620  1.00  0.00    -0.600 C  
ENDROOT
BRANCH   2   3
HETATM    3  C   UNL     1     -12.834  14.218  70.946  1.00  0.00    -0.416 C  
BRANCH   3   4
HETATM    4  C   UNL     1     -11.896  14.824  69.901  1.00  0.00    -0.316 C  
BRANCH   4   5
HETATM    5  N   UNL     1     -12.307  14.532  68.541  1.00  0.00    -0.595 N  
HETATM    6  H   UNL     1     -13.278  14.678  68.267  1.00  0.00     0.000 HD 
BRANCH   5   7
HETATM    7  C   UNL     1     -11.412  14.064  67.619  1.00  0.00    -0.334 C  
HETATM    8  O   UNL     1     -10.256  14.452  67.555  1.00  0.00    -0.238 OA 
BRANCH   7   9
HETATM    9  N   UNL     1     -11.942  13.094  66.788  1.00  0.00    -0.388 N  
HETATM   10  H   UNL     1     -12.375  12.279  67.223  1.00  0.00     0.000 HD 
BRANCH   9  11
HETATM   11  S   UNL     1     -11.919  13.169  65.125  1.00  0.00    -0.422 S  
HETATM   12  O   UNL     1     -11.412  14.451  64.693  1.00  0.00    -0.377 OA 
HETATM   13  O   UNL     1     -13.233  12.717  64.709  1.00  0.00    -0.812 OA 
BRANCH  11  14
HETATM   14  C   UNL     1     -10.757  11.899  64.686  1.00  0.00    -0.307 A  
HETATM   15  C   UNL     1     -10.297  11.809  63.370  1.00  0.00    -0.481 A  
HETATM   16  C   UNL     1      -9.424  10.779  63.014  1.00  0.00    -0.372 A  
HETATM   17  C   UNL     1      -9.005   9.841  63.967  1.00  0.00    -0.275 A  
HETATM   18  C   UNL     1      -9.430   9.979  65.296  1.00  0.00    -0.323 A  
HETATM   19  C   UNL     1      -8.121   8.692  63.581  1.00  0.00    -0.163 C  
HETATM   20  C   UNL     1     -10.298  11.009  65.660  1.00  0.00    -0.311 A  
ENDBRANCH  11  14
ENDBRANCH   9  11
ENDBRANCH   7   9
ENDBRANCH   5   7
ENDBRANCH   4   5
ENDBRANCH   3   4
ENDBRANCH   2   3
TORSDOF 7
ENDMDL
MODEL       42
REMARK 921   NORMALIZED FREE ENERGY PREDICTED BY IDOCK:   -4.99 KCAL/MOL
REMARK 922        TOTAL FREE ENERGY PREDICTED BY IDOCK:   -7.65 KCAL/MOL
REMARK 923 INTER-LIGAND FREE ENERGY PREDICTED BY IDOCK:   -6.90 KCAL/MOL
REMARK 924 INTRA-LIGAND FREE ENERGY PREDICTED BY IDOCK:   -0.75 KCAL/MOL
REMARK 927      BINDING AFFINITY PREDICTED BY RF-SCORE:    0.00 PKD
ROOT
HETATM    1  C   UNL     1     -14.026  15.208  71.547  1.00  0.00    -0.614 C  
HETATM    2  C   UNL     1     -12.818  14.288  71.615  1.00  0.00    -0.424 C  
ENDROOT
BRANCH   2   3
HETATM    3  C   UNL     1     -13.224  12.840  71.901  1.00  0.00    -0.511 C  
BRANCH   3   4
HETATM    4  C   UNL     1     -12.484  11.841  71.011  1.00  0.00    -0.309 C  
BRANCH   4   5
HETATM    5  N   UNL     1     -11.698  12.485  69.977  1.00  0.00    -0.514 N  
HETATM    6  H   UNL     1     -10.973  13.154  70.239  1.00  0.00     0.000 HD 
BRANCH   5   7
HETATM    7  C   UNL     1     -11.911  12.209  68.654  1.00  0.00    -0.306 C  
HETATM    8  O   UNL     1     -12.185  11.094  68.241  1.00  0.00    -0.613 OA 
BRANCH   7   9
HETATM    9  N   UNL     1     -11.807  13.323  67.842  1.00  0.00    -0.352 N  
HETATM   10  H   UNL     1     -12.635  13.908  67.728  1.00  0.00     0.000 HD 
BRANCH   9  11
HETATM   11  S   UNL     1     -10.420  13.772  67.038  1.00  0.00    -0.275 S  
HETATM   12  O   UNL     1     -10.538  13.458  65.633  1.00  0.00    -0.272 OA 
HETATM   13  O   UNL     1      -9.333  13.227  67.827  1.00  0.00    -0.193 OA 
BRANCH  11  14
HETATM   14  C   UNL     1     -10.394  15.536  67.245  1.00  0.00    -0.267 A  
HETATM   15  C   UNL     1     -10.501  16.083  68.527  1.00  0.00    -0.258 A  
HETATM   16  C   UNL     1     -10.534  17.470  68.685  1.00  0.00    -0.338 A  
HETATM   17  C   UNL     1     -10.455  18.314  67.569  1.00  0.00    -0.431 A  
HETATM   18  C   UNL     1     -10.291  17.752  66.294  1.00  0.00    -0.358 A  
HETATM   19  C   UNL     1     -10.557  19.803  67.720  1.00  0.00    -0.501 C  
HETATM   20  C   UNL     1     -10.252  16.366  66.130  1.00  0.00    -0.363 A  
ENDBRANCH  11  14
ENDBRANCH   9  11
ENDBRANCH   7   9
ENDBRANCH   5   7
ENDBRANCH   4   5
ENDBRANCH   3   4
ENDBRANCH   2   3
TORSDOF 7
ENDMDL
MODEL       43
REMARK 921   NORMALIZED FREE ENERGY PREDICTED BY IDOCK:   -4.98 KCAL/MOL
REMARK 922        TOTAL FREE ENERGY PREDICTED BY IDOCK:   -7.64 KCAL/MOL
REMARK 923 INTER-LIGAND FREE ENERGY PREDICTED BY IDOCK:   -7.06 KCAL/MOL
REMARK 924 INTRA-LIGAND FREE ENERGY PREDICTED BY IDOCK:   -0.59 KCAL/MOL
REMARK 927      BINDING AFFINITY PREDICTED BY RF-SCORE:    0.00 PKD
ROOT
HETATM    1  C   UNL     1      -6.623  15.401  67.961  1.00  0.00    -0.160 C  
HETATM    2  C   UNL     1      -7.231  16.764  67.672  1.00  0.00    -0.163 C  
ENDROOT
BRANCH   2   3
HETATM    3  C   UNL     1      -7.962  16.783  66.327  1.00  0.00    -0.352 C  
BRANCH   3   4
HETATM    4  C   UNL     1      -9.403  17.279  66.456  1.00  0.00    -0.264 C  
BRANCH   4   5
HETATM    5  N   UNL     1     -10.380  16.248  66.168  1.00  0.00    -0.328 N  
HETATM    6  H   UNL     1     -10.710  15.644  66.922  1.00  0.00     0.000 HD 
BRANCH   5   7
HETATM    7  C   UNL     1     -10.868  16.071  64.903  1.00  0.00    -0.372 C  
HETATM    8  O   UNL     1     -11.280  16.990  64.213  1.00  0.00    -1.186 OA 
BRANCH   7   9
HETATM    9  N   UNL     1     -10.826  14.755  64.481  1.00  0.00    -0.625 N  
HETATM   10  H   UNL     1     -10.242  14.532  63.675  1.00  0.00     0.000 HD 
BRANCH   9  11
HETATM   11  S   UNL     1     -11.665  13.511  65.202  1.00  0.00    -0.338 S  
HETATM   12  O   UNL     1     -12.993  13.418  64.640  1.00  0.00    -0.675 OA 
HETATM   13  O   UNL     1     -11.479  13.705  66.627  1.00  0.00    -0.319 OA 
BRANCH  11  14
HETATM   14  C   UNL     1     -10.728  12.076  64.734  1.00  0.00    -0.306 A  
HETATM   15  C   UNL     1     -10.485  11.073  65.676  1.00  0.00    -0.293 A  
HETATM   16  C   UNL     1      -9.704   9.970  65.323  1.00  0.00    -0.373 A  
HETATM   17  C   UNL     1      -9.168   9.863  64.033  1.00  0.00    -0.302 A  
HETATM   18  C   UNL     1      -9.468  10.850  63.082  1.00  0.00    -0.361 A  
HETATM   19  C   UNL     1      -8.273   8.718  63.663  1.00  0.00    -0.163 C  
HETATM   20  C   UNL     1     -10.253  11.951  63.427  1.00  0.00    -0.478 A  
ENDBRANCH  11  14
ENDBRANCH   9  11
ENDBRANCH   7   9
ENDBRANCH   5   7
ENDBRANCH   4   5
ENDBRANCH   3   4
ENDBRANCH   2   3
TORSDOF 7
ENDMDL
MODEL       44
REMARK 921   NORMALIZED FREE ENERGY PREDICTED BY IDOCK:   -4.97 KCAL/MOL
REMARK 922        TOTAL FREE ENERGY PREDICTED BY IDOCK:   -7.63 KCAL/MOL
REMARK 923 INTER-LIGAND FREE ENERGY PREDICTED BY IDOCK:   -7.02 KCAL/MOL
REMARK 924 INTRA-LIGAND FREE ENERGY PREDICTED BY IDOCK:   -0.61 KCAL/MOL
REMARK 927      BINDING AFFINITY PREDICTED BY RF-SCORE:    0.00 PKD
ROOT
HETATM    1  C   UNL     1      -8.655  19.468  68.401  1.00  0.00    -0.389 C  
HETATM    2  C   UNL     1     -10.168  19.518  68.264  1.00  0.00    -0.552 C  
ENDROOT
BRANCH   2   3
HETATM    3  C   UNL     1     -10.719  18.252  67.605  1.00  0.00    -0.373 C  
BRANCH   3   4
HETATM    4  C   UNL     1     -10.396  16.991  68.408  1.00  0.00    -0.351 C  
BRANCH   4   5
HETATM    5  N   UNL     1     -11.415  15.967  68.281  1.00  0.00    -0.352 N  
HETATM    6  H   UNL     1     -11.757  15.710  67.355  1.00  0.00     0.000 HD 
BRANCH   5   7
HETATM    7  C   UNL     1     -11.924  15.339  69.383  1.00  0.00    -0.315 C  
HETATM    8  O   UNL     1     -11.990  15.868  70.482  1.00  0.00    -0.362 OA 
BRANCH   7   9
HETATM    9  N   UNL     1     -12.377  14.059  69.121  1.00  0.00    -0.486 N  
HETATM   10  H   UNL     1     -13.350  13.843  69.342  1.00  0.00     0.000 HD 
BRANCH   9  11
HETATM   11  S   UNL     1     -11.440  12.847  68.469  1.00  0.00    -0.334 S  
HETATM   12  O   UNL     1     -10.061  13.272  68.395  1.00  0.00    -0.238 OA 
HETATM   13  O   UNL     1     -12.147  12.424  67.276  1.00  0.00    -0.516 OA 
BRANCH  11  14
HETATM   14  C   UNL     1     -11.590  11.542  69.665  1.00  0.00    -0.333 A  
HETATM   15  C   UNL     1     -10.789  10.403  69.549  1.00  0.00    -0.295 A  
HETATM   16  C   UNL     1     -10.943   9.355  70.459  1.00  0.00    -0.332 A  
HETATM   17  C   UNL     1     -11.891   9.442  71.487  1.00  0.00    -0.456 A  
HETATM   18  C   UNL     1     -12.648  10.614  71.626  1.00  0.00    -0.482 A  
HETATM   19  C   UNL     1     -12.112   8.295  72.429  1.00  0.00    -0.430 C  
HETATM   20  C   UNL     1     -12.494  11.668  70.723  1.00  0.00    -0.425 A  
ENDBRANCH  11  14
ENDBRANCH   9  11
ENDBRANCH   7   9
ENDBRANCH   5   7
ENDBRANCH   4   5
ENDBRANCH   3   4
ENDBRANCH   2   3
TORSDOF 7
ENDMDL
MODEL       45
REMARK 921   NORMALIZED FREE ENERGY PREDICTED BY IDOCK:   -4.96 KCAL/MOL
REMARK 922        TOTAL FREE ENERGY PREDICTED BY IDOCK:   -7.62 KCAL/MOL
REMARK 923 INTER-LIGAND FREE ENERGY PREDICTED BY IDOCK:   -7.01 KCAL/MOL
REMARK 924 INTRA-LIGAND FREE ENERGY PREDICTED BY IDOCK:   -0.61 KCAL/MOL
REMARK 927      BINDING AFFINITY PREDICTED BY RF-SCORE:    0.00 PKD
ROOT
HETATM    1  C   UNL     1     -14.270   7.190  71.539  1.00  0.00    -0.486 C  
HETATM    2  C   UNL     1     -14.117   8.698  71.412  1.00  0.00    -0.337 C  
ENDROOT
BRANCH   2   3
HETATM    3  C   UNL     1     -12.935   9.218  72.234  1.00  0.00    -0.488 C  
BRANCH   3   4
HETATM    4  C   UNL     1     -11.621   8.529  71.863  1.00  0.00    -0.341 C  
BRANCH   4   5
HETATM    5  N   UNL     1     -10.606   9.459  71.409  1.00  0.00    -0.340 N  
HETATM    6  H   UNL     1     -10.037   9.956  72.094  1.00  0.00     0.000 HD 
BRANCH   5   7
HETATM    7  C   UNL     1     -10.399   9.681  70.076  1.00  0.00    -0.257 C  
HETATM    8  O   UNL     1     -10.365   8.785  69.247  1.00  0.00    -0.207 OA 
BRANCH   7   9
HETATM    9  N   UNL     1     -10.257  11.020  69.762  1.00  0.00    -0.408 N  
HETATM   10  H   UNL     1      -9.426  11.504  70.102  1.00  0.00     0.000 HD 
BRANCH   9  11
HETATM   11  S   UNL     1     -11.354  11.895  68.865  1.00  0.00    -0.304 S  
HETATM   12  O   UNL     1     -12.407  11.029  68.386  1.00  0.00    -0.528 OA 
HETATM   13  O   UNL     1     -10.552  12.665  67.934  1.00  0.00    -0.211 OA 
BRANCH  11  14
HETATM   14  C   UNL     1     -12.023  13.032  70.055  1.00  0.00    -0.312 A  
HETATM   15  C   UNL     1     -11.809  14.403  69.897  1.00  0.00    -0.382 A  
HETATM   16  C   UNL     1     -12.290  15.292  70.860  1.00  0.00    -0.433 A  
HETATM   17  C   UNL     1     -12.989  14.818  71.978  1.00  0.00    -0.407 A  
HETATM   18  C   UNL     1     -13.246  13.444  72.094  1.00  0.00    -0.557 A  
HETATM   19  C   UNL     1     -13.452  15.757  73.053  1.00  0.00    -0.672 C  
HETATM   20  C   UNL     1     -12.772  12.551  71.132  1.00  0.00    -0.340 A  
ENDBRANCH  11  14
ENDBRANCH   9  11
ENDBRANCH   7   9
ENDBRANCH   5   7
ENDBRANCH   4   5
ENDBRANCH   3   4
ENDBRANCH   2   3
TORSDOF 7
ENDMDL
MODEL       46
REMARK 921   NORMALIZED FREE ENERGY PREDICTED BY IDOCK:   -4.95 KCAL/MOL
REMARK 922        TOTAL FREE ENERGY PREDICTED BY IDOCK:   -7.60 KCAL/MOL
REMARK 923 INTER-LIGAND FREE ENERGY PREDICTED BY IDOCK:   -6.92 KCAL/MOL
REMARK 924 INTRA-LIGAND FREE ENERGY PREDICTED BY IDOCK:   -0.68 KCAL/MOL
REMARK 927      BINDING AFFINITY PREDICTED BY RF-SCORE:    0.00 PKD
ROOT
HETATM    1  C   UNL     1     -12.472  16.183  73.589  1.00  0.00    -0.684 C  
HETATM    2  C   UNL     1     -13.710  15.729  72.833  1.00  0.00    -0.631 C  
ENDROOT
BRANCH   2   3
HETATM    3  C   UNL     1     -13.464  14.420  72.078  1.00  0.00    -0.490 C  
BRANCH   3   4
HETATM    4  C   UNL     1     -12.472  14.591  70.927  1.00  0.00    -0.345 C  
BRANCH   4   5
HETATM    5  N   UNL     1     -11.746  13.372  70.624  1.00  0.00    -0.507 N  
HETATM    6  H   UNL     1     -11.138  12.960  71.332  1.00  0.00     0.000 HD 
BRANCH   5   7
HETATM    7  C   UNL     1     -11.863  12.766  69.404  1.00  0.00    -0.300 C  
HETATM    8  O   UNL     1     -12.020  11.562  69.270  1.00  0.00    -0.323 OA 
BRANCH   7   9
HETATM    9  N   UNL     1     -11.810  13.655  68.346  1.00  0.00    -0.358 N  
HETATM   10  H   UNL     1     -12.675  14.122  68.073  1.00  0.00     0.000 HD 
BRANCH   9  11
HETATM   11  S   UNL     1     -10.428  14.011  67.489  1.00  0.00    -0.253 S  
HETATM   12  O   UNL     1     -10.503  13.435  66.166  1.00  0.00    -0.285 OA 
HETATM   13  O   UNL     1      -9.334  13.675  68.379  1.00  0.00    -0.203 OA 
BRANCH  11  14
HETATM   14  C   UNL     1     -10.486  15.782  67.362  1.00  0.00    -0.297 A  
HETATM   15  C   UNL     1     -10.528  16.384  66.102  1.00  0.00    -0.321 A  
HETATM   16  C   UNL     1     -10.520  17.777  66.002  1.00  0.00    -0.286 A  
HETATM   17  C   UNL     1     -10.474  18.571  67.155  1.00  0.00    -0.446 A  
HETATM   18  C   UNL     1     -10.490  17.954  68.414  1.00  0.00    -0.338 A  
HETATM   19  C   UNL     1     -10.397  20.067  67.057  1.00  0.00    -0.555 C  
HETATM   20  C   UNL     1     -10.504  16.562  68.521  1.00  0.00    -0.302 A  
ENDBRANCH  11  14
ENDBRANCH   9  11
ENDBRANCH   7   9
ENDBRANCH   5   7
ENDBRANCH   4   5
ENDBRANCH   3   4
ENDBRANCH   2   3
TORSDOF 7
ENDMDL
MODEL       47
REMARK 921   NORMALIZED FREE ENERGY PREDICTED BY IDOCK:   -4.94 KCAL/MOL
REMARK 922        TOTAL FREE ENERGY PREDICTED BY IDOCK:   -7.59 KCAL/MOL
REMARK 923 INTER-LIGAND FREE ENERGY PREDICTED BY IDOCK:   -6.70 KCAL/MOL
REMARK 924 INTRA-LIGAND FREE ENERGY PREDICTED BY IDOCK:   -0.89 KCAL/MOL
REMARK 927      BINDING AFFINITY PREDICTED BY RF-SCORE:    0.00 PKD
ROOT
HETATM    1  C   UNL     1      -6.162  18.929  68.690  1.00  0.00    -0.242 C  
HETATM    2  C   UNL     1      -6.070  20.445  68.748  1.00  0.00    -0.366 C  
ENDROOT
BRANCH   2   3
HETATM    3  C   UNL     1      -6.530  21.091  67.438  1.00  0.00    -0.427 C  
BRANCH   3   4
HETATM    4  C   UNL     1      -6.940  20.054  66.392  1.00  0.00    -0.240 C  
BRANCH   4   5
HETATM    5  N   UNL     1      -8.336  20.158  66.013  1.00  0.00    -0.547 N  
HETATM    6  H   UNL     1      -8.580  20.339  65.039  1.00  0.00     0.000 HD 
BRANCH   5   7
HETATM    7  C   UNL     1      -9.331  20.019  66.940  1.00  0.00    -0.393 C  
HETATM    8  O   UNL     1     -10.027  20.948  67.316  1.00  0.00    -0.387 OA 
BRANCH   7   9
HETATM    9  N   UNL     1      -9.481  18.719  67.387  1.00  0.00    -0.294 N  
HETATM   10  H   UNL     1      -9.425  18.551  68.392  1.00  0.00     0.000 HD 
BRANCH   9  11
HETATM   11  S   UNL     1      -9.747  17.410  66.394  1.00  0.00    -0.278 S  
HETATM   12  O   UNL     1      -8.488  16.862  65.947  1.00  0.00    -0.501 OA 
HETATM   13  O   UNL     1     -10.738  17.859  65.435  1.00  0.00    -0.634 OA 
BRANCH  11  14
HETATM   14  C   UNL     1     -10.544  16.247  67.475  1.00  0.00    -0.310 A  
HETATM   15  C   UNL     1     -10.583  16.495  68.849  1.00  0.00    -0.326 A  
HETATM   16  C   UNL     1     -11.163  15.556  69.704  1.00  0.00    -0.301 A  
HETATM   17  C   UNL     1     -11.708  14.371  69.192  1.00  0.00    -0.354 A  
HETATM   18  C   UNL     1     -11.712  14.161  67.805  1.00  0.00    -0.408 A  
HETATM   19  C   UNL     1     -12.272  13.324  70.107  1.00  0.00    -0.376 C  
HETATM   20  C   UNL     1     -11.139  15.099  66.945  1.00  0.00    -0.314 A  
ENDBRANCH  11  14
ENDBRANCH   9  11
ENDBRANCH   7   9
ENDBRANCH   5   7
ENDBRANCH   4   5
ENDBRANCH   3   4
ENDBRANCH   2   3
TORSDOF 7
ENDMDL
MODEL       48
REMARK 921   NORMALIZED FREE ENERGY PREDICTED BY IDOCK:   -4.94 KCAL/MOL
REMARK 922        TOTAL FREE ENERGY PREDICTED BY IDOCK:   -7.58 KCAL/MOL
REMARK 923 INTER-LIGAND FREE ENERGY PREDICTED BY IDOCK:   -7.09 KCAL/MOL
REMARK 924 INTRA-LIGAND FREE ENERGY PREDICTED BY IDOCK:   -0.50 KCAL/MOL
REMARK 927      BINDING AFFINITY PREDICTED BY RF-SCORE:    0.00 PKD
ROOT
HETATM    1  C   UNL     1     -11.377  14.793  70.414  1.00  0.00    -0.265 C  
HETATM    2  C   UNL     1     -11.402  15.707  69.199  1.00  0.00    -0.341 C  
ENDROOT
BRANCH   2   3
HETATM    3  C   UNL     1     -10.228  15.428  68.257  1.00  0.00    -0.229 C  
BRANCH   3   4
HETATM    4  C   UNL     1     -10.369  16.158  66.920  1.00  0.00    -0.297 C  
BRANCH   4   5
HETATM    5  N   UNL     1     -10.400  15.255  65.787  1.00  0.00    -0.318 N  
HETATM    6  H   UNL     1      -9.789  14.438  65.778  1.00  0.00     0.000 HD 
BRANCH   5   7
HETATM    7  C   UNL     1     -11.235  15.480  64.728  1.00  0.00    -0.390 C  
HETATM    8  O   UNL     1     -11.496  16.597  64.310  1.00  0.00    -1.075 OA 
BRANCH   7   9
HETATM    9  N   UNL     1     -11.732  14.318  64.168  1.00  0.00    -0.641 N  
HETATM   10  H   UNL     1     -11.789  14.265  63.151  1.00  0.00     0.000 HD 
BRANCH   9  11
HETATM   11  S   UNL     1     -12.243  12.998  65.045  1.00  0.00    -0.477 S  
HETATM   12  O   UNL     1     -13.398  12.400  64.415  1.00  0.00    -0.789 OA 
HETATM   13  O   UNL     1     -12.309  13.460  66.419  1.00  0.00    -0.387 OA 
BRANCH  11  14
HETATM   14  C   UNL     1     -10.865  11.883  64.925  1.00  0.00    -0.305 A  
HETATM   15  C   UNL     1     -10.212  11.465  66.087  1.00  0.00    -0.282 A  
HETATM   16  C   UNL     1      -9.096  10.630  65.989  1.00  0.00    -0.201 A  
HETATM   17  C   UNL     1      -8.633  10.209  64.736  1.00  0.00    -0.191 A  
HETATM   18  C   UNL     1      -9.334  10.590  63.582  1.00  0.00    -0.324 A  
HETATM   19  C   UNL     1      -7.397   9.367  64.614  1.00  0.00    -0.104 C  
HETATM   20  C   UNL     1     -10.453  11.419  63.674  1.00  0.00    -0.472 A  
ENDBRANCH  11  14
ENDBRANCH   9  11
ENDBRANCH   7   9
ENDBRANCH   5   7
ENDBRANCH   4   5
ENDBRANCH   3   4
ENDBRANCH   2   3
TORSDOF 7
ENDMDL
MODEL       49
REMARK 921   NORMALIZED FREE ENERGY PREDICTED BY IDOCK:   -4.90 KCAL/MOL
REMARK 922        TOTAL FREE ENERGY PREDICTED BY IDOCK:   -7.53 KCAL/MOL
REMARK 923 INTER-LIGAND FREE ENERGY PREDICTED BY IDOCK:   -7.03 KCAL/MOL
REMARK 924 INTRA-LIGAND FREE ENERGY PREDICTED BY IDOCK:   -0.51 KCAL/MOL
REMARK 927      BINDING AFFINITY PREDICTED BY RF-SCORE:    0.00 PKD
ROOT
HETATM    1  C   UNL     1     -13.555  15.684  72.649  1.00  0.00    -0.667 C  
HETATM    2  C   UNL     1     -12.280  15.132  72.031  1.00  0.00    -0.438 C  
ENDROOT
BRANCH   2   3
HETATM    3  C   UNL     1     -12.566  14.350  70.747  1.00  0.00    -0.426 C  
BRANCH   3   4
HETATM    4  C   UNL     1     -11.692  14.809  69.580  1.00  0.00    -0.321 C  
BRANCH   4   5
HETATM    5  N   UNL     1     -12.382  14.756  68.305  1.00  0.00    -0.586 N  
HETATM    6  H   UNL     1     -13.307  15.178  68.217  1.00  0.00     0.000 HD 
BRANCH   5   7
HETATM    7  C   UNL     1     -11.813  14.151  67.220  1.00  0.00    -0.419 C  
HETATM    8  O   UNL     1     -11.148  13.129  67.298  1.00  0.00    -0.265 OA 
BRANCH   7   9
HETATM    9  N   UNL     1     -12.087  14.797  66.029  1.00  0.00    -0.175 N  
HETATM   10  H   UNL     1     -13.063  14.878  65.744  1.00  0.00     0.000 HD 
BRANCH   9  11
HETATM   11  S   UNL     1     -10.929  15.452  65.028  1.00  0.00    -0.423 S  
HETATM   12  O   UNL     1     -11.533  16.406  64.128  1.00  0.00    -0.951 OA 
HETATM   13  O   UNL     1     -10.189  14.316  64.512  1.00  0.00    -0.304 OA 
BRANCH  11  14
HETATM   14  C   UNL     1      -9.863  16.308  66.163  1.00  0.00    -0.334 A  
HETATM   15  C   UNL     1     -10.349  17.412  66.869  1.00  0.00    -0.317 A  
HETATM   16  C   UNL     1      -9.496  18.116  67.721  1.00  0.00    -0.269 A  
HETATM   17  C   UNL     1      -8.161  17.721  67.875  1.00  0.00    -0.235 A  
HETATM   18  C   UNL     1      -7.703  16.577  67.204  1.00  0.00    -0.214 A  
HETATM   19  C   UNL     1      -7.218  18.509  68.735  1.00  0.00    -0.316 C  
HETATM   20  C   UNL     1      -8.552  15.866  66.355  1.00  0.00    -0.364 A  
ENDBRANCH  11  14
ENDBRANCH   9  11
ENDBRANCH   7   9
ENDBRANCH   5   7
ENDBRANCH   4   5
ENDBRANCH   3   4
ENDBRANCH   2   3
TORSDOF 7
ENDMDL
MODEL       50
REMARK 921   NORMALIZED FREE ENERGY PREDICTED BY IDOCK:   -4.90 KCAL/MOL
REMARK 922        TOTAL FREE ENERGY PREDICTED BY IDOCK:   -7.53 KCAL/MOL
REMARK 923 INTER-LIGAND FREE ENERGY PREDICTED BY IDOCK:   -7.04 KCAL/MOL
REMARK 924 INTRA-LIGAND FREE ENERGY PREDICTED BY IDOCK:   -0.49 KCAL/MOL
REMARK 927      BINDING AFFINITY PREDICTED BY RF-SCORE:    0.00 PKD
ROOT
HETATM    1  C   UNL     1     -13.833  15.483  72.565  1.00  0.00    -0.669 C  
HETATM    2  C   UNL     1     -13.380  15.450  71.113  1.00  0.00    -0.580 C  
ENDROOT
BRANCH   2   3
HETATM    3  C   UNL     1     -11.897  15.804  70.975  1.00  0.00    -0.460 C  
BRANCH   3   4
HETATM    4  C   UNL     1     -11.402  15.680  69.534  1.00  0.00    -0.327 C  
BRANCH   4   5
HETATM    5  N   UNL     1     -10.478  16.735  69.164  1.00  0.00    -0.327 N  
HETATM    6  H   UNL     1      -9.674  16.930  69.760  1.00  0.00     0.000 HD 
BRANCH   5   7
HETATM    7  C   UNL     1     -10.668  17.473  68.028  1.00  0.00    -0.341 C  
HETATM    8  O   UNL     1     -10.431  18.669  67.963  1.00  0.00    -0.377 OA 
BRANCH   7   9
HETATM    9  N   UNL     1     -11.129  16.724  66.962  1.00  0.00     0.061 N  
HETATM   10  H   UNL     1     -12.085  16.370  67.006  1.00  0.00     0.000 HD 
BRANCH   9  11
HETATM   11  S   UNL     1     -10.228  16.361  65.610  1.00  0.00    -0.278 S  
HETATM   12  O   UNL     1      -8.883  16.868  65.760  1.00  0.00    -0.522 OA 
HETATM   13  O   UNL     1     -11.050  16.768  64.487  1.00  0.00    -0.989 OA 
BRANCH  11  14
HETATM   14  C   UNL     1     -10.190  14.584  65.624  1.00  0.00    -0.357 A  
HETATM   15  C   UNL     1     -10.863  13.871  64.628  1.00  0.00    -0.420 A  
HETATM   16  C   UNL     1     -10.877  12.476  64.668  1.00  0.00    -0.343 A  
HETATM   17  C   UNL     1     -10.219  11.789  65.696  1.00  0.00    -0.284 A  
HETATM   18  C   UNL     1      -9.500  12.516  66.656  1.00  0.00    -0.242 A  
HETATM   19  C   UNL     1     -10.283  10.292  65.787  1.00  0.00    -0.289 C  
HETATM   20  C   UNL     1      -9.477  13.911  66.618  1.00  0.00    -0.296 A  
ENDBRANCH  11  14
ENDBRANCH   9  11
ENDBRANCH   7   9
ENDBRANCH   5   7
ENDBRANCH   4   5
ENDBRANCH   3   4
ENDBRANCH   2   3
TORSDOF 7
ENDMDL
MODEL       51
REMARK 921   NORMALIZED FREE ENERGY PREDICTED BY IDOCK:   -4.89 KCAL/MOL
REMARK 922        TOTAL FREE ENERGY PREDICTED BY IDOCK:   -7.52 KCAL/MOL
REMARK 923 INTER-LIGAND FREE ENERGY PREDICTED BY IDOCK:   -6.77 KCAL/MOL
REMARK 924 INTRA-LIGAND FREE ENERGY PREDICTED BY IDOCK:   -0.75 KCAL/MOL
REMARK 927      BINDING AFFINITY PREDICTED BY RF-SCORE:    0.00 PKD
ROOT
HETATM    1  C   UNL     1     -10.522  19.699  66.856  1.00  0.00    -0.606 C  
HETATM    2  C   UNL     1      -9.841  19.843  68.208  1.00  0.00    -0.514 C  
ENDROOT
BRANCH   2   3
HETATM    3  C   UNL     1      -9.327  18.498  68.729  1.00  0.00    -0.317 C  
BRANCH   3   4
HETATM    4  C   UNL     1      -9.002  17.522  67.597  1.00  0.00    -0.231 C  
BRANCH   4   5
HETATM    5  N   UNL     1      -9.610  16.220  67.786  1.00  0.00    -0.223 N  
HETATM    6  H   UNL     1     -10.501  16.012  67.335  1.00  0.00     0.000 HD 
BRANCH   5   7
HETATM    7  C   UNL     1      -9.009  15.265  68.558  1.00  0.00    -0.187 C  
HETATM    8  O   UNL     1      -7.809  15.044  68.531  1.00  0.00    -0.125 OA 
BRANCH   7   9
HETATM    9  N   UNL     1      -9.892  14.598  69.386  1.00  0.00    -0.422 N  
HETATM   10  H   UNL     1      -9.503  14.009  70.123  1.00  0.00     0.000 HD 
BRANCH   9  11
HETATM   11  S   UNL     1     -11.550  14.693  69.261  1.00  0.00    -0.321 S  
HETATM   12  O   UNL     1     -11.946  14.639  67.873  1.00  0.00    -0.337 OA 
HETATM   13  O   UNL     1     -11.928  15.819  70.093  1.00  0.00    -0.353 OA 
BRANCH  11  14
HETATM   14  C   UNL     1     -12.095  13.217  70.085  1.00  0.00    -0.321 A  
HETATM   15  C   UNL     1     -12.780  13.316  71.299  1.00  0.00    -0.411 A  
HETATM   16  C   UNL     1     -13.163  12.154  71.973  1.00  0.00    -0.496 A  
HETATM   17  C   UNL     1     -12.868  10.894  71.438  1.00  0.00    -0.554 A  
HETATM   18  C   UNL     1     -12.231  10.810  70.191  1.00  0.00    -0.425 A  
HETATM   19  C   UNL     1     -13.214   9.639  72.185  1.00  0.00    -0.535 C  
HETATM   20  C   UNL     1     -11.851  11.967  69.510  1.00  0.00    -0.390 A  
ENDBRANCH  11  14
ENDBRANCH   9  11
ENDBRANCH   7   9
ENDBRANCH   5   7
ENDBRANCH   4   5
ENDBRANCH   3   4
ENDBRANCH   2   3
TORSDOF 7
ENDMDL
MODEL       52
REMARK 921   NORMALIZED FREE ENERGY PREDICTED BY IDOCK:   -4.87 KCAL/MOL
REMARK 922        TOTAL FREE ENERGY PREDICTED BY IDOCK:   -7.49 KCAL/MOL
REMARK 923 INTER-LIGAND FREE ENERGY PREDICTED BY IDOCK:   -6.74 KCAL/MOL
REMARK 924 INTRA-LIGAND FREE ENERGY PREDICTED BY IDOCK:   -0.75 KCAL/MOL
REMARK 927      BINDING AFFINITY PREDICTED BY RF-SCORE:    0.00 PKD
ROOT
HETATM    1  C   UNL     1     -11.097   9.999  70.629  1.00  0.00    -0.408 C  
HETATM    2  C   UNL     1     -12.091  11.149  70.600  1.00  0.00    -0.477 C  
ENDROOT
BRANCH   2   3
HETATM    3  C   UNL     1     -11.861  12.065  69.396  1.00  0.00    -0.384 C  
BRANCH   3   4
HETATM    4  C   UNL     1     -11.917  13.546  69.772  1.00  0.00    -0.340 C  
BRANCH   4   5
HETATM    5  N   UNL     1     -12.398  14.384  68.691  1.00  0.00    -0.584 N  
HETATM    6  H   UNL     1     -13.370  14.307  68.390  1.00  0.00     0.000 HD 
BRANCH   5   7
HETATM    7  C   UNL     1     -11.571  15.276  68.067  1.00  0.00    -0.312 C  
HETATM    8  O   UNL     1     -11.409  16.421  68.458  1.00  0.00    -0.371 OA 
BRANCH   7   9
HETATM    9  N   UNL     1     -10.921  14.742  66.970  1.00  0.00    -0.316 N  
HETATM   10  H   UNL     1      -9.932  14.512  67.066  1.00  0.00     0.000 HD 
BRANCH   9  11
HETATM   11  S   UNL     1     -11.648  14.448  65.501  1.00  0.00    -0.353 S  
HETATM   12  O   UNL     1     -11.331  15.507  64.570  1.00  0.00    -0.399 OA 
HETATM   13  O   UNL     1     -13.027  14.133  65.818  1.00  0.00    -0.492 OA 
BRANCH  11  14
HETATM   14  C   UNL     1     -10.869  12.944  64.966  1.00  0.00    -0.299 A  
HETATM   15  C   UNL     1     -10.088  12.212  65.865  1.00  0.00    -0.270 A  
HETATM   16  C   UNL     1      -9.433  11.058  65.430  1.00  0.00    -0.257 A  
HETATM   17  C   UNL     1      -9.558  10.629  64.103  1.00  0.00    -0.353 A  
HETATM   18  C   UNL     1     -10.391  11.341  63.227  1.00  0.00    -0.406 A  
HETATM   19  C   UNL     1      -8.806   9.429  63.607  1.00  0.00    -0.198 C  
HETATM   20  C   UNL     1     -11.052  12.492  63.657  1.00  0.00    -0.523 A  
ENDBRANCH  11  14
ENDBRANCH   9  11
ENDBRANCH   7   9
ENDBRANCH   5   7
ENDBRANCH   4   5
ENDBRANCH   3   4
ENDBRANCH   2   3
TORSDOF 7
ENDMDL
MODEL       53
REMARK 921   NORMALIZED FREE ENERGY PREDICTED BY IDOCK:   -4.83 KCAL/MOL
REMARK 922        TOTAL FREE ENERGY PREDICTED BY IDOCK:   -7.44 KCAL/MOL
REMARK 923 INTER-LIGAND FREE ENERGY PREDICTED BY IDOCK:   -6.83 KCAL/MOL
REMARK 924 INTRA-LIGAND FREE ENERGY PREDICTED BY IDOCK:   -0.61 KCAL/MOL
REMARK 927      BINDING AFFINITY PREDICTED BY RF-SCORE:    0.00 PKD
ROOT
HETATM    1  C   UNL     1     -14.193  15.076  71.857  1.00  0.00    -0.649 C  
HETATM    2  C   UNL     1     -13.069  15.580  70.965  1.00  0.00    -0.551 C  
ENDROOT
BRANCH   2   3
HETATM    3  C   UNL     1     -12.271  14.426  70.353  1.00  0.00    -0.404 C  
BRANCH   3   4
HETATM    4  C   UNL     1     -12.525  13.099  71.070  1.00  0.00    -0.318 C  
BRANCH   4   5
HETATM    5  N   UNL     1     -11.741  12.007  70.527  1.00  0.00    -0.487 N  
HETATM    6  H   UNL     1     -10.919  12.213  69.959  1.00  0.00     0.000 HD 
BRANCH   5   7
HETATM    7  C   UNL     1     -12.085  10.706  70.764  1.00  0.00    -0.374 C  
HETATM    8  O   UNL     1     -12.443  10.299  71.859  1.00  0.00    -0.374 OA 
BRANCH   7   9
HETATM    9  N   UNL     1     -12.009   9.907  69.638  1.00  0.00    -0.461 N  
HETATM   10  H   UNL     1     -12.883   9.621  69.197  1.00  0.00     0.000 HD 
BRANCH   9  11
HETATM   11  S   UNL     1     -10.584   9.383  68.955  1.00  0.00    -0.181 S  
HETATM   12  O   UNL     1     -10.623   7.951  68.764  1.00  0.00    -0.200 OA 
HETATM   13  O   UNL     1      -9.536   9.993  69.750  1.00  0.00    -0.222 OA 
BRANCH  11  14
HETATM   14  C   UNL     1     -10.584  10.187  67.370  1.00  0.00    -0.272 A  
HETATM   15  C   UNL     1     -11.279  11.388  67.205  1.00  0.00    -0.363 A  
HETATM   16  C   UNL     1     -11.322  11.992  65.947  1.00  0.00    -0.391 A  
HETATM   17  C   UNL     1     -10.671  11.405  64.854  1.00  0.00    -0.350 A  
HETATM   18  C   UNL     1      -9.930  10.230  65.048  1.00  0.00    -0.393 A  
HETATM   19  C   UNL     1     -10.767  12.009  63.484  1.00  0.00    -0.513 C  
HETATM   20  C   UNL     1      -9.879   9.624  66.304  1.00  0.00    -0.323 A  
ENDBRANCH  11  14
ENDBRANCH   9  11
ENDBRANCH   7   9
ENDBRANCH   5   7
ENDBRANCH   4   5
ENDBRANCH   3   4
ENDBRANCH   2   3
TORSDOF 7
ENDMDL
MODEL       54
REMARK 921   NORMALIZED FREE ENERGY PREDICTED BY IDOCK:   -4.79 KCAL/MOL
REMARK 922        TOTAL FREE ENERGY PREDICTED BY IDOCK:   -7.38 KCAL/MOL
REMARK 923 INTER-LIGAND FREE ENERGY PREDICTED BY IDOCK:   -6.59 KCAL/MOL
REMARK 924 INTRA-LIGAND FREE ENERGY PREDICTED BY IDOCK:   -0.79 KCAL/MOL
REMARK 927      BINDING AFFINITY PREDICTED BY RF-SCORE:    0.00 PKD
ROOT
HETATM    1  C   UNL     1     -12.334  14.512  64.242  1.00  0.00    -0.396 C  
HETATM    2  C   UNL     1     -11.835  13.104  63.960  1.00  0.00    -0.514 C  
ENDROOT
BRANCH   2   3
HETATM    3  C   UNL     1     -10.738  12.686  64.942  1.00  0.00    -0.327 C  
BRANCH   3   4
HETATM    4  C   UNL     1     -10.420  13.782  65.960  1.00  0.00    -0.297 C  
BRANCH   4   5
HETATM    5  N   UNL     1     -10.695  13.378  67.325  1.00  0.00    -0.258 N  
HETATM    6  H   UNL     1     -11.658  13.367  67.662  1.00  0.00     0.000 HD 
BRANCH   5   7
HETATM    7  C   UNL     1      -9.684  13.011  68.169  1.00  0.00    -0.228 C  
HETATM    8  O   UNL     1      -8.576  13.525  68.146  1.00  0.00    -0.161 OA 
BRANCH   7   9
HETATM    9  N   UNL     1     -10.050  12.021  69.062  1.00  0.00    -0.416 N  
HETATM   10  H   UNL     1      -9.308  11.534  69.565  1.00  0.00     0.000 HD 
BRANCH   9  11
HETATM   11  S   UNL     1     -11.623  11.573  69.371  1.00  0.00    -0.351 S  
HETATM   12  O   UNL     1     -12.251  11.097  68.160  1.00  0.00    -0.612 OA 
HETATM   13  O   UNL     1     -12.194  12.682  70.111  1.00  0.00    -0.305 OA 
BRANCH  11  14
HETATM   14  C   UNL     1     -11.435  10.219  70.506  1.00  0.00    -0.343 A  
HETATM   15  C   UNL     1     -12.516   9.824  71.297  1.00  0.00    -0.461 A  
HETATM   16  C   UNL     1     -12.353   8.795  72.226  1.00  0.00    -0.448 A  
HETATM   17  C   UNL     1     -11.114   8.154  72.365  1.00  0.00    -0.437 A  
HETATM   18  C   UNL     1     -10.054   8.522  71.524  1.00  0.00    -0.315 A  
HETATM   19  C   UNL     1     -10.908   7.093  73.406  1.00  0.00    -0.360 C  
HETATM   20  C   UNL     1     -10.213   9.546  70.590  1.00  0.00    -0.364 A  
ENDBRANCH  11  14
ENDBRANCH   9  11
ENDBRANCH   7   9
ENDBRANCH   5   7
ENDBRANCH   4   5
ENDBRANCH   3   4
ENDBRANCH   2   3
TORSDOF 7
ENDMDL
MODEL       55
REMARK 921   NORMALIZED FREE ENERGY PREDICTED BY IDOCK:   -4.79 KCAL/MOL
REMARK 922        TOTAL FREE ENERGY PREDICTED BY IDOCK:   -7.38 KCAL/MOL
REMARK 923 INTER-LIGAND FREE ENERGY PREDICTED BY IDOCK:   -6.84 KCAL/MOL
REMARK 924 INTRA-LIGAND FREE ENERGY PREDICTED BY IDOCK:   -0.54 KCAL/MOL
REMARK 927      BINDING AFFINITY PREDICTED BY RF-SCORE:    0.00 PKD
ROOT
HETATM    1  C   UNL     1     -12.565  15.965  73.836  1.00  0.00    -0.746 C  
HETATM    2  C   UNL     1     -13.406  15.226  72.807  1.00  0.00    -0.603 C  
ENDROOT
BRANCH   2   3
HETATM    3  C   UNL     1     -12.543  14.634  71.690  1.00  0.00    -0.403 C  
BRANCH   3   4
HETATM    4  C   UNL     1     -12.952  13.204  71.335  1.00  0.00    -0.298 C  
BRANCH   4   5
HETATM    5  N   UNL     1     -11.989  12.540  70.478  1.00  0.00    -0.526 N  
HETATM    6  H   UNL     1     -11.315  13.098  69.953  1.00  0.00     0.000 HD 
BRANCH   5   7
HETATM    7  C   UNL     1     -11.969  11.178  70.361  1.00  0.00    -0.378 C  
HETATM    8  O   UNL     1     -12.005  10.426  71.323  1.00  0.00    -0.358 OA 
BRANCH   7   9
HETATM    9  N   UNL     1     -11.928  10.743  69.050  1.00  0.00    -0.502 N  
HETATM   10  H   UNL     1     -12.806  10.459  68.614  1.00  0.00     0.000 HD 
BRANCH   9  11
HETATM   11  S   UNL     1     -10.541  10.653  68.134  1.00  0.00    -0.220 S  
HETATM   12  O   UNL     1     -10.584   9.488  67.281  1.00  0.00    -0.264 OA 
HETATM   13  O   UNL     1      -9.454  10.838  69.076  1.00  0.00    -0.191 OA 
BRANCH  11  14
HETATM   14  C   UNL     1     -10.631  12.118  67.132  1.00  0.00    -0.226 A  
HETATM   15  C   UNL     1      -9.660  13.112  67.274  1.00  0.00    -0.233 A  
HETATM   16  C   UNL     1      -9.759  14.286  66.525  1.00  0.00    -0.304 A  
HETATM   17  C   UNL     1     -10.822  14.469  65.631  1.00  0.00    -0.329 A  
HETATM   18  C   UNL     1     -11.758  13.439  65.457  1.00  0.00    -0.366 A  
HETATM   19  C   UNL     1     -10.977  15.754  64.870  1.00  0.00    -0.443 C  
HETATM   20  C   UNL     1     -11.660  12.261  66.199  1.00  0.00    -0.450 A  
ENDBRANCH  11  14
ENDBRANCH   9  11
ENDBRANCH   7   9
ENDBRANCH   5   7
ENDBRANCH   4   5
ENDBRANCH   3   4
ENDBRANCH   2   3
TORSDOF 7
ENDMDL
MODEL       56
REMARK 921   NORMALIZED FREE ENERGY PREDICTED BY IDOCK:   -4.78 KCAL/MOL
REMARK 922        TOTAL FREE ENERGY PREDICTED BY IDOCK:   -7.36 KCAL/MOL
REMARK 923 INTER-LIGAND FREE ENERGY PREDICTED BY IDOCK:   -6.22 KCAL/MOL
REMARK 924 INTRA-LIGAND FREE ENERGY PREDICTED BY IDOCK:   -1.14 KCAL/MOL
REMARK 927      BINDING AFFINITY PREDICTED BY RF-SCORE:    0.00 PKD
ROOT
HETATM    1  C   UNL     1     -12.881  15.540  71.603  1.00  0.00    -0.518 C  
HETATM    2  C   UNL     1     -12.712  14.068  71.265  1.00  0.00    -0.439 C  
ENDROOT
BRANCH   2   3
HETATM    3  C   UNL     1     -13.512  13.173  72.215  1.00  0.00    -0.665 C  
BRANCH   3   4
HETATM    4  C   UNL     1     -13.245  11.686  71.978  1.00  0.00    -0.338 C  
BRANCH   4   5
HETATM    5  N   UNL     1     -12.501  11.436  70.758  1.00  0.00    -0.372 N  
HETATM    6  H   UNL     1     -12.738  11.952  69.910  1.00  0.00     0.000 HD 
BRANCH   5   7
HETATM    7  C   UNL     1     -11.487  10.520  70.726  1.00  0.00    -0.285 C  
HETATM    8  O   UNL     1     -11.538   9.447  71.308  1.00  0.00    -0.304 OA 
BRANCH   7   9
HETATM    9  N   UNL     1     -10.414  10.921  69.951  1.00  0.00    -0.441 N  
HETATM   10  H   UNL     1      -9.507  11.018  70.407  1.00  0.00     0.000 HD 
BRANCH   9  11
HETATM   11  S   UNL     1     -10.506  11.255  68.323  1.00  0.00    -0.207 S  
HETATM   12  O   UNL     1     -11.760  10.777  67.788  1.00  0.00    -0.547 OA 
HETATM   13  O   UNL     1      -9.245  10.796  67.772  1.00  0.00    -0.149 OA 
BRANCH  11  14
HETATM   14  C   UNL     1     -10.488  13.031  68.281  1.00  0.00    -0.250 A  
HETATM   15  C   UNL     1      -9.305  13.717  68.567  1.00  0.00    -0.144 A  
HETATM   16  C   UNL     1      -9.304  15.113  68.585  1.00  0.00    -0.199 A  
HETATM   17  C   UNL     1     -10.479  15.827  68.314  1.00  0.00    -0.259 A  
HETATM   18  C   UNL     1     -11.645  15.126  67.973  1.00  0.00    -0.345 A  
HETATM   19  C   UNL     1     -10.506  17.325  68.397  1.00  0.00    -0.381 C  
HETATM   20  C   UNL     1     -11.650  13.731  67.948  1.00  0.00    -0.376 A  
ENDBRANCH  11  14
ENDBRANCH   9  11
ENDBRANCH   7   9
ENDBRANCH   5   7
ENDBRANCH   4   5
ENDBRANCH   3   4
ENDBRANCH   2   3
TORSDOF 7
ENDMDL
MODEL       57
REMARK 921   NORMALIZED FREE ENERGY PREDICTED BY IDOCK:   -4.77 KCAL/MOL
REMARK 922        TOTAL FREE ENERGY PREDICTED BY IDOCK:   -7.35 KCAL/MOL
REMARK 923 INTER-LIGAND FREE ENERGY PREDICTED BY IDOCK:   -6.79 KCAL/MOL
REMARK 924 INTRA-LIGAND FREE ENERGY PREDICTED BY IDOCK:   -0.56 KCAL/MOL
REMARK 927      BINDING AFFINITY PREDICTED BY RF-SCORE:    0.00 PKD
ROOT
HETATM    1  C   UNL     1     -14.158   8.683  71.744  1.00  0.00    -0.499 C  
HETATM    2  C   UNL     1     -12.849   9.272  72.246  1.00  0.00    -0.459 C  
ENDROOT
BRANCH   2   3
HETATM    3  C   UNL     1     -12.112  10.034  71.142  1.00  0.00    -0.475 C  
BRANCH   3   4
HETATM    4  C   UNL     1     -12.625  11.466  70.981  1.00  0.00    -0.386 C  
BRANCH   4   5
HETATM    5  N   UNL     1     -11.772  12.277  70.134  1.00  0.00    -0.529 N  
HETATM    6  H   UNL     1     -10.913  11.878  69.756  1.00  0.00     0.000 HD 
BRANCH   5   7
HETATM    7  C   UNL     1     -12.102  13.569  69.833  1.00  0.00    -0.341 C  
HETATM    8  O   UNL     1     -12.351  14.410  70.683  1.00  0.00    -0.306 OA 
BRANCH   7   9
HETATM    9  N   UNL     1     -12.100  13.831  68.475  1.00  0.00    -0.427 N  
HETATM   10  H   UNL     1     -13.001  13.938  68.009  1.00  0.00     0.000 HD 
BRANCH   9  11
HETATM   11  S   UNL     1     -10.724  13.981  67.550  1.00  0.00    -0.270 S  
HETATM   12  O   UNL     1     -10.903  13.315  66.281  1.00  0.00    -0.282 OA 
HETATM   13  O   UNL     1      -9.634  13.609  68.432  1.00  0.00    -0.216 OA 
BRANCH  11  14
HETATM   14  C   UNL     1     -10.615  15.734  67.284  1.00  0.00    -0.313 A  
HETATM   15  C   UNL     1     -10.486  16.229  65.983  1.00  0.00    -0.342 A  
HETATM   16  C   UNL     1     -10.348  17.603  65.778  1.00  0.00    -0.194 A  
HETATM   17  C   UNL     1     -10.342  18.486  66.865  1.00  0.00    -0.431 A  
HETATM   18  C   UNL     1     -10.529  17.981  68.160  1.00  0.00    -0.373 A  
HETATM   19  C   UNL     1     -10.126  19.957  66.662  1.00  0.00    -0.598 C  
HETATM   20  C   UNL     1     -10.673  16.609  68.371  1.00  0.00    -0.353 A  
ENDBRANCH  11  14
ENDBRANCH   9  11
ENDBRANCH   7   9
ENDBRANCH   5   7
ENDBRANCH   4   5
ENDBRANCH   3   4
ENDBRANCH   2   3
TORSDOF 7
ENDMDL
MODEL       58
REMARK 921   NORMALIZED FREE ENERGY PREDICTED BY IDOCK:   -4.76 KCAL/MOL
REMARK 922        TOTAL FREE ENERGY PREDICTED BY IDOCK:   -7.34 KCAL/MOL
REMARK 923 INTER-LIGAND FREE ENERGY PREDICTED BY IDOCK:   -6.84 KCAL/MOL
REMARK 924 INTRA-LIGAND FREE ENERGY PREDICTED BY IDOCK:   -0.50 KCAL/MOL
REMARK 927      BINDING AFFINITY PREDICTED BY RF-SCORE:    0.00 PKD
ROOT
HETATM    1  C   UNL     1      -9.799   9.590  65.734  1.00  0.00    -0.363 C  
HETATM    2  C   UNL     1      -8.590   9.232  64.884  1.00  0.00    -0.204 C  
ENDROOT
BRANCH   2   3
HETATM    3  C   UNL     1      -8.453  10.161  63.675  1.00  0.00    -0.184 C  
BRANCH   3   4
HETATM    4  C   UNL     1      -9.796  10.432  62.995  1.00  0.00    -0.139 C  
BRANCH   4   5
HETATM    5  N   UNL     1     -10.135  11.842  62.962  1.00  0.00    -0.608 N  
HETATM    6  H   UNL     1      -9.457  12.514  62.602  1.00  0.00     0.000 HD 
BRANCH   5   7
HETATM    7  C   UNL     1     -11.350  12.285  63.406  1.00  0.00    -0.428 C  
HETATM    8  O   UNL     1     -12.401  11.717  63.152  1.00  0.00    -0.465 OA 
BRANCH   7   9
HETATM    9  N   UNL     1     -11.263  13.422  64.188  1.00  0.00    -0.502 N  
HETATM   10  H   UNL     1     -10.660  14.178  63.865  1.00  0.00     0.000 HD 
BRANCH   9  11
HETATM   11  S   UNL     1     -12.079  13.638  65.623  1.00  0.00    -0.456 S  
HETATM   12  O   UNL     1     -12.018  12.432  66.416  1.00  0.00    -0.559 OA 
HETATM   13  O   UNL     1     -13.358  14.210  65.248  1.00  0.00    -0.715 OA 
BRANCH  11  14
HETATM   14  C   UNL     1     -11.141  14.916  66.424  1.00  0.00    -0.342 A  
HETATM   15  C   UNL     1     -10.063  15.503  65.758  1.00  0.00    -0.388 A  
HETATM   16  C   UNL     1      -9.294  16.471  66.407  1.00  0.00    -0.316 A  
HETATM   17  C   UNL     1      -9.599  16.858  67.719  1.00  0.00    -0.249 A  
HETATM   18  C   UNL     1     -10.719  16.301  68.355  1.00  0.00    -0.311 A  
HETATM   19  C   UNL     1      -8.740  17.847  68.451  1.00  0.00    -0.296 C  
HETATM   20  C   UNL     1     -11.495  15.338  67.708  1.00  0.00    -0.312 A  
ENDBRANCH  11  14
ENDBRANCH   9  11
ENDBRANCH   7   9
ENDBRANCH   5   7
ENDBRANCH   4   5
ENDBRANCH   3   4
ENDBRANCH   2   3
TORSDOF 7
ENDMDL
MODEL       59
REMARK 921   NORMALIZED FREE ENERGY PREDICTED BY IDOCK:   -4.74 KCAL/MOL
REMARK 922        TOTAL FREE ENERGY PREDICTED BY IDOCK:   -7.30 KCAL/MOL
REMARK 923 INTER-LIGAND FREE ENERGY PREDICTED BY IDOCK:   -6.76 KCAL/MOL
REMARK 924 INTRA-LIGAND FREE ENERGY PREDICTED BY IDOCK:   -0.54 KCAL/MOL
REMARK 927      BINDING AFFINITY PREDICTED BY RF-SCORE:    0.00 PKD
ROOT
HETATM    1  C   UNL     1      -9.689   7.035  67.111  1.00  0.00    -0.206 C  
HETATM    2  C   UNL     1     -10.414   8.342  66.834  1.00  0.00    -0.359 C  
ENDROOT
BRANCH   2   3
HETATM    3  C   UNL     1      -9.435   9.477  66.522  1.00  0.00    -0.236 C  
BRANCH   3   4
HETATM    4  C   UNL     1      -9.460   9.877  65.046  1.00  0.00    -0.280 C  
BRANCH   4   5
HETATM    5  N   UNL     1     -10.488  10.856  64.747  1.00  0.00    -0.325 N  
HETATM    6  H   UNL     1     -11.286  10.954  65.374  1.00  0.00     0.000 HD 
BRANCH   5   7
HETATM    7  C   UNL     1     -10.404  11.649  63.637  1.00  0.00    -0.419 C  
HETATM    8  O   UNL     1     -10.188  11.211  62.518  1.00  0.00     0.017 OA 
BRANCH   7   9
HETATM    9  N   UNL     1     -10.612  12.989  63.907  1.00  0.00    -0.508 N  
HETATM   10  H   UNL     1      -9.849  13.639  63.713  1.00  0.00     0.000 HD 
BRANCH   9  11
HETATM   11  S   UNL     1     -12.025  13.613  64.528  1.00  0.00    -0.434 S  
HETATM   12  O   UNL     1     -12.810  12.560  65.130  1.00  0.00    -0.685 OA 
HETATM   13  O   UNL     1     -12.577  14.429  63.464  1.00  0.00    -0.784 OA 
BRANCH  11  14
HETATM   14  C   UNL     1     -11.448  14.714  65.797  1.00  0.00    -0.338 A  
HETATM   15  C   UNL     1     -11.828  14.499  67.125  1.00  0.00    -0.412 A  
HETATM   16  C   UNL     1     -11.418  15.394  68.114  1.00  0.00    -0.352 A  
HETATM   17  C   UNL     1     -10.627  16.502  67.785  1.00  0.00    -0.332 A  
HETATM   18  C   UNL     1     -10.206  16.675  66.458  1.00  0.00    -0.314 A  
HETATM   19  C   UNL     1     -10.236  17.508  68.828  1.00  0.00    -0.373 C  
HETATM   20  C   UNL     1     -10.607  15.780  65.465  1.00  0.00    -0.424 A  
ENDBRANCH  11  14
ENDBRANCH   9  11
ENDBRANCH   7   9
ENDBRANCH   5   7
ENDBRANCH   4   5
ENDBRANCH   3   4
ENDBRANCH   2   3
TORSDOF 7
ENDMDL
MODEL       60
REMARK 921   NORMALIZED FREE ENERGY PREDICTED BY IDOCK:   -4.72 KCAL/MOL
REMARK 922        TOTAL FREE ENERGY PREDICTED BY IDOCK:   -7.28 KCAL/MOL
REMARK 923 INTER-LIGAND FREE ENERGY PREDICTED BY IDOCK:   -6.50 KCAL/MOL
REMARK 924 INTRA-LIGAND FREE ENERGY PREDICTED BY IDOCK:   -0.78 KCAL/MOL
REMARK 927      BINDING AFFINITY PREDICTED BY RF-SCORE:    0.00 PKD
ROOT
HETATM    1  C   UNL     1      -5.814  21.242  66.173  1.00  0.00    -0.305 C  
HETATM    2  C   UNL     1      -6.830  20.432  66.962  1.00  0.00    -0.311 C  
ENDROOT
BRANCH   2   3
HETATM    3  C   UNL     1      -7.863  19.773  66.045  1.00  0.00    -0.344 C  
BRANCH   3   4
HETATM    4  C   UNL     1      -8.148  18.323  66.439  1.00  0.00    -0.258 C  
BRANCH   4   5
HETATM    5  N   UNL     1      -8.410  18.166  67.856  1.00  0.00    -0.245 N  
HETATM    6  H   UNL     1      -7.674  17.814  68.468  1.00  0.00     0.000 HD 
BRANCH   5   7
HETATM    7  C   UNL     1      -9.630  18.482  68.387  1.00  0.00    -0.354 C  
HETATM    8  O   UNL     1      -9.811  19.445  69.115  1.00  0.00    -0.426 OA 
BRANCH   7   9
HETATM    9  N   UNL     1     -10.636  17.617  67.997  1.00  0.00    -0.388 N  
HETATM   10  H   UNL     1     -11.321  17.956  67.323  1.00  0.00     0.000 HD 
BRANCH   9  11
HETATM   11  S   UNL     1     -10.800  16.057  68.556  1.00  0.00    -0.322 S  
HETATM   12  O   UNL     1     -11.953  15.960  69.422  1.00  0.00    -0.354 OA 
HETATM   13  O   UNL     1      -9.483  15.687  69.036  1.00  0.00    -0.209 OA 
BRANCH  11  14
HETATM   14  C   UNL     1     -11.103  15.133  67.070  1.00  0.00    -0.328 A  
HETATM   15  C   UNL     1     -12.051  14.106  67.075  1.00  0.00    -0.449 A  
HETATM   16  C   UNL     1     -12.251  13.345  65.921  1.00  0.00    -0.502 A  
HETATM   17  C   UNL     1     -11.511  13.608  64.761  1.00  0.00    -0.367 A  
HETATM   18  C   UNL     1     -10.604  14.678  64.753  1.00  0.00    -0.379 A  
HETATM   19  C   UNL     1     -11.669  12.754  63.537  1.00  0.00    -0.597 C  
HETATM   20  C   UNL     1     -10.404  15.445  65.901  1.00  0.00    -0.359 A  
ENDBRANCH  11  14
ENDBRANCH   9  11
ENDBRANCH   7   9
ENDBRANCH   5   7
ENDBRANCH   4   5
ENDBRANCH   3   4
ENDBRANCH   2   3
TORSDOF 7
ENDMDL
MODEL       61
REMARK 921   NORMALIZED FREE ENERGY PREDICTED BY IDOCK:   -4.70 KCAL/MOL
REMARK 922        TOTAL FREE ENERGY PREDICTED BY IDOCK:   -7.25 KCAL/MOL
REMARK 923 INTER-LIGAND FREE ENERGY PREDICTED BY IDOCK:   -6.42 KCAL/MOL
REMARK 924 INTRA-LIGAND FREE ENERGY PREDICTED BY IDOCK:   -0.83 KCAL/MOL
REMARK 927      BINDING AFFINITY PREDICTED BY RF-SCORE:    0.00 PKD
ROOT
HETATM    1  C   UNL     1     -10.632  10.589  69.624  1.00  0.00    -0.281 C  
HETATM    2  C   UNL     1     -11.073  10.288  68.200  1.00  0.00    -0.324 C  
ENDROOT
BRANCH   2   3
HETATM    3  C   UNL     1      -9.970  10.605  67.188  1.00  0.00    -0.234 C  
BRANCH   3   4
HETATM    4  C   UNL     1     -10.484  11.430  66.007  1.00  0.00    -0.255 C  
BRANCH   4   5
HETATM    5  N   UNL     1     -11.692  12.168  66.320  1.00  0.00    -0.370 N  
HETATM    6  H   UNL     1     -12.303  11.837  67.067  1.00  0.00     0.000 HD 
BRANCH   5   7
HETATM    7  C   UNL     1     -12.027  13.299  65.630  1.00  0.00    -0.412 C  
HETATM    8  O   UNL     1     -12.905  13.329  64.782  1.00  0.00    -0.690 OA 
BRANCH   7   9
HETATM    9  N   UNL     1     -11.288  14.406  66.006  1.00  0.00    -0.330 N  
HETATM   10  H   UNL     1     -10.970  15.039  65.271  1.00  0.00     0.000 HD 
BRANCH   9  11
HETATM   11  S   UNL     1     -10.883  14.774  67.578  1.00  0.00    -0.295 S  
HETATM   12  O   UNL     1      -9.694  14.051  67.966  1.00  0.00    -0.208 OA 
HETATM   13  O   UNL     1     -12.115  14.626  68.329  1.00  0.00    -0.281 OA 
BRANCH  11  14
HETATM   14  C   UNL     1     -10.516  16.510  67.498  1.00  0.00    -0.310 A  
HETATM   15  C   UNL     1     -10.322  17.231  68.679  1.00  0.00    -0.357 A  
HETATM   16  C   UNL     1     -10.086  18.606  68.617  1.00  0.00    -0.412 A  
HETATM   17  C   UNL     1     -10.037  19.263  67.381  1.00  0.00    -0.486 A  
HETATM   18  C   UNL     1     -10.176  18.517  66.202  1.00  0.00    -0.424 A  
HETATM   19  C   UNL     1      -9.850  20.750  67.306  1.00  0.00    -0.433 C  
HETATM   20  C   UNL     1     -10.407  17.142  66.256  1.00  0.00    -0.315 A  
ENDBRANCH  11  14
ENDBRANCH   9  11
ENDBRANCH   7   9
ENDBRANCH   5   7
ENDBRANCH   4   5
ENDBRANCH   3   4
ENDBRANCH   2   3
TORSDOF 7
ENDMDL
MODEL       62
REMARK 921   NORMALIZED FREE ENERGY PREDICTED BY IDOCK:   -4.69 KCAL/MOL
REMARK 922        TOTAL FREE ENERGY PREDICTED BY IDOCK:   -7.24 KCAL/MOL
REMARK 923 INTER-LIGAND FREE ENERGY PREDICTED BY IDOCK:   -6.48 KCAL/MOL
REMARK 924 INTRA-LIGAND FREE ENERGY PREDICTED BY IDOCK:   -0.76 KCAL/MOL
REMARK 927      BINDING AFFINITY PREDICTED BY RF-SCORE:    0.00 PKD
ROOT
HETATM    1  C   UNL     1     -14.114  14.762  71.735  1.00  0.00    -0.598 C  
HETATM    2  C   UNL     1     -13.020  15.631  71.135  1.00  0.00    -0.539 C  
ENDROOT
BRANCH   2   3
HETATM    3  C   UNL     1     -11.632  15.023  71.349  1.00  0.00    -0.397 C  
BRANCH   3   4
HETATM    4  C   UNL     1     -10.626  15.481  70.292  1.00  0.00    -0.304 C  
BRANCH   4   5
HETATM    5  N   UNL     1     -10.477  14.530  69.208  1.00  0.00    -0.358 N  
HETATM    6  H   UNL     1      -9.723  13.844  69.242  1.00  0.00     0.000 HD 
BRANCH   5   7
HETATM    7  C   UNL     1     -11.331  14.539  68.140  1.00  0.00    -0.298 C  
HETATM    8  O   UNL     1     -12.107  13.627  67.899  1.00  0.00    -0.357 OA 
BRANCH   7   9
HETATM    9  N   UNL     1     -11.242  15.690  67.379  1.00  0.00    -0.271 N  
HETATM   10  H   UNL     1     -11.910  16.438  67.566  1.00  0.00     0.000 HD 
BRANCH   9  11
HETATM   11  S   UNL     1     -10.115  15.936  66.179  1.00  0.00    -0.338 S  
HETATM   12  O   UNL     1     -10.769  16.375  64.967  1.00  0.00    -0.638 OA 
HETATM   13  O   UNL     1      -9.293  14.742  66.182  1.00  0.00    -0.295 OA 
BRANCH  11  14
HETATM   14  C   UNL     1      -9.127  17.263  66.827  1.00  0.00    -0.252 A  
HETATM   15  C   UNL     1      -7.793  17.386  66.433  1.00  0.00    -0.337 A  
HETATM   16  C   UNL     1      -7.002  18.398  66.983  1.00  0.00    -0.209 A  
HETATM   17  C   UNL     1      -7.540  19.289  67.920  1.00  0.00    -0.312 A  
HETATM   18  C   UNL     1      -8.896  19.188  68.263  1.00  0.00    -0.377 A  
HETATM   19  C   UNL     1      -6.682  20.337  68.567  1.00  0.00    -0.305 C  
HETATM   20  C   UNL     1      -9.693  18.183  67.713  1.00  0.00    -0.294 A  
ENDBRANCH  11  14
ENDBRANCH   9  11
ENDBRANCH   7   9
ENDBRANCH   5   7
ENDBRANCH   4   5
ENDBRANCH   3   4
ENDBRANCH   2   3
TORSDOF 7
ENDMDL
MODEL       63
REMARK 921   NORMALIZED FREE ENERGY PREDICTED BY IDOCK:   -4.69 KCAL/MOL
REMARK 922        TOTAL FREE ENERGY PREDICTED BY IDOCK:   -7.24 KCAL/MOL
REMARK 923 INTER-LIGAND FREE ENERGY PREDICTED BY IDOCK:   -6.37 KCAL/MOL
REMARK 924 INTRA-LIGAND FREE ENERGY PREDICTED BY IDOCK:   -0.87 KCAL/MOL
REMARK 927      BINDING AFFINITY PREDICTED BY RF-SCORE:    0.00 PKD
ROOT
HETATM    1  C   UNL     1     -10.610   5.344  72.403  1.00  0.00    -0.276 C  
HETATM    2  C   UNL     1     -11.598   6.449  72.066  1.00  0.00    -0.368 C  
ENDROOT
BRANCH   2   3
HETATM    3  C   UNL     1     -11.864   6.531  70.560  1.00  0.00    -0.393 C  
BRANCH   3   4
HETATM    4  C   UNL     1     -10.651   7.042  69.782  1.00  0.00    -0.233 C  
BRANCH   4   5
HETATM    5  N   UNL     1     -10.772   8.438  69.406  1.00  0.00    -0.350 N  
HETATM    6  H   UNL     1     -11.450   8.709  68.694  1.00  0.00     0.000 HD 
BRANCH   5   7
HETATM    7  C   UNL     1      -9.991   9.396  69.990  1.00  0.00    -0.221 C  
HETATM    8  O   UNL     1      -8.820   9.214  70.285  1.00  0.00    -0.172 OA 
BRANCH   7   9
HETATM    9  N   UNL     1     -10.654  10.593  70.190  1.00  0.00    -0.458 N  
HETATM   10  H   UNL     1     -10.093  11.421  70.389  1.00  0.00     0.000 HD 
BRANCH   9  11
HETATM   11  S   UNL     1     -12.308  10.770  70.126  1.00  0.00    -0.288 S  
HETATM   12  O   UNL     1     -12.948   9.760  70.937  1.00  0.00    -0.308 OA 
HETATM   13  O   UNL     1     -12.621  10.891  68.715  1.00  0.00    -0.317 OA 
BRANCH  11  14
HETATM   14  C   UNL     1     -12.565  12.366  70.864  1.00  0.00    -0.246 A  
HETATM   15  C   UNL     1     -11.936  13.488  70.320  1.00  0.00    -0.386 A  
HETATM   16  C   UNL     1     -12.095  14.733  70.932  1.00  0.00    -0.387 A  
HETATM   17  C   UNL     1     -12.885  14.863  72.082  1.00  0.00    -0.402 A  
HETATM   18  C   UNL     1     -13.556  13.739  72.583  1.00  0.00    -0.617 A  
HETATM   19  C   UNL     1     -13.009  16.182  72.786  1.00  0.00    -0.416 C  
HETATM   20  C   UNL     1     -13.405  12.493  71.973  1.00  0.00    -0.528 A  
ENDBRANCH  11  14
ENDBRANCH   9  11
ENDBRANCH   7   9
ENDBRANCH   5   7
ENDBRANCH   4   5
ENDBRANCH   3   4
ENDBRANCH   2   3
TORSDOF 7
ENDMDL
MODEL       64
REMARK 921   NORMALIZED FREE ENERGY PREDICTED BY IDOCK:   -4.68 KCAL/MOL
REMARK 922        TOTAL FREE ENERGY PREDICTED BY IDOCK:   -7.22 KCAL/MOL
REMARK 923 INTER-LIGAND FREE ENERGY PREDICTED BY IDOCK:   -6.60 KCAL/MOL
REMARK 924 INTRA-LIGAND FREE ENERGY PREDICTED BY IDOCK:   -0.62 KCAL/MOL
REMARK 927      BINDING AFFINITY PREDICTED BY RF-SCORE:    0.00 PKD
ROOT
HETATM    1  C   UNL     1     -11.600   6.454  70.361  1.00  0.00    -0.440 C  
HETATM    2  C   UNL     1     -11.968   6.624  71.826  1.00  0.00    -0.391 C  
ENDROOT
BRANCH   2   3
HETATM    3  C   UNL     1     -12.085   8.101  72.212  1.00  0.00    -0.419 C  
BRANCH   3   4
HETATM    4  C   UNL     1     -13.393   8.727  71.724  1.00  0.00    -0.378 C  
BRANCH   4   5
HETATM    5  N   UNL     1     -13.186   9.742  70.710  1.00  0.00    -0.600 N  
HETATM    6  H   UNL     1     -13.422   9.537  69.738  1.00  0.00     0.000 HD 
BRANCH   5   7
HETATM    7  C   UNL     1     -12.681  10.970  71.034  1.00  0.00    -0.386 C  
HETATM    8  O   UNL     1     -13.280  11.776  71.728  1.00  0.00    -0.457 OA 
BRANCH   7   9
HETATM    9  N   UNL     1     -11.418  11.194  70.517  1.00  0.00    -0.448 N  
HETATM   10  H   UNL     1     -10.629  11.177  71.162  1.00  0.00     0.000 HD 
BRANCH   9  11
HETATM   11  S   UNL     1     -11.102  11.491  68.909  1.00  0.00    -0.253 S  
HETATM   12  O   UNL     1     -12.247  11.134  68.104  1.00  0.00    -0.612 OA 
HETATM   13  O   UNL     1      -9.808  10.884  68.661  1.00  0.00    -0.176 OA 
BRANCH  11  14
HETATM   14  C   UNL     1     -10.879  13.253  68.867  1.00  0.00    -0.210 A  
HETATM   15  C   UNL     1     -11.851  14.086  69.428  1.00  0.00    -0.381 A  
HETATM   16  C   UNL     1     -11.701  15.472  69.348  1.00  0.00    -0.382 A  
HETATM   17  C   UNL     1     -10.584  16.029  68.713  1.00  0.00    -0.262 A  
HETATM   18  C   UNL     1      -9.589  15.181  68.205  1.00  0.00    -0.211 A  
HETATM   19  C   UNL     1     -10.446  17.516  68.562  1.00  0.00    -0.361 C  
HETATM   20  C   UNL     1      -9.730  13.795  68.287  1.00  0.00    -0.231 A  
ENDBRANCH  11  14
ENDBRANCH   9  11
ENDBRANCH   7   9
ENDBRANCH   5   7
ENDBRANCH   4   5
ENDBRANCH   3   4
ENDBRANCH   2   3
TORSDOF 7
ENDMDL
MODEL       65
REMARK 921   NORMALIZED FREE ENERGY PREDICTED BY IDOCK:   -4.66 KCAL/MOL
REMARK 922        TOTAL FREE ENERGY PREDICTED BY IDOCK:   -7.20 KCAL/MOL
REMARK 923 INTER-LIGAND FREE ENERGY PREDICTED BY IDOCK:   -6.49 KCAL/MOL
REMARK 924 INTRA-LIGAND FREE ENERGY PREDICTED BY IDOCK:   -0.71 KCAL/MOL
REMARK 927      BINDING AFFINITY PREDICTED BY RF-SCORE:    0.00 PKD
ROOT
HETATM    1  C   UNL     1     -12.949   6.864  71.783  1.00  0.00    -0.326 C  
HETATM    2  C   UNL     1     -11.733   7.225  70.945  1.00  0.00    -0.348 C  
ENDROOT
BRANCH   2   3
HETATM    3  C   UNL     1     -10.759   8.119  71.717  1.00  0.00    -0.313 C  
BRANCH   3   4
HETATM    4  C   UNL     1     -10.618   9.505  71.086  1.00  0.00    -0.318 C  
BRANCH   4   5
HETATM    5  N   UNL     1     -10.418   9.453  69.651  1.00  0.00    -0.213 N  
HETATM    6  H   UNL     1     -10.968   8.802  69.091  1.00  0.00     0.000 HD 
BRANCH   5   7
HETATM    7  C   UNL     1      -9.503  10.262  69.037  1.00  0.00    -0.200 C  
HETATM    8  O   UNL     1      -8.490   9.838  68.502  1.00  0.00    -0.112 OA 
BRANCH   7   9
HETATM    9  N   UNL     1      -9.853  11.599  69.063  1.00  0.00    -0.416 N  
HETATM   10  H   UNL     1      -9.221  12.248  69.532  1.00  0.00     0.000 HD 
BRANCH   9  11
HETATM   11  S   UNL     1     -11.238  12.220  68.380  1.00  0.00    -0.291 S  
HETATM   12  O   UNL     1     -12.159  11.151  68.066  1.00  0.00    -0.635 OA 
HETATM   13  O   UNL     1     -10.776  13.124  67.344  1.00  0.00    -0.249 OA 
BRANCH  11  14
HETATM   14  C   UNL     1     -11.915  13.213  69.688  1.00  0.00    -0.306 A  
HETATM   15  C   UNL     1     -12.492  12.593  70.799  1.00  0.00    -0.357 A  
HETATM   16  C   UNL     1     -13.071  13.373  71.802  1.00  0.00    -0.479 A  
HETATM   17  C   UNL     1     -13.072  14.770  71.703  1.00  0.00    -0.418 A  
HETATM   18  C   UNL     1     -12.439  15.381  70.610  1.00  0.00    -0.478 A  
HETATM   19  C   UNL     1     -13.749  15.616  72.741  1.00  0.00    -0.662 C  
HETATM   20  C   UNL     1     -11.854  14.606  69.607  1.00  0.00    -0.367 A  
ENDBRANCH  11  14
ENDBRANCH   9  11
ENDBRANCH   7   9
ENDBRANCH   5   7
ENDBRANCH   4   5
ENDBRANCH   3   4
ENDBRANCH   2   3
TORSDOF 7
ENDMDL
MODEL       66
REMARK 921   NORMALIZED FREE ENERGY PREDICTED BY IDOCK:   -4.66 KCAL/MOL
REMARK 922        TOTAL FREE ENERGY PREDICTED BY IDOCK:   -7.19 KCAL/MOL
REMARK 923 INTER-LIGAND FREE ENERGY PREDICTED BY IDOCK:   -6.41 KCAL/MOL
REMARK 924 INTRA-LIGAND FREE ENERGY PREDICTED BY IDOCK:   -0.78 KCAL/MOL
REMARK 927      BINDING AFFINITY PREDICTED BY RF-SCORE:    0.00 PKD
ROOT
HETATM    1  C   UNL     1     -11.226  11.756  66.714  1.00  0.00    -0.388 C  
HETATM    2  C   UNL     1     -10.955  10.343  67.205  1.00  0.00    -0.263 C  
ENDROOT
BRANCH   2   3
HETATM    3  C   UNL     1      -9.963   9.610  66.298  1.00  0.00    -0.335 C  
BRANCH   3   4
HETATM    4  C   UNL     1      -9.896   8.112  66.599  1.00  0.00    -0.261 C  
BRANCH   4   5
HETATM    5  N   UNL     1     -11.025   7.645  67.381  1.00  0.00    -0.546 N  
HETATM    6  H   UNL     1     -11.830   8.256  67.515  1.00  0.00     0.000 HD 
BRANCH   5   7
HETATM    7  C   UNL     1     -11.027   6.397  67.940  1.00  0.00    -0.325 C  
HETATM    8  O   UNL     1     -10.592   5.409  67.369  1.00  0.00    -0.216 OA 
BRANCH   7   9
HETATM    9  N   UNL     1     -11.549   6.375  69.220  1.00  0.00    -0.607 N  
HETATM   10  H   UNL     1     -12.513   6.062  69.337  1.00  0.00     0.000 HD 
BRANCH   9  11
HETATM   11  S   UNL     1     -10.706   6.824  70.584  1.00  0.00    -0.247 S  
HETATM   12  O   UNL     1      -9.316   7.041  70.259  1.00  0.00    -0.159 OA 
HETATM   13  O   UNL     1     -11.085   5.857  71.597  1.00  0.00    -0.266 OA 
BRANCH  11  14
HETATM   14  C   UNL     1     -11.457   8.373  71.022  1.00  0.00    -0.268 A  
HETATM   15  C   UNL     1     -12.562   8.389  71.876  1.00  0.00    -0.389 A  
HETATM   16  C   UNL     1     -13.184   9.602  72.179  1.00  0.00    -0.535 A  
HETATM   17  C   UNL     1     -12.705  10.800  71.634  1.00  0.00    -0.520 A  
HETATM   18  C   UNL     1     -11.560  10.776  70.824  1.00  0.00    -0.322 A  
HETATM   19  C   UNL     1     -13.405  12.101  71.898  1.00  0.00    -0.421 C  
HETATM   20  C   UNL     1     -10.930   9.567  70.523  1.00  0.00    -0.348 A  
ENDBRANCH  11  14
ENDBRANCH   9  11
ENDBRANCH   7   9
ENDBRANCH   5   7
ENDBRANCH   4   5
ENDBRANCH   3   4
ENDBRANCH   2   3
TORSDOF 7
ENDMDL
MODEL       67
REMARK 921   NORMALIZED FREE ENERGY PREDICTED BY IDOCK:   -4.66 KCAL/MOL
REMARK 922        TOTAL FREE ENERGY PREDICTED BY IDOCK:   -7.19 KCAL/MOL
REMARK 923 INTER-LIGAND FREE ENERGY PREDICTED BY IDOCK:   -6.35 KCAL/MOL
REMARK 924 INTRA-LIGAND FREE ENERGY PREDICTED BY IDOCK:   -0.85 KCAL/MOL
REMARK 927      BINDING AFFINITY PREDICTED BY RF-SCORE:    0.00 PKD
ROOT
HETATM    1  C   UNL     1      -8.937   9.164  65.014  1.00  0.00    -0.221 C  
HETATM    2  C   UNL     1      -9.216  10.652  65.159  1.00  0.00    -0.241 C  
ENDROOT
BRANCH   2   3
HETATM    3  C   UNL     1      -9.677  11.272  63.837  1.00  0.00    -0.311 C  
BRANCH   3   4
HETATM    4  C   UNL     1     -11.145  11.699  63.876  1.00  0.00    -0.401 C  
BRANCH   4   5
HETATM    5  N   UNL     1     -11.330  13.028  64.425  1.00  0.00    -0.339 N  
HETATM    6  H   UNL     1     -10.754  13.798  64.082  1.00  0.00     0.000 HD 
BRANCH   5   7
HETATM    7  C   UNL     1     -12.264  13.268  65.394  1.00  0.00    -0.456 C  
HETATM    8  O   UNL     1     -13.231  13.994  65.223  1.00  0.00    -0.782 OA 
BRANCH   7   9
HETATM    9  N   UNL     1     -12.015  12.588  66.571  1.00  0.00    -0.365 N  
HETATM   10  H   UNL     1     -12.410  11.653  66.675  1.00  0.00     0.000 HD 
BRANCH   9  11
HETATM   11  S   UNL     1     -11.113  13.194  67.832  1.00  0.00    -0.276 S  
HETATM   12  O   UNL     1     -11.812  14.292  68.459  1.00  0.00    -0.329 OA 
HETATM   13  O   UNL     1      -9.781  13.382  67.288  1.00  0.00    -0.222 OA 
BRANCH  11  14
HETATM   14  C   UNL     1     -11.037  11.825  68.961  1.00  0.00    -0.246 A  
HETATM   15  C   UNL     1     -12.085  11.611  69.860  1.00  0.00    -0.373 A  
HETATM   16  C   UNL     1     -12.001  10.566  70.783  1.00  0.00    -0.472 A  
HETATM   17  C   UNL     1     -10.877   9.731  70.808  1.00  0.00    -0.403 A  
HETATM   18  C   UNL     1      -9.859   9.921  69.862  1.00  0.00    -0.285 A  
HETATM   19  C   UNL     1     -10.745   8.647  71.838  1.00  0.00    -0.414 C  
HETATM   20  C   UNL     1      -9.939  10.960  68.934  1.00  0.00    -0.208 A  
ENDBRANCH  11  14
ENDBRANCH   9  11
ENDBRANCH   7   9
ENDBRANCH   5   7
ENDBRANCH   4   5
ENDBRANCH   3   4
ENDBRANCH   2   3
TORSDOF 7
ENDMDL
MODEL       68
REMARK 921   NORMALIZED FREE ENERGY PREDICTED BY IDOCK:   -4.65 KCAL/MOL
REMARK 922        TOTAL FREE ENERGY PREDICTED BY IDOCK:   -7.18 KCAL/MOL
REMARK 923 INTER-LIGAND FREE ENERGY PREDICTED BY IDOCK:   -5.91 KCAL/MOL
REMARK 924 INTRA-LIGAND FREE ENERGY PREDICTED BY IDOCK:   -1.27 KCAL/MOL
REMARK 927      BINDING AFFINITY PREDICTED BY RF-SCORE:    0.00 PKD
ROOT
HETATM    1  C   UNL     1     -14.303   8.802  72.421  1.00  0.00    -0.419 C  
HETATM    2  C   UNL     1     -13.177   9.303  71.531  1.00  0.00    -0.433 C  
ENDROOT
BRANCH   2   3
HETATM    3  C   UNL     1     -13.048  10.827  71.586  1.00  0.00    -0.551 C  
BRANCH   3   4
HETATM    4  C   UNL     1     -12.147  11.375  70.479  1.00  0.00    -0.394 C  
BRANCH   4   5
HETATM    5  N   UNL     1     -12.262  10.631  69.240  1.00  0.00    -0.538 N  
HETATM    6  H   UNL     1     -12.974   9.905  69.154  1.00  0.00     0.000 HD 
BRANCH   5   7
HETATM    7  C   UNL     1     -11.432  10.887  68.184  1.00  0.00    -0.295 C  
HETATM    8  O   UNL     1     -11.796  11.470  67.175  1.00  0.00    -0.595 OA 
BRANCH   7   9
HETATM    9  N   UNL     1     -10.139  10.439  68.386  1.00  0.00    -0.158 N  
HETATM   10  H   UNL     1      -9.430  11.129  68.636  1.00  0.00     0.000 HD 
BRANCH   9  11
HETATM   11  S   UNL     1      -9.664   8.850  68.248  1.00  0.00    -0.162 S  
HETATM   12  O   UNL     1      -8.261   8.779  67.910  1.00  0.00    -0.110 OA 
HETATM   13  O   UNL     1     -10.660   8.231  67.395  1.00  0.00    -0.284 OA 
BRANCH  11  14
HETATM   14  C   UNL     1      -9.905   8.219  69.891  1.00  0.00    -0.186 A  
HETATM   15  C   UNL     1      -9.379   8.914  70.982  1.00  0.00    -0.313 A  
HETATM   16  C   UNL     1      -9.523   8.391  72.269  1.00  0.00    -0.367 A  
HETATM   17  C   UNL     1     -10.195   7.178  72.470  1.00  0.00    -0.223 A  
HETATM   18  C   UNL     1     -10.768   6.521  71.372  1.00  0.00    -0.280 A  
HETATM   19  C   UNL     1     -10.299   6.573  73.840  1.00  0.00    -0.356 C  
HETATM   20  C   UNL     1     -10.632   7.042  70.084  1.00  0.00    -0.249 A  
ENDBRANCH  11  14
ENDBRANCH   9  11
ENDBRANCH   7   9
ENDBRANCH   5   7
ENDBRANCH   4   5
ENDBRANCH   3   4
ENDBRANCH   2   3
TORSDOF 7
ENDMDL
MODEL       69
REMARK 921   NORMALIZED FREE ENERGY PREDICTED BY IDOCK:   -4.64 KCAL/MOL
REMARK 922        TOTAL FREE ENERGY PREDICTED BY IDOCK:   -7.16 KCAL/MOL
REMARK 923 INTER-LIGAND FREE ENERGY PREDICTED BY IDOCK:   -6.55 KCAL/MOL
REMARK 924 INTRA-LIGAND FREE ENERGY PREDICTED BY IDOCK:   -0.61 KCAL/MOL
REMARK 927      BINDING AFFINITY PREDICTED BY RF-SCORE:    0.00 PKD
ROOT
HETATM    1  C   UNL     1     -11.342   5.369  72.913  1.00  0.00    -0.365 C  
HETATM    2  C   UNL     1     -10.259   6.274  72.347  1.00  0.00    -0.208 C  
ENDROOT
BRANCH   2   3
HETATM    3  C   UNL     1     -10.660   7.749  72.418  1.00  0.00    -0.336 C  
BRANCH   3   4
HETATM    4  C   UNL     1     -11.823   8.081  71.481  1.00  0.00    -0.292 C  
BRANCH   4   5
HETATM    5  N   UNL     1     -11.384   8.463  70.153  1.00  0.00    -0.441 N  
HETATM    6  H   UNL     1     -11.879   8.101  69.337  1.00  0.00     0.000 HD 
BRANCH   5   7
HETATM    7  C   UNL     1     -10.318   9.300  69.975  1.00  0.00    -0.217 C  
HETATM    8  O   UNL     1      -9.223   8.914  69.596  1.00  0.00    -0.146 OA 
BRANCH   7   9
HETATM    9  N   UNL     1     -10.613  10.623  70.245  1.00  0.00    -0.429 N  
HETATM   10  H   UNL     1     -10.387  10.983  71.172  1.00  0.00     0.000 HD 
BRANCH   9  11
HETATM   11  S   UNL     1     -11.313  11.669  69.154  1.00  0.00    -0.307 S  
HETATM   12  O   UNL     1     -12.338  10.986  68.399  1.00  0.00    -0.528 OA 
HETATM   13  O   UNL     1     -10.201  12.309  68.478  1.00  0.00    -0.221 OA 
BRANCH  11  14
HETATM   14  C   UNL     1     -12.069  12.888  70.203  1.00  0.00    -0.302 A  
HETATM   15  C   UNL     1     -12.792  12.481  71.326  1.00  0.00    -0.337 A  
HETATM   16  C   UNL     1     -13.430  13.436  72.121  1.00  0.00    -0.646 A  
HETATM   17  C   UNL     1     -13.345  14.797  71.800  1.00  0.00    -0.444 A  
HETATM   18  C   UNL     1     -12.568  15.196  70.702  1.00  0.00    -0.450 A  
HETATM   19  C   UNL     1     -14.081  15.826  72.607  1.00  0.00    -0.482 C  
HETATM   20  C   UNL     1     -11.923  14.246  69.908  1.00  0.00    -0.397 A  
ENDBRANCH  11  14
ENDBRANCH   9  11
ENDBRANCH   7   9
ENDBRANCH   5   7
ENDBRANCH   4   5
ENDBRANCH   3   4
ENDBRANCH   2   3
TORSDOF 7
ENDMDL
MODEL       70
REMARK 921   NORMALIZED FREE ENERGY PREDICTED BY IDOCK:   -4.62 KCAL/MOL
REMARK 922        TOTAL FREE ENERGY PREDICTED BY IDOCK:   -7.13 KCAL/MOL
REMARK 923 INTER-LIGAND FREE ENERGY PREDICTED BY IDOCK:   -6.38 KCAL/MOL
REMARK 924 INTRA-LIGAND FREE ENERGY PREDICTED BY IDOCK:   -0.75 KCAL/MOL
REMARK 927      BINDING AFFINITY PREDICTED BY RF-SCORE:    0.00 PKD
ROOT
HETATM    1  C   UNL     1      -9.439  18.848  66.561  1.00  0.00    -0.361 C  
HETATM    2  C   UNL     1      -8.952  17.409  66.498  1.00  0.00    -0.285 C  
ENDROOT
BRANCH   2   3
HETATM    3  C   UNL     1     -10.105  16.414  66.647  1.00  0.00    -0.290 C  
BRANCH   3   4
HETATM    4  C   UNL     1     -10.866  16.599  67.961  1.00  0.00    -0.337 C  
BRANCH   4   5
HETATM    5  N   UNL     1     -11.834  15.547  68.202  1.00  0.00    -0.419 N  
HETATM    6  H   UNL     1     -12.333  15.133  67.414  1.00  0.00     0.000 HD 
BRANCH   5   7
HETATM    7  C   UNL     1     -12.091  15.101  69.469  1.00  0.00    -0.283 C  
HETATM    8  O   UNL     1     -12.190  15.847  70.431  1.00  0.00    -0.372 OA 
BRANCH   7   9
HETATM    9  N   UNL     1     -12.249  13.730  69.543  1.00  0.00    -0.325 N  
HETATM   10  H   UNL     1     -12.985  13.367  70.149  1.00  0.00     0.000 HD 
BRANCH   9  11
HETATM   11  S   UNL     1     -11.316  12.632  68.709  1.00  0.00    -0.310 S  
HETATM   12  O   UNL     1      -9.962  13.120  68.589  1.00  0.00    -0.204 OA 
HETATM   13  O   UNL     1     -12.089  12.301  67.527  1.00  0.00    -0.514 OA 
BRANCH  11  14
HETATM   14  C   UNL     1     -11.335  11.207  69.770  1.00  0.00    -0.278 A  
HETATM   15  C   UNL     1     -12.317  11.094  70.758  1.00  0.00    -0.504 A  
HETATM   16  C   UNL     1     -12.301  10.001  71.626  1.00  0.00    -0.486 A  
HETATM   17  C   UNL     1     -11.309   9.017  71.509  1.00  0.00    -0.416 A  
HETATM   18  C   UNL     1     -10.364   9.114  70.478  1.00  0.00    -0.288 A  
HETATM   19  C   UNL     1     -11.242   7.873  72.478  1.00  0.00    -0.436 C  
HETATM   20  C   UNL     1     -10.379  10.202  69.603  1.00  0.00    -0.278 A  
ENDBRANCH  11  14
ENDBRANCH   9  11
ENDBRANCH   7   9
ENDBRANCH   5   7
ENDBRANCH   4   5
ENDBRANCH   3   4
ENDBRANCH   2   3
TORSDOF 7
ENDMDL
MODEL       71
REMARK 921   NORMALIZED FREE ENERGY PREDICTED BY IDOCK:   -4.61 KCAL/MOL
REMARK 922        TOTAL FREE ENERGY PREDICTED BY IDOCK:   -7.12 KCAL/MOL
REMARK 923 INTER-LIGAND FREE ENERGY PREDICTED BY IDOCK:   -5.65 KCAL/MOL
REMARK 924 INTRA-LIGAND FREE ENERGY PREDICTED BY IDOCK:   -1.47 KCAL/MOL
REMARK 927      BINDING AFFINITY PREDICTED BY RF-SCORE:    0.00 PKD
ROOT
HETATM    1  C   UNL     1     -10.055  19.837  66.006  1.00  0.00    -0.574 C  
HETATM    2  C   UNL     1     -10.746  19.533  67.326  1.00  0.00    -0.604 C  
ENDROOT
BRANCH   2   3
HETATM    3  C   UNL     1     -10.554  18.073  67.741  1.00  0.00    -0.409 C  
BRANCH   3   4
HETATM    4  C   UNL     1     -10.569  17.121  66.544  1.00  0.00    -0.172 C  
BRANCH   4   5
HETATM    5  N   UNL     1     -10.723  15.732  66.932  1.00  0.00    -0.315 N  
HETATM    6  H   UNL     1     -11.483  15.466  67.557  1.00  0.00     0.000 HD 
BRANCH   5   7
HETATM    7  C   UNL     1      -9.864  14.772  66.472  1.00  0.00    -0.272 C  
HETATM    8  O   UNL     1     -10.226  13.651  66.153  1.00  0.00    -0.289 OA 
BRANCH   7   9
HETATM    9  N   UNL     1      -8.555  15.209  66.383  1.00  0.00    -0.446 N  
HETATM   10  H   UNL     1      -8.201  15.468  65.463  1.00  0.00     0.000 HD 
BRANCH   9  11
HETATM   11  S   UNL     1      -7.520  15.338  67.680  1.00  0.00    -0.193 S  
HETATM   12  O   UNL     1      -6.308  14.594  67.424  1.00  0.00    -0.323 OA 
HETATM   13  O   UNL     1      -8.333  15.045  68.844  1.00  0.00    -0.163 OA 
BRANCH  11  14
HETATM   14  C   UNL     1      -7.146  17.075  67.718  1.00  0.00    -0.148 A  
HETATM   15  C   UNL     1      -6.872  17.749  66.525  1.00  0.00    -0.266 A  
HETATM   16  C   UNL     1      -6.527  19.101  66.560  1.00  0.00    -0.203 A  
HETATM   17  C   UNL     1      -6.459  19.785  67.781  1.00  0.00    -0.257 A  
HETATM   18  C   UNL     1      -6.792  19.110  68.965  1.00  0.00    -0.363 A  
HETATM   19  C   UNL     1      -6.024  21.220  67.837  1.00  0.00    -0.391 C  
HETATM   20  C   UNL     1      -7.143  17.760  68.935  1.00  0.00    -0.262 A  
ENDBRANCH  11  14
ENDBRANCH   9  11
ENDBRANCH   7   9
ENDBRANCH   5   7
ENDBRANCH   4   5
ENDBRANCH   3   4
ENDBRANCH   2   3
TORSDOF 7
ENDMDL
MODEL       72
REMARK 921   NORMALIZED FREE ENERGY PREDICTED BY IDOCK:   -4.59 KCAL/MOL
REMARK 922        TOTAL FREE ENERGY PREDICTED BY IDOCK:   -7.10 KCAL/MOL
REMARK 923 INTER-LIGAND FREE ENERGY PREDICTED BY IDOCK:   -6.13 KCAL/MOL
REMARK 924 INTRA-LIGAND FREE ENERGY PREDICTED BY IDOCK:   -0.97 KCAL/MOL
REMARK 927      BINDING AFFINITY PREDICTED BY RF-SCORE:    0.00 PKD
ROOT
HETATM    1  C   UNL     1     -11.670   9.406  70.870  1.00  0.00    -0.378 C  
HETATM    2  C   UNL     1     -10.180   9.141  71.014  1.00  0.00    -0.372 C  
ENDROOT
BRANCH   2   3
HETATM    3  C   UNL     1      -9.386   9.723  69.842  1.00  0.00    -0.262 C  
BRANCH   3   4
HETATM    4  C   UNL     1     -10.203   9.766  68.550  1.00  0.00    -0.186 C  
BRANCH   4   5
HETATM    5  N   UNL     1      -9.715  10.755  67.608  1.00  0.00    -0.164 N  
HETATM    6  H   UNL     1      -8.774  11.134  67.721  1.00  0.00     0.000 HD 
BRANCH   5   7
HETATM    7  C   UNL     1     -10.494  11.187  66.572  1.00  0.00    -0.255 C  
HETATM    8  O   UNL     1     -10.317  10.841  65.414  1.00  0.00    -0.270 OA 
BRANCH   7   9
HETATM    9  N   UNL     1     -11.513  12.033  66.972  1.00  0.00    -0.339 N  
HETATM   10  H   UNL     1     -12.421  11.619  67.183  1.00  0.00     0.000 HD 
BRANCH   9  11
HETATM   11  S   UNL     1     -11.355  13.682  67.131  1.00  0.00    -0.334 S  
HETATM   12  O   UNL     1     -12.290  14.357  66.260  1.00  0.00    -0.409 OA 
HETATM   13  O   UNL     1      -9.931  13.937  67.023  1.00  0.00    -0.248 OA 
BRANCH  11  14
HETATM   14  C   UNL     1     -11.819  13.964  68.822  1.00  0.00    -0.361 A  
HETATM   15  C   UNL     1     -12.113  12.877  69.649  1.00  0.00    -0.290 A  
HETATM   16  C   UNL     1     -12.528  13.101  70.963  1.00  0.00    -0.406 A  
HETATM   17  C   UNL     1     -12.647  14.407  71.457  1.00  0.00    -0.424 A  
HETATM   18  C   UNL     1     -12.293  15.486  70.634  1.00  0.00    -0.462 A  
HETATM   19  C   UNL     1     -13.156  14.662  72.845  1.00  0.00    -0.609 C  
HETATM   20  C   UNL     1     -11.872  15.268  69.321  1.00  0.00    -0.353 A  
ENDBRANCH  11  14
ENDBRANCH   9  11
ENDBRANCH   7   9
ENDBRANCH   5   7
ENDBRANCH   4   5
ENDBRANCH   3   4
ENDBRANCH   2   3
TORSDOF 7
ENDMDL
MODEL       73
REMARK 921   NORMALIZED FREE ENERGY PREDICTED BY IDOCK:   -4.58 KCAL/MOL
REMARK 922        TOTAL FREE ENERGY PREDICTED BY IDOCK:   -7.08 KCAL/MOL
REMARK 923 INTER-LIGAND FREE ENERGY PREDICTED BY IDOCK:   -5.81 KCAL/MOL
REMARK 924 INTRA-LIGAND FREE ENERGY PREDICTED BY IDOCK:   -1.27 KCAL/MOL
REMARK 927      BINDING AFFINITY PREDICTED BY RF-SCORE:    0.00 PKD
ROOT
HETATM    1  C   UNL     1     -11.730   6.470  70.304  1.00  0.00    -0.430 C  
HETATM    2  C   UNL     1     -11.931   6.749  71.785  1.00  0.00    -0.382 C  
ENDROOT
BRANCH   2   3
HETATM    3  C   UNL     1     -11.939   8.251  72.081  1.00  0.00    -0.429 C  
BRANCH   3   4
HETATM    4  C   UNL     1     -13.212   8.936  71.581  1.00  0.00    -0.362 C  
BRANCH   4   5
HETATM    5  N   UNL     1     -12.958   9.885  70.514  1.00  0.00    -0.572 N  
HETATM    6  H   UNL     1     -13.195   9.636  69.554  1.00  0.00     0.000 HD 
BRANCH   5   7
HETATM    7  C   UNL     1     -12.405  11.108  70.775  1.00  0.00    -0.406 C  
HETATM    8  O   UNL     1     -12.960  11.960  71.451  1.00  0.00    -0.385 OA 
BRANCH   7   9
HETATM    9  N   UNL     1     -11.150  11.269  70.218  1.00  0.00    -0.438 N  
HETATM   10  H   UNL     1     -10.363  11.416  70.850  1.00  0.00     0.000 HD 
BRANCH   9  11
HETATM   11  S   UNL     1     -10.840  11.240  68.582  1.00  0.00    -0.221 S  
HETATM   12  O   UNL     1      -9.852  12.240  68.247  1.00  0.00    -0.210 OA 
HETATM   13  O   UNL     1     -12.145  11.251  67.950  1.00  0.00    -0.634 OA 
BRANCH  11  14
HETATM   14  C   UNL     1     -10.145   9.624  68.338  1.00  0.00    -0.176 A  
HETATM   15  C   UNL     1      -9.223   9.121  69.260  1.00  0.00    -0.146 A  
HETATM   16  C   UNL     1      -8.638   7.873  69.041  1.00  0.00    -0.135 A  
HETATM   17  C   UNL     1      -8.973   7.121  67.907  1.00  0.00    -0.122 A  
HETATM   18  C   UNL     1      -9.942   7.613  67.020  1.00  0.00    -0.310 A  
HETATM   19  C   UNL     1      -8.301   5.809  67.626  1.00  0.00    -0.104 C  
HETATM   20  C   UNL     1     -10.535   8.857  67.237  1.00  0.00    -0.348 A  
ENDBRANCH  11  14
ENDBRANCH   9  11
ENDBRANCH   7   9
ENDBRANCH   5   7
ENDBRANCH   4   5
ENDBRANCH   3   4
ENDBRANCH   2   3
TORSDOF 7
ENDMDL
MODEL       74
REMARK 921   NORMALIZED FREE ENERGY PREDICTED BY IDOCK:   -4.56 KCAL/MOL
REMARK 922        TOTAL FREE ENERGY PREDICTED BY IDOCK:   -7.05 KCAL/MOL
REMARK 923 INTER-LIGAND FREE ENERGY PREDICTED BY IDOCK:   -6.77 KCAL/MOL
REMARK 924 INTRA-LIGAND FREE ENERGY PREDICTED BY IDOCK:   -0.28 KCAL/MOL
REMARK 927      BINDING AFFINITY PREDICTED BY RF-SCORE:    0.00 PKD
ROOT
HETATM    1  C   UNL     1     -14.241  14.450  72.165  1.00  0.00    -0.626 C  
HETATM    2  C   UNL     1     -13.068  13.610  71.682  1.00  0.00    -0.455 C  
ENDROOT
BRANCH   2   3
HETATM    3  C   UNL     1     -13.285  12.122  71.964  1.00  0.00    -0.496 C  
BRANCH   3   4
HETATM    4  C   UNL     1     -12.581  11.228  70.942  1.00  0.00    -0.371 C  
BRANCH   4   5
HETATM    5  N   UNL     1     -11.508  11.908  70.244  1.00  0.00    -0.506 N  
HETATM    6  H   UNL     1     -10.789  12.395  70.780  1.00  0.00     0.000 HD 
BRANCH   5   7
HETATM    7  C   UNL     1     -11.444  11.909  68.879  1.00  0.00    -0.301 C  
HETATM    8  O   UNL     1     -12.158  11.210  68.177  1.00  0.00    -0.633 OA 
BRANCH   7   9
HETATM    9  N   UNL     1     -10.509  12.796  68.377  1.00  0.00    -0.239 N  
HETATM   10  H   UNL     1      -9.626  12.892  68.879  1.00  0.00     0.000 HD 
BRANCH   9  11
HETATM   11  S   UNL     1     -10.730  13.717  67.008  1.00  0.00    -0.279 S  
HETATM   12  O   UNL     1      -9.777  14.802  66.981  1.00  0.00    -0.228 OA 
HETATM   13  O   UNL     1     -12.154  13.985  66.958  1.00  0.00    -0.427 OA 
BRANCH  11  14
HETATM   14  C   UNL     1     -10.358  12.576  65.698  1.00  0.00    -0.271 A  
HETATM   15  C   UNL     1      -9.291  11.686  65.839  1.00  0.00    -0.232 A  
HETATM   16  C   UNL     1      -8.966  10.825  64.788  1.00  0.00    -0.194 A  
HETATM   17  C   UNL     1      -9.707  10.847  63.598  1.00  0.00    -0.374 A  
HETATM   18  C   UNL     1     -10.811  11.705  63.493  1.00  0.00    -0.497 A  
HETATM   19  C   UNL     1      -9.326   9.975  62.438  1.00  0.00    -0.286 C  
HETATM   20  C   UNL     1     -11.143  12.564  64.542  1.00  0.00    -0.357 A  
ENDBRANCH  11  14
ENDBRANCH   9  11
ENDBRANCH   7   9
ENDBRANCH   5   7
ENDBRANCH   4   5
ENDBRANCH   3   4
ENDBRANCH   2   3
TORSDOF 7
ENDMDL
MODEL       75
REMARK 921   NORMALIZED FREE ENERGY PREDICTED BY IDOCK:   -4.55 KCAL/MOL
REMARK 922        TOTAL FREE ENERGY PREDICTED BY IDOCK:   -7.03 KCAL/MOL
REMARK 923 INTER-LIGAND FREE ENERGY PREDICTED BY IDOCK:   -6.41 KCAL/MOL
REMARK 924 INTRA-LIGAND FREE ENERGY PREDICTED BY IDOCK:   -0.63 KCAL/MOL
REMARK 927      BINDING AFFINITY PREDICTED BY RF-SCORE:    0.00 PKD
ROOT
HETATM    1  C   UNL     1     -13.934  14.653  71.901  1.00  0.00    -0.573 C  
HETATM    2  C   UNL     1     -12.523  14.253  71.501  1.00  0.00    -0.435 C  
ENDROOT
BRANCH   2   3
HETATM    3  C   UNL     1     -11.756  15.426  70.885  1.00  0.00    -0.395 C  
BRANCH   3   4
HETATM    4  C   UNL     1     -12.094  15.629  69.407  1.00  0.00    -0.266 C  
BRANCH   4   5
HETATM    5  N   UNL     1     -10.924  15.584  68.551  1.00  0.00    -0.273 N  
HETATM    6  H   UNL     1      -9.995  15.668  68.966  1.00  0.00     0.000 HD 
BRANCH   5   7
HETATM    7  C   UNL     1     -11.045  15.432  67.198  1.00  0.00    -0.291 C  
HETATM    8  O   UNL     1     -10.371  16.056  66.394  1.00  0.00    -0.286 OA 
BRANCH   7   9
HETATM    9  N   UNL     1     -11.987  14.487  66.838  1.00  0.00    -0.410 N  
HETATM   10  H   UNL     1     -12.954  14.644  67.123  1.00  0.00     0.000 HD 
BRANCH   9  11
HETATM   11  S   UNL     1     -11.647  13.108  65.969  1.00  0.00    -0.372 S  
HETATM   12  O   UNL     1     -10.400  13.264  65.257  1.00  0.00    -0.298 OA 
HETATM   13  O   UNL     1     -12.871  12.800  65.255  1.00  0.00    -0.674 OA 
BRANCH  11  14
HETATM   14  C   UNL     1     -11.449  11.879  67.237  1.00  0.00    -0.317 A  
HETATM   15  C   UNL     1     -12.014  12.088  68.497  1.00  0.00    -0.273 A  
HETATM   16  C   UNL     1     -11.814  11.147  69.509  1.00  0.00    -0.423 A  
HETATM   17  C   UNL     1     -11.055   9.995  69.266  1.00  0.00    -0.248 A  
HETATM   18  C   UNL     1     -10.542   9.770  67.980  1.00  0.00    -0.291 A  
HETATM   19  C   UNL     1     -10.778   9.010  70.363  1.00  0.00    -0.267 C  
HETATM   20  C   UNL     1     -10.744  10.704  66.963  1.00  0.00    -0.317 A  
ENDBRANCH  11  14
ENDBRANCH   9  11
ENDBRANCH   7   9
ENDBRANCH   5   7
ENDBRANCH   4   5
ENDBRANCH   3   4
ENDBRANCH   2   3
TORSDOF 7
ENDMDL
MODEL       76
REMARK 921   NORMALIZED FREE ENERGY PREDICTED BY IDOCK:   -4.52 KCAL/MOL
REMARK 922        TOTAL FREE ENERGY PREDICTED BY IDOCK:   -7.00 KCAL/MOL
REMARK 923 INTER-LIGAND FREE ENERGY PREDICTED BY IDOCK:   -6.33 KCAL/MOL
REMARK 924 INTRA-LIGAND FREE ENERGY PREDICTED BY IDOCK:   -0.67 KCAL/MOL
REMARK 927      BINDING AFFINITY PREDICTED BY RF-SCORE:    0.00 PKD
ROOT
HETATM    1  C   UNL     1     -10.659   6.019  66.742  1.00  0.00    -0.359 C  
HETATM    2  C   UNL     1     -10.736   7.400  67.374  1.00  0.00    -0.348 C  
ENDROOT
BRANCH   2   3
HETATM    3  C   UNL     1      -9.959   8.438  66.560  1.00  0.00    -0.335 C  
BRANCH   3   4
HETATM    4  C   UNL     1     -10.332   9.872  66.939  1.00  0.00    -0.235 C  
BRANCH   4   5
HETATM    5  N   UNL     1     -10.180  10.803  65.837  1.00  0.00    -0.257 N  
HETATM    6  H   UNL     1     -10.589  10.579  64.930  1.00  0.00     0.000 HD 
BRANCH   5   7
HETATM    7  C   UNL     1      -9.496  11.976  65.994  1.00  0.00    -0.219 C  
HETATM    8  O   UNL     1      -8.465  12.066  66.642  1.00  0.00    -0.180 OA 
BRANCH   7   9
HETATM    9  N   UNL     1     -10.078  13.039  65.329  1.00  0.00    -0.415 N  
HETATM   10  H   UNL     1      -9.500  13.563  64.670  1.00  0.00     0.000 HD 
BRANCH   9  11
HETATM   11  S   UNL     1     -11.658  13.522  65.531  1.00  0.00    -0.332 S  
HETATM   12  O   UNL     1     -12.544  12.388  65.397  1.00  0.00    -0.637 OA 
HETATM   13  O   UNL     1     -11.811  14.683  64.676  1.00  0.00    -0.419 OA 
BRANCH  11  14
HETATM   14  C   UNL     1     -11.686  14.094  67.213  1.00  0.00    -0.392 A  
HETATM   15  C   UNL     1     -11.910  13.184  68.249  1.00  0.00    -0.384 A  
HETATM   16  C   UNL     1     -11.984  13.641  69.566  1.00  0.00    -0.397 A  
HETATM   17  C   UNL     1     -11.832  15.004  69.853  1.00  0.00    -0.362 A  
HETATM   18  C   UNL     1     -11.551  15.898  68.810  1.00  0.00    -0.389 A  
HETATM   19  C   UNL     1     -11.976  15.516  71.256  1.00  0.00    -0.443 C  
HETATM   20  C   UNL     1     -11.470  15.446  67.492  1.00  0.00    -0.228 A  
ENDBRANCH  11  14
ENDBRANCH   9  11
ENDBRANCH   7   9
ENDBRANCH   5   7
ENDBRANCH   4   5
ENDBRANCH   3   4
ENDBRANCH   2   3
TORSDOF 7
ENDMDL
MODEL       77
REMARK 921   NORMALIZED FREE ENERGY PREDICTED BY IDOCK:   -4.52 KCAL/MOL
REMARK 922        TOTAL FREE ENERGY PREDICTED BY IDOCK:   -7.00 KCAL/MOL
REMARK 923 INTER-LIGAND FREE ENERGY PREDICTED BY IDOCK:   -6.31 KCAL/MOL
REMARK 924 INTRA-LIGAND FREE ENERGY PREDICTED BY IDOCK:   -0.69 KCAL/MOL
REMARK 927      BINDING AFFINITY PREDICTED BY RF-SCORE:    0.00 PKD
ROOT
HETATM    1  C   UNL     1     -12.602  14.399  70.347  1.00  0.00    -0.405 C  
HETATM    2  C   UNL     1     -11.650  14.151  69.187  1.00  0.00    -0.349 C  
ENDROOT
BRANCH   2   3
HETATM    3  C   UNL     1     -11.549  15.370  68.268  1.00  0.00    -0.361 C  
BRANCH   3   4
HETATM    4  C   UNL     1     -11.340  14.980  66.804  1.00  0.00    -0.293 C  
BRANCH   4   5
HETATM    5  N   UNL     1     -12.509  14.354  66.217  1.00  0.00    -0.433 N  
HETATM    6  H   UNL     1     -13.299  14.107  66.813  1.00  0.00     0.000 HD 
BRANCH   5   7
HETATM    7  C   UNL     1     -12.569  14.089  64.877  1.00  0.00    -0.342 C  
HETATM    8  O   UNL     1     -12.812  14.942  64.038  1.00  0.00    -0.701 OA 
BRANCH   7   9
HETATM    9  N   UNL     1     -12.303  12.767  64.570  1.00  0.00    -0.493 N  
HETATM   10  H   UNL     1     -13.093  12.125  64.503  1.00  0.00     0.000 HD 
BRANCH   9  11
HETATM   11  S   UNL     1     -10.778  12.155  64.302  1.00  0.00    -0.373 S  
HETATM   12  O   UNL     1      -9.795  13.209  64.403  1.00  0.00    -0.157 OA 
HETATM   13  O   UNL     1     -10.895  11.368  63.089  1.00  0.00    -0.284 OA 
BRANCH  11  14
HETATM   14  C   UNL     1     -10.564  11.020  65.651  1.00  0.00    -0.197 A  
HETATM   15  C   UNL     1      -9.813   9.857  65.464  1.00  0.00    -0.381 A  
HETATM   16  C   UNL     1      -9.688   8.939  66.509  1.00  0.00    -0.322 A  
HETATM   17  C   UNL     1     -10.306   9.180  67.743  1.00  0.00    -0.302 A  
HETATM   18  C   UNL     1     -11.009  10.379  67.935  1.00  0.00    -0.354 A  
HETATM   19  C   UNL     1     -10.235   8.171  68.851  1.00  0.00    -0.221 C  
HETATM   20  C   UNL     1     -11.133  11.302  66.896  1.00  0.00    -0.339 A  
ENDBRANCH  11  14
ENDBRANCH   9  11
ENDBRANCH   7   9
ENDBRANCH   5   7
ENDBRANCH   4   5
ENDBRANCH   3   4
ENDBRANCH   2   3
TORSDOF 7
ENDMDL
MODEL       78
REMARK 921   NORMALIZED FREE ENERGY PREDICTED BY IDOCK:   -4.52 KCAL/MOL
REMARK 922        TOTAL FREE ENERGY PREDICTED BY IDOCK:   -6.99 KCAL/MOL
REMARK 923 INTER-LIGAND FREE ENERGY PREDICTED BY IDOCK:   -6.07 KCAL/MOL
REMARK 924 INTRA-LIGAND FREE ENERGY PREDICTED BY IDOCK:   -0.93 KCAL/MOL
REMARK 927      BINDING AFFINITY PREDICTED BY RF-SCORE:    0.00 PKD
ROOT
HETATM    1  C   UNL     1     -10.101   6.923  74.075  1.00  0.00    -0.383 C  
HETATM    2  C   UNL     1      -9.856   8.019  73.050  1.00  0.00    -0.352 C  
ENDROOT
BRANCH   2   3
HETATM    3  C   UNL     1     -11.155   8.453  72.365  1.00  0.00    -0.431 C  
BRANCH   3   4
HETATM    4  C   UNL     1     -11.309   7.844  70.971  1.00  0.00    -0.274 C  
BRANCH   4   5
HETATM    5  N   UNL     1     -11.303   8.840  69.918  1.00  0.00    -0.445 N  
HETATM    6  H   UNL     1     -12.156   9.014  69.386  1.00  0.00     0.000 HD 
BRANCH   5   7
HETATM    7  C   UNL     1     -10.172   9.550  69.625  1.00  0.00    -0.218 C  
HETATM    8  O   UNL     1      -9.107   9.022  69.343  1.00  0.00    -0.141 OA 
BRANCH   7   9
HETATM    9  N   UNL     1     -10.363  10.919  69.659  1.00  0.00    -0.444 N  
HETATM   10  H   UNL     1      -9.541  11.512  69.770  1.00  0.00     0.000 HD 
BRANCH   9  11
HETATM   11  S   UNL     1     -11.847  11.662  69.531  1.00  0.00    -0.350 S  
HETATM   12  O   UNL     1     -12.585  11.512  70.764  1.00  0.00    -0.338 OA 
HETATM   13  O   UNL     1     -12.401  11.187  68.278  1.00  0.00    -0.532 OA 
BRANCH  11  14
HETATM   14  C   UNL     1     -11.417  13.371  69.308  1.00  0.00    -0.290 A  
HETATM   15  C   UNL     1     -12.137  14.359  69.985  1.00  0.00    -0.401 A  
HETATM   16  C   UNL     1     -11.833  15.705  69.770  1.00  0.00    -0.376 A  
HETATM   17  C   UNL     1     -10.810  16.068  68.884  1.00  0.00    -0.286 A  
HETATM   18  C   UNL     1     -10.059  15.065  68.255  1.00  0.00    -0.222 A  
HETATM   19  C   UNL     1     -10.520  17.511  68.593  1.00  0.00    -0.338 C  
HETATM   20  C   UNL     1     -10.354  13.718  68.471  1.00  0.00    -0.244 A  
ENDBRANCH  11  14
ENDBRANCH   9  11
ENDBRANCH   7   9
ENDBRANCH   5   7
ENDBRANCH   4   5
ENDBRANCH   3   4
ENDBRANCH   2   3
TORSDOF 7
ENDMDL
MODEL       79
REMARK 921   NORMALIZED FREE ENERGY PREDICTED BY IDOCK:   -4.51 KCAL/MOL
REMARK 922        TOTAL FREE ENERGY PREDICTED BY IDOCK:   -6.98 KCAL/MOL
REMARK 923 INTER-LIGAND FREE ENERGY PREDICTED BY IDOCK:   -6.44 KCAL/MOL
REMARK 924 INTRA-LIGAND FREE ENERGY PREDICTED BY IDOCK:   -0.54 KCAL/MOL
REMARK 927      BINDING AFFINITY PREDICTED BY RF-SCORE:    0.00 PKD
ROOT
HETATM    1  C   UNL     1     -12.155  13.288  63.681  1.00  0.00    -0.551 C  
HETATM    2  C   UNL     1     -11.695  12.097  64.506  1.00  0.00    -0.410 C  
ENDROOT
BRANCH   2   3
HETATM    3  C   UNL     1     -10.170  11.964  64.506  1.00  0.00    -0.320 C  
BRANCH   3   4
HETATM    4  C   UNL     1      -9.577  12.070  65.911  1.00  0.00    -0.223 C  
BRANCH   4   5
HETATM    5  N   UNL     1      -9.993  13.271  66.608  1.00  0.00    -0.265 N  
HETATM    6  H   UNL     1     -10.930  13.645  66.451  1.00  0.00     0.000 HD 
BRANCH   5   7
HETATM    7  C   UNL     1      -9.151  13.913  67.474  1.00  0.00    -0.201 C  
HETATM    8  O   UNL     1      -8.026  14.275  67.165  1.00  0.00    -0.185 OA 
BRANCH   7   9
HETATM    9  N   UNL     1      -9.710  14.129  68.720  1.00  0.00    -0.349 N  
HETATM   10  H   UNL     1      -9.108  14.025  69.537  1.00  0.00     0.000 HD 
BRANCH   9  11
HETATM   11  S   UNL     1     -11.301  14.546  68.974  1.00  0.00    -0.289 S  
HETATM   12  O   UNL     1     -11.990  14.671  67.710  1.00  0.00    -0.348 OA 
HETATM   13  O   UNL     1     -11.256  15.659  69.903  1.00  0.00    -0.274 OA 
BRANCH  11  14
HETATM   14  C   UNL     1     -11.943  13.144  69.857  1.00  0.00    -0.317 A  
HETATM   15  C   UNL     1     -12.600  13.336  71.075  1.00  0.00    -0.408 A  
HETATM   16  C   UNL     1     -13.058  12.230  71.794  1.00  0.00    -0.449 A  
HETATM   17  C   UNL     1     -12.867  10.933  71.299  1.00  0.00    -0.536 A  
HETATM   18  C   UNL     1     -12.258  10.759  70.048  1.00  0.00    -0.409 A  
HETATM   19  C   UNL     1     -13.295   9.735  72.094  1.00  0.00    -0.527 C  
HETATM   20  C   UNL     1     -11.803  11.861  69.322  1.00  0.00    -0.379 A  
ENDBRANCH  11  14
ENDBRANCH   9  11
ENDBRANCH   7   9
ENDBRANCH   5   7
ENDBRANCH   4   5
ENDBRANCH   3   4
ENDBRANCH   2   3
TORSDOF 7
ENDMDL
MODEL       80
REMARK 921   NORMALIZED FREE ENERGY PREDICTED BY IDOCK:   -4.51 KCAL/MOL
REMARK 922        TOTAL FREE ENERGY PREDICTED BY IDOCK:   -6.98 KCAL/MOL
REMARK 923 INTER-LIGAND FREE ENERGY PREDICTED BY IDOCK:   -6.22 KCAL/MOL
REMARK 924 INTRA-LIGAND FREE ENERGY PREDICTED BY IDOCK:   -0.76 KCAL/MOL
REMARK 927      BINDING AFFINITY PREDICTED BY RF-SCORE:    0.00 PKD
ROOT
HETATM    1  C   UNL     1     -10.531   5.260  70.084  1.00  0.00    -0.338 C  
HETATM    2  C   UNL     1     -11.559   6.378  70.158  1.00  0.00    -0.449 C  
ENDROOT
BRANCH   2   3
HETATM    3  C   UNL     1     -10.948   7.732  69.789  1.00  0.00    -0.162 C  
BRANCH   3   4
HETATM    4  C   UNL     1     -11.346   8.836  70.770  1.00  0.00    -0.272 C  
BRANCH   4   5
HETATM    5  N   UNL     1     -12.185   9.852  70.164  1.00  0.00    -0.485 N  
HETATM    6  H   UNL     1     -12.642   9.660  69.272  1.00  0.00     0.000 HD 
BRANCH   5   7
HETATM    7  C   UNL     1     -12.374  11.063  70.769  1.00  0.00    -0.398 C  
HETATM    8  O   UNL     1     -13.113  11.222  71.728  1.00  0.00    -0.472 OA 
BRANCH   7   9
HETATM    9  N   UNL     1     -11.627  12.079  70.200  1.00  0.00    -0.531 N  
HETATM   10  H   UNL     1     -11.399  12.885  70.782  1.00  0.00     0.000 HD 
BRANCH   9  11
HETATM   11  S   UNL     1     -11.077  12.072  68.629  1.00  0.00    -0.270 S  
HETATM   12  O   UNL     1     -12.093  11.543  67.750  1.00  0.00    -0.626 OA 
HETATM   13  O   UNL     1      -9.764  11.461  68.691  1.00  0.00    -0.192 OA 
BRANCH  11  14
HETATM   14  C   UNL     1     -10.843  13.799  68.283  1.00  0.00    -0.250 A  
HETATM   15  C   UNL     1     -10.573  14.683  69.331  1.00  0.00    -0.209 A  
HETATM   16  C   UNL     1     -10.441  16.048  69.066  1.00  0.00    -0.246 A  
HETATM   17  C   UNL     1     -10.572  16.533  67.758  1.00  0.00    -0.332 A  
HETATM   18  C   UNL     1     -10.786  15.627  66.709  1.00  0.00    -0.277 A  
HETATM   19  C   UNL     1     -10.499  18.004  67.471  1.00  0.00    -0.408 C  
HETATM   20  C   UNL     1     -10.914  14.261  66.967  1.00  0.00    -0.305 A  
ENDBRANCH  11  14
ENDBRANCH   9  11
ENDBRANCH   7   9
ENDBRANCH   5   7
ENDBRANCH   4   5
ENDBRANCH   3   4
ENDBRANCH   2   3
TORSDOF 7
ENDMDL
MODEL       81
REMARK 921   NORMALIZED FREE ENERGY PREDICTED BY IDOCK:   -4.50 KCAL/MOL
REMARK 922        TOTAL FREE ENERGY PREDICTED BY IDOCK:   -6.96 KCAL/MOL
REMARK 923 INTER-LIGAND FREE ENERGY PREDICTED BY IDOCK:   -6.37 KCAL/MOL
REMARK 924 INTRA-LIGAND FREE ENERGY PREDICTED BY IDOCK:   -0.59 KCAL/MOL
REMARK 927      BINDING AFFINITY PREDICTED BY RF-SCORE:    0.00 PKD
ROOT
HETATM    1  C   UNL     1      -9.768  10.830  63.200  1.00  0.00    -0.394 C  
HETATM    2  C   UNL     1     -11.031  11.567  63.617  1.00  0.00    -0.482 C  
ENDROOT
BRANCH   2   3
HETATM    3  C   UNL     1     -10.739  13.022  63.993  1.00  0.00    -0.387 C  
BRANCH   3   4
HETATM    4  C   UNL     1     -10.132  13.151  65.391  1.00  0.00    -0.248 C  
BRANCH   4   5
HETATM    5  N   UNL     1     -10.628  12.148  66.313  1.00  0.00    -0.243 N  
HETATM    6  H   UNL     1     -10.254  11.200  66.273  1.00  0.00     0.000 HD 
BRANCH   5   7
HETATM    7  C   UNL     1     -11.588  12.453  67.238  1.00  0.00    -0.365 C  
HETATM    8  O   UNL     1     -12.276  11.607  67.788  1.00  0.00    -0.560 OA 
BRANCH   7   9
HETATM    9  N   UNL     1     -11.681  13.807  67.501  1.00  0.00    -0.353 N  
HETATM   10  H   UNL     1     -12.346  14.354  66.954  1.00  0.00     0.000 HD 
BRANCH   9  11
HETATM   11  S   UNL     1     -10.780  14.603  68.652  1.00  0.00    -0.258 S  
HETATM   12  O   UNL     1      -9.492  13.965  68.803  1.00  0.00    -0.158 OA 
HETATM   13  O   UNL     1     -11.667  14.752  69.790  1.00  0.00    -0.275 OA 
BRANCH  11  14
HETATM   14  C   UNL     1     -10.557  16.214  67.938  1.00  0.00    -0.309 A  
HETATM   15  C   UNL     1     -10.410  17.326  68.771  1.00  0.00    -0.358 A  
HETATM   16  C   UNL     1     -10.287  18.598  68.210  1.00  0.00    -0.388 A  
HETATM   17  C   UNL     1     -10.308  18.765  66.819  1.00  0.00    -0.464 A  
HETATM   18  C   UNL     1     -10.399  17.635  65.994  1.00  0.00    -0.305 A  
HETATM   19  C   UNL     1     -10.244  20.134  66.207  1.00  0.00    -0.541 C  
HETATM   20  C   UNL     1     -10.516  16.360  66.549  1.00  0.00    -0.282 A  
ENDBRANCH  11  14
ENDBRANCH   9  11
ENDBRANCH   7   9
ENDBRANCH   5   7
ENDBRANCH   4   5
ENDBRANCH   3   4
ENDBRANCH   2   3
TORSDOF 7
ENDMDL
MODEL       82
REMARK 921   NORMALIZED FREE ENERGY PREDICTED BY IDOCK:   -4.48 KCAL/MOL
REMARK 922        TOTAL FREE ENERGY PREDICTED BY IDOCK:   -6.94 KCAL/MOL
REMARK 923 INTER-LIGAND FREE ENERGY PREDICTED BY IDOCK:   -6.21 KCAL/MOL
REMARK 924 INTRA-LIGAND FREE ENERGY PREDICTED BY IDOCK:   -0.73 KCAL/MOL
REMARK 927      BINDING AFFINITY PREDICTED BY RF-SCORE:    0.00 PKD
ROOT
HETATM    1  C   UNL     1      -9.986   7.343  73.466  1.00  0.00    -0.377 C  
HETATM    2  C   UNL     1      -9.907   8.410  72.386  1.00  0.00    -0.378 C  
ENDROOT
BRANCH   2   3
HETATM    3  C   UNL     1     -11.275   8.676  71.753  1.00  0.00    -0.396 C  
BRANCH   3   4
HETATM    4  C   UNL     1     -12.136   7.415  71.678  1.00  0.00    -0.317 C  
BRANCH   4   5
HETATM    5  N   UNL     1     -12.382   6.982  70.315  1.00  0.00    -0.610 N  
HETATM    6  H   UNL     1     -13.318   7.075  69.920  1.00  0.00     0.000 HD 
BRANCH   5   7
HETATM    7  C   UNL     1     -11.380   6.452  69.552  1.00  0.00    -0.393 C  
HETATM    8  O   UNL     1     -10.702   5.501  69.908  1.00  0.00    -0.319 OA 
BRANCH   7   9
HETATM    9  N   UNL     1     -11.230   7.085  68.332  1.00  0.00    -0.498 N  
HETATM   10  H   UNL     1     -12.023   7.079  67.691  1.00  0.00     0.000 HD 
BRANCH   9  11
HETATM   11  S   UNL     1      -9.839   7.858  67.841  1.00  0.00    -0.174 S  
HETATM   12  O   UNL     1      -9.304   7.215  66.663  1.00  0.00    -0.155 OA 
HETATM   13  O   UNL     1      -9.035   7.988  69.041  1.00  0.00    -0.144 OA 
BRANCH  11  14
HETATM   14  C   UNL     1     -10.418   9.482  67.411  1.00  0.00    -0.272 A  
HETATM   15  C   UNL     1     -11.129  10.233  68.351  1.00  0.00    -0.302 A  
HETATM   16  C   UNL     1     -11.629  11.488  67.996  1.00  0.00    -0.370 A  
HETATM   17  C   UNL     1     -11.419  11.997  66.708  1.00  0.00    -0.410 A  
HETATM   18  C   UNL     1     -10.655  11.257  65.794  1.00  0.00    -0.306 A  
HETATM   19  C   UNL     1     -12.008  13.313  66.294  1.00  0.00    -0.471 C  
HETATM   20  C   UNL     1     -10.148  10.005  66.144  1.00  0.00    -0.317 A  
ENDBRANCH  11  14
ENDBRANCH   9  11
ENDBRANCH   7   9
ENDBRANCH   5   7
ENDBRANCH   4   5
ENDBRANCH   3   4
ENDBRANCH   2   3
TORSDOF 7
ENDMDL
MODEL       83
REMARK 921   NORMALIZED FREE ENERGY PREDICTED BY IDOCK:   -4.48 KCAL/MOL
REMARK 922        TOTAL FREE ENERGY PREDICTED BY IDOCK:   -6.94 KCAL/MOL
REMARK 923 INTER-LIGAND FREE ENERGY PREDICTED BY IDOCK:   -6.22 KCAL/MOL
REMARK 924 INTRA-LIGAND FREE ENERGY PREDICTED BY IDOCK:   -0.71 KCAL/MOL
REMARK 927      BINDING AFFINITY PREDICTED BY RF-SCORE:    0.00 PKD
ROOT
HETATM    1  C   UNL     1     -11.828  11.950  63.571  1.00  0.00    -0.560 C  
HETATM    2  C   UNL     1     -10.473  11.304  63.812  1.00  0.00    -0.459 C  
ENDROOT
BRANCH   2   3
HETATM    3  C   UNL     1     -10.384  10.680  65.207  1.00  0.00    -0.321 C  
BRANCH   3   4
HETATM    4  C   UNL     1     -10.057  11.713  66.286  1.00  0.00    -0.221 C  
BRANCH   4   5
HETATM    5  N   UNL     1      -9.046  12.664  65.868  1.00  0.00    -0.427 N  
HETATM    6  H   UNL     1      -8.593  12.549  64.961  1.00  0.00     0.000 HD 
BRANCH   5   7
HETATM    7  C   UNL     1      -8.689  13.712  66.669  1.00  0.00     0.004 C  
HETATM    8  O   UNL     1      -8.199  13.568  67.778  1.00  0.00    -0.147 OA 
BRANCH   7   9
HETATM    9  N   UNL     1      -8.917  14.946  66.087  1.00  0.00    -0.489 N  
HETATM   10  H   UNL     1      -8.126  15.421  65.652  1.00  0.00     0.000 HD 
BRANCH   9  11
HETATM   11  S   UNL     1     -10.398  15.706  66.049  1.00  0.00    -0.357 S  
HETATM   12  O   UNL     1     -11.280  15.028  65.127  1.00  0.00    -0.356 OA 
HETATM   13  O   UNL     1     -10.095  17.114  65.880  1.00  0.00    -0.472 OA 
BRANCH  11  14
HETATM   14  C   UNL     1     -10.999  15.486  67.706  1.00  0.00    -0.317 A  
HETATM   15  C   UNL     1     -10.671  16.422  68.690  1.00  0.00    -0.317 A  
HETATM   16  C   UNL     1     -11.100  16.222  70.004  1.00  0.00    -0.351 A  
HETATM   17  C   UNL     1     -11.859  15.093  70.338  1.00  0.00    -0.349 A  
HETATM   18  C   UNL     1     -12.229  14.192  69.329  1.00  0.00    -0.308 A  
HETATM   19  C   UNL     1     -12.268  14.833  71.758  1.00  0.00    -0.416 C  
HETATM   20  C   UNL     1     -11.808  14.390  68.013  1.00  0.00    -0.361 A  
ENDBRANCH  11  14
ENDBRANCH   9  11
ENDBRANCH   7   9
ENDBRANCH   5   7
ENDBRANCH   4   5
ENDBRANCH   3   4
ENDBRANCH   2   3
TORSDOF 7
ENDMDL
MODEL       84
REMARK 921   NORMALIZED FREE ENERGY PREDICTED BY IDOCK:   -4.47 KCAL/MOL
REMARK 922        TOTAL FREE ENERGY PREDICTED BY IDOCK:   -6.93 KCAL/MOL
REMARK 923 INTER-LIGAND FREE ENERGY PREDICTED BY IDOCK:   -6.42 KCAL/MOL
REMARK 924 INTRA-LIGAND FREE ENERGY PREDICTED BY IDOCK:   -0.51 KCAL/MOL
REMARK 927      BINDING AFFINITY PREDICTED BY RF-SCORE:    0.00 PKD
ROOT
HETATM    1  C   UNL     1      -5.412  19.602  67.728  1.00  0.00    -0.196 C  
HETATM    2  C   UNL     1      -6.769  19.523  67.046  1.00  0.00    -0.209 C  
ENDROOT
BRANCH   2   3
HETATM    3  C   UNL     1      -7.911  19.813  68.023  1.00  0.00    -0.342 C  
BRANCH   3   4
HETATM    4  C   UNL     1      -9.181  20.278  67.311  1.00  0.00    -0.395 C  
BRANCH   4   5
HETATM    5  N   UNL     1     -10.320  19.421  67.575  1.00  0.00    -0.413 N  
HETATM    6  H   UNL     1     -11.050  19.737  68.215  1.00  0.00     0.000 HD 
BRANCH   5   7
HETATM    7  C   UNL     1     -10.433  18.195  66.981  1.00  0.00    -0.370 C  
HETATM    8  O   UNL     1     -10.169  17.996  65.806  1.00  0.00    -0.574 OA 
BRANCH   7   9
HETATM    9  N   UNL     1     -10.851  17.204  67.850  1.00  0.00    -0.344 N  
HETATM   10  H   UNL     1     -11.826  17.215  68.152  1.00  0.00     0.000 HD 
BRANCH   9  11
HETATM   11  S   UNL     1      -9.869  15.995  68.437  1.00  0.00    -0.217 S  
HETATM   12  O   UNL     1      -8.741  16.566  69.136  1.00  0.00    -0.232 OA 
HETATM   13  O   UNL     1      -9.665  15.097  67.316  1.00  0.00    -0.208 OA 
BRANCH  11  14
HETATM   14  C   UNL     1     -10.920  15.159  69.600  1.00  0.00    -0.281 A  
HETATM   15  C   UNL     1     -11.482  13.925  69.263  1.00  0.00    -0.348 A  
HETATM   16  C   UNL     1     -12.349  13.294  70.156  1.00  0.00    -0.306 A  
HETATM   17  C   UNL     1     -12.654  13.887  71.388  1.00  0.00    -0.444 A  
HETATM   18  C   UNL     1     -12.039  15.098  71.738  1.00  0.00    -0.437 A  
HETATM   19  C   UNL     1     -13.637  13.251  72.327  1.00  0.00    -0.703 C  
HETATM   20  C   UNL     1     -11.166  15.731  70.851  1.00  0.00    -0.404 A  
ENDBRANCH  11  14
ENDBRANCH   9  11
ENDBRANCH   7   9
ENDBRANCH   5   7
ENDBRANCH   4   5
ENDBRANCH   3   4
ENDBRANCH   2   3
TORSDOF 7
ENDMDL
MODEL       85
REMARK 921   NORMALIZED FREE ENERGY PREDICTED BY IDOCK:   -4.46 KCAL/MOL
REMARK 922        TOTAL FREE ENERGY PREDICTED BY IDOCK:   -6.90 KCAL/MOL
REMARK 923 INTER-LIGAND FREE ENERGY PREDICTED BY IDOCK:   -6.37 KCAL/MOL
REMARK 924 INTRA-LIGAND FREE ENERGY PREDICTED BY IDOCK:   -0.53 KCAL/MOL
REMARK 927      BINDING AFFINITY PREDICTED BY RF-SCORE:    0.00 PKD
ROOT
HETATM    1  C   UNL     1      -7.819  13.449  67.695  1.00  0.00    -0.174 C  
HETATM    2  C   UNL     1      -7.493  14.922  67.884  1.00  0.00    -0.153 C  
ENDROOT
BRANCH   2   3
HETATM    3  C   UNL     1      -8.690  15.813  67.545  1.00  0.00    -0.187 C  
BRANCH   3   4
HETATM    4  C   UNL     1      -8.852  16.022  66.039  1.00  0.00    -0.279 C  
BRANCH   4   5
HETATM    5  N   UNL     1     -10.181  16.473  65.673  1.00  0.00    -0.325 N  
HETATM    6  H   UNL     1     -10.549  17.333  66.080  1.00  0.00     0.000 HD 
BRANCH   5   7
HETATM    7  C   UNL     1     -10.948  15.765  64.790  1.00  0.00    -0.393 C  
HETATM    8  O   UNL     1     -11.538  16.282  63.855  1.00  0.00    -0.987 OA 
BRANCH   7   9
HETATM    9  N   UNL     1     -10.966  14.407  65.051  1.00  0.00    -0.366 N  
HETATM   10  H   UNL     1     -10.137  13.864  64.810  1.00  0.00     0.000 HD 
BRANCH   9  11
HETATM   11  S   UNL     1     -12.253  13.600  65.734  1.00  0.00    -0.482 S  
HETATM   12  O   UNL     1     -12.128  12.180  65.501  1.00  0.00    -0.517 OA 
HETATM   13  O   UNL     1     -13.430  14.320  65.288  1.00  0.00    -0.564 OA 
BRANCH  11  14
HETATM   14  C   UNL     1     -12.054  13.931  67.468  1.00  0.00    -0.331 A  
HETATM   15  C   UNL     1     -11.829  12.873  68.352  1.00  0.00    -0.357 A  
HETATM   16  C   UNL     1     -11.725  13.127  69.721  1.00  0.00    -0.350 A  
HETATM   17  C   UNL     1     -11.840  14.434  70.211  1.00  0.00    -0.382 A  
HETATM   18  C   UNL     1     -12.008  15.493  69.306  1.00  0.00    -0.338 A  
HETATM   19  C   UNL     1     -11.797  14.712  71.685  1.00  0.00    -0.324 C  
HETATM   20  C   UNL     1     -12.107  15.246  67.936  1.00  0.00     0.137 A  
ENDBRANCH  11  14
ENDBRANCH   9  11
ENDBRANCH   7   9
ENDBRANCH   5   7
ENDBRANCH   4   5
ENDBRANCH   3   4
ENDBRANCH   2   3
TORSDOF 7
ENDMDL
MODEL       86
REMARK 921   NORMALIZED FREE ENERGY PREDICTED BY IDOCK:   -4.42 KCAL/MOL
REMARK 922        TOTAL FREE ENERGY PREDICTED BY IDOCK:   -6.85 KCAL/MOL
REMARK 923 INTER-LIGAND FREE ENERGY PREDICTED BY IDOCK:   -6.11 KCAL/MOL
REMARK 924 INTRA-LIGAND FREE ENERGY PREDICTED BY IDOCK:   -0.74 KCAL/MOL
REMARK 927      BINDING AFFINITY PREDICTED BY RF-SCORE:    0.00 PKD
ROOT
HETATM    1  C   UNL     1      -9.288   9.703  69.667  1.00  0.00    -0.226 C  
HETATM    2  C   UNL     1     -10.495   9.641  70.591  1.00  0.00    -0.379 C  
ENDROOT
BRANCH   2   3
HETATM    3  C   UNL     1     -11.710  10.343  69.981  1.00  0.00    -0.366 C  
BRANCH   3   4
HETATM    4  C   UNL     1     -12.119  11.588  70.770  1.00  0.00    -0.309 C  
BRANCH   4   5
HETATM    5  N   UNL     1     -11.928  12.815  70.022  1.00  0.00    -0.409 N  
HETATM    6  H   UNL     1     -11.641  12.769  69.044  1.00  0.00     0.000 HD 
BRANCH   5   7
HETATM    7  C   UNL     1     -12.127  14.035  70.607  1.00  0.00    -0.354 C  
HETATM    8  O   UNL     1     -12.600  14.171  71.724  1.00  0.00    -0.332 OA 
BRANCH   7   9
HETATM    9  N   UNL     1     -11.716  15.092  69.816  1.00  0.00    -0.297 N  
HETATM   10  H   UNL     1     -11.864  16.038  70.169  1.00  0.00     0.000 HD 
BRANCH   9  11
HETATM   11  S   UNL     1     -10.997  14.923  68.324  1.00  0.00    -0.276 S  
HETATM   12  O   UNL     1     -11.949  14.401  67.370  1.00  0.00    -0.398 OA 
HETATM   13  O   UNL     1      -9.752  14.226  68.581  1.00  0.00    -0.225 OA 
BRANCH  11  14
HETATM   14  C   UNL     1     -10.588  16.597  67.888  1.00  0.00    -0.342 A  
HETATM   15  C   UNL     1     -10.446  16.946  66.543  1.00  0.00    -0.253 A  
HETATM   16  C   UNL     1     -10.073  18.248  66.204  1.00  0.00    -0.354 A  
HETATM   17  C   UNL     1      -9.846  19.204  67.202  1.00  0.00    -0.411 A  
HETATM   18  C   UNL     1     -10.048  18.855  68.545  1.00  0.00    -0.460 A  
HETATM   19  C   UNL     1      -9.380  20.587  66.852  1.00  0.00    -0.435 C  
HETATM   20  C   UNL     1     -10.426  17.556  68.890  1.00  0.00    -0.286 A  
ENDBRANCH  11  14
ENDBRANCH   9  11
ENDBRANCH   7   9
ENDBRANCH   5   7
ENDBRANCH   4   5
ENDBRANCH   3   4
ENDBRANCH   2   3
TORSDOF 7
ENDMDL
MODEL       87
REMARK 921   NORMALIZED FREE ENERGY PREDICTED BY IDOCK:   -4.41 KCAL/MOL
REMARK 922        TOTAL FREE ENERGY PREDICTED BY IDOCK:   -6.84 KCAL/MOL
REMARK 923 INTER-LIGAND FREE ENERGY PREDICTED BY IDOCK:   -5.89 KCAL/MOL
REMARK 924 INTRA-LIGAND FREE ENERGY PREDICTED BY IDOCK:   -0.96 KCAL/MOL
REMARK 927      BINDING AFFINITY PREDICTED BY RF-SCORE:    0.00 PKD
ROOT
HETATM    1  C   UNL     1     -10.682  16.641  69.321  1.00  0.00    -0.337 C  
HETATM    2  C   UNL     1     -10.166  17.788  68.467  1.00  0.00    -0.382 C  
ENDROOT
BRANCH   2   3
HETATM    3  C   UNL     1      -9.076  17.326  67.497  1.00  0.00    -0.223 C  
BRANCH   3   4
HETATM    4  C   UNL     1      -8.668  15.871  67.731  1.00  0.00    -0.170 C  
BRANCH   4   5
HETATM    5  N   UNL     1      -8.775  15.058  66.535  1.00  0.00    -0.425 N  
HETATM    6  H   UNL     1      -8.765  15.507  65.619  1.00  0.00     0.000 HD 
BRANCH   5   7
HETATM    7  C   UNL     1      -8.888  13.698  66.614  1.00  0.00    -0.064 C  
HETATM    8  O   UNL     1      -8.222  13.016  67.379  1.00  0.00    -0.167 OA 
BRANCH   7   9
HETATM    9  N   UNL     1      -9.845  13.179  65.762  1.00  0.00    -0.415 N  
HETATM   10  H   UNL     1      -9.525  12.719  64.909  1.00  0.00     0.000 HD 
BRANCH   9  11
HETATM   11  S   UNL     1     -11.485  13.256  66.035  1.00  0.00    -0.344 S  
HETATM   12  O   UNL     1     -12.191  12.478  65.042  1.00  0.00    -0.439 OA 
HETATM   13  O   UNL     1     -11.773  14.667  66.208  1.00  0.00    -0.370 OA 
BRANCH  11  14
HETATM   14  C   UNL     1     -11.660  12.480  67.623  1.00  0.00    -0.355 A  
HETATM   15  C   UNL     1     -11.481  11.099  67.741  1.00  0.00    -0.349 A  
HETATM   16  C   UNL     1     -11.670  10.482  68.979  1.00  0.00    -0.242 A  
HETATM   17  C   UNL     1     -12.033  11.238  70.101  1.00  0.00    -0.452 A  
HETATM   18  C   UNL     1     -12.154  12.630  69.980  1.00  0.00    -0.339 A  
HETATM   19  C   UNL     1     -12.305  10.577  71.420  1.00  0.00    -0.477 C  
HETATM   20  C   UNL     1     -11.961  13.254  68.746  1.00  0.00    -0.335 A  
ENDBRANCH  11  14
ENDBRANCH   9  11
ENDBRANCH   7   9
ENDBRANCH   5   7
ENDBRANCH   4   5
ENDBRANCH   3   4
ENDBRANCH   2   3
TORSDOF 7
ENDMDL
MODEL       88
REMARK 921   NORMALIZED FREE ENERGY PREDICTED BY IDOCK:   -4.39 KCAL/MOL
REMARK 922        TOTAL FREE ENERGY PREDICTED BY IDOCK:   -6.81 KCAL/MOL
REMARK 923 INTER-LIGAND FREE ENERGY PREDICTED BY IDOCK:   -5.57 KCAL/MOL
REMARK 924 INTRA-LIGAND FREE ENERGY PREDICTED BY IDOCK:   -1.24 KCAL/MOL
REMARK 927      BINDING AFFINITY PREDICTED BY RF-SCORE:    0.00 PKD
ROOT
HETATM    1  C   UNL     1      -9.119  10.651  64.679  1.00  0.00    -0.238 C  
HETATM    2  C   UNL     1      -9.420  10.765  66.165  1.00  0.00    -0.221 C  
ENDROOT
BRANCH   2   3
HETATM    3  C   UNL     1      -8.310  11.510  66.911  1.00  0.00    -0.166 C  
BRANCH   3   4
HETATM    4  C   UNL     1      -8.861  12.470  67.967  1.00  0.00    -0.187 C  
BRANCH   4   5
HETATM    5  N   UNL     1      -8.133  13.722  68.023  1.00  0.00    -0.149 N  
HETATM    6  H   UNL     1      -7.354  13.879  67.384  1.00  0.00     0.000 HD 
BRANCH   5   7
HETATM    7  C   UNL     1      -8.474  14.697  68.919  1.00  0.00    -0.136 C  
HETATM    8  O   UNL     1      -7.652  15.402  69.482  1.00  0.00    -0.213 OA 
BRANCH   7   9
HETATM    9  N   UNL     1      -9.839  14.815  69.103  1.00  0.00    -0.330 N  
HETATM   10  H   UNL     1     -10.276  14.234  69.819  1.00  0.00     0.000 HD 
BRANCH   9  11
HETATM   11  S   UNL     1     -10.817  15.844  68.233  1.00  0.00    -0.330 S  
HETATM   12  O   UNL     1     -10.078  17.026  67.851  1.00  0.00    -0.282 OA 
HETATM   13  O   UNL     1     -12.036  15.955  69.011  1.00  0.00    -0.378 OA 
BRANCH  11  14
HETATM   14  C   UNL     1     -11.199  14.895  66.780  1.00  0.00    -0.338 A  
HETATM   15  C   UNL     1     -12.225  13.948  66.824  1.00  0.00    -0.438 A  
HETATM   16  C   UNL     1     -12.491  13.165  65.699  1.00  0.00    -0.485 A  
HETATM   17  C   UNL     1     -11.738  13.328  64.528  1.00  0.00    -0.420 A  
HETATM   18  C   UNL     1     -10.750  14.321  64.480  1.00  0.00    -0.280 A  
HETATM   19  C   UNL     1     -11.970  12.447  63.335  1.00  0.00    -0.595 C  
HETATM   20  C   UNL     1     -10.483  15.110  65.600  1.00  0.00    -0.378 A  
ENDBRANCH  11  14
ENDBRANCH   9  11
ENDBRANCH   7   9
ENDBRANCH   5   7
ENDBRANCH   4   5
ENDBRANCH   3   4
ENDBRANCH   2   3
TORSDOF 7
ENDMDL
MODEL       89
REMARK 921   NORMALIZED FREE ENERGY PREDICTED BY IDOCK:   -4.38 KCAL/MOL
REMARK 922        TOTAL FREE ENERGY PREDICTED BY IDOCK:   -6.80 KCAL/MOL
REMARK 923 INTER-LIGAND FREE ENERGY PREDICTED BY IDOCK:   -5.95 KCAL/MOL
REMARK 924 INTRA-LIGAND FREE ENERGY PREDICTED BY IDOCK:   -0.85 KCAL/MOL
REMARK 927      BINDING AFFINITY PREDICTED BY RF-SCORE:    0.00 PKD
ROOT
HETATM    1  C   UNL     1     -11.822  11.971  69.470  1.00  0.00    -0.390 C  
HETATM    2  C   UNL     1     -10.712  10.976  69.173  1.00  0.00    -0.274 C  
ENDROOT
BRANCH   2   3
HETATM    3  C   UNL     1      -9.862  11.416  67.979  1.00  0.00    -0.191 C  
BRANCH   3   4
HETATM    4  C   UNL     1     -10.481  11.007  66.642  1.00  0.00    -0.256 C  
BRANCH   4   5
HETATM    5  N   UNL     1      -9.785  11.575  65.503  1.00  0.00    -0.225 N  
HETATM    6  H   UNL     1      -8.765  11.562  65.480  1.00  0.00     0.000 HD 
BRANCH   5   7
HETATM    7  C   UNL     1     -10.474  12.126  64.459  1.00  0.00    -0.303 C  
HETATM    8  O   UNL     1      -9.962  12.372  63.378  1.00  0.00    -0.398 OA 
BRANCH   7   9
HETATM    9  N   UNL     1     -11.807  12.354  64.745  1.00  0.00    -0.372 N  
HETATM   10  H   UNL     1     -12.402  11.544  64.920  1.00  0.00     0.000 HD 
BRANCH   9  11
HETATM   11  S   UNL     1     -12.505  13.863  64.822  1.00  0.00    -0.314 S  
HETATM   12  O   UNL     1     -13.786  13.784  65.487  1.00  0.00    -0.321 OA 
HETATM   13  O   UNL     1     -12.405  14.396  63.477  1.00  0.00    -0.689 OA 
BRANCH  11  14
HETATM   14  C   UNL     1     -11.370  14.775  65.840  1.00  0.00    -0.331 A  
HETATM   15  C   UNL     1     -10.432  15.621  65.243  1.00  0.00    -0.439 A  
HETATM   16  C   UNL     1      -9.506  16.296  66.039  1.00  0.00    -0.369 A  
HETATM   17  C   UNL     1      -9.514  16.134  67.431  1.00  0.00    -0.227 A  
HETATM   18  C   UNL     1     -10.498  15.327  68.021  1.00  0.00    -0.248 A  
HETATM   19  C   UNL     1      -8.482  16.802  68.291  1.00  0.00    -0.222 C  
HETATM   20  C   UNL     1     -11.430  14.653  67.231  1.00  0.00    -0.386 A  
ENDBRANCH  11  14
ENDBRANCH   9  11
ENDBRANCH   7   9
ENDBRANCH   5   7
ENDBRANCH   4   5
ENDBRANCH   3   4
ENDBRANCH   2   3
TORSDOF 7
ENDMDL
MODEL       90
REMARK 921   NORMALIZED FREE ENERGY PREDICTED BY IDOCK:   -4.36 KCAL/MOL
REMARK 922        TOTAL FREE ENERGY PREDICTED BY IDOCK:   -6.77 KCAL/MOL
REMARK 923 INTER-LIGAND FREE ENERGY PREDICTED BY IDOCK:   -6.21 KCAL/MOL
REMARK 924 INTRA-LIGAND FREE ENERGY PREDICTED BY IDOCK:   -0.56 KCAL/MOL
REMARK 927      BINDING AFFINITY PREDICTED BY RF-SCORE:    0.00 PKD
ROOT
HETATM    1  C   UNL     1      -9.085   8.065  72.812  1.00  0.00    -0.303 C  
HETATM    2  C   UNL     1     -10.243   7.619  71.933  1.00  0.00    -0.234 C  
ENDROOT
BRANCH   2   3
HETATM    3  C   UNL     1     -11.593   7.854  72.615  1.00  0.00    -0.435 C  
BRANCH   3   4
HETATM    4  C   UNL     1     -12.341   9.051  72.028  1.00  0.00    -0.384 C  
BRANCH   4   5
HETATM    5  N   UNL     1     -11.497   9.892  71.202  1.00  0.00    -0.375 N  
HETATM    6  H   UNL     1     -10.484   9.771  71.232  1.00  0.00     0.000 HD 
BRANCH   5   7
HETATM    7  C   UNL     1     -12.035  10.846  70.384  1.00  0.00    -0.362 C  
HETATM    8  O   UNL     1     -12.434  11.926  70.790  1.00  0.00    -0.349 OA 
BRANCH   7   9
HETATM    9  N   UNL     1     -12.059  10.472  69.053  1.00  0.00    -0.516 N  
HETATM   10  H   UNL     1     -12.943  10.136  68.668  1.00  0.00     0.000 HD 
BRANCH   9  11
HETATM   11  S   UNL     1     -10.742  10.533  68.037  1.00  0.00    -0.266 S  
HETATM   12  O   UNL     1     -10.634   9.302  67.289  1.00  0.00    -0.264 OA 
HETATM   13  O   UNL     1      -9.645  10.990  68.868  1.00  0.00    -0.196 OA 
BRANCH  11  14
HETATM   14  C   UNL     1     -11.156  11.859  66.929  1.00  0.00    -0.305 A  
HETATM   15  C   UNL     1     -11.680  13.049  67.441  1.00  0.00    -0.427 A  
HETATM   16  C   UNL     1     -12.054  14.071  66.567  1.00  0.00    -0.488 A  
HETATM   17  C   UNL     1     -11.904  13.911  65.183  1.00  0.00    -0.370 A  
HETATM   18  C   UNL     1     -11.324  12.734  64.687  1.00  0.00    -0.362 A  
HETATM   19  C   UNL     1     -12.364  14.975  64.230  1.00  0.00    -0.247 C  
HETATM   20  C   UNL     1     -10.943  11.712  65.557  1.00  0.00    -0.327 A  
ENDBRANCH  11  14
ENDBRANCH   9  11
ENDBRANCH   7   9
ENDBRANCH   5   7
ENDBRANCH   4   5
ENDBRANCH   3   4
ENDBRANCH   2   3
TORSDOF 7
ENDMDL
MODEL       91
REMARK 921   NORMALIZED FREE ENERGY PREDICTED BY IDOCK:   -4.35 KCAL/MOL
REMARK 922        TOTAL FREE ENERGY PREDICTED BY IDOCK:   -6.75 KCAL/MOL
REMARK 923 INTER-LIGAND FREE ENERGY PREDICTED BY IDOCK:   -6.00 KCAL/MOL
REMARK 924 INTRA-LIGAND FREE ENERGY PREDICTED BY IDOCK:   -0.75 KCAL/MOL
REMARK 927      BINDING AFFINITY PREDICTED BY RF-SCORE:    0.00 PKD
ROOT
HETATM    1  C   UNL     1     -10.855  14.901  69.653  1.00  0.00    -0.269 C  
HETATM    2  C   UNL     1     -11.188  16.169  68.883  1.00  0.00    -0.351 C  
ENDROOT
BRANCH   2   3
HETATM    3  C   UNL     1     -10.123  16.488  67.831  1.00  0.00    -0.256 C  
BRANCH   3   4
HETATM    4  C   UNL     1     -10.659  17.384  66.713  1.00  0.00    -0.194 C  
BRANCH   4   5
HETATM    5  N   UNL     1     -10.472  18.796  66.986  1.00  0.00    -0.398 N  
HETATM    6  H   UNL     1     -10.525  19.133  67.947  1.00  0.00     0.000 HD 
BRANCH   5   7
HETATM    7  C   UNL     1     -10.225  19.682  65.975  1.00  0.00    -0.493 C  
HETATM    8  O   UNL     1     -10.943  19.791  64.993  1.00  0.00    -0.281 OA 
BRANCH   7   9
HETATM    9  N   UNL     1      -9.099  20.455  66.191  1.00  0.00    -0.603 N  
HETATM   10  H   UNL     1      -9.234  21.429  66.462  1.00  0.00     0.000 HD 
BRANCH   9  11
HETATM   11  S   UNL     1      -7.537  19.901  66.036  1.00  0.00    -0.305 S  
HETATM   12  O   UNL     1      -6.801  20.740  65.118  1.00  0.00    -0.186 OA 
HETATM   13  O   UNL     1      -7.664  18.477  65.793  1.00  0.00    -0.502 OA 
BRANCH  11  14
HETATM   14  C   UNL     1      -6.880  20.104  67.674  1.00  0.00    -0.255 A  
HETATM   15  C   UNL     1      -5.919  21.089  67.916  1.00  0.00    -0.396 A  
HETATM   16  C   UNL     1      -5.364  21.214  69.191  1.00  0.00    -0.306 A  
HETATM   17  C   UNL     1      -5.768  20.361  70.227  1.00  0.00    -0.364 A  
HETATM   18  C   UNL     1      -6.774  19.415  69.984  1.00  0.00    -0.081 A  
HETATM   19  C   UNL     1      -5.131  20.441  71.583  1.00  0.00    -0.374 C  
HETATM   20  C   UNL     1      -7.336  19.289  68.713  1.00  0.00    -0.381 A  
ENDBRANCH  11  14
ENDBRANCH   9  11
ENDBRANCH   7   9
ENDBRANCH   5   7
ENDBRANCH   4   5
ENDBRANCH   3   4
ENDBRANCH   2   3
TORSDOF 7
ENDMDL
MODEL       92
REMARK 921   NORMALIZED FREE ENERGY PREDICTED BY IDOCK:   -4.35 KCAL/MOL
REMARK 922        TOTAL FREE ENERGY PREDICTED BY IDOCK:   -6.75 KCAL/MOL
REMARK 923 INTER-LIGAND FREE ENERGY PREDICTED BY IDOCK:   -6.26 KCAL/MOL
REMARK 924 INTRA-LIGAND FREE ENERGY PREDICTED BY IDOCK:   -0.49 KCAL/MOL
REMARK 927      BINDING AFFINITY PREDICTED BY RF-SCORE:    0.00 PKD
ROOT
HETATM    1  C   UNL     1     -12.635  15.760  72.383  1.00  0.00    -0.539 C  
HETATM    2  C   UNL     1     -12.928  14.501  73.184  1.00  0.00    -0.577 C  
ENDROOT
BRANCH   2   3
HETATM    3  C   UNL     1     -13.666  13.456  72.344  1.00  0.00    -0.698 C  
BRANCH   3   4
HETATM    4  C   UNL     1     -12.735  12.722  71.379  1.00  0.00    -0.255 C  
BRANCH   4   5
HETATM    5  N   UNL     1     -12.947  11.288  71.372  1.00  0.00    -0.415 N  
HETATM    6  H   UNL     1     -13.621  10.877  72.018  1.00  0.00     0.000 HD 
BRANCH   5   7
HETATM    7  C   UNL     1     -12.259  10.477  70.513  1.00  0.00    -0.344 C  
HETATM    8  O   UNL     1     -12.303  10.600  69.299  1.00  0.00    -0.316 OA 
BRANCH   7   9
HETATM    9  N   UNL     1     -11.494   9.523  71.159  1.00  0.00    -0.329 N  
HETATM   10  H   UNL     1     -10.511   9.735  71.328  1.00  0.00     0.000 HD 
BRANCH   9  11
HETATM   11  S   UNL     1     -12.073   8.051  71.680  1.00  0.00    -0.316 S  
HETATM   12  O   UNL     1     -13.501   7.980  71.477  1.00  0.00    -0.327 OA 
HETATM   13  O   UNL     1     -11.505   7.868  73.002  1.00  0.00    -0.383 OA 
BRANCH  11  14
HETATM   14  C   UNL     1     -11.267   6.901  70.592  1.00  0.00    -0.301 A  
HETATM   15  C   UNL     1     -11.410   7.040  69.209  1.00  0.00    -0.047 A  
HETATM   16  C   UNL     1     -10.821   6.106  68.356  1.00  0.00    -0.382 A  
HETATM   17  C   UNL     1     -10.084   5.034  68.878  1.00  0.00    -0.215 A  
HETATM   18  C   UNL     1      -9.900   4.939  70.265  1.00  0.00    -0.306 A  
HETATM   19  C   UNL     1      -9.502   3.987  67.975  1.00  0.00    -0.220 C  
HETATM   20  C   UNL     1     -10.483   5.874  71.123  1.00  0.00    -0.291 A  
ENDBRANCH  11  14
ENDBRANCH   9  11
ENDBRANCH   7   9
ENDBRANCH   5   7
ENDBRANCH   4   5
ENDBRANCH   3   4
ENDBRANCH   2   3
TORSDOF 7
ENDMDL
MODEL       93
REMARK 921   NORMALIZED FREE ENERGY PREDICTED BY IDOCK:   -4.33 KCAL/MOL
REMARK 922        TOTAL FREE ENERGY PREDICTED BY IDOCK:   -6.73 KCAL/MOL
REMARK 923 INTER-LIGAND FREE ENERGY PREDICTED BY IDOCK:   -6.29 KCAL/MOL
REMARK 924 INTRA-LIGAND FREE ENERGY PREDICTED BY IDOCK:   -0.44 KCAL/MOL
REMARK 927      BINDING AFFINITY PREDICTED BY RF-SCORE:    0.00 PKD
ROOT
HETATM    1  C   UNL     1     -13.197  10.553  72.037  1.00  0.00    -0.483 C  
HETATM    2  C   UNL     1     -11.990   9.750  71.578  1.00  0.00    -0.488 C  
ENDROOT
BRANCH   2   3
HETATM    3  C   UNL     1     -11.235  10.458  70.451  1.00  0.00    -0.399 C  
BRANCH   3   4
HETATM    4  C   UNL     1     -11.870  11.798  70.077  1.00  0.00    -0.342 C  
BRANCH   4   5
HETATM    5  N   UNL     1     -10.954  12.679  69.378  1.00  0.00    -0.447 N  
HETATM    6  H   UNL     1     -10.608  13.517  69.845  1.00  0.00     0.000 HD 
BRANCH   5   7
HETATM    7  C   UNL     1     -10.548  12.405  68.102  1.00  0.00    -0.216 C  
HETATM    8  O   UNL     1      -9.405  12.082  67.820  1.00  0.00    -0.178 OA 
BRANCH   7   9
HETATM    9  N   UNL     1     -11.566  12.506  67.172  1.00  0.00    -0.350 N  
HETATM   10  H   UNL     1     -12.397  11.931  67.310  1.00  0.00     0.000 HD 
BRANCH   9  11
HETATM   11  S   UNL     1     -11.525  13.506  65.841  1.00  0.00    -0.330 S  
HETATM   12  O   UNL     1     -12.869  13.836  65.426  1.00  0.00    -0.650 OA 
HETATM   13  O   UNL     1     -10.603  12.870  64.919  1.00  0.00    -0.297 OA 
BRANCH  11  14
HETATM   14  C   UNL     1     -10.729  14.966  66.466  1.00  0.00    -0.309 A  
HETATM   15  C   UNL     1      -9.501  15.366  65.932  1.00  0.00    -0.369 A  
HETATM   16  C   UNL     1      -8.850  16.484  66.459  1.00  0.00    -0.317 A  
HETATM   17  C   UNL     1      -9.422  17.206  67.514  1.00  0.00    -0.247 A  
HETATM   18  C   UNL     1     -10.681  16.826  68.002  1.00  0.00    -0.355 A  
HETATM   19  C   UNL     1      -8.701  18.367  68.133  1.00  0.00    -0.318 C  
HETATM   20  C   UNL     1     -11.339  15.714  67.476  1.00  0.00    -0.198 A  
ENDBRANCH  11  14
ENDBRANCH   9  11
ENDBRANCH   7   9
ENDBRANCH   5   7
ENDBRANCH   4   5
ENDBRANCH   3   4
ENDBRANCH   2   3
TORSDOF 7
ENDMDL
MODEL       94
REMARK 921   NORMALIZED FREE ENERGY PREDICTED BY IDOCK:   -4.33 KCAL/MOL
REMARK 922        TOTAL FREE ENERGY PREDICTED BY IDOCK:   -6.73 KCAL/MOL
REMARK 923 INTER-LIGAND FREE ENERGY PREDICTED BY IDOCK:   -5.82 KCAL/MOL
REMARK 924 INTRA-LIGAND FREE ENERGY PREDICTED BY IDOCK:   -0.91 KCAL/MOL
REMARK 927      BINDING AFFINITY PREDICTED BY RF-SCORE:    0.00 PKD
ROOT
HETATM    1  C   UNL     1      -9.900   8.941  66.247  1.00  0.00    -0.355 C  
HETATM    2  C   UNL     1     -10.600   9.325  67.541  1.00  0.00    -0.329 C  
ENDROOT
BRANCH   2   3
HETATM    3  C   UNL     1      -9.707   9.082  68.760  1.00  0.00    -0.165 C  
BRANCH   3   4
HETATM    4  C   UNL     1      -9.871  10.167  69.826  1.00  0.00    -0.208 C  
BRANCH   4   5
HETATM    5  N   UNL     1     -10.130  11.477  69.260  1.00  0.00    -0.423 N  
HETATM    6  H   UNL     1      -9.486  11.862  68.570  1.00  0.00     0.000 HD 
BRANCH   5   7
HETATM    7  C   UNL     1     -11.225  12.203  69.637  1.00  0.00    -0.067 C  
HETATM    8  O   UNL     1     -12.266  11.692  70.019  1.00  0.00    -0.296 OA 
BRANCH   7   9
HETATM    9  N   UNL     1     -11.024  13.569  69.564  1.00  0.00    -0.452 N  
HETATM   10  H   UNL     1     -11.463  14.154  70.276  1.00  0.00     0.000 HD 
BRANCH   9  11
HETATM   11  S   UNL     1     -10.113  14.323  68.392  1.00  0.00    -0.247 S  
HETATM   12  O   UNL     1      -8.740  13.880  68.471  1.00  0.00    -0.175 OA 
HETATM   13  O   UNL     1     -10.442  15.730  68.504  1.00  0.00    -0.225 OA 
BRANCH  11  14
HETATM   14  C   UNL     1     -10.837  13.727  66.883  1.00  0.00    -0.285 A  
HETATM   15  C   UNL     1     -12.203  13.907  66.653  1.00  0.00    -0.465 A  
HETATM   16  C   UNL     1     -12.781  13.392  65.491  1.00  0.00    -0.469 A  
HETATM   17  C   UNL     1     -12.000  12.702  64.555  1.00  0.00    -0.464 A  
HETATM   18  C   UNL     1     -10.620  12.579  64.772  1.00  0.00    -0.333 A  
HETATM   19  C   UNL     1     -12.622  12.087  63.336  1.00  0.00    -0.592 C  
HETATM   20  C   UNL     1     -10.035  13.096  65.928  1.00  0.00    -0.275 A  
ENDBRANCH  11  14
ENDBRANCH   9  11
ENDBRANCH   7   9
ENDBRANCH   5   7
ENDBRANCH   4   5
ENDBRANCH   3   4
ENDBRANCH   2   3
TORSDOF 7
ENDMDL
MODEL       95
REMARK 921   NORMALIZED FREE ENERGY PREDICTED BY IDOCK:   -4.33 KCAL/MOL
REMARK 922        TOTAL FREE ENERGY PREDICTED BY IDOCK:   -6.72 KCAL/MOL
REMARK 923 INTER-LIGAND FREE ENERGY PREDICTED BY IDOCK:   -6.10 KCAL/MOL
REMARK 924 INTRA-LIGAND FREE ENERGY PREDICTED BY IDOCK:   -0.62 KCAL/MOL
REMARK 927      BINDING AFFINITY PREDICTED BY RF-SCORE:    0.00 PKD
ROOT
HETATM    1  C   UNL     1      -9.616   8.987  66.069  1.00  0.00    -0.342 C  
HETATM    2  C   UNL     1     -10.202   8.705  67.443  1.00  0.00    -0.329 C  
ENDROOT
BRANCH   2   3
HETATM    3  C   UNL     1      -9.235   9.099  68.562  1.00  0.00    -0.136 C  
BRANCH   3   4
HETATM    4  C   UNL     1      -9.840  10.127  69.519  1.00  0.00    -0.232 C  
BRANCH   4   5
HETATM    5  N   UNL     1     -10.131  11.393  68.874  1.00  0.00    -0.332 N  
HETATM    6  H   UNL     1      -9.363  11.979  68.548  1.00  0.00     0.000 HD 
BRANCH   5   7
HETATM    7  C   UNL     1     -11.420  11.814  68.696  1.00  0.00    -0.288 C  
HETATM    8  O   UNL     1     -12.388  11.087  68.857  1.00  0.00    -0.516 OA 
BRANCH   7   9
HETATM    9  N   UNL     1     -11.514  13.147  68.340  1.00  0.00    -0.292 N  
HETATM   10  H   UNL     1     -11.791  13.814  69.060  1.00  0.00     0.000 HD 
BRANCH   9  11
HETATM   11  S   UNL     1     -11.204  13.734  66.813  1.00  0.00    -0.326 S  
HETATM   12  O   UNL     1     -12.382  13.611  65.986  1.00  0.00    -0.432 OA 
HETATM   13  O   UNL     1      -9.955  13.113  66.415  1.00  0.00    -0.269 OA 
BRANCH  11  14
HETATM   14  C   UNL     1     -10.871  15.454  67.109  1.00  0.00    -0.321 A  
HETATM   15  C   UNL     1     -10.859  15.939  68.419  1.00  0.00    -0.316 A  
HETATM   16  C   UNL     1     -10.649  17.301  68.648  1.00  0.00    -0.329 A  
HETATM   17  C   UNL     1     -10.447  18.178  67.575  1.00  0.00    -0.425 A  
HETATM   18  C   UNL     1     -10.405  17.667  66.270  1.00  0.00    -0.342 A  
HETATM   19  C   UNL     1     -10.287  19.653  67.805  1.00  0.00    -0.586 C  
HETATM   20  C   UNL     1     -10.609  16.307  66.034  1.00  0.00    -0.288 A  
ENDBRANCH  11  14
ENDBRANCH   9  11
ENDBRANCH   7   9
ENDBRANCH   5   7
ENDBRANCH   4   5
ENDBRANCH   3   4
ENDBRANCH   2   3
TORSDOF 7
ENDMDL
MODEL       96
REMARK 921   NORMALIZED FREE ENERGY PREDICTED BY IDOCK:   -4.32 KCAL/MOL
REMARK 922        TOTAL FREE ENERGY PREDICTED BY IDOCK:   -6.72 KCAL/MOL
REMARK 923 INTER-LIGAND FREE ENERGY PREDICTED BY IDOCK:   -6.11 KCAL/MOL
REMARK 924 INTRA-LIGAND FREE ENERGY PREDICTED BY IDOCK:   -0.61 KCAL/MOL
REMARK 927      BINDING AFFINITY PREDICTED BY RF-SCORE:    0.00 PKD
ROOT
HETATM    1  C   UNL     1     -13.965  14.111  72.238  1.00  0.00    -0.646 C  
HETATM    2  C   UNL     1     -12.848  14.905  71.580  1.00  0.00    -0.411 C  
ENDROOT
BRANCH   2   3
HETATM    3  C   UNL     1     -12.146  14.096  70.487  1.00  0.00    -0.420 C  
BRANCH   3   4
HETATM    4  C   UNL     1     -12.433  12.598  70.598  1.00  0.00    -0.239 C  
BRANCH   4   5
HETATM    5  N   UNL     1     -11.420  11.782  69.958  1.00  0.00    -0.497 N  
HETATM    6  H   UNL     1     -10.476  11.757  70.345  1.00  0.00     0.000 HD 
BRANCH   5   7
HETATM    7  C   UNL     1     -11.707  11.044  68.843  1.00  0.00    -0.330 C  
HETATM    8  O   UNL     1     -12.081  11.542  67.792  1.00  0.00    -0.626 OA 
BRANCH   7   9
HETATM    9  N   UNL     1     -11.510   9.688  69.021  1.00  0.00    -0.453 N  
HETATM   10  H   UNL     1     -12.331   9.082  69.023  1.00  0.00     0.000 HD 
BRANCH   9  11
HETATM   11  S   UNL     1     -10.019   8.976  69.231  1.00  0.00    -0.194 S  
HETATM   12  O   UNL     1      -9.084   9.935  69.773  1.00  0.00    -0.212 OA 
HETATM   13  O   UNL     1      -9.742   8.302  67.978  1.00  0.00    -0.153 OA 
BRANCH  11  14
HETATM   14  C   UNL     1     -10.346   7.723  70.447  1.00  0.00    -0.212 A  
HETATM   15  C   UNL     1      -9.679   6.498  70.373  1.00  0.00    -0.186 A  
HETATM   16  C   UNL     1      -9.974   5.494  71.298  1.00  0.00    -0.249 A  
HETATM   17  C   UNL     1     -10.930   5.710  72.299  1.00  0.00    -0.312 A  
HETATM   18  C   UNL     1     -11.550   6.964  72.396  1.00  0.00    -0.278 A  
HETATM   19  C   UNL     1     -11.304   4.617  73.257  1.00  0.00    -0.393 C  
HETATM   20  C   UNL     1     -11.255   7.974  71.478  1.00  0.00    -0.296 A  
ENDBRANCH  11  14
ENDBRANCH   9  11
ENDBRANCH   7   9
ENDBRANCH   5   7
ENDBRANCH   4   5
ENDBRANCH   3   4
ENDBRANCH   2   3
TORSDOF 7
ENDMDL
MODEL       97
REMARK 921   NORMALIZED FREE ENERGY PREDICTED BY IDOCK:   -4.32 KCAL/MOL
REMARK 922        TOTAL FREE ENERGY PREDICTED BY IDOCK:   -6.71 KCAL/MOL
REMARK 923 INTER-LIGAND FREE ENERGY PREDICTED BY IDOCK:   -5.98 KCAL/MOL
REMARK 924 INTRA-LIGAND FREE ENERGY PREDICTED BY IDOCK:   -0.73 KCAL/MOL
REMARK 927      BINDING AFFINITY PREDICTED BY RF-SCORE:    0.00 PKD
ROOT
HETATM    1  C   UNL     1      -7.656  20.225  67.196  1.00  0.00    -0.354 C  
HETATM    2  C   UNL     1      -9.037  19.897  66.650  1.00  0.00    -0.466 C  
ENDROOT
BRANCH   2   3
HETATM    3  C   UNL     1      -9.602  18.618  67.272  1.00  0.00    -0.316 C  
BRANCH   3   4
HETATM    4  C   UNL     1      -8.662  18.014  68.316  1.00  0.00    -0.283 C  
BRANCH   4   5
HETATM    5  N   UNL     1      -8.888  16.597  68.524  1.00  0.00    -0.226 N  
HETATM    6  H   UNL     1      -9.410  16.287  69.343  1.00  0.00     0.000 HD 
BRANCH   5   7
HETATM    7  C   UNL     1      -8.412  15.670  67.639  1.00  0.00    -0.157 C  
HETATM    8  O   UNL     1      -7.458  15.876  66.905  1.00  0.00    -0.221 OA 
BRANCH   7   9
HETATM    9  N   UNL     1      -9.103  14.473  67.679  1.00  0.00    -0.189 N  
HETATM   10  H   UNL     1      -8.610  13.649  68.024  1.00  0.00     0.000 HD 
BRANCH   9  11
HETATM   11  S   UNL     1     -10.687  14.288  67.201  1.00  0.00    -0.284 S  
HETATM   12  O   UNL     1     -10.856  13.025  66.521  1.00  0.00    -0.275 OA 
HETATM   13  O   UNL     1     -11.030  15.533  66.540  1.00  0.00    -0.312 OA 
BRANCH  11  14
HETATM   14  C   UNL     1     -11.565  14.247  68.744  1.00  0.00    -0.322 A  
HETATM   15  C   UNL     1     -12.074  15.432  69.282  1.00  0.00    -0.283 A  
HETATM   16  C   UNL     1     -12.718  15.408  70.520  1.00  0.00    -0.455 A  
HETATM   17  C   UNL     1     -12.861  14.204  71.222  1.00  0.00    -0.429 A  
HETATM   18  C   UNL     1     -12.396  13.014  70.644  1.00  0.00    -0.391 A  
HETATM   19  C   UNL     1     -13.492  14.176  72.584  1.00  0.00    -0.634 C  
HETATM   20  C   UNL     1     -11.756  13.031  69.404  1.00  0.00    -0.386 A  
ENDBRANCH  11  14
ENDBRANCH   9  11
ENDBRANCH   7   9
ENDBRANCH   5   7
ENDBRANCH   4   5
ENDBRANCH   3   4
ENDBRANCH   2   3
TORSDOF 7
ENDMDL
MODEL       98
REMARK 921   NORMALIZED FREE ENERGY PREDICTED BY IDOCK:   -4.32 KCAL/MOL
REMARK 922        TOTAL FREE ENERGY PREDICTED BY IDOCK:   -6.71 KCAL/MOL
REMARK 923 INTER-LIGAND FREE ENERGY PREDICTED BY IDOCK:   -6.11 KCAL/MOL
REMARK 924 INTRA-LIGAND FREE ENERGY PREDICTED BY IDOCK:   -0.60 KCAL/MOL
REMARK 927      BINDING AFFINITY PREDICTED BY RF-SCORE:    0.00 PKD
ROOT
HETATM    1  C   UNL     1     -10.304  20.029  67.819  1.00  0.00    -0.506 C  
HETATM    2  C   UNL     1      -8.805  19.862  67.632  1.00  0.00    -0.406 C  
ENDROOT
BRANCH   2   3
HETATM    3  C   UNL     1      -8.475  19.142  66.322  1.00  0.00    -0.311 C  
BRANCH   3   4
HETATM    4  C   UNL     1      -7.783  17.798  66.554  1.00  0.00    -0.263 C  
BRANCH   4   5
HETATM    5  N   UNL     1      -7.470  17.561  67.950  1.00  0.00    -0.200 N  
HETATM    6  H   UNL     1      -7.069  18.313  68.510  1.00  0.00     0.000 HD 
BRANCH   5   7
HETATM    7  C   UNL     1      -7.703  16.344  68.528  1.00  0.00    -0.195 C  
HETATM    8  O   UNL     1      -7.195  15.998  69.583  1.00  0.00    -0.193 OA 
BRANCH   7   9
HETATM    9  N   UNL     1      -8.586  15.559  67.810  1.00  0.00    -0.150 N  
HETATM   10  H   UNL     1      -8.211  14.997  67.045  1.00  0.00     0.000 HD 
BRANCH   9  11
HETATM   11  S   UNL     1     -10.221  15.471  68.111  1.00  0.00    -0.230 S  
HETATM   12  O   UNL     1     -10.808  16.790  68.055  1.00  0.00    -0.355 OA 
HETATM   13  O   UNL     1     -10.341  14.660  69.307  1.00  0.00    -0.227 OA 
BRANCH  11  14
HETATM   14  C   UNL     1     -10.824  14.501  66.750  1.00  0.00    -0.305 A  
HETATM   15  C   UNL     1      -9.952  14.140  65.719  1.00  0.00    -0.331 A  
HETATM   16  C   UNL     1     -10.438  13.422  64.624  1.00  0.00    -0.428 A  
HETATM   17  C   UNL     1     -11.789  13.060  64.556  1.00  0.00    -0.431 A  
HETATM   18  C   UNL     1     -12.640  13.380  65.624  1.00  0.00    -0.496 A  
HETATM   19  C   UNL     1     -12.337  12.348  63.354  1.00  0.00    -0.603 C  
HETATM   20  C   UNL     1     -12.159  14.092  66.724  1.00  0.00    -0.480 A  
ENDBRANCH  11  14
ENDBRANCH   9  11
ENDBRANCH   7   9
ENDBRANCH   5   7
ENDBRANCH   4   5
ENDBRANCH   3   4
ENDBRANCH   2   3
TORSDOF 7
ENDMDL
MODEL       99
REMARK 921   NORMALIZED FREE ENERGY PREDICTED BY IDOCK:   -4.32 KCAL/MOL
REMARK 922        TOTAL FREE ENERGY PREDICTED BY IDOCK:   -6.71 KCAL/MOL
REMARK 923 INTER-LIGAND FREE ENERGY PREDICTED BY IDOCK:   -6.30 KCAL/MOL
REMARK 924 INTRA-LIGAND FREE ENERGY PREDICTED BY IDOCK:   -0.41 KCAL/MOL
REMARK 927      BINDING AFFINITY PREDICTED BY RF-SCORE:    0.00 PKD
ROOT
HETATM    1  C   UNL     1      -9.388   6.167  70.223  1.00  0.00    -0.172 C  
HETATM    2  C   UNL     1     -10.620   6.968  69.832  1.00  0.00    -0.249 C  
ENDROOT
BRANCH   2   3
HETATM    3  C   UNL     1     -10.634   7.289  68.335  1.00  0.00    -0.209 C  
BRANCH   3   4
HETATM    4  C   UNL     1     -10.221   8.733  68.046  1.00  0.00    -0.213 C  
BRANCH   4   5
HETATM    5  N   UNL     1     -11.334   9.660  68.111  1.00  0.00    -0.500 N  
HETATM    6  H   UNL     1     -12.070   9.612  67.406  1.00  0.00     0.000 HD 
BRANCH   5   7
HETATM    7  C   UNL     1     -11.413  10.599  69.102  1.00  0.00    -0.280 C  
HETATM    8  O   UNL     1     -10.879  10.465  70.192  1.00  0.00    -0.283 OA 
BRANCH   7   9
HETATM    9  N   UNL     1     -12.136  11.719  68.736  1.00  0.00    -0.248 N  
HETATM   10  H   UNL     1     -13.129  11.601  68.535  1.00  0.00     0.000 HD 
BRANCH   9  11
HETATM   11  S   UNL     1     -11.492  13.248  68.601  1.00  0.00    -0.327 S  
HETATM   12  O   UNL     1     -12.157  13.976  67.545  1.00  0.00    -0.391 OA 
HETATM   13  O   UNL     1     -10.055  13.052  68.571  1.00  0.00    -0.234 OA 
BRANCH  11  14
HETATM   14  C   UNL     1     -11.893  13.987  70.166  1.00  0.00    -0.306 A  
HETATM   15  C   UNL     1     -11.355  15.232  70.502  1.00  0.00    -0.340 A  
HETATM   16  C   UNL     1     -11.628  15.788  71.753  1.00  0.00    -0.541 A  
HETATM   17  C   UNL     1     -12.441  15.108  72.669  1.00  0.00    -0.467 A  
HETATM   18  C   UNL     1     -13.021  13.887  72.297  1.00  0.00    -0.450 A  
HETATM   19  C   UNL     1     -12.687  15.664  74.041  1.00  0.00    -0.710 C  
HETATM   20  C   UNL     1     -12.756  13.328  71.046  1.00  0.00    -0.374 A  
ENDBRANCH  11  14
ENDBRANCH   9  11
ENDBRANCH   7   9
ENDBRANCH   5   7
ENDBRANCH   4   5
ENDBRANCH   3   4
ENDBRANCH   2   3
TORSDOF 7
ENDMDL
MODEL      100
REMARK 921   NORMALIZED FREE ENERGY PREDICTED BY IDOCK:   -4.29 KCAL/MOL
REMARK 922        TOTAL FREE ENERGY PREDICTED BY IDOCK:   -6.67 KCAL/MOL
REMARK 923 INTER-LIGAND FREE ENERGY PREDICTED BY IDOCK:   -5.85 KCAL/MOL
REMARK 924 INTRA-LIGAND FREE ENERGY PREDICTED BY IDOCK:   -0.83 KCAL/MOL
REMARK 927      BINDING AFFINITY PREDICTED BY RF-SCORE:    0.00 PKD
ROOT
HETATM    1  C   UNL     1     -10.768   9.837  70.489  1.00  0.00    -0.381 C  
HETATM    2  C   UNL     1     -11.997  10.092  71.347  1.00  0.00    -0.470 C  
ENDROOT
BRANCH   2   3
HETATM    3  C   UNL     1     -12.545  11.506  71.144  1.00  0.00    -0.463 C  
BRANCH   3   4
HETATM    4  C   UNL     1     -11.974  12.177  69.894  1.00  0.00    -0.309 C  
BRANCH   4   5
HETATM    5  N   UNL     1     -12.315  13.584  69.805  1.00  0.00    -0.245 N  
HETATM    6  H   UNL     1     -12.998  13.977  70.453  1.00  0.00     0.000 HD 
BRANCH   5   7
HETATM    7  C   UNL     1     -11.736  14.392  68.866  1.00  0.00    -0.322 C  
HETATM    8  O   UNL     1     -10.664  14.951  69.037  1.00  0.00    -0.231 OA 
BRANCH   7   9
HETATM    9  N   UNL     1     -12.475  14.490  67.701  1.00  0.00    -0.514 N  
HETATM   10  H   UNL     1     -13.457  14.756  67.780  1.00  0.00     0.000 HD 
BRANCH   9  11
HETATM   11  S   UNL     1     -11.867  14.204  66.178  1.00  0.00    -0.420 S  
HETATM   12  O   UNL     1     -11.001  15.289  65.777  1.00  0.00    -0.338 OA 
HETATM   13  O   UNL     1     -13.018  13.843  65.373  1.00  0.00    -0.722 OA 
BRANCH  11  14
HETATM   14  C   UNL     1     -10.898  12.733  66.407  1.00  0.00    -0.271 A  
HETATM   15  C   UNL     1     -11.536  11.495  66.516  1.00  0.00    -0.178 A  
HETATM   16  C   UNL     1     -10.778  10.345  66.748  1.00  0.00    -0.235 A  
HETATM   17  C   UNL     1      -9.384  10.427  66.869  1.00  0.00    -0.186 A  
HETATM   18  C   UNL     1      -8.752  11.668  66.701  1.00  0.00    -0.187 A  
HETATM   19  C   UNL     1      -8.566   9.210  67.186  1.00  0.00    -0.122 C  
HETATM   20  C   UNL     1      -9.504  12.819  66.463  1.00  0.00    -0.253 A  
ENDBRANCH  11  14
ENDBRANCH   9  11
ENDBRANCH   7   9
ENDBRANCH   5   7
ENDBRANCH   4   5
ENDBRANCH   3   4
ENDBRANCH   2   3
TORSDOF 7
ENDMDL
MODEL      101
REMARK 921   NORMALIZED FREE ENERGY PREDICTED BY IDOCK:   -4.29 KCAL/MOL
REMARK 922        TOTAL FREE ENERGY PREDICTED BY IDOCK:   -6.67 KCAL/MOL
REMARK 923 INTER-LIGAND FREE ENERGY PREDICTED BY IDOCK:   -6.05 KCAL/MOL
REMARK 924 INTRA-LIGAND FREE ENERGY PREDICTED BY IDOCK:   -0.62 KCAL/MOL
REMARK 927      BINDING AFFINITY PREDICTED BY RF-SCORE:    0.00 PKD
ROOT
HETATM    1  C   UNL     1     -11.649  15.071  71.749  1.00  0.00    -0.425 C  
HETATM    2  C   UNL     1     -11.841  14.654  70.299  1.00  0.00    -0.363 C  
ENDROOT
BRANCH   2   3
HETATM    3  C   UNL     1     -11.809  15.859  69.356  1.00  0.00    -0.325 C  
BRANCH   3   4
HETATM    4  C   UNL     1     -11.394  15.475  67.935  1.00  0.00    -0.308 C  
BRANCH   4   5
HETATM    5  N   UNL     1     -12.398  14.685  67.250  1.00  0.00    -0.502 N  
HETATM    6  H   UNL     1     -13.352  14.661  67.612  1.00  0.00     0.000 HD 
BRANCH   5   7
HETATM    7  C   UNL     1     -12.088  13.972  66.125  1.00  0.00    -0.446 C  
HETATM    8  O   UNL     1     -12.798  13.951  65.132  1.00  0.00    -0.695 OA 
BRANCH   7   9
HETATM    9  N   UNL     1     -10.884  13.299  66.221  1.00  0.00    -0.283 N  
HETATM   10  H   UNL     1     -10.091  13.665  65.694  1.00  0.00     0.000 HD 
BRANCH   9  11
HETATM   11  S   UNL     1     -10.644  11.931  67.139  1.00  0.00    -0.240 S  
HETATM   12  O   UNL     1     -11.914  11.384  67.556  1.00  0.00    -0.626 OA 
HETATM   13  O   UNL     1      -9.644  12.305  68.120  1.00  0.00    -0.203 OA 
BRANCH  11  14
HETATM   14  C   UNL     1      -9.871  10.815  65.993  1.00  0.00    -0.235 A  
HETATM   15  C   UNL     1      -9.096   9.757  66.474  1.00  0.00    -0.182 A  
HETATM   16  C   UNL     1      -8.446   8.911  65.573  1.00  0.00    -0.174 A  
HETATM   17  C   UNL     1      -8.570   9.115  64.192  1.00  0.00    -0.191 A  
HETATM   18  C   UNL     1      -9.397  10.146  63.723  1.00  0.00    -0.336 A  
HETATM   19  C   UNL     1      -7.823   8.255  63.216  1.00  0.00    -0.149 C  
HETATM   20  C   UNL     1     -10.053  10.991  64.619  1.00  0.00    -0.370 A  
ENDBRANCH  11  14
ENDBRANCH   9  11
ENDBRANCH   7   9
ENDBRANCH   5   7
ENDBRANCH   4   5
ENDBRANCH   3   4
ENDBRANCH   2   3
TORSDOF 7
ENDMDL
MODEL      102
REMARK 921   NORMALIZED FREE ENERGY PREDICTED BY IDOCK:   -4.29 KCAL/MOL
REMARK 922        TOTAL FREE ENERGY PREDICTED BY IDOCK:   -6.67 KCAL/MOL
REMARK 923 INTER-LIGAND FREE ENERGY PREDICTED BY IDOCK:   -5.60 KCAL/MOL
REMARK 924 INTRA-LIGAND FREE ENERGY PREDICTED BY IDOCK:   -1.07 KCAL/MOL
REMARK 927      BINDING AFFINITY PREDICTED BY RF-SCORE:    0.00 PKD
ROOT
HETATM    1  C   UNL     1     -10.895   6.302  68.499  1.00  0.00    -0.394 C  
HETATM    2  C   UNL     1      -9.389   6.285  68.286  1.00  0.00    -0.112 C  
ENDROOT
BRANCH   2   3
HETATM    3  C   UNL     1      -8.949   7.351  67.280  1.00  0.00    -0.128 C  
BRANCH   3   4
HETATM    4  C   UNL     1     -10.135   8.089  66.657  1.00  0.00    -0.259 C  
BRANCH   4   5
HETATM    5  N   UNL     1      -9.730   9.083  65.682  1.00  0.00    -0.462 N  
HETATM    6  H   UNL     1      -9.302   8.783  64.806  1.00  0.00     0.000 HD 
BRANCH   5   7
HETATM    7  C   UNL     1      -9.912  10.417  65.919  1.00  0.00    -0.255 C  
HETATM    8  O   UNL     1     -10.354  11.188  65.081  1.00  0.00    -0.269 OA 
BRANCH   7   9
HETATM    9  N   UNL     1      -9.568  10.796  67.203  1.00  0.00    -0.160 N  
HETATM   10  H   UNL     1      -8.599  10.668  67.495  1.00  0.00     0.000 HD 
BRANCH   9  11
HETATM   11  S   UNL     1     -10.632  11.447  68.306  1.00  0.00    -0.207 S  
HETATM   12  O   UNL     1     -11.978  11.400  67.784  1.00  0.00    -0.637 OA 
HETATM   13  O   UNL     1     -10.039  12.709  68.703  1.00  0.00    -0.206 OA 
BRANCH  11  14
HETATM   14  C   UNL     1     -10.499  10.339  69.688  1.00  0.00    -0.253 A  
HETATM   15  C   UNL     1     -11.626  10.069  70.468  1.00  0.00    -0.403 A  
HETATM   16  C   UNL     1     -11.509   9.239  71.586  1.00  0.00    -0.468 A  
HETATM   17  C   UNL     1     -10.273   8.675  71.925  1.00  0.00    -0.404 A  
HETATM   18  C   UNL     1      -9.163   8.909  71.100  1.00  0.00    -0.324 A  
HETATM   19  C   UNL     1     -10.121   7.837  73.160  1.00  0.00    -0.390 C  
HETATM   20  C   UNL     1      -9.274   9.733  69.978  1.00  0.00    -0.266 A  
ENDBRANCH  11  14
ENDBRANCH   9  11
ENDBRANCH   7   9
ENDBRANCH   5   7
ENDBRANCH   4   5
ENDBRANCH   3   4
ENDBRANCH   2   3
TORSDOF 7
ENDMDL
MODEL      103
REMARK 921   NORMALIZED FREE ENERGY PREDICTED BY IDOCK:   -4.28 KCAL/MOL
REMARK 922        TOTAL FREE ENERGY PREDICTED BY IDOCK:   -6.66 KCAL/MOL
REMARK 923 INTER-LIGAND FREE ENERGY PREDICTED BY IDOCK:   -6.05 KCAL/MOL
REMARK 924 INTRA-LIGAND FREE ENERGY PREDICTED BY IDOCK:   -0.61 KCAL/MOL
REMARK 927      BINDING AFFINITY PREDICTED BY RF-SCORE:    0.00 PKD
ROOT
HETATM    1  C   UNL     1     -13.427  15.577  72.913  1.00  0.00    -0.641 C  
HETATM    2  C   UNL     1     -11.968  15.778  72.535  1.00  0.00    -0.600 C  
ENDROOT
BRANCH   2   3
HETATM    3  C   UNL     1     -11.599  14.998  71.271  1.00  0.00    -0.384 C  
BRANCH   3   4
HETATM    4  C   UNL     1     -12.512  15.335  70.092  1.00  0.00    -0.334 C  
BRANCH   4   5
HETATM    5  N   UNL     1     -11.800  15.947  68.986  1.00  0.00    -0.438 N  
HETATM    6  H   UNL     1     -11.631  16.953  68.993  1.00  0.00     0.000 HD 
BRANCH   5   7
HETATM    7  C   UNL     1     -11.353  15.197  67.934  1.00  0.00    -0.338 C  
HETATM    8  O   UNL     1     -11.914  14.182  67.552  1.00  0.00    -0.383 OA 
BRANCH   7   9
HETATM    9  N   UNL     1     -10.219  15.717  67.337  1.00  0.00    -0.259 N  
HETATM   10  H   UNL     1     -10.331  16.215  66.454  1.00  0.00     0.000 HD 
BRANCH   9  11
HETATM   11  S   UNL     1      -8.683  15.584  67.965  1.00  0.00    -0.165 S  
HETATM   12  O   UNL     1      -7.954  14.544  67.276  1.00  0.00    -0.193 OA 
HETATM   13  O   UNL     1      -8.866  15.528  69.402  1.00  0.00    -0.243 OA 
BRANCH  11  14
HETATM   14  C   UNL     1      -7.960  17.161  67.582  1.00  0.00    -0.178 A  
HETATM   15  C   UNL     1      -7.844  18.129  68.583  1.00  0.00    -0.307 A  
HETATM   16  C   UNL     1      -7.324  19.386  68.271  1.00  0.00    -0.343 A  
HETATM   17  C   UNL     1      -6.915  19.680  66.963  1.00  0.00    -0.222 A  
HETATM   18  C   UNL     1      -6.984  18.680  65.982  1.00  0.00    -0.305 A  
HETATM   19  C   UNL     1      -6.417  21.048  66.601  1.00  0.00    -0.361 C  
HETATM   20  C   UNL     1      -7.498  17.420  66.290  1.00  0.00    -0.354 A  
ENDBRANCH  11  14
ENDBRANCH   9  11
ENDBRANCH   7   9
ENDBRANCH   5   7
ENDBRANCH   4   5
ENDBRANCH   3   4
ENDBRANCH   2   3
TORSDOF 7
ENDMDL
MODEL      104
REMARK 921   NORMALIZED FREE ENERGY PREDICTED BY IDOCK:   -4.27 KCAL/MOL
REMARK 922        TOTAL FREE ENERGY PREDICTED BY IDOCK:   -6.65 KCAL/MOL
REMARK 923 INTER-LIGAND FREE ENERGY PREDICTED BY IDOCK:   -5.67 KCAL/MOL
REMARK 924 INTRA-LIGAND FREE ENERGY PREDICTED BY IDOCK:   -0.98 KCAL/MOL
REMARK 927      BINDING AFFINITY PREDICTED BY RF-SCORE:    0.00 PKD
ROOT
HETATM    1  C   UNL     1      -8.259   7.059  67.137  1.00  0.00    -0.118 C  
HETATM    2  C   UNL     1      -9.568   6.286  67.119  1.00  0.00    -0.151 C  
ENDROOT
BRANCH   2   3
HETATM    3  C   UNL     1      -9.882   5.675  68.487  1.00  0.00    -0.185 C  
BRANCH   3   4
HETATM    4  C   UNL     1     -11.182   6.219  69.083  1.00  0.00    -0.371 C  
BRANCH   4   5
HETATM    5  N   UNL     1     -11.115   6.384  70.522  1.00  0.00    -0.302 N  
HETATM    6  H   UNL     1     -10.320   6.003  71.035  1.00  0.00     0.000 HD 
BRANCH   5   7
HETATM    7  C   UNL     1     -12.102   7.042  71.202  1.00  0.00    -0.369 C  
HETATM    8  O   UNL     1     -12.651   6.582  72.191  1.00  0.00    -0.269 OA 
BRANCH   7   9
HETATM    9  N   UNL     1     -12.394   8.285  70.672  1.00  0.00    -0.480 N  
HETATM   10  H   UNL     1     -13.205   8.362  70.058  1.00  0.00     0.000 HD 
BRANCH   9  11
HETATM   11  S   UNL     1     -11.511   9.664  70.971  1.00  0.00    -0.401 S  
HETATM   12  O   UNL     1     -10.223   9.317  71.527  1.00  0.00    -0.330 OA 
HETATM   13  O   UNL     1     -12.413  10.542  71.691  1.00  0.00    -0.383 OA 
BRANCH  11  14
HETATM   14  C   UNL     1     -11.285  10.350  69.348  1.00  0.00    -0.259 A  
HETATM   15  C   UNL     1     -11.841  11.594  69.040  1.00  0.00    -0.391 A  
HETATM   16  C   UNL     1     -11.708  12.109  67.749  1.00  0.00    -0.390 A  
HETATM   17  C   UNL     1     -11.018  11.389  66.766  1.00  0.00    -0.347 A  
HETATM   18  C   UNL     1     -10.416  10.169  67.104  1.00  0.00    -0.305 A  
HETATM   19  C   UNL     1     -10.926  11.901  65.358  1.00  0.00    -0.352 C  
HETATM   20  C   UNL     1     -10.540   9.651  68.395  1.00  0.00    -0.264 A  
ENDBRANCH  11  14
ENDBRANCH   9  11
ENDBRANCH   7   9
ENDBRANCH   5   7
ENDBRANCH   4   5
ENDBRANCH   3   4
ENDBRANCH   2   3
TORSDOF 7
ENDMDL
MODEL      105
REMARK 921   NORMALIZED FREE ENERGY PREDICTED BY IDOCK:   -4.26 KCAL/MOL
REMARK 922        TOTAL FREE ENERGY PREDICTED BY IDOCK:   -6.63 KCAL/MOL
REMARK 923 INTER-LIGAND FREE ENERGY PREDICTED BY IDOCK:   -6.11 KCAL/MOL
REMARK 924 INTRA-LIGAND FREE ENERGY PREDICTED BY IDOCK:   -0.53 KCAL/MOL
REMARK 927      BINDING AFFINITY PREDICTED BY RF-SCORE:    0.00 PKD
ROOT
HETATM    1  C   UNL     1      -9.522  20.331  67.269  1.00  0.00    -0.557 C  
HETATM    2  C   UNL     1     -10.213  19.291  68.136  1.00  0.00    -0.515 C  
ENDROOT
BRANCH   2   3
HETATM    3  C   UNL     1     -10.416  17.973  67.384  1.00  0.00    -0.399 C  
BRANCH   3   4
HETATM    4  C   UNL     1     -11.080  16.904  68.254  1.00  0.00    -0.213 C  
BRANCH   4   5
HETATM    5  N   UNL     1     -10.627  15.563  67.941  1.00  0.00    -0.267 N  
HETATM    6  H   UNL     1      -9.737  15.233  68.316  1.00  0.00     0.000 HD 
BRANCH   5   7
HETATM    7  C   UNL     1     -11.372  14.732  67.151  1.00  0.00    -0.356 C  
HETATM    8  O   UNL     1     -11.785  15.055  66.048  1.00  0.00    -0.245 OA 
BRANCH   7   9
HETATM    9  N   UNL     1     -11.587  13.489  67.716  1.00  0.00    -0.318 N  
HETATM   10  H   UNL     1     -12.506  13.301  68.117  1.00  0.00     0.000 HD 
BRANCH   9  11
HETATM   11  S   UNL     1     -10.445  12.280  67.786  1.00  0.00    -0.215 S  
HETATM   12  O   UNL     1      -9.161  12.831  68.153  1.00  0.00    -0.196 OA 
HETATM   13  O   UNL     1     -10.604  11.538  66.550  1.00  0.00    -0.239 OA 
BRANCH  11  14
HETATM   14  C   UNL     1     -11.040  11.248  69.105  1.00  0.00    -0.253 A  
HETATM   15  C   UNL     1     -11.998  11.745  69.992  1.00  0.00    -0.421 A  
HETATM   16  C   UNL     1     -12.427  10.953  71.059  1.00  0.00    -0.514 A  
HETATM   17  C   UNL     1     -11.905   9.665  71.241  1.00  0.00    -0.460 A  
HETATM   18  C   UNL     1     -10.987   9.159  70.310  1.00  0.00    -0.279 A  
HETATM   19  C   UNL     1     -12.308   8.831  72.422  1.00  0.00    -0.414 C  
HETATM   20  C   UNL     1     -10.559   9.944  69.239  1.00  0.00    -0.245 A  
ENDBRANCH  11  14
ENDBRANCH   9  11
ENDBRANCH   7   9
ENDBRANCH   5   7
ENDBRANCH   4   5
ENDBRANCH   3   4
ENDBRANCH   2   3
TORSDOF 7
ENDMDL
MODEL      106
REMARK 921   NORMALIZED FREE ENERGY PREDICTED BY IDOCK:   -4.26 KCAL/MOL
REMARK 922        TOTAL FREE ENERGY PREDICTED BY IDOCK:   -6.63 KCAL/MOL
REMARK 923 INTER-LIGAND FREE ENERGY PREDICTED BY IDOCK:   -5.89 KCAL/MOL
REMARK 924 INTRA-LIGAND FREE ENERGY PREDICTED BY IDOCK:   -0.74 KCAL/MOL
REMARK 927      BINDING AFFINITY PREDICTED BY RF-SCORE:    0.00 PKD
ROOT
HETATM    1  C   UNL     1      -9.897  16.729  68.616  1.00  0.00    -0.261 C  
HETATM    2  C   UNL     1     -10.448  17.122  67.254  1.00  0.00    -0.313 C  
ENDROOT
BRANCH   2   3
HETATM    3  C   UNL     1      -9.950  16.185  66.151  1.00  0.00    -0.357 C  
BRANCH   3   4
HETATM    4  C   UNL     1      -8.773  15.322  66.609  1.00  0.00    -0.291 C  
BRANCH   4   5
HETATM    5  N   UNL     1      -9.010  13.904  66.424  1.00  0.00    -0.470 N  
HETATM    6  H   UNL     1      -9.397  13.570  65.541  1.00  0.00     0.000 HD 
BRANCH   5   7
HETATM    7  C   UNL     1      -8.724  13.006  67.414  1.00  0.00    -0.205 C  
HETATM    8  O   UNL     1      -7.743  13.100  68.136  1.00  0.00    -0.120 OA 
BRANCH   7   9
HETATM    9  N   UNL     1      -9.665  12.000  67.527  1.00  0.00    -0.185 N  
HETATM   10  H   UNL     1      -9.424  11.078  67.164  1.00  0.00     0.000 HD 
BRANCH   9  11
HETATM   11  S   UNL     1     -11.168  12.195  68.218  1.00  0.00    -0.293 S  
HETATM   12  O   UNL     1     -12.199  11.832  67.274  1.00  0.00    -0.471 OA 
HETATM   13  O   UNL     1     -11.142  13.519  68.810  1.00  0.00    -0.246 OA 
BRANCH  11  14
HETATM   14  C   UNL     1     -11.149  11.018  69.549  1.00  0.00    -0.263 A  
HETATM   15  C   UNL     1      -9.984  10.294  69.814  1.00  0.00    -0.222 A  
HETATM   16  C   UNL     1      -9.985   9.332  70.826  1.00  0.00    -0.357 A  
HETATM   17  C   UNL     1     -11.143   9.092  71.576  1.00  0.00    -0.436 A  
HETATM   18  C   UNL     1     -12.288   9.866  71.337  1.00  0.00    -0.498 A  
HETATM   19  C   UNL     1     -11.176   8.015  72.620  1.00  0.00    -0.462 C  
HETATM   20  C   UNL     1     -12.292  10.833  70.331  1.00  0.00    -0.438 A  
ENDBRANCH  11  14
ENDBRANCH   9  11
ENDBRANCH   7   9
ENDBRANCH   5   7
ENDBRANCH   4   5
ENDBRANCH   3   4
ENDBRANCH   2   3
TORSDOF 7
ENDMDL
MODEL      107
REMARK 921   NORMALIZED FREE ENERGY PREDICTED BY IDOCK:   -4.25 KCAL/MOL
REMARK 922        TOTAL FREE ENERGY PREDICTED BY IDOCK:   -6.62 KCAL/MOL
REMARK 923 INTER-LIGAND FREE ENERGY PREDICTED BY IDOCK:   -6.03 KCAL/MOL
REMARK 924 INTRA-LIGAND FREE ENERGY PREDICTED BY IDOCK:   -0.59 KCAL/MOL
REMARK 927      BINDING AFFINITY PREDICTED BY RF-SCORE:    0.00 PKD
ROOT
HETATM    1  C   UNL     1      -9.168   6.883  68.976  1.00  0.00    -0.137 C  
HETATM    2  C   UNL     1     -10.295   6.704  67.971  1.00  0.00    -0.226 C  
ENDROOT
BRANCH   2   3
HETATM    3  C   UNL     1     -10.660   8.024  67.289  1.00  0.00    -0.360 C  
BRANCH   3   4
HETATM    4  C   UNL     1      -9.590   8.483  66.297  1.00  0.00    -0.236 C  
BRANCH   4   5
HETATM    5  N   UNL     1      -9.984   9.660  65.548  1.00  0.00    -0.362 N  
HETATM    6  H   UNL     1     -10.705   9.581  64.831  1.00  0.00     0.000 HD 
BRANCH   5   7
HETATM    7  C   UNL     1      -9.404  10.875  65.788  1.00  0.00    -0.203 C  
HETATM    8  O   UNL     1      -8.302  10.999  66.299  1.00  0.00    -0.160 OA 
BRANCH   7   9
HETATM    9  N   UNL     1     -10.181  11.941  65.372  1.00  0.00    -0.254 N  
HETATM   10  H   UNL     1      -9.883  12.452  64.541  1.00  0.00     0.000 HD 
BRANCH   9  11
HETATM   11  S   UNL     1     -11.569  12.446  66.139  1.00  0.00    -0.392 S  
HETATM   12  O   UNL     1     -11.796  11.655  67.326  1.00  0.00    -0.609 OA 
HETATM   13  O   UNL     1     -12.574  12.514  65.095  1.00  0.00    -0.631 OA 
BRANCH  11  14
HETATM   14  C   UNL     1     -11.179  14.114  66.610  1.00  0.00    -0.325 A  
HETATM   15  C   UNL     1     -11.461  14.550  67.907  1.00  0.00    -0.348 A  
HETATM   16  C   UNL     1     -11.203  15.875  68.262  1.00  0.00    -0.354 A  
HETATM   17  C   UNL     1     -10.659  16.766  67.327  1.00  0.00    -0.275 A  
HETATM   18  C   UNL     1     -10.327  16.300  66.047  1.00  0.00    -0.363 A  
HETATM   19  C   UNL     1     -10.439  18.209  67.676  1.00  0.00    -0.432 C  
HETATM   20  C   UNL     1     -10.578  14.975  65.689  1.00  0.00    -0.360 A  
ENDBRANCH  11  14
ENDBRANCH   9  11
ENDBRANCH   7   9
ENDBRANCH   5   7
ENDBRANCH   4   5
ENDBRANCH   3   4
ENDBRANCH   2   3
TORSDOF 7
ENDMDL
MODEL      108
REMARK 921   NORMALIZED FREE ENERGY PREDICTED BY IDOCK:   -4.25 KCAL/MOL
REMARK 922        TOTAL FREE ENERGY PREDICTED BY IDOCK:   -6.61 KCAL/MOL
REMARK 923 INTER-LIGAND FREE ENERGY PREDICTED BY IDOCK:   -5.70 KCAL/MOL
REMARK 924 INTRA-LIGAND FREE ENERGY PREDICTED BY IDOCK:   -0.91 KCAL/MOL
REMARK 927      BINDING AFFINITY PREDICTED BY RF-SCORE:    0.00 PKD
ROOT
HETATM    1  C   UNL     1      -8.481   6.523  68.714  1.00  0.00    -0.122 C  
HETATM    2  C   UNL     1      -8.700   6.298  70.202  1.00  0.00    -0.138 C  
ENDROOT
BRANCH   2   3
HETATM    3  C   UNL     1      -8.555   7.597  70.998  1.00  0.00    -0.131 C  
BRANCH   3   4
HETATM    4  C   UNL     1      -9.188   7.501  72.387  1.00  0.00    -0.147 C  
BRANCH   4   5
HETATM    5  N   UNL     1      -9.729   6.186  72.669  1.00  0.00    -0.156 N  
HETATM    6  H   UNL     1      -9.131   5.365  72.574  1.00  0.00     0.000 HD 
BRANCH   5   7
HETATM    7  C   UNL     1     -11.030   6.028  73.061  1.00  0.00    -0.257 C  
HETATM    8  O   UNL     1     -11.462   4.988  73.533  1.00  0.00    -0.286 OA 
BRANCH   7   9
HETATM    9  N   UNL     1     -11.793   7.168  72.891  1.00  0.00    -0.522 N  
HETATM   10  H   UNL     1     -11.762   7.877  73.624  1.00  0.00     0.000 HD 
BRANCH   9  11
HETATM   11  S   UNL     1     -12.761   7.460  71.568  1.00  0.00    -0.373 S  
HETATM   12  O   UNL     1     -14.142   7.190  71.894  1.00  0.00    -0.340 OA 
HETATM   13  O   UNL     1     -12.114   6.771  70.468  1.00  0.00    -0.386 OA 
BRANCH  11  14
HETATM   14  C   UNL     1     -12.550   9.203  71.299  1.00  0.00    -0.288 A  
HETATM   15  C   UNL     1     -13.272  10.114  72.075  1.00  0.00    -0.534 A  
HETATM   16  C   UNL     1     -13.146  11.483  71.828  1.00  0.00    -0.503 A  
HETATM   17  C   UNL     1     -12.298  11.946  70.813  1.00  0.00    -0.416 A  
HETATM   18  C   UNL     1     -11.537  11.024  70.082  1.00  0.00    -0.421 A  
HETATM   19  C   UNL     1     -12.206  13.410  70.495  1.00  0.00    -0.425 C  
HETATM   20  C   UNL     1     -11.654   9.655  70.327  1.00  0.00    -0.255 A  
ENDBRANCH  11  14
ENDBRANCH   9  11
ENDBRANCH   7   9
ENDBRANCH   5   7
ENDBRANCH   4   5
ENDBRANCH   3   4
ENDBRANCH   2   3
TORSDOF 7
ENDMDL
MODEL      109
REMARK 921   NORMALIZED FREE ENERGY PREDICTED BY IDOCK:   -4.24 KCAL/MOL
REMARK 922        TOTAL FREE ENERGY PREDICTED BY IDOCK:   -6.60 KCAL/MOL
REMARK 923 INTER-LIGAND FREE ENERGY PREDICTED BY IDOCK:   -6.32 KCAL/MOL
REMARK 924 INTRA-LIGAND FREE ENERGY PREDICTED BY IDOCK:   -0.28 KCAL/MOL
REMARK 927      BINDING AFFINITY PREDICTED BY RF-SCORE:    0.00 PKD
ROOT
HETATM    1  C   UNL     1     -10.338  19.701  66.474  1.00  0.00    -0.601 C  
HETATM    2  C   UNL     1     -10.297  18.890  67.760  1.00  0.00    -0.490 C  
ENDROOT
BRANCH   2   3
HETATM    3  C   UNL     1     -10.519  17.399  67.495  1.00  0.00    -0.354 C  
BRANCH   3   4
HETATM    4  C   UNL     1      -9.258  16.570  67.746  1.00  0.00    -0.202 C  
BRANCH   4   5
HETATM    5  N   UNL     1      -9.109  16.179  69.134  1.00  0.00    -0.252 N  
HETATM    6  H   UNL     1      -8.238  16.384  69.623  1.00  0.00     0.000 HD 
BRANCH   5   7
HETATM    7  C   UNL     1     -10.118  15.540  69.799  1.00  0.00    -0.285 C  
HETATM    8  O   UNL     1     -10.801  16.081  70.655  1.00  0.00    -0.291 OA 
BRANCH   7   9
HETATM    9  N   UNL     1     -10.300  14.233  69.388  1.00  0.00    -0.430 N  
HETATM   10  H   UNL     1      -9.470  13.685  69.159  1.00  0.00     0.000 HD 
BRANCH   9  11
HETATM   11  S   UNL     1     -11.784  13.493  69.242  1.00  0.00    -0.347 S  
HETATM   12  O   UNL     1     -12.836  14.416  69.599  1.00  0.00    -0.058 OA 
HETATM   13  O   UNL     1     -11.646  12.228  69.938  1.00  0.00    -0.276 OA 
BRANCH  11  14
HETATM   14  C   UNL     1     -11.880  13.135  67.504  1.00  0.00    -0.360 A  
HETATM   15  C   UNL     1     -12.596  13.989  66.662  1.00  0.00    -0.146 A  
HETATM   16  C   UNL     1     -12.715  13.680  65.305  1.00  0.00    -0.478 A  
HETATM   17  C   UNL     1     -12.119  12.523  64.786  1.00  0.00    -0.497 A  
HETATM   18  C   UNL     1     -11.357  11.705  65.632  1.00  0.00    -0.233 A  
HETATM   19  C   UNL     1     -12.297  12.145  63.345  1.00  0.00    -0.648 C  
HETATM   20  C   UNL     1     -11.229  12.012  66.988  1.00  0.00    -0.377 A  
ENDBRANCH  11  14
ENDBRANCH   9  11
ENDBRANCH   7   9
ENDBRANCH   5   7
ENDBRANCH   4   5
ENDBRANCH   3   4
ENDBRANCH   2   3
TORSDOF 7
ENDMDL
MODEL      110
REMARK 921   NORMALIZED FREE ENERGY PREDICTED BY IDOCK:   -4.23 KCAL/MOL
REMARK 922        TOTAL FREE ENERGY PREDICTED BY IDOCK:   -6.59 KCAL/MOL
REMARK 923 INTER-LIGAND FREE ENERGY PREDICTED BY IDOCK:   -6.02 KCAL/MOL
REMARK 924 INTRA-LIGAND FREE ENERGY PREDICTED BY IDOCK:   -0.57 KCAL/MOL
REMARK 927      BINDING AFFINITY PREDICTED BY RF-SCORE:    0.00 PKD
ROOT
HETATM    1  C   UNL     1     -10.238   5.081  69.974  1.00  0.00    -0.339 C  
HETATM    2  C   UNL     1      -8.800   5.571  69.914  1.00  0.00    -0.137 C  
ENDROOT
BRANCH   2   3
HETATM    3  C   UNL     1      -8.723   7.054  69.541  1.00  0.00    -0.134 C  
BRANCH   3   4
HETATM    4  C   UNL     1      -9.850   7.475  68.596  1.00  0.00    -0.165 C  
BRANCH   4   5
HETATM    5  N   UNL     1     -10.243   8.859  68.771  1.00  0.00    -0.202 N  
HETATM    6  H   UNL     1     -10.093   9.524  68.012  1.00  0.00     0.000 HD 
BRANCH   5   7
HETATM    7  C   UNL     1     -10.813   9.289  69.938  1.00  0.00    -0.234 C  
HETATM    8  O   UNL     1     -11.354   8.536  70.732  1.00  0.00    -0.265 OA 
BRANCH   7   9
HETATM    9  N   UNL     1     -10.692  10.652  70.134  1.00  0.00    -0.463 N  
HETATM   10  H   UNL     1     -10.237  10.972  70.990  1.00  0.00     0.000 HD 
BRANCH   9  11
HETATM   11  S   UNL     1     -11.239  11.806  69.066  1.00  0.00    -0.282 S  
HETATM   12  O   UNL     1     -12.209  11.228  68.165  1.00  0.00    -0.622 OA 
HETATM   13  O   UNL     1     -10.042  12.443  68.552  1.00  0.00    -0.221 OA 
BRANCH  11  14
HETATM   14  C   UNL     1     -12.049  12.977  70.128  1.00  0.00    -0.307 A  
HETATM   15  C   UNL     1     -12.760  12.524  71.242  1.00  0.00    -0.350 A  
HETATM   16  C   UNL     1     -13.441  13.440  72.047  1.00  0.00    -0.584 A  
HETATM   17  C   UNL     1     -13.410  14.808  71.746  1.00  0.00    -0.444 A  
HETATM   18  C   UNL     1     -12.645  15.254  70.659  1.00  0.00    -0.471 A  
HETATM   19  C   UNL     1     -14.191  15.794  72.564  1.00  0.00    -0.406 C  
HETATM   20  C   UNL     1     -11.959  14.344  69.854  1.00  0.00    -0.391 A  
ENDBRANCH  11  14
ENDBRANCH   9  11
ENDBRANCH   7   9
ENDBRANCH   5   7
ENDBRANCH   4   5
ENDBRANCH   3   4
ENDBRANCH   2   3
TORSDOF 7
ENDMDL
MODEL      111
REMARK 921   NORMALIZED FREE ENERGY PREDICTED BY IDOCK:   -4.22 KCAL/MOL
REMARK 922        TOTAL FREE ENERGY PREDICTED BY IDOCK:   -6.57 KCAL/MOL
REMARK 923 INTER-LIGAND FREE ENERGY PREDICTED BY IDOCK:   -5.90 KCAL/MOL
REMARK 924 INTRA-LIGAND FREE ENERGY PREDICTED BY IDOCK:   -0.67 KCAL/MOL
REMARK 927      BINDING AFFINITY PREDICTED BY RF-SCORE:    0.00 PKD
ROOT
HETATM    1  C   UNL     1     -14.288  14.143  72.172  1.00  0.00    -0.606 C  
HETATM    2  C   UNL     1     -12.977  13.488  71.764  1.00  0.00    -0.439 C  
ENDROOT
BRANCH   2   3
HETATM    3  C   UNL     1     -13.094  11.963  71.728  1.00  0.00    -0.465 C  
BRANCH   3   4
HETATM    4  C   UNL     1     -12.267  11.342  70.602  1.00  0.00    -0.389 C  
BRANCH   4   5
HETATM    5  N   UNL     1     -11.390  12.299  69.955  1.00  0.00    -0.507 N  
HETATM    6  H   UNL     1     -10.642  12.738  70.492  1.00  0.00     0.000 HD 
BRANCH   5   7
HETATM    7  C   UNL     1     -11.549  12.622  68.636  1.00  0.00    -0.316 C  
HETATM    8  O   UNL     1     -12.263  11.988  67.875  1.00  0.00    -0.470 OA 
BRANCH   7   9
HETATM    9  N   UNL     1     -10.839  13.748  68.261  1.00  0.00    -0.243 N  
HETATM   10  H   UNL     1     -10.333  13.720  67.376  1.00  0.00     0.000 HD 
BRANCH   9  11
HETATM   11  S   UNL     1     -10.756  15.147  69.160  1.00  0.00    -0.265 S  
HETATM   12  O   UNL     1     -10.086  14.892  70.414  1.00  0.00     0.115 OA 
HETATM   13  O   UNL     1     -12.101  15.689  69.139  1.00  0.00    -0.344 OA 
BRANCH  11  14
HETATM   14  C   UNL     1      -9.742  16.204  68.156  1.00  0.00    -0.222 A  
HETATM   15  C   UNL     1      -8.899  15.643  67.193  1.00  0.00    -0.228 A  
HETATM   16  C   UNL     1      -8.064  16.470  66.440  1.00  0.00    -0.362 A  
HETATM   17  C   UNL     1      -8.069  17.856  66.641  1.00  0.00    -0.281 A  
HETATM   18  C   UNL     1      -8.960  18.411  67.571  1.00  0.00    -0.271 A  
HETATM   19  C   UNL     1      -7.128  18.748  65.886  1.00  0.00    -0.290 C  
HETATM   20  C   UNL     1      -9.802  17.590  68.322  1.00  0.00    -0.319 A  
ENDBRANCH  11  14
ENDBRANCH   9  11
ENDBRANCH   7   9
ENDBRANCH   5   7
ENDBRANCH   4   5
ENDBRANCH   3   4
ENDBRANCH   2   3
TORSDOF 7
ENDMDL
MODEL      112
REMARK 921   NORMALIZED FREE ENERGY PREDICTED BY IDOCK:   -4.21 KCAL/MOL
REMARK 922        TOTAL FREE ENERGY PREDICTED BY IDOCK:   -6.55 KCAL/MOL
REMARK 923 INTER-LIGAND FREE ENERGY PREDICTED BY IDOCK:   -5.55 KCAL/MOL
REMARK 924 INTRA-LIGAND FREE ENERGY PREDICTED BY IDOCK:   -1.01 KCAL/MOL
REMARK 927      BINDING AFFINITY PREDICTED BY RF-SCORE:    0.00 PKD
ROOT
HETATM    1  C   UNL     1     -11.224  11.128  67.615  1.00  0.00    -0.364 C  
HETATM    2  C   UNL     1     -11.543  11.974  66.393  1.00  0.00    -0.381 C  
ENDROOT
BRANCH   2   3
HETATM    3  C   UNL     1     -10.306  12.718  65.882  1.00  0.00    -0.298 C  
BRANCH   3   4
HETATM    4  C   UNL     1      -9.339  13.081  67.010  1.00  0.00    -0.236 C  
BRANCH   4   5
HETATM    5  N   UNL     1      -8.757  14.399  66.849  1.00  0.00    -0.320 N  
HETATM    6  H   UNL     1      -8.737  14.830  65.924  1.00  0.00     0.000 HD 
BRANCH   5   7
HETATM    7  C   UNL     1      -8.233  15.074  67.916  1.00  0.00    -0.141 C  
HETATM    8  O   UNL     1      -7.401  14.591  68.668  1.00  0.00    -0.113 OA 
BRANCH   7   9
HETATM    9  N   UNL     1      -8.723  16.361  68.041  1.00  0.00    -0.181 N  
HETATM   10  H   UNL     1      -8.069  17.095  68.314  1.00  0.00     0.000 HD 
BRANCH   9  11
HETATM   11  S   UNL     1     -10.309  16.791  67.774  1.00  0.00    -0.328 S  
HETATM   12  O   UNL     1     -10.729  16.352  66.463  1.00  0.00    -0.270 OA 
HETATM   13  O   UNL     1     -10.387  18.192  68.143  1.00  0.00    -0.364 OA 
BRANCH  11  14
HETATM   14  C   UNL     1     -11.185  15.866  69.012  1.00  0.00    -0.327 A  
HETATM   15  C   UNL     1     -11.168  16.301  70.340  1.00  0.00    -0.336 A  
HETATM   16  C   UNL     1     -11.812  15.545  71.322  1.00  0.00    -0.453 A  
HETATM   17  C   UNL     1     -12.477  14.360  70.982  1.00  0.00    -0.425 A  
HETATM   18  C   UNL     1     -12.534  13.966  69.637  1.00  0.00    -0.192 A  
HETATM   19  C   UNL     1     -13.116  13.505  72.038  1.00  0.00    -0.481 C  
HETATM   20  C   UNL     1     -11.897  14.720  68.651  1.00  0.00    -0.334 A  
ENDBRANCH  11  14
ENDBRANCH   9  11
ENDBRANCH   7   9
ENDBRANCH   5   7
ENDBRANCH   4   5
ENDBRANCH   3   4
ENDBRANCH   2   3
TORSDOF 7
ENDMDL
MODEL      113
REMARK 921   NORMALIZED FREE ENERGY PREDICTED BY IDOCK:   -4.19 KCAL/MOL
REMARK 922        TOTAL FREE ENERGY PREDICTED BY IDOCK:   -6.53 KCAL/MOL
REMARK 923 INTER-LIGAND FREE ENERGY PREDICTED BY IDOCK:   -5.63 KCAL/MOL
REMARK 924 INTRA-LIGAND FREE ENERGY PREDICTED BY IDOCK:   -0.90 KCAL/MOL
REMARK 927      BINDING AFFINITY PREDICTED BY RF-SCORE:    0.00 PKD
ROOT
HETATM    1  C   UNL     1      -9.686   4.375  70.023  1.00  0.00    -0.286 C  
HETATM    2  C   UNL     1      -9.296   5.010  71.348  1.00  0.00    -0.194 C  
ENDROOT
BRANCH   2   3
HETATM    3  C   UNL     1     -10.514   5.239  72.246  1.00  0.00    -0.273 C  
BRANCH   3   4
HETATM    4  C   UNL     1     -10.182   6.092  73.470  1.00  0.00    -0.227 C  
BRANCH   4   5
HETATM    5  N   UNL     1     -10.457   7.501  73.265  1.00  0.00    -0.361 N  
HETATM    6  H   UNL     1     -11.375   7.875  73.508  1.00  0.00     0.000 HD 
BRANCH   5   7
HETATM    7  C   UNL     1      -9.506   8.338  72.752  1.00  0.00    -0.273 C  
HETATM    8  O   UNL     1      -8.359   8.380  73.170  1.00  0.00    -0.298 OA 
BRANCH   7   9
HETATM    9  N   UNL     1      -9.967   9.110  71.702  1.00  0.00    -0.305 N  
HETATM   10  H   UNL     1      -9.304   9.733  71.240  1.00  0.00     0.000 HD 
BRANCH   9  11
HETATM   11  S   UNL     1     -11.534   9.089  71.140  1.00  0.00    -0.332 S  
HETATM   12  O   UNL     1     -12.455   9.319  72.230  1.00  0.00    -0.360 OA 
HETATM   13  O   UNL     1     -11.631   7.888  70.334  1.00  0.00    -0.211 OA 
BRANCH  11  14
HETATM   14  C   UNL     1     -11.577  10.477  70.032  1.00  0.00    -0.313 A  
HETATM   15  C   UNL     1     -12.039  11.713  70.490  1.00  0.00    -0.458 A  
HETATM   16  C   UNL     1     -12.122  12.790  69.605  1.00  0.00    -0.286 A  
HETATM   17  C   UNL     1     -11.741  12.639  68.266  1.00  0.00    -0.389 A  
HETATM   18  C   UNL     1     -11.225  11.409  67.834  1.00  0.00    -0.352 A  
HETATM   19  C   UNL     1     -11.889  13.770  67.290  1.00  0.00    -0.436 C  
HETATM   20  C   UNL     1     -11.135  10.330  68.715  1.00  0.00    -0.276 A  
ENDBRANCH  11  14
ENDBRANCH   9  11
ENDBRANCH   7   9
ENDBRANCH   5   7
ENDBRANCH   4   5
ENDBRANCH   3   4
ENDBRANCH   2   3
TORSDOF 7
ENDMDL
MODEL      114
REMARK 921   NORMALIZED FREE ENERGY PREDICTED BY IDOCK:   -4.19 KCAL/MOL
REMARK 922        TOTAL FREE ENERGY PREDICTED BY IDOCK:   -6.53 KCAL/MOL
REMARK 923 INTER-LIGAND FREE ENERGY PREDICTED BY IDOCK:   -5.94 KCAL/MOL
REMARK 924 INTRA-LIGAND FREE ENERGY PREDICTED BY IDOCK:   -0.59 KCAL/MOL
REMARK 927      BINDING AFFINITY PREDICTED BY RF-SCORE:    0.00 PKD
ROOT
HETATM    1  C   UNL     1      -7.667  19.017  65.976  1.00  0.00    -0.252 C  
HETATM    2  C   UNL     1      -8.453  20.054  66.763  1.00  0.00    -0.380 C  
ENDROOT
BRANCH   2   3
HETATM    3  C   UNL     1      -9.962  19.832  66.641  1.00  0.00    -0.556 C  
BRANCH   3   4
HETATM    4  C   UNL     1     -10.527  19.023  67.810  1.00  0.00    -0.417 C  
BRANCH   4   5
HETATM    5  N   UNL     1     -10.712  17.622  67.486  1.00  0.00    -0.335 N  
HETATM    6  H   UNL     1     -10.662  17.320  66.513  1.00  0.00     0.000 HD 
BRANCH   5   7
HETATM    7  C   UNL     1     -10.953  16.698  68.464  1.00  0.00    -0.339 C  
HETATM    8  O   UNL     1     -10.619  16.856  69.628  1.00  0.00    -0.301 OA 
BRANCH   7   9
HETATM    9  N   UNL     1     -11.631  15.583  68.007  1.00  0.00    -0.317 N  
HETATM   10  H   UNL     1     -12.588  15.441  68.330  1.00  0.00     0.000 HD 
BRANCH   9  11
HETATM   11  S   UNL     1     -10.987  14.457  66.963  1.00  0.00    -0.312 S  
HETATM   12  O   UNL     1      -9.592  14.744  66.722  1.00  0.00    -0.233 OA 
HETATM   13  O   UNL     1     -11.926  14.384  65.860  1.00  0.00    -0.377 OA 
BRANCH  11  14
HETATM   14  C   UNL     1     -11.126  12.941  67.879  1.00  0.00    -0.252 A  
HETATM   15  C   UNL     1     -11.534  12.976  69.215  1.00  0.00    -0.348 A  
HETATM   16  C   UNL     1     -11.593  11.790  69.950  1.00  0.00    -0.351 A  
HETATM   17  C   UNL     1     -11.249  10.569  69.355  1.00  0.00    -0.327 A  
HETATM   18  C   UNL     1     -10.896  10.542  67.998  1.00  0.00    -0.312 A  
HETATM   19  C   UNL     1     -11.243   9.298  70.153  1.00  0.00    -0.237 C  
HETATM   20  C   UNL     1     -10.841  11.723  67.257  1.00  0.00    -0.300 A  
ENDBRANCH  11  14
ENDBRANCH   9  11
ENDBRANCH   7   9
ENDBRANCH   5   7
ENDBRANCH   4   5
ENDBRANCH   3   4
ENDBRANCH   2   3
TORSDOF 7
ENDMDL
MODEL      115
REMARK 921   NORMALIZED FREE ENERGY PREDICTED BY IDOCK:   -4.19 KCAL/MOL
REMARK 922        TOTAL FREE ENERGY PREDICTED BY IDOCK:   -6.53 KCAL/MOL
REMARK 923 INTER-LIGAND FREE ENERGY PREDICTED BY IDOCK:   -5.93 KCAL/MOL
REMARK 924 INTRA-LIGAND FREE ENERGY PREDICTED BY IDOCK:   -0.59 KCAL/MOL
REMARK 927      BINDING AFFINITY PREDICTED BY RF-SCORE:    0.00 PKD
ROOT
HETATM    1  C   UNL     1     -11.783   6.563  70.618  1.00  0.00    -0.436 C  
HETATM    2  C   UNL     1     -12.737   7.111  71.668  1.00  0.00    -0.415 C  
ENDROOT
BRANCH   2   3
HETATM    3  C   UNL     1     -12.799   8.640  71.633  1.00  0.00    -0.380 C  
BRANCH   3   4
HETATM    4  C   UNL     1     -11.410   9.277  71.572  1.00  0.00    -0.385 C  
BRANCH   4   5
HETATM    5  N   UNL     1     -11.288  10.260  70.513  1.00  0.00    -0.323 N  
HETATM    6  H   UNL     1     -12.042  10.930  70.360  1.00  0.00     0.000 HD 
BRANCH   5   7
HETATM    7  C   UNL     1     -10.178  10.304  69.716  1.00  0.00    -0.220 C  
HETATM    8  O   UNL     1      -9.428   9.352  69.563  1.00  0.00    -0.162 OA 
BRANCH   7   9
HETATM    9  N   UNL     1     -10.007  11.522  69.086  1.00  0.00    -0.416 N  
HETATM   10  H   UNL     1      -9.297  12.155  69.456  1.00  0.00     0.000 HD 
BRANCH   9  11
HETATM   11  S   UNL     1     -10.884  12.026  67.763  1.00  0.00    -0.228 S  
HETATM   12  O   UNL     1     -12.273  11.661  67.920  1.00  0.00    -0.560 OA 
HETATM   13  O   UNL     1     -10.127  11.570  66.613  1.00  0.00    -0.203 OA 
BRANCH  11  14
HETATM   14  C   UNL     1     -10.729  13.794  67.834  1.00  0.00    -0.247 A  
HETATM   15  C   UNL     1     -11.624  14.535  68.611  1.00  0.00    -0.346 A  
HETATM   16  C   UNL     1     -11.535  15.929  68.625  1.00  0.00    -0.391 A  
HETATM   17  C   UNL     1     -10.554  16.585  67.870  1.00  0.00    -0.329 A  
HETATM   18  C   UNL     1      -9.628  15.826  67.141  1.00  0.00    -0.224 A  
HETATM   19  C   UNL     1     -10.492  18.084  67.825  1.00  0.00    -0.421 C  
HETATM   20  C   UNL     1      -9.708  14.432  67.127  1.00  0.00    -0.248 A  
ENDBRANCH  11  14
ENDBRANCH   9  11
ENDBRANCH   7   9
ENDBRANCH   5   7
ENDBRANCH   4   5
ENDBRANCH   3   4
ENDBRANCH   2   3
TORSDOF 7
ENDMDL
MODEL      116
REMARK 921   NORMALIZED FREE ENERGY PREDICTED BY IDOCK:   -4.18 KCAL/MOL
REMARK 922        TOTAL FREE ENERGY PREDICTED BY IDOCK:   -6.51 KCAL/MOL
REMARK 923 INTER-LIGAND FREE ENERGY PREDICTED BY IDOCK:   -5.76 KCAL/MOL
REMARK 924 INTRA-LIGAND FREE ENERGY PREDICTED BY IDOCK:   -0.75 KCAL/MOL
REMARK 927      BINDING AFFINITY PREDICTED BY RF-SCORE:    0.00 PKD
ROOT
HETATM    1  C   UNL     1     -11.807  15.011  71.857  1.00  0.00    -0.455 C  
HETATM    2  C   UNL     1     -11.904  14.539  70.415  1.00  0.00    -0.378 C  
ENDROOT
BRANCH   2   3
HETATM    3  C   UNL     1     -11.619  15.674  69.428  1.00  0.00    -0.378 C  
BRANCH   3   4
HETATM    4  C   UNL     1     -11.293  15.158  68.026  1.00  0.00    -0.337 C  
BRANCH   4   5
HETATM    5  N   UNL     1     -12.379  14.394  67.442  1.00  0.00    -0.600 N  
HETATM    6  H   UNL     1     -13.232  14.241  67.980  1.00  0.00     0.000 HD 
BRANCH   5   7
HETATM    7  C   UNL     1     -12.277  13.876  66.181  1.00  0.00    -0.464 C  
HETATM    8  O   UNL     1     -13.117  14.062  65.314  1.00  0.00    -0.782 OA 
BRANCH   7   9
HETATM    9  N   UNL     1     -11.121  13.145  65.983  1.00  0.00    -0.278 N  
HETATM   10  H   UNL     1     -10.366  13.581  65.452  1.00  0.00     0.000 HD 
BRANCH   9  11
HETATM   11  S   UNL     1     -10.878  11.600  66.554  1.00  0.00    -0.292 S  
HETATM   12  O   UNL     1     -10.691  10.687  65.450  1.00  0.00    -0.171 OA 
HETATM   13  O   UNL     1     -11.938  11.384  67.519  1.00  0.00    -0.626 OA 
BRANCH  11  14
HETATM   14  C   UNL     1      -9.357  11.746  67.459  1.00  0.00    -0.174 A  
HETATM   15  C   UNL     1      -8.832  10.628  68.113  1.00  0.00    -0.134 A  
HETATM   16  C   UNL     1      -7.664  10.756  68.868  1.00  0.00    -0.129 A  
HETATM   17  C   UNL     1      -7.016  11.994  68.970  1.00  0.00    -0.094 A  
HETATM   18  C   UNL     1      -7.523  13.093  68.262  1.00  0.00    -0.129 A  
HETATM   19  C   UNL     1      -5.799  12.157  69.832  1.00  0.00    -0.140 C  
HETATM   20  C   UNL     1      -8.686  12.971  67.501  1.00  0.00    -0.197 A  
ENDBRANCH  11  14
ENDBRANCH   9  11
ENDBRANCH   7   9
ENDBRANCH   5   7
ENDBRANCH   4   5
ENDBRANCH   3   4
ENDBRANCH   2   3
TORSDOF 7
ENDMDL
MODEL      117
REMARK 921   NORMALIZED FREE ENERGY PREDICTED BY IDOCK:   -4.17 KCAL/MOL
REMARK 922        TOTAL FREE ENERGY PREDICTED BY IDOCK:   -6.50 KCAL/MOL
REMARK 923 INTER-LIGAND FREE ENERGY PREDICTED BY IDOCK:   -5.96 KCAL/MOL
REMARK 924 INTRA-LIGAND FREE ENERGY PREDICTED BY IDOCK:   -0.55 KCAL/MOL
REMARK 927      BINDING AFFINITY PREDICTED BY RF-SCORE:    0.00 PKD
ROOT
HETATM    1  C   UNL     1     -10.447  19.347  66.442  1.00  0.00    -0.581 C  
HETATM    2  C   UNL     1     -10.200  18.372  67.583  1.00  0.00    -0.399 C  
ENDROOT
BRANCH   2   3
HETATM    3  C   UNL     1     -10.404  16.921  67.142  1.00  0.00    -0.304 C  
BRANCH   3   4
HETATM    4  C   UNL     1      -9.176  16.051  67.417  1.00  0.00    -0.208 C  
BRANCH   4   5
HETATM    5  N   UNL     1      -9.294  15.284  68.642  1.00  0.00    -0.192 N  
HETATM    6  H   UNL     1      -8.623  15.435  69.396  1.00  0.00     0.000 HD 
BRANCH   5   7
HETATM    7  C   UNL     1     -10.290  14.362  68.804  1.00  0.00    -0.241 C  
HETATM    8  O   UNL     1     -11.155  14.457  69.660  1.00  0.00    -0.250 OA 
BRANCH   7   9
HETATM    9  N   UNL     1     -10.230  13.328  67.887  1.00  0.00    -0.227 N  
HETATM   10  H   UNL     1      -9.340  12.843  67.773  1.00  0.00     0.000 HD 
BRANCH   9  11
HETATM   11  S   UNL     1     -11.515  12.824  66.956  1.00  0.00    -0.360 S  
HETATM   12  O   UNL     1     -12.213  13.967  66.413  1.00  0.00    -0.435 OA 
HETATM   13  O   UNL     1     -12.215  11.853  67.774  1.00  0.00    -0.508 OA 
BRANCH  11  14
HETATM   14  C   UNL     1     -10.725  11.936  65.636  1.00  0.00    -0.280 A  
HETATM   15  C   UNL     1     -11.109  12.176  64.315  1.00  0.00    -0.403 A  
HETATM   16  C   UNL     1     -10.526  11.440  63.281  1.00  0.00    -0.397 A  
HETATM   17  C   UNL     1      -9.556  10.468  63.562  1.00  0.00    -0.374 A  
HETATM   18  C   UNL     1      -9.139  10.278  64.888  1.00  0.00    -0.250 A  
HETATM   19  C   UNL     1      -8.971   9.625  62.467  1.00  0.00    -0.280 C  
HETATM   20  C   UNL     1      -9.715  11.014  65.924  1.00  0.00    -0.267 A  
ENDBRANCH  11  14
ENDBRANCH   9  11
ENDBRANCH   7   9
ENDBRANCH   5   7
ENDBRANCH   4   5
ENDBRANCH   3   4
ENDBRANCH   2   3
TORSDOF 7
ENDMDL
MODEL      118
REMARK 921   NORMALIZED FREE ENERGY PREDICTED BY IDOCK:   -4.16 KCAL/MOL
REMARK 922        TOTAL FREE ENERGY PREDICTED BY IDOCK:   -6.49 KCAL/MOL
REMARK 923 INTER-LIGAND FREE ENERGY PREDICTED BY IDOCK:   -5.80 KCAL/MOL
REMARK 924 INTRA-LIGAND FREE ENERGY PREDICTED BY IDOCK:   -0.68 KCAL/MOL
REMARK 927      BINDING AFFINITY PREDICTED BY RF-SCORE:    0.00 PKD
ROOT
HETATM    1  C   UNL     1      -7.943   8.430  65.659  1.00  0.00    -0.115 C  
HETATM    2  C   UNL     1      -8.505   9.818  65.919  1.00  0.00    -0.136 C  
ENDROOT
BRANCH   2   3
HETATM    3  C   UNL     1      -9.921   9.757  66.496  1.00  0.00    -0.304 C  
BRANCH   3   4
HETATM    4  C   UNL     1     -10.701  11.051  66.264  1.00  0.00    -0.212 C  
BRANCH   4   5
HETATM    5  N   UNL     1      -9.911  12.073  65.605  1.00  0.00    -0.244 N  
HETATM    6  H   UNL     1      -9.040  12.389  66.032  1.00  0.00     0.000 HD 
BRANCH   5   7
HETATM    7  C   UNL     1     -10.314  12.621  64.419  1.00  0.00    -0.360 C  
HETATM    8  O   UNL     1     -10.725  11.955  63.482  1.00  0.00    -0.384 OA 
BRANCH   7   9
HETATM    9  N   UNL     1     -10.232  14.001  64.400  1.00  0.00    -0.598 N  
HETATM   10  H   UNL     1      -9.455  14.425  63.892  1.00  0.00     0.000 HD 
BRANCH   9  11
HETATM   11  S   UNL     1     -11.318  15.016  65.150  1.00  0.00    -0.355 S  
HETATM   12  O   UNL     1     -11.959  14.331  66.248  1.00  0.00    -0.396 OA 
HETATM   13  O   UNL     1     -12.106  15.587  64.075  1.00  0.00    -0.583 OA 
BRANCH  11  14
HETATM   14  C   UNL     1     -10.278  16.307  65.790  1.00  0.00    -0.367 A  
HETATM   15  C   UNL     1     -10.770  17.611  65.877  1.00  0.00    -0.113 A  
HETATM   16  C   UNL     1      -9.935  18.635  66.330  1.00  0.00    -0.398 A  
HETATM   17  C   UNL     1      -8.612  18.360  66.701  1.00  0.00    -0.289 A  
HETATM   18  C   UNL     1      -8.150  17.037  66.663  1.00  0.00    -0.297 A  
HETATM   19  C   UNL     1      -7.687  19.462  67.126  1.00  0.00    -0.272 C  
HETATM   20  C   UNL     1      -8.981  16.008  66.216  1.00  0.00    -0.380 A  
ENDBRANCH  11  14
ENDBRANCH   9  11
ENDBRANCH   7   9
ENDBRANCH   5   7
ENDBRANCH   4   5
ENDBRANCH   3   4
ENDBRANCH   2   3
TORSDOF 7
ENDMDL
MODEL      119
REMARK 921   NORMALIZED FREE ENERGY PREDICTED BY IDOCK:   -4.16 KCAL/MOL
REMARK 922        TOTAL FREE ENERGY PREDICTED BY IDOCK:   -6.49 KCAL/MOL
REMARK 923 INTER-LIGAND FREE ENERGY PREDICTED BY IDOCK:   -5.55 KCAL/MOL
REMARK 924 INTRA-LIGAND FREE ENERGY PREDICTED BY IDOCK:   -0.94 KCAL/MOL
REMARK 927      BINDING AFFINITY PREDICTED BY RF-SCORE:    0.00 PKD
ROOT
HETATM    1  C   UNL     1     -10.759  12.284  63.532  1.00  0.00    -0.497 C  
HETATM    2  C   UNL     1     -10.777  11.130  64.522  1.00  0.00    -0.368 C  
ENDROOT
BRANCH   2   3
HETATM    3  C   UNL     1      -9.450  10.367  64.525  1.00  0.00    -0.342 C  
BRANCH   3   4
HETATM    4  C   UNL     1      -8.840  10.268  65.924  1.00  0.00    -0.159 C  
BRANCH   4   5
HETATM    5  N   UNL     1      -9.650  10.913  66.939  1.00  0.00    -0.176 N  
HETATM    6  H   UNL     1     -10.635  10.661  67.030  1.00  0.00     0.000 HD 
BRANCH   5   7
HETATM    7  C   UNL     1      -9.117  11.852  67.776  1.00  0.00    -0.180 C  
HETATM    8  O   UNL     1      -8.024  12.366  67.593  1.00  0.00    -0.140 OA 
BRANCH   7   9
HETATM    9  N   UNL     1      -9.948  12.176  68.833  1.00  0.00    -0.422 N  
HETATM   10  H   UNL     1      -9.616  11.981  69.778  1.00  0.00     0.000 HD 
BRANCH   9  11
HETATM   11  S   UNL     1     -11.455  12.863  68.664  1.00  0.00    -0.331 S  
HETATM   12  O   UNL     1     -12.042  13.096  69.964  1.00  0.00    -0.325 OA 
HETATM   13  O   UNL     1     -12.137  12.042  67.683  1.00  0.00    -0.547 OA 
BRANCH  11  14
HETATM   14  C   UNL     1     -11.096  14.423  67.894  1.00  0.00    -0.274 A  
HETATM   15  C   UNL     1     -10.835  15.542  68.688  1.00  0.00    -0.267 A  
HETATM   16  C   UNL     1     -10.605  16.780  68.083  1.00  0.00    -0.350 A  
HETATM   17  C   UNL     1     -10.630  16.903  66.688  1.00  0.00    -0.189 A  
HETATM   18  C   UNL     1     -10.837  15.760  65.902  1.00  0.00    -0.272 A  
HETATM   19  C   UNL     1     -10.451  18.239  66.029  1.00  0.00    -0.380 C  
HETATM   20  C   UNL     1     -11.062  14.520  66.501  1.00  0.00    -0.332 A  
ENDBRANCH  11  14
ENDBRANCH   9  11
ENDBRANCH   7   9
ENDBRANCH   5   7
ENDBRANCH   4   5
ENDBRANCH   3   4
ENDBRANCH   2   3
TORSDOF 7
ENDMDL
MODEL      120
REMARK 921   NORMALIZED FREE ENERGY PREDICTED BY IDOCK:   -4.15 KCAL/MOL
REMARK 922        TOTAL FREE ENERGY PREDICTED BY IDOCK:   -6.48 KCAL/MOL
REMARK 923 INTER-LIGAND FREE ENERGY PREDICTED BY IDOCK:   -5.74 KCAL/MOL
REMARK 924 INTRA-LIGAND FREE ENERGY PREDICTED BY IDOCK:   -0.74 KCAL/MOL
REMARK 927      BINDING AFFINITY PREDICTED BY RF-SCORE:    0.00 PKD
ROOT
HETATM    1  C   UNL     1     -10.058   7.475  73.445  1.00  0.00    -0.393 C  
HETATM    2  C   UNL     1     -11.164   7.241  72.428  1.00  0.00    -0.321 C  
ENDROOT
BRANCH   2   3
HETATM    3  C   UNL     1     -10.729   6.262  71.335  1.00  0.00    -0.297 C  
BRANCH   3   4
HETATM    4  C   UNL     1     -11.387   6.564  69.988  1.00  0.00    -0.410 C  
BRANCH   4   5
HETATM    5  N   UNL     1     -10.679   7.578  69.231  1.00  0.00    -0.330 N  
HETATM    6  H   UNL     1     -10.074   8.239  69.719  1.00  0.00     0.000 HD 
BRANCH   5   7
HETATM    7  C   UNL     1     -10.808   7.662  67.872  1.00  0.00    -0.035 C  
HETATM    8  O   UNL     1     -10.856   6.682  67.145  1.00  0.00    -0.320 OA 
BRANCH   7   9
HETATM    9  N   UNL     1     -10.901   8.962  67.413  1.00  0.00    -0.439 N  
HETATM   10  H   UNL     1     -11.143   9.105  66.432  1.00  0.00     0.000 HD 
BRANCH   9  11
HETATM   11  S   UNL     1     -10.645  10.311  68.355  1.00  0.00    -0.232 S  
HETATM   12  O   UNL     1      -9.253  10.397  68.731  1.00  0.00    -0.154 OA 
HETATM   13  O   UNL     1     -11.682  10.266  69.368  1.00  0.00    -0.194 OA 
BRANCH  11  14
HETATM   14  C   UNL     1     -11.039  11.647  67.252  1.00  0.00    -0.290 A  
HETATM   15  C   UNL     1     -11.652  12.798  67.752  1.00  0.00    -0.405 A  
HETATM   16  C   UNL     1     -12.009  13.826  66.876  1.00  0.00    -0.460 A  
HETATM   17  C   UNL     1     -11.752  13.710  65.504  1.00  0.00    -0.352 A  
HETATM   18  C   UNL     1     -11.085  12.574  65.024  1.00  0.00    -0.335 A  
HETATM   19  C   UNL     1     -12.191  14.778  64.545  1.00  0.00    -0.443 C  
HETATM   20  C   UNL     1     -10.720  11.546  65.895  1.00  0.00    -0.325 A  
ENDBRANCH  11  14
ENDBRANCH   9  11
ENDBRANCH   7   9
ENDBRANCH   5   7
ENDBRANCH   4   5
ENDBRANCH   3   4
ENDBRANCH   2   3
TORSDOF 7
ENDMDL
MODEL      121
REMARK 921   NORMALIZED FREE ENERGY PREDICTED BY IDOCK:   -4.15 KCAL/MOL
REMARK 922        TOTAL FREE ENERGY PREDICTED BY IDOCK:   -6.47 KCAL/MOL
REMARK 923 INTER-LIGAND FREE ENERGY PREDICTED BY IDOCK:   -6.01 KCAL/MOL
REMARK 924 INTRA-LIGAND FREE ENERGY PREDICTED BY IDOCK:   -0.47 KCAL/MOL
REMARK 927      BINDING AFFINITY PREDICTED BY RF-SCORE:    0.00 PKD
ROOT
HETATM    1  C   UNL     1      -6.012  19.197  68.812  1.00  0.00    -0.239 C  
HETATM    2  C   UNL     1      -7.316  19.375  68.050  1.00  0.00    -0.309 C  
ENDROOT
BRANCH   2   3
HETATM    3  C   UNL     1      -8.484  19.682  68.991  1.00  0.00    -0.160 C  
BRANCH   3   4
HETATM    4  C   UNL     1      -9.842  19.433  68.333  1.00  0.00    -0.428 C  
BRANCH   4   5
HETATM    5  N   UNL     1     -10.499  18.241  68.833  1.00  0.00    -0.407 N  
HETATM    6  H   UNL     1     -10.817  18.211  69.801  1.00  0.00     0.000 HD 
BRANCH   5   7
HETATM    7  C   UNL     1     -10.699  17.156  68.026  1.00  0.00    -0.372 C  
HETATM    8  O   UNL     1     -10.198  17.047  66.918  1.00  0.00    -0.291 OA 
BRANCH   7   9
HETATM    9  N   UNL     1     -11.504  16.190  68.601  1.00  0.00    -0.375 N  
HETATM   10  H   UNL     1     -12.450  16.458  68.873  1.00  0.00     0.000 HD 
BRANCH   9  11
HETATM   11  S   UNL     1     -11.031  14.618  68.878  1.00  0.00    -0.264 S  
HETATM   12  O   UNL     1     -11.950  13.977  69.790  1.00  0.00    -0.294 OA 
HETATM   13  O   UNL     1      -9.618  14.699  69.190  1.00  0.00    -0.181 OA 
BRANCH  11  14
HETATM   14  C   UNL     1     -11.179  13.870  67.274  1.00  0.00    -0.312 A  
HETATM   15  C   UNL     1     -12.321  14.106  66.504  1.00  0.00    -0.405 A  
HETATM   16  C   UNL     1     -12.460  13.476  65.265  1.00  0.00    -0.525 A  
HETATM   17  C   UNL     1     -11.462  12.615  64.790  1.00  0.00    -0.364 A  
HETATM   18  C   UNL     1     -10.296  12.433  65.548  1.00  0.00    -0.298 A  
HETATM   19  C   UNL     1     -11.631  11.881  63.492  1.00  0.00    -0.537 C  
HETATM   20  C   UNL     1     -10.148  13.064  66.784  1.00  0.00    -0.247 A  
ENDBRANCH  11  14
ENDBRANCH   9  11
ENDBRANCH   7   9
ENDBRANCH   5   7
ENDBRANCH   4   5
ENDBRANCH   3   4
ENDBRANCH   2   3
TORSDOF 7
ENDMDL
MODEL      122
REMARK 921   NORMALIZED FREE ENERGY PREDICTED BY IDOCK:   -4.15 KCAL/MOL
REMARK 922        TOTAL FREE ENERGY PREDICTED BY IDOCK:   -6.47 KCAL/MOL
REMARK 923 INTER-LIGAND FREE ENERGY PREDICTED BY IDOCK:   -5.97 KCAL/MOL
REMARK 924 INTRA-LIGAND FREE ENERGY PREDICTED BY IDOCK:   -0.50 KCAL/MOL
REMARK 927      BINDING AFFINITY PREDICTED BY RF-SCORE:    0.00 PKD
ROOT
HETATM    1  C   UNL     1      -8.992   7.532  71.215  1.00  0.00    -0.142 C  
HETATM    2  C   UNL     1     -10.447   7.192  71.497  1.00  0.00    -0.221 C  
ENDROOT
BRANCH   2   3
HETATM    3  C   UNL     1     -11.097   8.217  72.430  1.00  0.00    -0.447 C  
BRANCH   3   4
HETATM    4  C   UNL     1     -12.623   8.212  72.326  1.00  0.00    -0.273 C  
BRANCH   4   5
HETATM    5  N   UNL     1     -13.104   8.777  71.081  1.00  0.00    -0.520 N  
HETATM    6  H   UNL     1     -13.507   8.162  70.373  1.00  0.00     0.000 HD 
BRANCH   5   7
HETATM    7  C   UNL     1     -13.027  10.120  70.838  1.00  0.00    -0.351 C  
HETATM    8  O   UNL     1     -13.358  10.966  71.655  1.00  0.00    -0.363 OA 
BRANCH   7   9
HETATM    9  N   UNL     1     -12.515  10.421  69.589  1.00  0.00    -0.555 N  
HETATM   10  H   UNL     1     -13.061  10.146  68.772  1.00  0.00     0.000 HD 
BRANCH   9  11
HETATM   11  S   UNL     1     -11.067  11.201  69.331  1.00  0.00    -0.253 S  
HETATM   12  O   UNL     1      -9.984  10.441  69.912  1.00  0.00    -0.186 OA 
HETATM   13  O   UNL     1     -11.302  12.575  69.731  1.00  0.00    -0.169 OA 
BRANCH  11  14
HETATM   14  C   UNL     1     -10.916  11.181  67.561  1.00  0.00    -0.275 A  
HETATM   15  C   UNL     1     -10.214  10.145  66.939  1.00  0.00    -0.295 A  
HETATM   16  C   UNL     1     -10.050  10.157  65.553  1.00  0.00    -0.338 A  
HETATM   17  C   UNL     1     -10.588  11.198  64.784  1.00  0.00    -0.371 A  
HETATM   18  C   UNL     1     -11.338  12.200  65.416  1.00  0.00    -0.388 A  
HETATM   19  C   UNL     1     -10.361  11.257  63.302  1.00  0.00    -0.406 C  
HETATM   20  C   UNL     1     -11.510  12.190  66.801  1.00  0.00    -0.418 A  
ENDBRANCH  11  14
ENDBRANCH   9  11
ENDBRANCH   7   9
ENDBRANCH   5   7
ENDBRANCH   4   5
ENDBRANCH   3   4
ENDBRANCH   2   3
TORSDOF 7
ENDMDL
MODEL      123
REMARK 921   NORMALIZED FREE ENERGY PREDICTED BY IDOCK:   -4.15 KCAL/MOL
REMARK 922        TOTAL FREE ENERGY PREDICTED BY IDOCK:   -6.47 KCAL/MOL
REMARK 923 INTER-LIGAND FREE ENERGY PREDICTED BY IDOCK:   -5.76 KCAL/MOL
REMARK 924 INTRA-LIGAND FREE ENERGY PREDICTED BY IDOCK:   -0.71 KCAL/MOL
REMARK 927      BINDING AFFINITY PREDICTED BY RF-SCORE:    0.00 PKD
ROOT
HETATM    1  C   UNL     1     -11.477  15.692  70.991  1.00  0.00    -0.439 C  
HETATM    2  C   UNL     1     -11.525  15.916  69.488  1.00  0.00    -0.342 C  
ENDROOT
BRANCH   2   3
HETATM    3  C   UNL     1     -10.729  14.850  68.731  1.00  0.00    -0.252 C  
BRANCH   3   4
HETATM    4  C   UNL     1     -11.131  14.761  67.258  1.00  0.00    -0.332 C  
BRANCH   4   5
HETATM    5  N   UNL     1     -10.510  13.645  66.573  1.00  0.00    -0.278 N  
HETATM    6  H   UNL     1      -9.559  13.740  66.216  1.00  0.00     0.000 HD 
BRANCH   5   7
HETATM    7  C   UNL     1     -11.179  12.466  66.395  1.00  0.00    -0.319 C  
HETATM    8  O   UNL     1     -12.378  12.406  66.175  1.00  0.00    -0.606 OA 
BRANCH   7   9
HETATM    9  N   UNL     1     -10.357  11.356  66.467  1.00  0.00    -0.228 N  
HETATM   10  H   UNL     1     -10.383  10.692  65.693  1.00  0.00     0.000 HD 
BRANCH   9  11
HETATM   11  S   UNL     1      -9.327  11.032  67.734  1.00  0.00    -0.161 S  
HETATM   12  O   UNL     1      -8.640  12.238  68.137  1.00  0.00    -0.169 OA 
HETATM   13  O   UNL     1      -8.579   9.860  67.323  1.00  0.00    -0.125 OA 
BRANCH  11  14
HETATM   14  C   UNL     1     -10.435  10.528  69.028  1.00  0.00    -0.217 A  
HETATM   15  C   UNL     1     -11.357  11.442  69.543  1.00  0.00    -0.357 A  
HETATM   16  C   UNL     1     -12.192  11.061  70.596  1.00  0.00    -0.481 A  
HETATM   17  C   UNL     1     -12.114   9.769  71.133  1.00  0.00    -0.460 A  
HETATM   18  C   UNL     1     -11.223   8.845  70.567  1.00  0.00    -0.287 A  
HETATM   19  C   UNL     1     -12.958   9.370  72.307  1.00  0.00    -0.479 C  
HETATM   20  C   UNL     1     -10.390   9.218  69.512  1.00  0.00    -0.223 A  
ENDBRANCH  11  14
ENDBRANCH   9  11
ENDBRANCH   7   9
ENDBRANCH   5   7
ENDBRANCH   4   5
ENDBRANCH   3   4
ENDBRANCH   2   3
TORSDOF 7
ENDMDL
MODEL      124
REMARK 921   NORMALIZED FREE ENERGY PREDICTED BY IDOCK:   -4.15 KCAL/MOL
REMARK 922        TOTAL FREE ENERGY PREDICTED BY IDOCK:   -6.47 KCAL/MOL
REMARK 923 INTER-LIGAND FREE ENERGY PREDICTED BY IDOCK:   -5.86 KCAL/MOL
REMARK 924 INTRA-LIGAND FREE ENERGY PREDICTED BY IDOCK:   -0.61 KCAL/MOL
REMARK 927      BINDING AFFINITY PREDICTED BY RF-SCORE:    0.00 PKD
ROOT
HETATM    1  C   UNL     1     -12.225   7.696  71.255  1.00  0.00    -0.339 C  
HETATM    2  C   UNL     1     -11.161   8.780  71.173  1.00  0.00    -0.339 C  
ENDROOT
BRANCH   2   3
HETATM    3  C   UNL     1     -11.763  10.135  70.791  1.00  0.00    -0.446 C  
BRANCH   3   4
HETATM    4  C   UNL     1     -11.216  10.660  69.463  1.00  0.00    -0.272 C  
BRANCH   4   5
HETATM    5  N   UNL     1      -9.829  11.074  69.550  1.00  0.00    -0.428 N  
HETATM    6  H   UNL     1      -9.276  10.809  70.365  1.00  0.00     0.000 HD 
BRANCH   5   7
HETATM    7  C   UNL     1      -9.250  11.814  68.557  1.00  0.00    -0.151 C  
HETATM    8  O   UNL     1      -8.958  11.352  67.465  1.00  0.00    -0.146 OA 
BRANCH   7   9
HETATM    9  N   UNL     1      -9.053  13.137  68.906  1.00  0.00    -0.369 N  
HETATM   10  H   UNL     1      -8.163  13.389  69.336  1.00  0.00     0.000 HD 
BRANCH   9  11
HETATM   11  S   UNL     1     -10.173  14.346  68.672  1.00  0.00    -0.245 S  
HETATM   12  O   UNL     1      -9.521  15.635  68.684  1.00  0.00    -0.190 OA 
HETATM   13  O   UNL     1     -11.246  14.053  69.603  1.00  0.00    -0.236 OA 
BRANCH  11  14
HETATM   14  C   UNL     1     -10.783  14.011  67.037  1.00  0.00    -0.284 A  
HETATM   15  C   UNL     1     -12.032  13.406  66.876  1.00  0.00    -0.437 A  
HETATM   16  C   UNL     1     -12.488  13.095  65.594  1.00  0.00    -0.485 A  
HETATM   17  C   UNL     1     -11.704  13.390  64.471  1.00  0.00    -0.422 A  
HETATM   18  C   UNL     1     -10.478  14.049  64.644  1.00  0.00    -0.398 A  
HETATM   19  C   UNL     1     -12.154  13.001  63.093  1.00  0.00    -0.324 C  
HETATM   20  C   UNL     1     -10.019  14.368  65.923  1.00  0.00    -0.350 A  
ENDBRANCH  11  14
ENDBRANCH   9  11
ENDBRANCH   7   9
ENDBRANCH   5   7
ENDBRANCH   4   5
ENDBRANCH   3   4
ENDBRANCH   2   3
TORSDOF 7
ENDMDL
MODEL      125
REMARK 921   NORMALIZED FREE ENERGY PREDICTED BY IDOCK:   -4.13 KCAL/MOL
REMARK 922        TOTAL FREE ENERGY PREDICTED BY IDOCK:   -6.45 KCAL/MOL
REMARK 923 INTER-LIGAND FREE ENERGY PREDICTED BY IDOCK:   -5.52 KCAL/MOL
REMARK 924 INTRA-LIGAND FREE ENERGY PREDICTED BY IDOCK:   -0.92 KCAL/MOL
REMARK 927      BINDING AFFINITY PREDICTED BY RF-SCORE:    0.00 PKD
ROOT
HETATM    1  C   UNL     1     -12.388  13.306  70.708  1.00  0.00    -0.425 C  
HETATM    2  C   UNL     1     -12.100  14.601  69.966  1.00  0.00    -0.383 C  
ENDROOT
BRANCH   2   3
HETATM    3  C   UNL     1     -12.286  14.441  68.455  1.00  0.00    -0.178 C  
BRANCH   3   4
HETATM    4  C   UNL     1     -11.307  15.300  67.654  1.00  0.00    -0.312 C  
BRANCH   4   5
HETATM    5  N   UNL     1     -10.784  14.618  66.486  1.00  0.00    -0.306 N  
HETATM    6  H   UNL     1     -11.190  14.808  65.570  1.00  0.00     0.000 HD 
BRANCH   5   7
HETATM    7  C   UNL     1      -9.756  13.724  66.593  1.00  0.00    -0.289 C  
HETATM    8  O   UNL     1      -8.925  13.767  67.487  1.00  0.00    -0.181 OA 
BRANCH   7   9
HETATM    9  N   UNL     1      -9.769  12.757  65.605  1.00  0.00    -0.433 N  
HETATM   10  H   UNL     1      -8.997  12.746  64.938  1.00  0.00     0.000 HD 
BRANCH   9  11
HETATM   11  S   UNL     1     -10.961  11.608  65.432  1.00  0.00    -0.234 S  
HETATM   12  O   UNL     1     -10.711  10.805  64.257  1.00  0.00    -0.302 OA 
HETATM   13  O   UNL     1     -12.209  12.333  65.578  1.00  0.00    -0.577 OA 
BRANCH  11  14
HETATM   14  C   UNL     1     -10.758  10.603  66.884  1.00  0.00    -0.237 A  
HETATM   15  C   UNL     1     -10.091   9.380  66.789  1.00  0.00    -0.325 A  
HETATM   16  C   UNL     1      -9.977   8.566  67.919  1.00  0.00    -0.225 A  
HETATM   17  C   UNL     1     -10.524   8.972  69.143  1.00  0.00    -0.239 A  
HETATM   18  C   UNL     1     -11.141  10.228  69.236  1.00  0.00    -0.293 A  
HETATM   19  C   UNL     1     -10.466   8.078  70.347  1.00  0.00    -0.218 C  
HETATM   20  C   UNL     1     -11.252  11.048  68.112  1.00  0.00    -0.364 A  
ENDBRANCH  11  14
ENDBRANCH   9  11
ENDBRANCH   7   9
ENDBRANCH   5   7
ENDBRANCH   4   5
ENDBRANCH   3   4
ENDBRANCH   2   3
TORSDOF 7
ENDMDL
MODEL      126
REMARK 921   NORMALIZED FREE ENERGY PREDICTED BY IDOCK:   -4.13 KCAL/MOL
REMARK 922        TOTAL FREE ENERGY PREDICTED BY IDOCK:   -6.44 KCAL/MOL
REMARK 923 INTER-LIGAND FREE ENERGY PREDICTED BY IDOCK:   -6.09 KCAL/MOL
REMARK 924 INTRA-LIGAND FREE ENERGY PREDICTED BY IDOCK:   -0.36 KCAL/MOL
REMARK 927      BINDING AFFINITY PREDICTED BY RF-SCORE:    0.00 PKD
ROOT
HETATM    1  C   UNL     1      -9.682  11.631  63.184  1.00  0.00    -0.385 C  
HETATM    2  C   UNL     1     -11.070  11.220  63.648  1.00  0.00    -0.300 C  
ENDROOT
BRANCH   2   3
HETATM    3  C   UNL     1     -12.034  12.409  63.671  1.00  0.00    -0.626 C  
BRANCH   3   4
HETATM    4  C   UNL     1     -11.557  13.526  64.600  1.00  0.00    -0.368 C  
BRANCH   4   5
HETATM    5  N   UNL     1     -11.957  14.844  64.146  1.00  0.00    -0.803 N  
HETATM    6  H   UNL     1     -12.795  14.945  63.574  1.00  0.00     0.000 HD 
BRANCH   5   7
HETATM    7  C   UNL     1     -11.229  15.954  64.473  1.00  0.00    -0.312 C  
HETATM    8  O   UNL     1     -11.455  17.061  64.010  1.00  0.00    -0.983 OA 
BRANCH   7   9
HETATM    9  N   UNL     1     -10.230  15.699  65.395  1.00  0.00    -0.373 N  
HETATM   10  H   UNL     1      -9.281  15.567  65.046  1.00  0.00     0.000 HD 
BRANCH   9  11
HETATM   11  S   UNL     1     -10.476  15.593  67.038  1.00  0.00    -0.305 S  
HETATM   12  O   UNL     1     -11.838  15.200  67.312  1.00  0.00    -0.252 OA 
HETATM   13  O   UNL     1      -9.942  16.828  67.580  1.00  0.00    -0.250 OA 
BRANCH  11  14
HETATM   14  C   UNL     1      -9.377  14.283  67.520  1.00  0.00    -0.199 A  
HETATM   15  C   UNL     1      -8.005  14.529  67.610  1.00  0.00    -0.190 A  
HETATM   16  C   UNL     1      -7.136  13.487  67.937  1.00  0.00    -0.140 A  
HETATM   17  C   UNL     1      -7.633  12.199  68.181  1.00  0.00    -0.125 A  
HETATM   18  C   UNL     1      -9.017  11.980  68.144  1.00  0.00    -0.190 A  
HETATM   19  C   UNL     1      -6.703  11.057  68.468  1.00  0.00    -0.061 C  
HETATM   20  C   UNL     1      -9.891  13.020  67.822  1.00  0.00    -0.224 A  
ENDBRANCH  11  14
ENDBRANCH   9  11
ENDBRANCH   7   9
ENDBRANCH   5   7
ENDBRANCH   4   5
ENDBRANCH   3   4
ENDBRANCH   2   3
TORSDOF 7
ENDMDL
MODEL      127
REMARK 921   NORMALIZED FREE ENERGY PREDICTED BY IDOCK:   -4.09 KCAL/MOL
REMARK 922        TOTAL FREE ENERGY PREDICTED BY IDOCK:   -6.39 KCAL/MOL
REMARK 923 INTER-LIGAND FREE ENERGY PREDICTED BY IDOCK:   -5.46 KCAL/MOL
REMARK 924 INTRA-LIGAND FREE ENERGY PREDICTED BY IDOCK:   -0.93 KCAL/MOL
REMARK 927      BINDING AFFINITY PREDICTED BY RF-SCORE:    0.00 PKD
ROOT
HETATM    1  C   UNL     1      -7.400  14.600  69.421  1.00  0.00    -0.135 C  
HETATM    2  C   UNL     1      -6.640  14.782  68.116  1.00  0.00    -0.138 C  
ENDROOT
BRANCH   2   3
HETATM    3  C   UNL     1      -7.470  15.546  67.081  1.00  0.00    -0.244 C  
BRANCH   3   4
HETATM    4  C   UNL     1      -6.904  16.937  66.794  1.00  0.00    -0.232 C  
BRANCH   4   5
HETATM    5  N   UNL     1      -6.835  17.772  67.978  1.00  0.00    -0.188 N  
HETATM    6  H   UNL     1      -6.174  17.538  68.719  1.00  0.00     0.000 HD 
BRANCH   5   7
HETATM    7  C   UNL     1      -7.641  18.867  68.117  1.00  0.00    -0.277 C  
HETATM    8  O   UNL     1      -7.685  19.538  69.136  1.00  0.00    -0.355 OA 
BRANCH   7   9
HETATM    9  N   UNL     1      -8.378  19.149  66.982  1.00  0.00    -0.270 N  
HETATM   10  H   UNL     1      -7.870  19.338  66.118  1.00  0.00     0.000 HD 
BRANCH   9  11
HETATM   11  S   UNL     1     -10.042  19.199  66.933  1.00  0.00    -0.407 S  
HETATM   12  O   UNL     1     -10.483  19.840  65.715  1.00  0.00    -0.511 OA 
HETATM   13  O   UNL     1     -10.442  19.718  68.226  1.00  0.00    -0.431 OA 
BRANCH  11  14
HETATM   14  C   UNL     1     -10.490  17.481  66.888  1.00  0.00    -0.285 A  
HETATM   15  C   UNL     1     -10.775  16.810  68.080  1.00  0.00    -0.355 A  
HETATM   16  C   UNL     1     -11.076  15.447  68.050  1.00  0.00    -0.312 A  
HETATM   17  C   UNL     1     -11.098  14.751  66.833  1.00  0.00    -0.339 A  
HETATM   18  C   UNL     1     -10.866  15.450  65.640  1.00  0.00    -0.363 A  
HETATM   19  C   UNL     1     -11.353  13.273  66.795  1.00  0.00    -0.359 C  
HETATM   20  C   UNL     1     -10.570  16.814  65.663  1.00  0.00    -0.258 A  
ENDBRANCH  11  14
ENDBRANCH   9  11
ENDBRANCH   7   9
ENDBRANCH   5   7
ENDBRANCH   4   5
ENDBRANCH   3   4
ENDBRANCH   2   3
TORSDOF 7
ENDMDL
MODEL      128
REMARK 921   NORMALIZED FREE ENERGY PREDICTED BY IDOCK:   -4.08 KCAL/MOL
REMARK 922        TOTAL FREE ENERGY PREDICTED BY IDOCK:   -6.38 KCAL/MOL
REMARK 923 INTER-LIGAND FREE ENERGY PREDICTED BY IDOCK:   -5.76 KCAL/MOL
REMARK 924 INTRA-LIGAND FREE ENERGY PREDICTED BY IDOCK:   -0.62 KCAL/MOL
REMARK 927      BINDING AFFINITY PREDICTED BY RF-SCORE:    0.00 PKD
ROOT
HETATM    1  C   UNL     1     -13.654  15.645  72.901  1.00  0.00    -0.658 C  
HETATM    2  C   UNL     1     -12.170  15.951  72.774  1.00  0.00    -0.604 C  
ENDROOT
BRANCH   2   3
HETATM    3  C   UNL     1     -11.593  15.421  71.459  1.00  0.00    -0.475 C  
BRANCH   3   4
HETATM    4  C   UNL     1     -12.652  15.314  70.361  1.00  0.00    -0.375 C  
BRANCH   4   5
HETATM    5  N   UNL     1     -12.520  14.107  69.567  1.00  0.00    -0.481 N  
HETATM    6  H   UNL     1     -13.338  13.519  69.407  1.00  0.00     0.000 HD 
BRANCH   5   7
HETATM    7  C   UNL     1     -11.316  13.745  69.030  1.00  0.00    -0.289 C  
HETATM    8  O   UNL     1     -10.741  14.404  68.178  1.00  0.00    -0.230 OA 
BRANCH   7   9
HETATM    9  N   UNL     1     -10.810  12.575  69.565  1.00  0.00    -0.442 N  
HETATM   10  H   UNL     1      -9.941  12.631  70.096  1.00  0.00     0.000 HD 
BRANCH   9  11
HETATM   11  S   UNL     1     -11.526  11.081  69.401  1.00  0.00    -0.324 S  
HETATM   12  O   UNL     1     -12.893  11.232  68.957  1.00  0.00     0.001 OA 
HETATM   13  O   UNL     1     -11.224  10.379  70.633  1.00  0.00    -0.319 OA 
BRANCH  11  14
HETATM   14  C   UNL     1     -10.570  10.323  68.109  1.00  0.00    -0.221 A  
HETATM   15  C   UNL     1     -10.523  10.916  66.845  1.00  0.00    -0.299 A  
HETATM   16  C   UNL     1      -9.814  10.292  65.816  1.00  0.00    -0.320 A  
HETATM   17  C   UNL     1      -9.150   9.080  66.046  1.00  0.00    -0.257 A  
HETATM   18  C   UNL     1      -9.159   8.526  67.334  1.00  0.00    -0.148 A  
HETATM   19  C   UNL     1      -8.442   8.367  64.931  1.00  0.00    -0.141 C  
HETATM   20  C   UNL     1      -9.860   9.148  68.368  1.00  0.00    -0.181 A  
ENDBRANCH  11  14
ENDBRANCH   9  11
ENDBRANCH   7   9
ENDBRANCH   5   7
ENDBRANCH   4   5
ENDBRANCH   3   4
ENDBRANCH   2   3
TORSDOF 7
ENDMDL
MODEL      129
REMARK 921   NORMALIZED FREE ENERGY PREDICTED BY IDOCK:   -4.07 KCAL/MOL
REMARK 922        TOTAL FREE ENERGY PREDICTED BY IDOCK:   -6.37 KCAL/MOL
REMARK 923 INTER-LIGAND FREE ENERGY PREDICTED BY IDOCK:   -5.81 KCAL/MOL
REMARK 924 INTRA-LIGAND FREE ENERGY PREDICTED BY IDOCK:   -0.55 KCAL/MOL
REMARK 927      BINDING AFFINITY PREDICTED BY RF-SCORE:    0.00 PKD
ROOT
HETATM    1  C   UNL     1     -13.837  15.545  72.593  1.00  0.00    -0.654 C  
HETATM    2  C   UNL     1     -12.524  14.972  72.083  1.00  0.00    -0.421 C  
ENDROOT
BRANCH   2   3
HETATM    3  C   UNL     1     -12.730  13.629  71.378  1.00  0.00    -0.437 C  
BRANCH   3   4
HETATM    4  C   UNL     1     -12.165  13.626  69.956  1.00  0.00    -0.329 C  
BRANCH   4   5
HETATM    5  N   UNL     1     -11.208  12.560  69.733  1.00  0.00    -0.487 N  
HETATM    6  H   UNL     1     -10.395  12.479  70.344  1.00  0.00     0.000 HD 
BRANCH   5   7
HETATM    7  C   UNL     1     -11.377  11.662  68.717  1.00  0.00    -0.264 C  
HETATM    8  O   UNL     1     -12.364  10.950  68.613  1.00  0.00    -0.501 OA 
BRANCH   7   9
HETATM    9  N   UNL     1     -10.333  11.660  67.811  1.00  0.00    -0.179 N  
HETATM   10  H   UNL     1      -9.485  11.152  68.062  1.00  0.00     0.000 HD 
BRANCH   9  11
HETATM   11  S   UNL     1     -10.369  12.433  66.337  1.00  0.00    -0.239 S  
HETATM   12  O   UNL     1     -11.722  12.481  65.834  1.00  0.00    -0.385 OA 
HETATM   13  O   UNL     1      -9.315  11.811  65.558  1.00  0.00    -0.208 OA 
BRANCH  11  14
HETATM   14  C   UNL     1      -9.832  14.078  66.738  1.00  0.00    -0.273 A  
HETATM   15  C   UNL     1      -8.468  14.346  66.875  1.00  0.00    -0.156 A  
HETATM   16  C   UNL     1      -8.049  15.627  67.242  1.00  0.00    -0.224 A  
HETATM   17  C   UNL     1      -8.987  16.642  67.468  1.00  0.00    -0.204 A  
HETATM   18  C   UNL     1     -10.349  16.374  67.271  1.00  0.00    -0.287 A  
HETATM   19  C   UNL     1      -8.553  18.003  67.927  1.00  0.00    -0.258 C  
HETATM   20  C   UNL     1     -10.774  15.098  66.899  1.00  0.00    -0.308 A  
ENDBRANCH  11  14
ENDBRANCH   9  11
ENDBRANCH   7   9
ENDBRANCH   5   7
ENDBRANCH   4   5
ENDBRANCH   3   4
ENDBRANCH   2   3
TORSDOF 7
ENDMDL
MODEL      130
REMARK 921   NORMALIZED FREE ENERGY PREDICTED BY IDOCK:   -4.07 KCAL/MOL
REMARK 922        TOTAL FREE ENERGY PREDICTED BY IDOCK:   -6.36 KCAL/MOL
REMARK 923 INTER-LIGAND FREE ENERGY PREDICTED BY IDOCK:   -5.75 KCAL/MOL
REMARK 924 INTRA-LIGAND FREE ENERGY PREDICTED BY IDOCK:   -0.61 KCAL/MOL
REMARK 927      BINDING AFFINITY PREDICTED BY RF-SCORE:    0.00 PKD
ROOT
HETATM    1  C   UNL     1     -14.217  14.523  71.877  1.00  0.00    -0.622 C  
HETATM    2  C   UNL     1     -12.760  14.142  71.668  1.00  0.00    -0.430 C  
ENDROOT
BRANCH   2   3
HETATM    3  C   UNL     1     -12.617  12.949  70.719  1.00  0.00    -0.314 C  
BRANCH   3   4
HETATM    4  C   UNL     1     -11.776  13.283  69.487  1.00  0.00    -0.322 C  
BRANCH   4   5
HETATM    5  N   UNL     1     -12.393  14.285  68.639  1.00  0.00    -0.571 N  
HETATM    6  H   UNL     1     -13.289  14.085  68.195  1.00  0.00     0.000 HD 
BRANCH   5   7
HETATM    7  C   UNL     1     -11.793  15.495  68.427  1.00  0.00    -0.224 C  
HETATM    8  O   UNL     1     -11.628  16.322  69.310  1.00  0.00    -0.293 OA 
BRANCH   7   9
HETATM    9  N   UNL     1     -11.373  15.674  67.121  1.00  0.00    -0.163 N  
HETATM   10  H   UNL     1     -12.052  16.025  66.446  1.00  0.00     0.000 HD 
BRANCH   9  11
HETATM   11  S   UNL     1      -9.832  15.352  66.579  1.00  0.00    -0.290 S  
HETATM   12  O   UNL     1      -8.869  15.656  67.613  1.00  0.00    -0.172 OA 
HETATM   13  O   UNL     1      -9.747  15.992  65.281  1.00  0.00    -0.403 OA 
BRANCH  11  14
HETATM   14  C   UNL     1      -9.866  13.597  66.305  1.00  0.00    -0.301 A  
HETATM   15  C   UNL     1      -9.105  12.756  67.121  1.00  0.00    -0.219 A  
HETATM   16  C   UNL     1      -9.090  11.382  66.873  1.00  0.00    -0.178 A  
HETATM   17  C   UNL     1      -9.836  10.844  65.816  1.00  0.00    -0.286 A  
HETATM   18  C   UNL     1     -10.640  11.693  65.041  1.00  0.00    -0.342 A  
HETATM   19  C   UNL     1      -9.776   9.379  65.497  1.00  0.00    -0.300 C  
HETATM   20  C   UNL     1     -10.663  13.067  65.288  1.00  0.00    -0.317 A  
ENDBRANCH  11  14
ENDBRANCH   9  11
ENDBRANCH   7   9
ENDBRANCH   5   7
ENDBRANCH   4   5
ENDBRANCH   3   4
ENDBRANCH   2   3
TORSDOF 7
ENDMDL
MODEL      131
REMARK 921   NORMALIZED FREE ENERGY PREDICTED BY IDOCK:   -4.05 KCAL/MOL
REMARK 922        TOTAL FREE ENERGY PREDICTED BY IDOCK:   -6.33 KCAL/MOL
REMARK 923 INTER-LIGAND FREE ENERGY PREDICTED BY IDOCK:   -5.60 KCAL/MOL
REMARK 924 INTRA-LIGAND FREE ENERGY PREDICTED BY IDOCK:   -0.73 KCAL/MOL
REMARK 927      BINDING AFFINITY PREDICTED BY RF-SCORE:    0.00 PKD
ROOT
HETATM    1  C   UNL     1     -13.414  12.758  72.203  1.00  0.00    -0.591 C  
HETATM    2  C   UNL     1     -13.237  11.381  71.584  1.00  0.00    -0.413 C  
ENDROOT
BRANCH   2   3
HETATM    3  C   UNL     1     -12.177  11.389  70.480  1.00  0.00    -0.478 C  
BRANCH   3   4
HETATM    4  C   UNL     1     -11.442  10.052  70.370  1.00  0.00    -0.314 C  
BRANCH   4   5
HETATM    5  N   UNL     1     -11.064   9.510  71.660  1.00  0.00    -0.347 N  
HETATM    6  H   UNL     1     -11.538   9.840  72.502  1.00  0.00     0.000 HD 
BRANCH   5   7
HETATM    7  C   UNL     1     -10.084   8.563  71.768  1.00  0.00    -0.281 C  
HETATM    8  O   UNL     1      -8.946   8.732  71.358  1.00  0.00    -0.199 OA 
BRANCH   7   9
HETATM    9  N   UNL     1     -10.505   7.412  72.408  1.00  0.00    -0.219 N  
HETATM   10  H   UNL     1     -10.108   7.203  73.324  1.00  0.00     0.000 HD 
BRANCH   9  11
HETATM   11  S   UNL     1     -11.618   6.344  71.781  1.00  0.00    -0.316 S  
HETATM   12  O   UNL     1     -12.815   7.050  71.387  1.00  0.00    -0.377 OA 
HETATM   13  O   UNL     1     -11.682   5.259  72.741  1.00  0.00    -0.275 OA 
BRANCH  11  14
HETATM   14  C   UNL     1     -10.799   5.723  70.332  1.00  0.00    -0.290 A  
HETATM   15  C   UNL     1      -9.957   4.613  70.436  1.00  0.00    -0.300 A  
HETATM   16  C   UNL     1      -9.272   4.157  69.308  1.00  0.00    -0.213 A  
HETATM   17  C   UNL     1      -9.429   4.802  68.074  1.00  0.00    -0.182 A  
HETATM   18  C   UNL     1     -10.321   5.879  67.972  1.00  0.00    -0.257 A  
HETATM   19  C   UNL     1      -8.648   4.363  66.870  1.00  0.00    -0.104 C  
HETATM   20  C   UNL     1     -11.012   6.336  69.095  1.00  0.00    -0.442 A  
ENDBRANCH  11  14
ENDBRANCH   9  11
ENDBRANCH   7   9
ENDBRANCH   5   7
ENDBRANCH   4   5
ENDBRANCH   3   4
ENDBRANCH   2   3
TORSDOF 7
ENDMDL
MODEL      132
REMARK 921   NORMALIZED FREE ENERGY PREDICTED BY IDOCK:   -4.05 KCAL/MOL
REMARK 922        TOTAL FREE ENERGY PREDICTED BY IDOCK:   -6.33 KCAL/MOL
REMARK 923 INTER-LIGAND FREE ENERGY PREDICTED BY IDOCK:   -5.95 KCAL/MOL
REMARK 924 INTRA-LIGAND FREE ENERGY PREDICTED BY IDOCK:   -0.38 KCAL/MOL
REMARK 927      BINDING AFFINITY PREDICTED BY RF-SCORE:    0.00 PKD
ROOT
HETATM    1  C   UNL     1     -14.123  13.571  72.382  1.00  0.00    -0.563 C  
HETATM    2  C   UNL     1     -13.185  14.754  72.558  1.00  0.00    -0.507 C  
ENDROOT
BRANCH   2   3
HETATM    3  C   UNL     1     -12.061  14.745  71.519  1.00  0.00    -0.411 C  
BRANCH   3   4
HETATM    4  C   UNL     1     -11.566  16.152  71.185  1.00  0.00    -0.404 C  
BRANCH   4   5
HETATM    5  N   UNL     1     -11.226  16.312  69.784  1.00  0.00    -0.334 N  
HETATM    6  H   UNL     1     -11.556  17.134  69.278  1.00  0.00     0.000 HD 
BRANCH   5   7
HETATM    7  C   UNL     1     -10.472  15.378  69.131  1.00  0.00    -0.239 C  
HETATM    8  O   UNL     1      -9.348  15.060  69.487  1.00  0.00    -0.164 OA 
BRANCH   7   9
HETATM    9  N   UNL     1     -11.118  14.817  68.045  1.00  0.00    -0.275 N  
HETATM   10  H   UNL     1     -12.008  14.347  68.211  1.00  0.00     0.000 HD 
BRANCH   9  11
HETATM   11  S   UNL     1     -10.539  14.858  66.485  1.00  0.00    -0.313 S  
HETATM   12  O   UNL     1     -11.639  14.864  65.547  1.00  0.00    -0.336 OA 
HETATM   13  O   UNL     1      -9.528  13.820  66.429  1.00  0.00    -0.278 OA 
BRANCH  11  14
HETATM   14  C   UNL     1      -9.699  16.422  66.414  1.00  0.00    -0.287 A  
HETATM   15  C   UNL     1     -10.439  17.606  66.439  1.00  0.00    -0.286 A  
HETATM   16  C   UNL     1      -9.782  18.834  66.331  1.00  0.00    -0.378 A  
HETATM   17  C   UNL     1      -8.388  18.883  66.202  1.00  0.00    -0.209 A  
HETATM   18  C   UNL     1      -7.653  17.690  66.235  1.00  0.00    -0.334 A  
HETATM   19  C   UNL     1      -7.678  20.192  66.017  1.00  0.00    -0.269 C  
HETATM   20  C   UNL     1      -8.304  16.460  66.349  1.00  0.00    -0.363 A  
ENDBRANCH  11  14
ENDBRANCH   9  11
ENDBRANCH   7   9
ENDBRANCH   5   7
ENDBRANCH   4   5
ENDBRANCH   3   4
ENDBRANCH   2   3
TORSDOF 7
ENDMDL
MODEL      133
REMARK 921   NORMALIZED FREE ENERGY PREDICTED BY IDOCK:   -4.04 KCAL/MOL
REMARK 922        TOTAL FREE ENERGY PREDICTED BY IDOCK:   -6.32 KCAL/MOL
REMARK 923 INTER-LIGAND FREE ENERGY PREDICTED BY IDOCK:   -4.85 KCAL/MOL
REMARK 924 INTRA-LIGAND FREE ENERGY PREDICTED BY IDOCK:   -1.48 KCAL/MOL
REMARK 927      BINDING AFFINITY PREDICTED BY RF-SCORE:    0.00 PKD
ROOT
HETATM    1  C   UNL     1     -12.405  14.325  65.975  1.00  0.00    -0.416 C  
HETATM    2  C   UNL     1     -11.312  14.048  64.954  1.00  0.00    -0.354 C  
ENDROOT
BRANCH   2   3
HETATM    3  C   UNL     1     -10.842  12.593  65.010  1.00  0.00    -0.321 C  
BRANCH   3   4
HETATM    4  C   UNL     1     -11.364  11.860  66.247  1.00  0.00    -0.334 C  
BRANCH   4   5
HETATM    5  N   UNL     1     -10.301  11.381  67.108  1.00  0.00    -0.206 N  
HETATM    6  H   UNL     1      -9.562  10.796  66.717  1.00  0.00     0.000 HD 
BRANCH   5   7
HETATM    7  C   UNL     1     -10.271  11.702  68.437  1.00  0.00    -0.207 C  
HETATM    8  O   UNL     1     -10.502  10.894  69.323  1.00  0.00    -0.216 OA 
BRANCH   7   9
HETATM    9  N   UNL     1      -9.931  13.021  68.672  1.00  0.00    -0.399 N  
HETATM   10  H   UNL     1     -10.583  13.593  69.210  1.00  0.00     0.000 HD 
BRANCH   9  11
HETATM   11  S   UNL     1      -8.528  13.738  68.135  1.00  0.00    -0.180 S  
HETATM   12  O   UNL     1      -7.998  13.009  67.007  1.00  0.00    -0.122 OA 
HETATM   13  O   UNL     1      -7.726  13.938  69.327  1.00  0.00     0.031 OA 
BRANCH  11  14
HETATM   14  C   UNL     1      -9.081  15.337  67.594  1.00  0.00    -0.183 A  
HETATM   15  C   UNL     1     -10.122  15.975  68.273  1.00  0.00    -0.229 A  
HETATM   16  C   UNL     1     -10.592  17.208  67.816  1.00  0.00    -0.360 A  
HETATM   17  C   UNL     1     -10.024  17.809  66.685  1.00  0.00    -0.338 A  
HETATM   18  C   UNL     1      -8.942  17.184  66.047  1.00  0.00    -0.141 A  
HETATM   19  C   UNL     1     -10.565  19.100  66.145  1.00  0.00    -0.524 C  
HETATM   20  C   UNL     1      -8.464  15.955  66.503  1.00  0.00    -0.348 A  
ENDBRANCH  11  14
ENDBRANCH   9  11
ENDBRANCH   7   9
ENDBRANCH   5   7
ENDBRANCH   4   5
ENDBRANCH   3   4
ENDBRANCH   2   3
TORSDOF 7
ENDMDL
MODEL      134
REMARK 921   NORMALIZED FREE ENERGY PREDICTED BY IDOCK:   -4.04 KCAL/MOL
REMARK 922        TOTAL FREE ENERGY PREDICTED BY IDOCK:   -6.31 KCAL/MOL
REMARK 923 INTER-LIGAND FREE ENERGY PREDICTED BY IDOCK:   -5.27 KCAL/MOL
REMARK 924 INTRA-LIGAND FREE ENERGY PREDICTED BY IDOCK:   -1.04 KCAL/MOL
REMARK 927      BINDING AFFINITY PREDICTED BY RF-SCORE:    0.00 PKD
ROOT
HETATM    1  C   UNL     1     -10.799  11.505  66.670  1.00  0.00    -0.335 C  
HETATM    2  C   UNL     1     -10.708  12.943  67.157  1.00  0.00    -0.268 C  
ENDROOT
BRANCH   2   3
HETATM    3  C   UNL     1     -11.158  13.075  68.614  1.00  0.00    -0.305 C  
BRANCH   3   4
HETATM    4  C   UNL     1     -11.880  11.824  69.116  1.00  0.00    -0.326 C  
BRANCH   4   5
HETATM    5  N   UNL     1     -11.896  11.726  70.562  1.00  0.00    -0.500 N  
HETATM    6  H   UNL     1     -11.322  12.362  71.116  1.00  0.00     0.000 HD 
BRANCH   5   7
HETATM    7  C   UNL     1     -12.668  10.793  71.198  1.00  0.00    -0.431 C  
HETATM    8  O   UNL     1     -13.352  11.048  72.177  1.00  0.00    -0.451 OA 
BRANCH   7   9
HETATM    9  N   UNL     1     -12.614   9.545  70.606  1.00  0.00    -0.507 N  
HETATM   10  H   UNL     1     -13.320   9.318  69.905  1.00  0.00     0.000 HD 
BRANCH   9  11
HETATM   11  S   UNL     1     -11.471   8.387  70.961  1.00  0.00    -0.267 S  
HETATM   12  O   UNL     1     -12.018   7.068  70.746  1.00  0.00    -0.349 OA 
HETATM   13  O   UNL     1     -10.943   8.764  72.258  1.00  0.00    -0.359 OA 
BRANCH  11  14
HETATM   14  C   UNL     1     -10.201   8.700  69.759  1.00  0.00    -0.206 A  
HETATM   15  C   UNL     1     -10.319   8.164  68.474  1.00  0.00    -0.230 A  
HETATM   16  C   UNL     1      -9.296   8.366  67.546  1.00  0.00    -0.172 A  
HETATM   17  C   UNL     1      -8.158   9.106  67.893  1.00  0.00    -0.105 A  
HETATM   18  C   UNL     1      -8.080   9.686  69.168  1.00  0.00    -0.104 A  
HETATM   19  C   UNL     1      -7.022   9.273  66.926  1.00  0.00    -0.081 C  
HETATM   20  C   UNL     1      -9.102   9.492  70.098  1.00  0.00    -0.276 A  
ENDBRANCH  11  14
ENDBRANCH   9  11
ENDBRANCH   7   9
ENDBRANCH   5   7
ENDBRANCH   4   5
ENDBRANCH   3   4
ENDBRANCH   2   3
TORSDOF 7
ENDMDL
MODEL      135
REMARK 921   NORMALIZED FREE ENERGY PREDICTED BY IDOCK:   -4.04 KCAL/MOL
REMARK 922        TOTAL FREE ENERGY PREDICTED BY IDOCK:   -6.31 KCAL/MOL
REMARK 923 INTER-LIGAND FREE ENERGY PREDICTED BY IDOCK:   -5.67 KCAL/MOL
REMARK 924 INTRA-LIGAND FREE ENERGY PREDICTED BY IDOCK:   -0.64 KCAL/MOL
REMARK 927      BINDING AFFINITY PREDICTED BY RF-SCORE:    0.00 PKD
ROOT
HETATM    1  C   UNL     1     -10.513  20.175  66.342  1.00  0.00    -0.443 C  
HETATM    2  C   UNL     1      -9.263  19.855  67.147  1.00  0.00    -0.463 C  
ENDROOT
BRANCH   2   3
HETATM    3  C   UNL     1      -8.077  19.518  66.239  1.00  0.00    -0.344 C  
BRANCH   3   4
HETATM    4  C   UNL     1      -7.482  18.143  66.547  1.00  0.00    -0.236 C  
BRANCH   4   5
HETATM    5  N   UNL     1      -8.295  17.372  67.468  1.00  0.00    -0.204 N  
HETATM    6  H   UNL     1      -8.971  17.850  68.064  1.00  0.00     0.000 HD 
BRANCH   5   7
HETATM    7  C   UNL     1      -8.170  16.013  67.551  1.00  0.00    -0.152 C  
HETATM    8  O   UNL     1      -7.714  15.443  68.530  1.00  0.00    -0.123 OA 
BRANCH   7   9
HETATM    9  N   UNL     1      -8.632  15.353  66.427  1.00  0.00    -0.407 N  
HETATM   10  H   UNL     1      -7.942  14.979  65.775  1.00  0.00     0.000 HD 
BRANCH   9  11
HETATM   11  S   UNL     1     -10.242  15.128  66.067  1.00  0.00    -0.331 S  
HETATM   12  O   UNL     1     -10.377  14.287  64.900  1.00  0.00    -0.418 OA 
HETATM   13  O   UNL     1     -10.823  16.457  66.091  1.00  0.00    -0.213 OA 
BRANCH  11  14
HETATM   14  C   UNL     1     -10.850  14.258  67.492  1.00  0.00    -0.280 A  
HETATM   15  C   UNL     1     -11.014  12.872  67.437  1.00  0.00    -0.288 A  
HETATM   16  C   UNL     1     -11.541  12.195  68.539  1.00  0.00    -0.366 A  
HETATM   17  C   UNL     1     -11.900  12.896  69.697  1.00  0.00    -0.387 A  
HETATM   18  C   UNL     1     -11.676  14.279  69.759  1.00  0.00    -0.367 A  
HETATM   19  C   UNL     1     -12.529  12.189  70.862  1.00  0.00    -0.374 C  
HETATM   20  C   UNL     1     -11.145  14.961  68.663  1.00  0.00    -0.272 A  
ENDBRANCH  11  14
ENDBRANCH   9  11
ENDBRANCH   7   9
ENDBRANCH   5   7
ENDBRANCH   4   5
ENDBRANCH   3   4
ENDBRANCH   2   3
TORSDOF 7
ENDMDL
MODEL      136
REMARK 921   NORMALIZED FREE ENERGY PREDICTED BY IDOCK:   -4.01 KCAL/MOL
REMARK 922        TOTAL FREE ENERGY PREDICTED BY IDOCK:   -6.27 KCAL/MOL
REMARK 923 INTER-LIGAND FREE ENERGY PREDICTED BY IDOCK:   -5.89 KCAL/MOL
REMARK 924 INTRA-LIGAND FREE ENERGY PREDICTED BY IDOCK:   -0.38 KCAL/MOL
REMARK 927      BINDING AFFINITY PREDICTED BY RF-SCORE:    0.00 PKD
ROOT
HETATM    1  C   UNL     1      -6.588   4.835  64.382  1.00  0.00    -0.043 C  
HETATM    2  C   UNL     1      -7.571   4.563  65.509  1.00  0.00    -0.082 C  
ENDROOT
BRANCH   2   3
HETATM    3  C   UNL     1      -9.012   4.861  65.088  1.00  0.00    -0.152 C  
BRANCH   3   4
HETATM    4  C   UNL     1     -10.020   4.539  66.192  1.00  0.00    -0.248 C  
BRANCH   4   5
HETATM    5  N   UNL     1     -11.073   5.530  66.298  1.00  0.00    -0.770 N  
HETATM    6  H   UNL     1     -11.929   5.413  65.755  1.00  0.00     0.000 HD 
BRANCH   5   7
HETATM    7  C   UNL     1     -10.938   6.619  67.114  1.00  0.00    -0.408 C  
HETATM    8  O   UNL     1     -10.458   7.677  66.740  1.00  0.00    -0.314 OA 
BRANCH   7   9
HETATM    9  N   UNL     1     -11.421   6.405  68.392  1.00  0.00    -0.501 N  
HETATM   10  H   UNL     1     -12.381   6.074  68.490  1.00  0.00     0.000 HD 
BRANCH   9  11
HETATM   11  S   UNL     1     -10.538   6.653  69.782  1.00  0.00    -0.249 S  
HETATM   12  O   UNL     1      -9.156   6.917  69.451  1.00  0.00    -0.141 OA 
HETATM   13  O   UNL     1     -10.889   5.549  70.654  1.00  0.00    -0.258 OA 
BRANCH  11  14
HETATM   14  C   UNL     1     -11.271   8.122  70.461  1.00  0.00    -0.247 A  
HETATM   15  C   UNL     1     -12.291   8.010  71.410  1.00  0.00    -0.328 A  
HETATM   16  C   UNL     1     -12.902   9.163  71.905  1.00  0.00    -0.466 A  
HETATM   17  C   UNL     1     -12.497  10.428  71.460  1.00  0.00    -0.508 A  
HETATM   18  C   UNL     1     -11.434  10.527  70.551  1.00  0.00    -0.433 A  
HETATM   19  C   UNL     1     -13.192  11.671  71.934  1.00  0.00    -0.475 C  
HETATM   20  C   UNL     1     -10.814   9.378  70.057  1.00  0.00    -0.271 A  
ENDBRANCH  11  14
ENDBRANCH   9  11
ENDBRANCH   7   9
ENDBRANCH   5   7
ENDBRANCH   4   5
ENDBRANCH   3   4
ENDBRANCH   2   3
TORSDOF 7
ENDMDL
MODEL      137
REMARK 921   NORMALIZED FREE ENERGY PREDICTED BY IDOCK:   -4.00 KCAL/MOL
REMARK 922        TOTAL FREE ENERGY PREDICTED BY IDOCK:   -6.26 KCAL/MOL
REMARK 923 INTER-LIGAND FREE ENERGY PREDICTED BY IDOCK:   -5.98 KCAL/MOL
REMARK 924 INTRA-LIGAND FREE ENERGY PREDICTED BY IDOCK:   -0.28 KCAL/MOL
REMARK 927      BINDING AFFINITY PREDICTED BY RF-SCORE:    0.00 PKD
ROOT
HETATM    1  C   UNL     1     -11.282   6.992  70.555  1.00  0.00    -0.335 C  
HETATM    2  C   UNL     1     -10.706   8.360  70.228  1.00  0.00    -0.240 C  
ENDROOT
BRANCH   2   3
HETATM    3  C   UNL     1     -11.323   9.458  71.098  1.00  0.00    -0.422 C  
BRANCH   3   4
HETATM    4  C   UNL     1     -11.497  10.774  70.338  1.00  0.00    -0.307 C  
BRANCH   4   5
HETATM    5  N   UNL     1     -12.770  11.414  70.606  1.00  0.00    -0.239 N  
HETATM    6  H   UNL     1     -13.624  11.017  70.214  1.00  0.00     0.000 HD 
BRANCH   5   7
HETATM    7  C   UNL     1     -12.845  12.541  71.377  1.00  0.00    -0.260 C  
HETATM    8  O   UNL     1     -13.639  12.669  72.296  1.00  0.00    -0.547 OA 
BRANCH   7   9
HETATM    9  N   UNL     1     -11.918  13.504  71.025  1.00  0.00    -0.448 N  
HETATM   10  H   UNL     1     -10.938  13.226  70.970  1.00  0.00     0.000 HD 
BRANCH   9  11
HETATM   11  S   UNL     1     -12.296  15.090  70.685  1.00  0.00    -0.379 S  
HETATM   12  O   UNL     1     -11.571  15.973  71.569  1.00  0.00    -0.425 OA 
HETATM   13  O   UNL     1     -13.745  15.129  70.628  1.00  0.00    -0.237 OA 
BRANCH  11  14
HETATM   14  C   UNL     1     -11.694  15.295  69.026  1.00  0.00    -0.347 A  
HETATM   15  C   UNL     1     -11.939  14.302  68.074  1.00  0.00    -0.353 A  
HETATM   16  C   UNL     1     -11.421  14.438  66.785  1.00  0.00    -0.381 A  
HETATM   17  C   UNL     1     -10.662  15.565  66.441  1.00  0.00    -0.303 A  
HETATM   18  C   UNL     1     -10.472  16.580  67.390  1.00  0.00    -0.310 A  
HETATM   19  C   UNL     1     -10.044  15.691  65.080  1.00  0.00    -0.102 C  
HETATM   20  C   UNL     1     -10.992  16.452  68.679  1.00  0.00    -0.345 A  
ENDBRANCH  11  14
ENDBRANCH   9  11
ENDBRANCH   7   9
ENDBRANCH   5   7
ENDBRANCH   4   5
ENDBRANCH   3   4
ENDBRANCH   2   3
TORSDOF 7
ENDMDL
MODEL      138
REMARK 921   NORMALIZED FREE ENERGY PREDICTED BY IDOCK:   -3.99 KCAL/MOL
REMARK 922        TOTAL FREE ENERGY PREDICTED BY IDOCK:   -6.25 KCAL/MOL
REMARK 923 INTER-LIGAND FREE ENERGY PREDICTED BY IDOCK:   -5.69 KCAL/MOL
REMARK 924 INTRA-LIGAND FREE ENERGY PREDICTED BY IDOCK:   -0.56 KCAL/MOL
REMARK 927      BINDING AFFINITY PREDICTED BY RF-SCORE:    0.00 PKD
ROOT
HETATM    1  C   UNL     1     -10.621  19.949  66.981  1.00  0.00    -0.533 C  
HETATM    2  C   UNL     1      -9.822  19.709  68.253  1.00  0.00    -0.521 C  
ENDROOT
BRANCH   2   3
HETATM    3  C   UNL     1      -8.352  19.413  67.949  1.00  0.00    -0.343 C  
BRANCH   3   4
HETATM    4  C   UNL     1      -7.926  18.026  68.432  1.00  0.00    -0.300 C  
BRANCH   4   5
HETATM    5  N   UNL     1      -9.042  17.108  68.562  1.00  0.00    -0.259 N  
HETATM    6  H   UNL     1      -9.978  17.477  68.727  1.00  0.00     0.000 HD 
BRANCH   5   7
HETATM    7  C   UNL     1      -8.858  15.757  68.468  1.00  0.00    -0.193 C  
HETATM    8  O   UNL     1      -8.334  15.092  69.347  1.00  0.00    -0.198 OA 
BRANCH   7   9
HETATM    9  N   UNL     1      -9.347  15.221  67.291  1.00  0.00    -0.201 N  
HETATM   10  H   UNL     1      -8.711  15.159  66.495  1.00  0.00     0.000 HD 
BRANCH   9  11
HETATM   11  S   UNL     1     -10.905  14.672  67.086  1.00  0.00    -0.310 S  
HETATM   12  O   UNL     1     -11.394  15.043  65.778  1.00  0.00    -0.337 OA 
HETATM   13  O   UNL     1     -11.612  15.085  68.283  1.00  0.00    -0.317 OA 
BRANCH  11  14
HETATM   14  C   UNL     1     -10.717  12.907  67.163  1.00  0.00    -0.253 A  
HETATM   15  C   UNL     1      -9.820  12.269  66.303  1.00  0.00    -0.254 A  
HETATM   16  C   UNL     1      -9.711  10.877  66.327  1.00  0.00    -0.245 A  
HETATM   17  C   UNL     1     -10.491  10.120  67.211  1.00  0.00    -0.313 A  
HETATM   18  C   UNL     1     -11.345  10.777  68.108  1.00  0.00    -0.377 A  
HETATM   19  C   UNL     1     -10.431   8.621  67.200  1.00  0.00    -0.360 C  
HETATM   20  C   UNL     1     -11.454  12.169  68.092  1.00  0.00    -0.375 A  
ENDBRANCH  11  14
ENDBRANCH   9  11
ENDBRANCH   7   9
ENDBRANCH   5   7
ENDBRANCH   4   5
ENDBRANCH   3   4
ENDBRANCH   2   3
TORSDOF 7
ENDMDL
MODEL      139
REMARK 921   NORMALIZED FREE ENERGY PREDICTED BY IDOCK:   -3.98 KCAL/MOL
REMARK 922        TOTAL FREE ENERGY PREDICTED BY IDOCK:   -6.24 KCAL/MOL
REMARK 923 INTER-LIGAND FREE ENERGY PREDICTED BY IDOCK:   -5.68 KCAL/MOL
REMARK 924 INTRA-LIGAND FREE ENERGY PREDICTED BY IDOCK:   -0.55 KCAL/MOL
REMARK 927      BINDING AFFINITY PREDICTED BY RF-SCORE:    0.00 PKD
ROOT
HETATM    1  C   UNL     1      -5.349  12.055  68.893  1.00  0.00    -0.050 C  
HETATM    2  C   UNL     1      -6.317  11.827  67.742  1.00  0.00    -0.067 C  
ENDROOT
BRANCH   2   3
HETATM    3  C   UNL     1      -7.649  12.545  67.972  1.00  0.00    -0.127 C  
BRANCH   3   4
HETATM    4  C   UNL     1      -8.812  11.857  67.256  1.00  0.00    -0.179 C  
BRANCH   4   5
HETATM    5  N   UNL     1      -8.898  12.213  65.853  1.00  0.00    -0.410 N  
HETATM    6  H   UNL     1      -8.073  12.124  65.260  1.00  0.00     0.000 HD 
BRANCH   5   7
HETATM    7  C   UNL     1     -10.069  12.668  65.312  1.00  0.00    -0.253 C  
HETATM    8  O   UNL     1     -11.079  11.986  65.238  1.00  0.00    -0.303 OA 
BRANCH   7   9
HETATM    9  N   UNL     1      -9.997  13.979  64.881  1.00  0.00    -0.599 N  
HETATM   10  H   UNL     1      -9.207  14.245  64.293  1.00  0.00     0.000 HD 
BRANCH   9  11
HETATM   11  S   UNL     1     -11.115  15.153  65.259  1.00  0.00    -0.384 S  
HETATM   12  O   UNL     1     -12.422  14.767  64.780  1.00  0.00    -0.401 OA 
HETATM   13  O   UNL     1     -10.512  16.401  64.832  1.00  0.00    -0.643 OA 
BRANCH  11  14
HETATM   14  C   UNL     1     -11.115  15.145  67.036  1.00  0.00    -0.328 A  
HETATM   15  C   UNL     1     -11.976  14.285  67.723  1.00  0.00    -0.384 A  
HETATM   16  C   UNL     1     -12.013  14.316  69.118  1.00  0.00    -0.372 A  
HETATM   17  C   UNL     1     -11.190  15.198  69.831  1.00  0.00    -0.305 A  
HETATM   18  C   UNL     1     -10.290  16.014  69.130  1.00  0.00    -0.247 A  
HETATM   19  C   UNL     1     -11.270  15.287  71.326  1.00  0.00    -0.375 C  
HETATM   20  C   UNL     1     -10.245  15.984  67.736  1.00  0.00    -0.260 A  
ENDBRANCH  11  14
ENDBRANCH   9  11
ENDBRANCH   7   9
ENDBRANCH   5   7
ENDBRANCH   4   5
ENDBRANCH   3   4
ENDBRANCH   2   3
TORSDOF 7
ENDMDL
MODEL      140
REMARK 921   NORMALIZED FREE ENERGY PREDICTED BY IDOCK:   -3.97 KCAL/MOL
REMARK 922        TOTAL FREE ENERGY PREDICTED BY IDOCK:   -6.22 KCAL/MOL
REMARK 923 INTER-LIGAND FREE ENERGY PREDICTED BY IDOCK:   -5.50 KCAL/MOL
REMARK 924 INTRA-LIGAND FREE ENERGY PREDICTED BY IDOCK:   -0.71 KCAL/MOL
REMARK 927      BINDING AFFINITY PREDICTED BY RF-SCORE:    0.00 PKD
ROOT
HETATM    1  C   UNL     1     -12.576   7.595  71.273  1.00  0.00    -0.316 C  
HETATM    2  C   UNL     1     -12.967   8.601  72.344  1.00  0.00    -0.403 C  
ENDROOT
BRANCH   2   3
HETATM    3  C   UNL     1     -13.068  10.019  71.778  1.00  0.00    -0.562 C  
BRANCH   3   4
HETATM    4  C   UNL     1     -11.885  10.371  70.875  1.00  0.00    -0.377 C  
BRANCH   4   5
HETATM    5  N   UNL     1     -12.251  11.258  69.788  1.00  0.00    -0.295 N  
HETATM    6  H   UNL     1     -12.857  10.914  69.042  1.00  0.00     0.000 HD 
BRANCH   5   7
HETATM    7  C   UNL     1     -11.797  12.547  69.745  1.00  0.00    -0.310 C  
HETATM    8  O   UNL     1     -12.290  13.450  70.402  1.00  0.00    -0.336 OA 
BRANCH   7   9
HETATM    9  N   UNL     1     -10.713  12.716  68.904  1.00  0.00    -0.375 N  
HETATM   10  H   UNL     1      -9.799  12.869  69.329  1.00  0.00     0.000 HD 
BRANCH   9  11
HETATM   11  S   UNL     1     -10.802  12.685  67.241  1.00  0.00    -0.255 S  
HETATM   12  O   UNL     1     -10.020  13.764  66.683  1.00  0.00    -0.264 OA 
HETATM   13  O   UNL     1     -12.215  12.566  66.941  1.00  0.00    -0.511 OA 
BRANCH  11  14
HETATM   14  C   UNL     1     -10.039  11.134  66.832  1.00  0.00    -0.214 A  
HETATM   15  C   UNL     1     -10.000  10.713  65.500  1.00  0.00    -0.333 A  
HETATM   16  C   UNL     1      -9.447   9.470  65.184  1.00  0.00    -0.305 A  
HETATM   17  C   UNL     1      -8.930   8.647  66.193  1.00  0.00    -0.221 A  
HETATM   18  C   UNL     1      -8.925   9.106  67.518  1.00  0.00    -0.131 A  
HETATM   19  C   UNL     1      -8.395   7.282  65.874  1.00  0.00    -0.144 C  
HETATM   20  C   UNL     1      -9.470  10.350  67.839  1.00  0.00    -0.150 A  
ENDBRANCH  11  14
ENDBRANCH   9  11
ENDBRANCH   7   9
ENDBRANCH   5   7
ENDBRANCH   4   5
ENDBRANCH   3   4
ENDBRANCH   2   3
TORSDOF 7
ENDMDL
MODEL      141
REMARK 921   NORMALIZED FREE ENERGY PREDICTED BY IDOCK:   -3.97 KCAL/MOL
REMARK 922        TOTAL FREE ENERGY PREDICTED BY IDOCK:   -6.22 KCAL/MOL
REMARK 923 INTER-LIGAND FREE ENERGY PREDICTED BY IDOCK:   -5.48 KCAL/MOL
REMARK 924 INTRA-LIGAND FREE ENERGY PREDICTED BY IDOCK:   -0.74 KCAL/MOL
REMARK 927      BINDING AFFINITY PREDICTED BY RF-SCORE:    0.00 PKD
ROOT
HETATM    1  C   UNL     1     -14.407   7.537  71.580  1.00  0.00    -0.603 C  
HETATM    2  C   UNL     1     -13.243   8.351  72.123  1.00  0.00    -0.346 C  
ENDROOT
BRANCH   2   3
HETATM    3  C   UNL     1     -13.247   9.780  71.574  1.00  0.00    -0.493 C  
BRANCH   3   4
HETATM    4  C   UNL     1     -11.835  10.311  71.324  1.00  0.00    -0.335 C  
BRANCH   4   5
HETATM    5  N   UNL     1     -11.828  11.584  70.629  1.00  0.00    -0.455 N  
HETATM    6  H   UNL     1     -12.128  12.426  71.120  1.00  0.00     0.000 HD 
BRANCH   5   7
HETATM    7  C   UNL     1     -11.425  11.674  69.326  1.00  0.00    -0.300 C  
HETATM    8  O   UNL     1     -12.195  11.589  68.382  1.00  0.00    -0.540 OA 
BRANCH   7   9
HETATM    9  N   UNL     1     -10.067  11.893  69.189  1.00  0.00    -0.410 N  
HETATM   10  H   UNL     1      -9.654  12.669  69.707  1.00  0.00     0.000 HD 
BRANCH   9  11
HETATM   11  S   UNL     1      -9.060  10.974  68.233  1.00  0.00    -0.164 S  
HETATM   12  O   UNL     1      -7.679  11.286  68.524  1.00  0.00    -0.115 OA 
HETATM   13  O   UNL     1      -9.581  11.117  66.888  1.00  0.00    -0.182 OA 
BRANCH  11  14
HETATM   14  C   UNL     1      -9.411   9.316  68.766  1.00  0.00    -0.150 A  
HETATM   15  C   UNL     1     -10.175   8.476  67.951  1.00  0.00    -0.273 A  
HETATM   16  C   UNL     1     -10.496   7.191  68.393  1.00  0.00    -0.228 A  
HETATM   17  C   UNL     1     -10.053   6.739  69.644  1.00  0.00    -0.197 A  
HETATM   18  C   UNL     1      -9.240   7.573  70.425  1.00  0.00    -0.157 A  
HETATM   19  C   UNL     1     -10.447   5.386  70.158  1.00  0.00    -0.361 C  
HETATM   20  C   UNL     1      -8.911   8.856  69.987  1.00  0.00    -0.172 A  
ENDBRANCH  11  14
ENDBRANCH   9  11
ENDBRANCH   7   9
ENDBRANCH   5   7
ENDBRANCH   4   5
ENDBRANCH   3   4
ENDBRANCH   2   3
TORSDOF 7
ENDMDL
MODEL      142
REMARK 921   NORMALIZED FREE ENERGY PREDICTED BY IDOCK:   -3.97 KCAL/MOL
REMARK 922        TOTAL FREE ENERGY PREDICTED BY IDOCK:   -6.22 KCAL/MOL
REMARK 923 INTER-LIGAND FREE ENERGY PREDICTED BY IDOCK:   -5.51 KCAL/MOL
REMARK 924 INTRA-LIGAND FREE ENERGY PREDICTED BY IDOCK:   -0.71 KCAL/MOL
REMARK 927      BINDING AFFINITY PREDICTED BY RF-SCORE:    0.00 PKD
ROOT
HETATM    1  C   UNL     1     -10.388   5.584  69.337  1.00  0.00    -0.348 C  
HETATM    2  C   UNL     1     -11.042   6.650  68.471  1.00  0.00    -0.284 C  
ENDROOT
BRANCH   2   3
HETATM    3  C   UNL     1     -10.020   7.358  67.578  1.00  0.00    -0.225 C  
BRANCH   3   4
HETATM    4  C   UNL     1     -10.518   8.719  67.091  1.00  0.00    -0.283 C  
BRANCH   4   5
HETATM    5  N   UNL     1     -11.173   9.485  68.133  1.00  0.00    -0.509 N  
HETATM    6  H   UNL     1     -12.174   9.369  68.289  1.00  0.00     0.000 HD 
BRANCH   5   7
HETATM    7  C   UNL     1     -10.469  10.361  68.913  1.00  0.00    -0.212 C  
HETATM    8  O   UNL     1      -9.611  10.007  69.706  1.00  0.00    -0.222 OA 
BRANCH   7   9
HETATM    9  N   UNL     1     -10.811  11.683  68.693  1.00  0.00    -0.202 N  
HETATM   10  H   UNL     1     -11.053  12.253  69.503  1.00  0.00     0.000 HD 
BRANCH   9  11
HETATM   11  S   UNL     1     -10.855  12.404  67.193  1.00  0.00    -0.254 S  
HETATM   12  O   UNL     1     -12.128  12.150  66.558  1.00  0.00    -0.627 OA 
HETATM   13  O   UNL     1      -9.617  12.010  66.548  1.00  0.00    -0.212 OA 
BRANCH  11  14
HETATM   14  C   UNL     1     -10.725  14.133  67.580  1.00  0.00    -0.269 A  
HETATM   15  C   UNL     1     -10.619  15.066  66.546  1.00  0.00    -0.305 A  
HETATM   16  C   UNL     1     -10.464  16.420  66.851  1.00  0.00    -0.289 A  
HETATM   17  C   UNL     1     -10.420  16.846  68.185  1.00  0.00    -0.350 A  
HETATM   18  C   UNL     1     -10.585  15.905  69.211  1.00  0.00    -0.252 A  
HETATM   19  C   UNL     1     -10.186  18.289  68.525  1.00  0.00    -0.402 C  
HETATM   20  C   UNL     1     -10.745  14.551  68.913  1.00  0.00    -0.259 A  
ENDBRANCH  11  14
ENDBRANCH   9  11
ENDBRANCH   7   9
ENDBRANCH   5   7
ENDBRANCH   4   5
ENDBRANCH   3   4
ENDBRANCH   2   3
TORSDOF 7
ENDMDL
MODEL      143
REMARK 921   NORMALIZED FREE ENERGY PREDICTED BY IDOCK:   -3.96 KCAL/MOL
REMARK 922        TOTAL FREE ENERGY PREDICTED BY IDOCK:   -6.21 KCAL/MOL
REMARK 923 INTER-LIGAND FREE ENERGY PREDICTED BY IDOCK:   -5.56 KCAL/MOL
REMARK 924 INTRA-LIGAND FREE ENERGY PREDICTED BY IDOCK:   -0.65 KCAL/MOL
REMARK 927      BINDING AFFINITY PREDICTED BY RF-SCORE:    0.00 PKD
ROOT
HETATM    1  C   UNL     1      -9.699   8.816  71.513  1.00  0.00    -0.361 C  
HETATM    2  C   UNL     1     -11.044   9.502  71.333  1.00  0.00    -0.438 C  
ENDROOT
BRANCH   2   3
HETATM    3  C   UNL     1     -11.310   9.849  69.866  1.00  0.00    -0.273 C  
BRANCH   3   4
HETATM    4  C   UNL     1     -10.496  11.056  69.397  1.00  0.00    -0.142 C  
BRANCH   4   5
HETATM    5  N   UNL     1     -11.319  12.219  69.127  1.00  0.00    -0.263 N  
HETATM    6  H   UNL     1     -11.793  12.689  69.898  1.00  0.00     0.000 HD 
BRANCH   5   7
HETATM    7  C   UNL     1     -11.470  12.696  67.855  1.00  0.00    -0.309 C  
HETATM    8  O   UNL     1     -12.054  12.080  66.976  1.00  0.00    -0.603 OA 
BRANCH   7   9
HETATM    9  N   UNL     1     -10.918  13.950  67.673  1.00  0.00    -0.261 N  
HETATM   10  H   UNL     1     -11.135  14.447  66.809  1.00  0.00     0.000 HD 
BRANCH   9  11
HETATM   11  S   UNL     1      -9.921  14.704  68.773  1.00  0.00    -0.227 S  
HETATM   12  O   UNL     1      -8.608  14.101  68.747  1.00  0.00    -0.152 OA 
HETATM   13  O   UNL     1     -10.685  14.755  70.004  1.00  0.00    -0.184 OA 
BRANCH  11  14
HETATM   14  C   UNL     1      -9.817  16.362  68.143  1.00  0.00    -0.238 A  
HETATM   15  C   UNL     1      -9.023  17.304  68.803  1.00  0.00    -0.231 A  
HETATM   16  C   UNL     1      -8.983  18.620  68.339  1.00  0.00    -0.356 A  
HETATM   17  C   UNL     1      -9.730  18.999  67.215  1.00  0.00    -0.368 A  
HETATM   18  C   UNL     1     -10.477  18.030  66.530  1.00  0.00    -0.341 A  
HETATM   19  C   UNL     1      -9.747  20.425  66.748  1.00  0.00    -0.528 C  
HETATM   20  C   UNL     1     -10.516  16.712  66.986  1.00  0.00    -0.283 A  
ENDBRANCH  11  14
ENDBRANCH   9  11
ENDBRANCH   7   9
ENDBRANCH   5   7
ENDBRANCH   4   5
ENDBRANCH   3   4
ENDBRANCH   2   3
TORSDOF 7
ENDMDL
MODEL      144
REMARK 921   NORMALIZED FREE ENERGY PREDICTED BY IDOCK:   -3.96 KCAL/MOL
REMARK 922        TOTAL FREE ENERGY PREDICTED BY IDOCK:   -6.20 KCAL/MOL
REMARK 923 INTER-LIGAND FREE ENERGY PREDICTED BY IDOCK:   -6.03 KCAL/MOL
REMARK 924 INTRA-LIGAND FREE ENERGY PREDICTED BY IDOCK:   -0.17 KCAL/MOL
REMARK 927      BINDING AFFINITY PREDICTED BY RF-SCORE:    0.00 PKD
ROOT
HETATM    1  C   UNL     1      -5.287  19.595  66.088  1.00  0.00    -0.162 C  
HETATM    2  C   UNL     1      -6.010  19.771  67.414  1.00  0.00    -0.203 C  
ENDROOT
BRANCH   2   3
HETATM    3  C   UNL     1      -6.003  18.481  68.238  1.00  0.00    -0.197 C  
BRANCH   3   4
HETATM    4  C   UNL     1      -6.002  17.229  67.359  1.00  0.00    -0.142 C  
BRANCH   4   5
HETATM    5  N   UNL     1      -7.281  16.547  67.349  1.00  0.00    -0.135 N  
HETATM    6  H   UNL     1      -7.551  15.974  68.149  1.00  0.00     0.000 HD 
BRANCH   5   7
HETATM    7  C   UNL     1      -8.133  16.660  66.286  1.00  0.00    -0.326 C  
HETATM    8  O   UNL     1      -8.345  17.715  65.710  1.00  0.00    -0.537 OA 
BRANCH   7   9
HETATM    9  N   UNL     1      -8.708  15.457  65.918  1.00  0.00    -0.301 N  
HETATM   10  H   UNL     1      -8.106  14.634  65.876  1.00  0.00     0.000 HD 
BRANCH   9  11
HETATM   11  S   UNL     1     -10.317  15.264  65.539  1.00  0.00    -0.406 S  
HETATM   12  O   UNL     1     -10.486  14.136  64.651  1.00  0.00    -0.434 OA 
HETATM   13  O   UNL     1     -10.775  16.584  65.150  1.00  0.00    -0.606 OA 
BRANCH  11  14
HETATM   14  C   UNL     1     -11.053  14.888  67.112  1.00  0.00    -0.332 A  
HETATM   15  C   UNL     1     -11.267  15.913  68.037  1.00  0.00    -0.319 A  
HETATM   16  C   UNL     1     -11.797  15.610  69.293  1.00  0.00    -0.378 A  
HETATM   17  C   UNL     1     -12.118  14.288  69.627  1.00  0.00    -0.396 A  
HETATM   18  C   UNL     1     -11.952  13.278  68.668  1.00  0.00    -0.345 A  
HETATM   19  C   UNL     1     -12.625  13.941  70.996  1.00  0.00    -0.444 C  
HETATM   20  C   UNL     1     -11.428  13.576  67.409  1.00  0.00    -0.366 A  
ENDBRANCH  11  14
ENDBRANCH   9  11
ENDBRANCH   7   9
ENDBRANCH   5   7
ENDBRANCH   4   5
ENDBRANCH   3   4
ENDBRANCH   2   3
TORSDOF 7
ENDMDL
MODEL      145
REMARK 921   NORMALIZED FREE ENERGY PREDICTED BY IDOCK:   -3.94 KCAL/MOL
REMARK 922        TOTAL FREE ENERGY PREDICTED BY IDOCK:   -6.18 KCAL/MOL
REMARK 923 INTER-LIGAND FREE ENERGY PREDICTED BY IDOCK:   -5.39 KCAL/MOL
REMARK 924 INTRA-LIGAND FREE ENERGY PREDICTED BY IDOCK:   -0.79 KCAL/MOL
REMARK 927      BINDING AFFINITY PREDICTED BY RF-SCORE:    0.00 PKD
ROOT
HETATM    1  C   UNL     1      -9.624   6.437  74.082  1.00  0.00    -0.242 C  
HETATM    2  C   UNL     1     -10.672   7.172  73.261  1.00  0.00    -0.403 C  
ENDROOT
BRANCH   2   3
HETATM    3  C   UNL     1     -11.552   6.201  72.469  1.00  0.00    -0.294 C  
BRANCH   3   4
HETATM    4  C   UNL     1     -10.870   5.708  71.192  1.00  0.00    -0.218 C  
BRANCH   4   5
HETATM    5  N   UNL     1     -11.399   6.332  69.994  1.00  0.00    -0.410 N  
HETATM    6  H   UNL     1     -12.390   6.233  69.772  1.00  0.00     0.000 HD 
BRANCH   5   7
HETATM    7  C   UNL     1     -10.592   7.052  69.159  1.00  0.00    -0.219 C  
HETATM    8  O   UNL     1      -9.586   6.591  68.641  1.00  0.00    -0.126 OA 
BRANCH   7   9
HETATM    9  N   UNL     1     -11.042   8.341  68.942  1.00  0.00    -0.403 N  
HETATM   10  H   UNL     1     -11.337   8.591  67.998  1.00  0.00     0.000 HD 
BRANCH   9  11
HETATM   11  S   UNL     1     -11.134   9.513  70.121  1.00  0.00    -0.250 S  
HETATM   12  O   UNL     1      -9.909   9.545  70.886  1.00  0.00    -0.275 OA 
HETATM   13  O   UNL     1     -12.408   9.290  70.777  1.00  0.00    -0.219 OA 
BRANCH  11  14
HETATM   14  C   UNL     1     -11.277  11.013  69.179  1.00  0.00    -0.255 A  
HETATM   15  C   UNL     1     -10.878  11.029  67.840  1.00  0.00    -0.285 A  
HETATM   16  C   UNL     1     -10.941  12.221  67.116  1.00  0.00    -0.308 A  
HETATM   17  C   UNL     1     -11.406  13.396  67.721  1.00  0.00    -0.325 A  
HETATM   18  C   UNL     1     -11.857  13.352  69.048  1.00  0.00    -0.378 A  
HETATM   19  C   UNL     1     -11.416  14.697  66.972  1.00  0.00    -0.379 C  
HETATM   20  C   UNL     1     -11.802  12.162  69.776  1.00  0.00    -0.397 A  
ENDBRANCH  11  14
ENDBRANCH   9  11
ENDBRANCH   7   9
ENDBRANCH   5   7
ENDBRANCH   4   5
ENDBRANCH   3   4
ENDBRANCH   2   3
TORSDOF 7
ENDMDL
MODEL      146
REMARK 921   NORMALIZED FREE ENERGY PREDICTED BY IDOCK:   -3.94 KCAL/MOL
REMARK 922        TOTAL FREE ENERGY PREDICTED BY IDOCK:   -6.18 KCAL/MOL
REMARK 923 INTER-LIGAND FREE ENERGY PREDICTED BY IDOCK:   -5.34 KCAL/MOL
REMARK 924 INTRA-LIGAND FREE ENERGY PREDICTED BY IDOCK:   -0.84 KCAL/MOL
REMARK 927      BINDING AFFINITY PREDICTED BY RF-SCORE:    0.00 PKD
ROOT
HETATM    1  C   UNL     1     -12.227  14.441  64.036  1.00  0.00    -0.300 C  
HETATM    2  C   UNL     1     -11.975  12.993  63.649  1.00  0.00    -0.608 C  
ENDROOT
BRANCH   2   3
HETATM    3  C   UNL     1     -11.376  12.194  64.810  1.00  0.00    -0.378 C  
BRANCH   3   4
HETATM    4  C   UNL     1     -11.752  12.776  66.172  1.00  0.00    -0.403 C  
BRANCH   4   5
HETATM    5  N   UNL     1     -10.598  13.040  67.010  1.00  0.00    -0.256 N  
HETATM    6  H   UNL     1      -9.671  12.754  66.693  1.00  0.00     0.000 HD 
BRANCH   5   7
HETATM    7  C   UNL     1     -10.731  13.667  68.218  1.00  0.00    -0.254 C  
HETATM    8  O   UNL     1     -11.436  13.237  69.118  1.00  0.00    -0.271 OA 
BRANCH   7   9
HETATM    9  N   UNL     1      -9.971  14.817  68.322  1.00  0.00    -0.217 N  
HETATM   10  H   UNL     1     -10.186  15.463  69.082  1.00  0.00     0.000 HD 
BRANCH   9  11
HETATM   11  S   UNL     1      -8.729  15.218  67.289  1.00  0.00    -0.212 S  
HETATM   12  O   UNL     1      -9.258  15.572  65.991  1.00  0.00    -0.326 OA 
HETATM   13  O   UNL     1      -7.764  14.144  67.424  1.00  0.00    -0.180 OA 
BRANCH  11  14
HETATM   14  C   UNL     1      -8.028  16.661  68.052  1.00  0.00    -0.171 A  
HETATM   15  C   UNL     1      -8.770  17.844  68.104  1.00  0.00    -0.268 A  
HETATM   16  C   UNL     1      -8.199  18.992  68.657  1.00  0.00    -0.399 A  
HETATM   17  C   UNL     1      -6.892  18.963  69.161  1.00  0.00    -0.327 A  
HETATM   18  C   UNL     1      -6.181  17.754  69.153  1.00  0.00    -0.230 A  
HETATM   19  C   UNL     1      -6.244  20.207  69.696  1.00  0.00    -0.377 C  
HETATM   20  C   UNL     1      -6.748  16.602  68.607  1.00  0.00    -0.163 A  
ENDBRANCH  11  14
ENDBRANCH   9  11
ENDBRANCH   7   9
ENDBRANCH   5   7
ENDBRANCH   4   5
ENDBRANCH   3   4
ENDBRANCH   2   3
TORSDOF 7
ENDMDL
MODEL      147
REMARK 921   NORMALIZED FREE ENERGY PREDICTED BY IDOCK:   -3.94 KCAL/MOL
REMARK 922        TOTAL FREE ENERGY PREDICTED BY IDOCK:   -6.17 KCAL/MOL
REMARK 923 INTER-LIGAND FREE ENERGY PREDICTED BY IDOCK:   -5.51 KCAL/MOL
REMARK 924 INTRA-LIGAND FREE ENERGY PREDICTED BY IDOCK:   -0.66 KCAL/MOL
REMARK 927      BINDING AFFINITY PREDICTED BY RF-SCORE:    0.00 PKD
ROOT
HETATM    1  C   UNL     1     -11.572  15.678  70.444  1.00  0.00    -0.368 C  
HETATM    2  C   UNL     1     -11.762  15.946  68.959  1.00  0.00    -0.377 C  
ENDROOT
BRANCH   2   3
HETATM    3  C   UNL     1     -10.830  15.083  68.104  1.00  0.00    -0.263 C  
BRANCH   3   4
HETATM    4  C   UNL     1     -11.458  14.702  66.763  1.00  0.00    -0.364 C  
BRANCH   4   5
HETATM    5  N   UNL     1     -10.857  13.521  66.175  1.00  0.00    -0.281 N  
HETATM    6  H   UNL     1      -9.857  13.512  65.976  1.00  0.00     0.000 HD 
BRANCH   5   7
HETATM    7  C   UNL     1     -11.610  12.417  65.884  1.00  0.00    -0.396 C  
HETATM    8  O   UNL     1     -12.631  12.463  65.216  1.00  0.00    -0.636 OA 
BRANCH   7   9
HETATM    9  N   UNL     1     -11.085  11.247  66.401  1.00  0.00    -0.244 N  
HETATM   10  H   UNL     1     -10.750  10.543  65.743  1.00  0.00     0.000 HD 
BRANCH   9  11
HETATM   11  S   UNL     1     -10.963  10.912  68.027  1.00  0.00    -0.288 S  
HETATM   12  O   UNL     1     -12.250  11.070  68.664  1.00  0.00    -0.571 OA 
HETATM   13  O   UNL     1      -9.815  11.671  68.485  1.00  0.00    -0.197 OA 
BRANCH  11  14
HETATM   14  C   UNL     1     -10.506   9.195  68.046  1.00  0.00    -0.224 A  
HETATM   15  C   UNL     1     -10.602   8.442  66.873  1.00  0.00    -0.285 A  
HETATM   16  C   UNL     1     -10.293   7.081  66.899  1.00  0.00    -0.338 A  
HETATM   17  C   UNL     1      -9.884   6.469  68.092  1.00  0.00    -0.131 A  
HETATM   18  C   UNL     1      -9.738   7.249  69.248  1.00  0.00    -0.161 A  
HETATM   19  C   UNL     1      -9.614   4.994  68.148  1.00  0.00    -0.182 C  
HETATM   20  C   UNL     1     -10.040   8.611  69.226  1.00  0.00    -0.203 A  
ENDBRANCH  11  14
ENDBRANCH   9  11
ENDBRANCH   7   9
ENDBRANCH   5   7
ENDBRANCH   4   5
ENDBRANCH   3   4
ENDBRANCH   2   3
TORSDOF 7
ENDMDL
MODEL      148
REMARK 921   NORMALIZED FREE ENERGY PREDICTED BY IDOCK:   -3.93 KCAL/MOL
REMARK 922        TOTAL FREE ENERGY PREDICTED BY IDOCK:   -6.16 KCAL/MOL
REMARK 923 INTER-LIGAND FREE ENERGY PREDICTED BY IDOCK:   -5.49 KCAL/MOL
REMARK 924 INTRA-LIGAND FREE ENERGY PREDICTED BY IDOCK:   -0.68 KCAL/MOL
REMARK 927      BINDING AFFINITY PREDICTED BY RF-SCORE:    0.00 PKD
ROOT
HETATM    1  C   UNL     1     -10.073   4.817  70.603  1.00  0.00    -0.288 C  
HETATM    2  C   UNL     1     -10.473   5.739  71.744  1.00  0.00    -0.281 C  
ENDROOT
BRANCH   2   3
HETATM    3  C   UNL     1     -11.701   6.580  71.387  1.00  0.00    -0.378 C  
BRANCH   3   4
HETATM    4  C   UNL     1     -11.902   7.753  72.347  1.00  0.00    -0.321 C  
BRANCH   4   5
HETATM    5  N   UNL     1     -11.686   9.041  71.715  1.00  0.00    -0.347 N  
HETATM    6  H   UNL     1     -12.447   9.720  71.687  1.00  0.00     0.000 HD 
BRANCH   5   7
HETATM    7  C   UNL     1     -10.480   9.359  71.158  1.00  0.00    -0.322 C  
HETATM    8  O   UNL     1      -9.422   9.275  71.762  1.00  0.00    -0.302 OA 
BRANCH   7   9
HETATM    9  N   UNL     1     -10.578   9.762  69.839  1.00  0.00    -0.245 N  
HETATM   10  H   UNL     1     -10.023   9.262  69.145  1.00  0.00     0.000 HD 
BRANCH   9  11
HETATM   11  S   UNL     1     -11.543  11.011  69.309  1.00  0.00    -0.342 S  
HETATM   12  O   UNL     1     -11.183  12.237  69.983  1.00  0.00    -0.014 OA 
HETATM   13  O   UNL     1     -12.898  10.499  69.382  1.00  0.00    -0.082 OA 
BRANCH  11  14
HETATM   14  C   UNL     1     -11.117  11.140  67.589  1.00  0.00    -0.287 A  
HETATM   15  C   UNL     1     -11.598  12.214  66.836  1.00  0.00    -0.408 A  
HETATM   16  C   UNL     1     -11.307  12.287  65.473  1.00  0.00    -0.394 A  
HETATM   17  C   UNL     1     -10.533  11.294  64.858  1.00  0.00    -0.375 A  
HETATM   18  C   UNL     1     -10.010  10.252  65.637  1.00  0.00    -0.347 A  
HETATM   19  C   UNL     1     -10.270  11.326  63.381  1.00  0.00    -0.454 C  
HETATM   20  C   UNL     1     -10.293  10.177  67.002  1.00  0.00    -0.303 A  
ENDBRANCH  11  14
ENDBRANCH   9  11
ENDBRANCH   7   9
ENDBRANCH   5   7
ENDBRANCH   4   5
ENDBRANCH   3   4
ENDBRANCH   2   3
TORSDOF 7
ENDMDL
MODEL      149
REMARK 921   NORMALIZED FREE ENERGY PREDICTED BY IDOCK:   -3.92 KCAL/MOL
REMARK 922        TOTAL FREE ENERGY PREDICTED BY IDOCK:   -6.15 KCAL/MOL
REMARK 923 INTER-LIGAND FREE ENERGY PREDICTED BY IDOCK:   -4.57 KCAL/MOL
REMARK 924 INTRA-LIGAND FREE ENERGY PREDICTED BY IDOCK:   -1.58 KCAL/MOL
REMARK 927      BINDING AFFINITY PREDICTED BY RF-SCORE:    0.00 PKD
ROOT
HETATM    1  C   UNL     1      -9.812   4.763  68.946  1.00  0.00    -0.230 C  
HETATM    2  C   UNL     1      -8.757   5.337  69.878  1.00  0.00    -0.117 C  
ENDROOT
BRANCH   2   3
HETATM    3  C   UNL     1      -8.146   6.624  69.317  1.00  0.00    -0.116 C  
BRANCH   3   4
HETATM    4  C   UNL     1      -8.748   7.012  67.966  1.00  0.00    -0.126 C  
BRANCH   4   5
HETATM    5  N   UNL     1      -8.879   8.447  67.801  1.00  0.00    -0.137 N  
HETATM    6  H   UNL     1      -8.078   9.050  67.988  1.00  0.00     0.000 HD 
BRANCH   5   7
HETATM    7  C   UNL     1     -10.060   9.005  67.397  1.00  0.00    -0.230 C  
HETATM    8  O   UNL     1     -10.249   9.419  66.264  1.00  0.00    -0.274 OA 
BRANCH   7   9
HETATM    9  N   UNL     1     -11.020   9.029  68.392  1.00  0.00    -0.462 N  
HETATM   10  H   UNL     1     -11.900   8.544  68.217  1.00  0.00     0.000 HD 
BRANCH   9  11
HETATM   11  S   UNL     1     -10.834   9.799  69.856  1.00  0.00    -0.289 S  
HETATM   12  O   UNL     1     -11.916  10.732  70.067  1.00  0.00    -0.292 OA 
HETATM   13  O   UNL     1      -9.456  10.251  69.873  1.00  0.00    -0.169 OA 
BRANCH  11  14
HETATM   14  C   UNL     1     -10.969   8.467  71.024  1.00  0.00    -0.249 A  
HETATM   15  C   UNL     1     -10.238   8.514  72.214  1.00  0.00    -0.395 A  
HETATM   16  C   UNL     1     -10.304   7.444  73.108  1.00  0.00    -0.384 A  
HETATM   17  C   UNL     1     -11.102   6.328  72.821  1.00  0.00    -0.284 A  
HETATM   18  C   UNL     1     -11.874   6.320  71.650  1.00  0.00    -0.315 A  
HETATM   19  C   UNL     1     -11.128   5.143  73.741  1.00  0.00    -0.210 C  
HETATM   20  C   UNL     1     -11.817   7.390  70.756  1.00  0.00    -0.288 A  
ENDBRANCH  11  14
ENDBRANCH   9  11
ENDBRANCH   7   9
ENDBRANCH   5   7
ENDBRANCH   4   5
ENDBRANCH   3   4
ENDBRANCH   2   3
TORSDOF 7
ENDMDL
MODEL      150
REMARK 921   NORMALIZED FREE ENERGY PREDICTED BY IDOCK:   -3.92 KCAL/MOL
REMARK 922        TOTAL FREE ENERGY PREDICTED BY IDOCK:   -6.15 KCAL/MOL
REMARK 923 INTER-LIGAND FREE ENERGY PREDICTED BY IDOCK:   -5.46 KCAL/MOL
REMARK 924 INTRA-LIGAND FREE ENERGY PREDICTED BY IDOCK:   -0.69 KCAL/MOL
REMARK 927      BINDING AFFINITY PREDICTED BY RF-SCORE:    0.00 PKD
ROOT
HETATM    1  C   UNL     1     -10.436  19.049  67.754  1.00  0.00    -0.499 C  
HETATM    2  C   UNL     1      -9.801  17.732  68.170  1.00  0.00    -0.326 C  
ENDROOT
BRANCH   2   3
HETATM    3  C   UNL     1     -10.795  16.572  68.082  1.00  0.00    -0.345 C  
BRANCH   3   4
HETATM    4  C   UNL     1     -11.404  16.222  69.440  1.00  0.00    -0.284 C  
BRANCH   4   5
HETATM    5  N   UNL     1     -12.428  15.200  69.351  1.00  0.00    -0.591 N  
HETATM    6  H   UNL     1     -13.153  15.275  68.637  1.00  0.00     0.000 HD 
BRANCH   5   7
HETATM    7  C   UNL     1     -12.438  14.135  70.209  1.00  0.00    -0.353 C  
HETATM    8  O   UNL     1     -13.164  14.075  71.189  1.00  0.00    -0.322 OA 
BRANCH   7   9
HETATM    9  N   UNL     1     -11.564  13.129  69.840  1.00  0.00    -0.501 N  
HETATM   10  H   UNL     1     -10.843  12.856  70.508  1.00  0.00     0.000 HD 
BRANCH   9  11
HETATM   11  S   UNL     1     -11.612  12.335  68.378  1.00  0.00    -0.343 S  
HETATM   12  O   UNL     1     -11.974  13.255  67.325  1.00  0.00    -0.367 OA 
HETATM   13  O   UNL     1     -12.402  11.143  68.621  1.00  0.00    -0.549 OA 
BRANCH  11  14
HETATM   14  C   UNL     1      -9.927  11.817  68.153  1.00  0.00    -0.194 A  
HETATM   15  C   UNL     1      -9.063  12.595  67.378  1.00  0.00    -0.191 A  
HETATM   16  C   UNL     1      -7.754  12.161  67.157  1.00  0.00    -0.151 A  
HETATM   17  C   UNL     1      -7.303  10.956  67.712  1.00  0.00    -0.093 A  
HETATM   18  C   UNL     1      -8.164  10.215  68.534  1.00  0.00    -0.111 A  
HETATM   19  C   UNL     1      -5.921  10.447  67.427  1.00  0.00    -0.053 C  
HETATM   20  C   UNL     1      -9.471  10.646  68.763  1.00  0.00    -0.186 A  
ENDBRANCH  11  14
ENDBRANCH   9  11
ENDBRANCH   7   9
ENDBRANCH   5   7
ENDBRANCH   4   5
ENDBRANCH   3   4
ENDBRANCH   2   3
TORSDOF 7
ENDMDL
MODEL      151
REMARK 921   NORMALIZED FREE ENERGY PREDICTED BY IDOCK:   -3.91 KCAL/MOL
REMARK 922        TOTAL FREE ENERGY PREDICTED BY IDOCK:   -6.14 KCAL/MOL
REMARK 923 INTER-LIGAND FREE ENERGY PREDICTED BY IDOCK:   -5.81 KCAL/MOL
REMARK 924 INTRA-LIGAND FREE ENERGY PREDICTED BY IDOCK:   -0.33 KCAL/MOL
REMARK 927      BINDING AFFINITY PREDICTED BY RF-SCORE:    0.00 PKD
ROOT
HETATM    1  C   UNL     1      -8.147   5.381  65.077  1.00  0.00    -0.120 C  
HETATM    2  C   UNL     1      -7.548   6.722  65.470  1.00  0.00    -0.088 C  
ENDROOT
BRANCH   2   3
HETATM    3  C   UNL     1      -8.616   7.688  65.989  1.00  0.00    -0.165 C  
BRANCH   3   4
HETATM    4  C   UNL     1      -8.662   8.989  65.187  1.00  0.00    -0.189 C  
BRANCH   4   5
HETATM    5  N   UNL     1      -9.997   9.548  65.097  1.00  0.00    -0.384 N  
HETATM    6  H   UNL     1     -10.783   9.037  65.499  1.00  0.00     0.000 HD 
BRANCH   5   7
HETATM    7  C   UNL     1     -10.219  10.748  64.483  1.00  0.00    -0.359 C  
HETATM    8  O   UNL     1     -10.297  10.873  63.271  1.00  0.00    -0.325 OA 
BRANCH   7   9
HETATM    9  N   UNL     1     -10.371  11.796  65.372  1.00  0.00    -0.257 N  
HETATM   10  H   UNL     1      -9.714  11.860  66.150  1.00  0.00     0.000 HD 
BRANCH   9  11
HETATM   11  S   UNL     1     -11.555  12.961  65.257  1.00  0.00    -0.360 S  
HETATM   12  O   UNL     1     -12.831  12.345  64.976  1.00  0.00    -0.673 OA 
HETATM   13  O   UNL     1     -11.009  13.967  64.366  1.00  0.00    -0.365 OA 
BRANCH  11  14
HETATM   14  C   UNL     1     -11.586  13.658  66.890  1.00  0.00    -0.367 A  
HETATM   15  C   UNL     1     -11.379  15.030  67.061  1.00  0.00    -0.319 A  
HETATM   16  C   UNL     1     -11.351  15.569  68.348  1.00  0.00    -0.357 A  
HETATM   17  C   UNL     1     -11.534  14.745  69.467  1.00  0.00    -0.331 A  
HETATM   18  C   UNL     1     -11.798  13.381  69.278  1.00  0.00    -0.385 A  
HETATM   19  C   UNL     1     -11.440  15.302  70.857  1.00  0.00    -0.377 C  
HETATM   20  C   UNL     1     -11.833  12.837  67.993  1.00  0.00    -0.386 A  
ENDBRANCH  11  14
ENDBRANCH   9  11
ENDBRANCH   7   9
ENDBRANCH   5   7
ENDBRANCH   4   5
ENDBRANCH   3   4
ENDBRANCH   2   3
TORSDOF 7
ENDMDL
MODEL      152
REMARK 921   NORMALIZED FREE ENERGY PREDICTED BY IDOCK:   -3.90 KCAL/MOL
REMARK 922        TOTAL FREE ENERGY PREDICTED BY IDOCK:   -6.12 KCAL/MOL
REMARK 923 INTER-LIGAND FREE ENERGY PREDICTED BY IDOCK:   -5.55 KCAL/MOL
REMARK 924 INTRA-LIGAND FREE ENERGY PREDICTED BY IDOCK:   -0.56 KCAL/MOL
REMARK 927      BINDING AFFINITY PREDICTED BY RF-SCORE:    0.00 PKD
ROOT
HETATM    1  C   UNL     1     -10.538   7.157  73.290  1.00  0.00    -0.405 C  
HETATM    2  C   UNL     1     -11.625   7.664  72.355  1.00  0.00    -0.386 C  
ENDROOT
BRANCH   2   3
HETATM    3  C   UNL     1     -12.118   6.564  71.411  1.00  0.00    -0.344 C  
BRANCH   3   4
HETATM    4  C   UNL     1     -11.070   6.183  70.365  1.00  0.00    -0.352 C  
BRANCH   4   5
HETATM    5  N   UNL     1     -11.027   7.108  69.249  1.00  0.00    -0.399 N  
HETATM    6  H   UNL     1     -11.033   8.113  69.428  1.00  0.00     0.000 HD 
BRANCH   5   7
HETATM    7  C   UNL     1     -10.980   6.656  67.960  1.00  0.00    -0.249 C  
HETATM    8  O   UNL     1     -11.024   5.472  67.666  1.00  0.00    -0.119 OA 
BRANCH   7   9
HETATM    9  N   UNL     1     -10.900   7.674  67.027  1.00  0.00    -0.502 N  
HETATM   10  H   UNL     1     -11.765   7.979  66.579  1.00  0.00     0.000 HD 
BRANCH   9  11
HETATM   11  S   UNL     1      -9.487   8.435  66.587  1.00  0.00    -0.223 S  
HETATM   12  O   UNL     1      -8.878   7.746  65.473  1.00  0.00    -0.118 OA 
HETATM   13  O   UNL     1      -8.757   8.623  67.827  1.00  0.00    -0.135 OA 
BRANCH  11  14
HETATM   14  C   UNL     1     -10.046  10.035  66.054  1.00  0.00    -0.248 A  
HETATM   15  C   UNL     1     -10.025  10.357  64.695  1.00  0.00    -0.408 A  
HETATM   16  C   UNL     1     -10.415  11.632  64.281  1.00  0.00    -0.383 A  
HETATM   17  C   UNL     1     -10.832  12.586  65.219  1.00  0.00    -0.321 A  
HETATM   18  C   UNL     1     -10.903  12.230  66.574  1.00  0.00    -0.297 A  
HETATM   19  C   UNL     1     -11.189  13.980  64.794  1.00  0.00    -0.375 C  
HETATM   20  C   UNL     1     -10.519  10.955  66.993  1.00  0.00    -0.291 A  
ENDBRANCH  11  14
ENDBRANCH   9  11
ENDBRANCH   7   9
ENDBRANCH   5   7
ENDBRANCH   4   5
ENDBRANCH   3   4
ENDBRANCH   2   3
TORSDOF 7
ENDMDL
MODEL      153
REMARK 921   NORMALIZED FREE ENERGY PREDICTED BY IDOCK:   -3.89 KCAL/MOL
REMARK 922        TOTAL FREE ENERGY PREDICTED BY IDOCK:   -6.10 KCAL/MOL
REMARK 923 INTER-LIGAND FREE ENERGY PREDICTED BY IDOCK:   -5.46 KCAL/MOL
REMARK 924 INTRA-LIGAND FREE ENERGY PREDICTED BY IDOCK:   -0.64 KCAL/MOL
REMARK 927      BINDING AFFINITY PREDICTED BY RF-SCORE:    0.00 PKD
ROOT
HETATM    1  C   UNL     1     -11.998  12.213  69.932  1.00  0.00    -0.380 C  
HETATM    2  C   UNL     1     -12.702  11.519  71.088  1.00  0.00    -0.458 C  
ENDROOT
BRANCH   2   3
HETATM    3  C   UNL     1     -12.564   9.997  71.003  1.00  0.00    -0.463 C  
BRANCH   3   4
HETATM    4  C   UNL     1     -13.054   9.297  72.271  1.00  0.00    -0.441 C  
BRANCH   4   5
HETATM    5  N   UNL     1     -12.347   8.059  72.539  1.00  0.00    -0.569 N  
HETATM    6  H   UNL     1     -11.751   7.989  73.363  1.00  0.00     0.000 HD 
BRANCH   5   7
HETATM    7  C   UNL     1     -12.467   6.983  71.703  1.00  0.00    -0.374 C  
HETATM    8  O   UNL     1     -13.436   6.803  70.983  1.00  0.00    -0.087 OA 
BRANCH   7   9
HETATM    9  N   UNL     1     -11.373   6.139  71.741  1.00  0.00    -0.287 N  
HETATM   10  H   UNL     1     -11.476   5.247  72.226  1.00  0.00     0.000 HD 
BRANCH   9  11
HETATM   11  S   UNL     1      -9.899   6.481  71.048  1.00  0.00    -0.179 S  
HETATM   12  O   UNL     1      -8.846   5.787  71.752  1.00  0.00    -0.135 OA 
HETATM   13  O   UNL     1      -9.870   7.925  70.914  1.00  0.00    -0.178 OA 
BRANCH  11  14
HETATM   14  C   UNL     1     -10.061   5.800  69.415  1.00  0.00    -0.213 A  
HETATM   15  C   UNL     1      -9.467   4.571  69.116  1.00  0.00    -0.233 A  
HETATM   16  C   UNL     1      -9.550   4.061  67.819  1.00  0.00    -0.204 A  
HETATM   17  C   UNL     1     -10.227   4.772  66.819  1.00  0.00    -0.253 A  
HETATM   18  C   UNL     1     -10.867   5.976  67.147  1.00  0.00    -0.414 A  
HETATM   19  C   UNL     1     -10.266   4.267  65.407  1.00  0.00    -0.235 C  
HETATM   20  C   UNL     1     -10.793   6.488  68.443  1.00  0.00    -0.357 A  
ENDBRANCH  11  14
ENDBRANCH   9  11
ENDBRANCH   7   9
ENDBRANCH   5   7
ENDBRANCH   4   5
ENDBRANCH   3   4
ENDBRANCH   2   3
TORSDOF 7
ENDMDL
MODEL      154
REMARK 921   NORMALIZED FREE ENERGY PREDICTED BY IDOCK:   -3.88 KCAL/MOL
REMARK 922        TOTAL FREE ENERGY PREDICTED BY IDOCK:   -6.09 KCAL/MOL
REMARK 923 INTER-LIGAND FREE ENERGY PREDICTED BY IDOCK:   -5.39 KCAL/MOL
REMARK 924 INTRA-LIGAND FREE ENERGY PREDICTED BY IDOCK:   -0.70 KCAL/MOL
REMARK 927      BINDING AFFINITY PREDICTED BY RF-SCORE:    0.00 PKD
ROOT
HETATM    1  C   UNL     1     -10.018   4.782  69.730  1.00  0.00    -0.308 C  
HETATM    2  C   UNL     1      -8.905   5.637  69.147  1.00  0.00    -0.111 C  
ENDROOT
BRANCH   2   3
HETATM    3  C   UNL     1      -9.167   7.130  69.361  1.00  0.00    -0.148 C  
BRANCH   3   4
HETATM    4  C   UNL     1     -10.630   7.504  69.123  1.00  0.00    -0.197 C  
BRANCH   4   5
HETATM    5  N   UNL     1     -11.194   8.289  70.204  1.00  0.00    -0.411 N  
HETATM    6  H   UNL     1     -12.140   8.088  70.530  1.00  0.00     0.000 HD 
BRANCH   5   7
HETATM    7  C   UNL     1     -10.479   9.294  70.792  1.00  0.00    -0.276 C  
HETATM    8  O   UNL     1      -9.848   9.146  71.827  1.00  0.00    -0.299 OA 
BRANCH   7   9
HETATM    9  N   UNL     1     -10.525  10.482  70.086  1.00  0.00    -0.449 N  
HETATM   10  H   UNL     1      -9.655  11.004  69.974  1.00  0.00     0.000 HD 
BRANCH   9  11
HETATM   11  S   UNL     1     -11.905  11.117  69.406  1.00  0.00    -0.362 S  
HETATM   12  O   UNL     1     -13.034  10.901  70.282  1.00  0.00    -0.214 OA 
HETATM   13  O   UNL     1     -11.921  10.616  68.046  1.00  0.00    -0.457 OA 
BRANCH  11  14
HETATM   14  C   UNL     1     -11.547  12.855  69.328  1.00  0.00    -0.310 A  
HETATM   15  C   UNL     1     -10.544  13.316  68.471  1.00  0.00    -0.270 A  
HETATM   16  C   UNL     1     -10.226  14.675  68.449  1.00  0.00    -0.235 A  
HETATM   17  C   UNL     1     -10.909  15.578  69.275  1.00  0.00    -0.252 A  
HETATM   18  C   UNL     1     -11.951  15.109  70.088  1.00  0.00    -0.374 A  
HETATM   19  C   UNL     1     -10.531  17.029  69.309  1.00  0.00    -0.293 C  
HETATM   20  C   UNL     1     -12.277  13.752  70.111  1.00  0.00    -0.425 A  
ENDBRANCH  11  14
ENDBRANCH   9  11
ENDBRANCH   7   9
ENDBRANCH   5   7
ENDBRANCH   4   5
ENDBRANCH   3   4
ENDBRANCH   2   3
TORSDOF 7
ENDMDL
MODEL      155
REMARK 921   NORMALIZED FREE ENERGY PREDICTED BY IDOCK:   -3.87 KCAL/MOL
REMARK 922        TOTAL FREE ENERGY PREDICTED BY IDOCK:   -6.08 KCAL/MOL
REMARK 923 INTER-LIGAND FREE ENERGY PREDICTED BY IDOCK:   -5.33 KCAL/MOL
REMARK 924 INTRA-LIGAND FREE ENERGY PREDICTED BY IDOCK:   -0.75 KCAL/MOL
REMARK 927      BINDING AFFINITY PREDICTED BY RF-SCORE:    0.00 PKD
ROOT
HETATM    1  C   UNL     1     -13.120  10.207  70.600  1.00  0.00    -0.274 C  
HETATM    2  C   UNL     1     -13.133  10.929  71.939  1.00  0.00    -0.537 C  
ENDROOT
BRANCH   2   3
HETATM    3  C   UNL     1     -13.068  12.448  71.763  1.00  0.00    -0.446 C  
BRANCH   3   4
HETATM    4  C   UNL     1     -12.179  12.860  70.590  1.00  0.00    -0.302 C  
BRANCH   4   5
HETATM    5  N   UNL     1     -12.651  14.056  69.919  1.00  0.00    -0.386 N  
HETATM    6  H   UNL     1     -13.048  13.982  68.981  1.00  0.00     0.000 HD 
BRANCH   5   7
HETATM    7  C   UNL     1     -12.574  15.280  70.522  1.00  0.00    -0.399 C  
HETATM    8  O   UNL     1     -13.508  15.787  71.124  1.00  0.00    -0.575 OA 
BRANCH   7   9
HETATM    9  N   UNL     1     -11.330  15.871  70.400  1.00  0.00    -0.356 N  
HETATM   10  H   UNL     1     -10.799  16.043  71.253  1.00  0.00     0.000 HD 
BRANCH   9  11
HETATM   11  S   UNL     1     -10.643  16.320  68.952  1.00  0.00    -0.307 S  
HETATM   12  O   UNL     1     -10.256  17.711  68.996  1.00  0.00    -0.364 OA 
HETATM   13  O   UNL     1     -11.558  15.840  67.934  1.00  0.00    -0.283 OA 
BRANCH  11  14
HETATM   14  C   UNL     1      -9.185  15.308  68.874  1.00  0.00    -0.211 A  
HETATM   15  C   UNL     1      -7.957  15.832  69.286  1.00  0.00    -0.239 A  
HETATM   16  C   UNL     1      -6.803  15.054  69.176  1.00  0.00    -0.132 A  
HETATM   17  C   UNL     1      -6.870  13.753  68.660  1.00  0.00    -0.102 A  
HETATM   18  C   UNL     1      -8.117  13.220  68.303  1.00  0.00    -0.156 A  
HETATM   19  C   UNL     1      -5.627  12.933  68.474  1.00  0.00    -0.067 C  
HETATM   20  C   UNL     1      -9.275  13.991  68.417  1.00  0.00    -0.196 A  
ENDBRANCH  11  14
ENDBRANCH   9  11
ENDBRANCH   7   9
ENDBRANCH   5   7
ENDBRANCH   4   5
ENDBRANCH   3   4
ENDBRANCH   2   3
TORSDOF 7
ENDMDL
MODEL      156
REMARK 921   NORMALIZED FREE ENERGY PREDICTED BY IDOCK:   -3.87 KCAL/MOL
REMARK 922        TOTAL FREE ENERGY PREDICTED BY IDOCK:   -6.07 KCAL/MOL
REMARK 923 INTER-LIGAND FREE ENERGY PREDICTED BY IDOCK:   -4.97 KCAL/MOL
REMARK 924 INTRA-LIGAND FREE ENERGY PREDICTED BY IDOCK:   -1.10 KCAL/MOL
REMARK 927      BINDING AFFINITY PREDICTED BY RF-SCORE:    0.00 PKD
ROOT
HETATM    1  C   UNL     1      -7.215  16.576  68.987  1.00  0.00    -0.219 C  
HETATM    2  C   UNL     1      -6.401  15.495  68.294  1.00  0.00    -0.121 C  
ENDROOT
BRANCH   2   3
HETATM    3  C   UNL     1      -7.292  14.537  67.500  1.00  0.00    -0.212 C  
BRANCH   3   4
HETATM    4  C   UNL     1      -7.312  13.130  68.099  1.00  0.00    -0.119 C  
BRANCH   4   5
HETATM    5  N   UNL     1      -8.576  12.807  68.733  1.00  0.00    -0.367 N  
HETATM    6  H   UNL     1      -8.669  12.901  69.745  1.00  0.00     0.000 HD 
BRANCH   5   7
HETATM    7  C   UNL     1      -9.645  12.378  67.997  1.00  0.00    -0.211 C  
HETATM    8  O   UNL     1      -9.655  11.318  67.390  1.00  0.00    -0.168 OA 
BRANCH   7   9
HETATM    9  N   UNL     1     -10.716  13.252  68.030  1.00  0.00    -0.235 N  
HETATM   10  H   UNL     1     -11.278  13.285  68.881  1.00  0.00     0.000 HD 
BRANCH   9  11
HETATM   11  S   UNL     1     -11.148  14.254  66.772  1.00  0.00    -0.323 S  
HETATM   12  O   UNL     1     -12.578  14.207  66.570  1.00  0.00    -0.394 OA 
HETATM   13  O   UNL     1     -10.240  13.919  65.693  1.00  0.00    -0.306 OA 
BRANCH  11  14
HETATM   14  C   UNL     1     -10.691  15.863  67.371  1.00  0.00    -0.313 A  
HETATM   15  C   UNL     1     -10.897  16.184  68.715  1.00  0.00    -0.310 A  
HETATM   16  C   UNL     1     -10.587  17.466  69.174  1.00  0.00    -0.161 A  
HETATM   17  C   UNL     1     -10.067  18.427  68.297  1.00  0.00    -0.410 A  
HETATM   18  C   UNL     1      -9.812  18.072  66.964  1.00  0.00    -0.318 A  
HETATM   19  C   UNL     1      -9.793  19.827  68.763  1.00  0.00    -0.464 C  
HETATM   20  C   UNL     1     -10.115  16.791  66.501  1.00  0.00    -0.322 A  
ENDBRANCH  11  14
ENDBRANCH   9  11
ENDBRANCH   7   9
ENDBRANCH   5   7
ENDBRANCH   4   5
ENDBRANCH   3   4
ENDBRANCH   2   3
TORSDOF 7
ENDMDL
MODEL      157
REMARK 921   NORMALIZED FREE ENERGY PREDICTED BY IDOCK:   -3.86 KCAL/MOL
REMARK 922        TOTAL FREE ENERGY PREDICTED BY IDOCK:   -6.06 KCAL/MOL
REMARK 923 INTER-LIGAND FREE ENERGY PREDICTED BY IDOCK:   -5.01 KCAL/MOL
REMARK 924 INTRA-LIGAND FREE ENERGY PREDICTED BY IDOCK:   -1.06 KCAL/MOL
REMARK 927      BINDING AFFINITY PREDICTED BY RF-SCORE:    0.00 PKD
ROOT
HETATM    1  C   UNL     1      -6.003  17.880  69.807  1.00  0.00    -0.230 C  
HETATM    2  C   UNL     1      -5.694  17.078  68.552  1.00  0.00    -0.139 C  
ENDROOT
BRANCH   2   3
HETATM    3  C   UNL     1      -6.914  16.971  67.634  1.00  0.00    -0.161 C  
BRANCH   3   4
HETATM    4  C   UNL     1      -7.308  15.520  67.356  1.00  0.00    -0.210 C  
BRANCH   4   5
HETATM    5  N   UNL     1      -7.969  14.890  68.482  1.00  0.00    -0.133 N  
HETATM    6  H   UNL     1      -7.688  15.136  69.431  1.00  0.00     0.000 HD 
BRANCH   5   7
HETATM    7  C   UNL     1      -8.964  13.971  68.292  1.00  0.00    -0.190 C  
HETATM    8  O   UNL     1      -8.860  13.024  67.529  1.00  0.00    -0.174 OA 
BRANCH   7   9
HETATM    9  N   UNL     1     -10.084  14.212  69.067  1.00  0.00    -0.401 N  
HETATM   10  H   UNL     1     -10.078  13.878  70.030  1.00  0.00     0.000 HD 
BRANCH   9  11
HETATM   11  S   UNL     1     -11.442  15.012  68.530  1.00  0.00    -0.330 S  
HETATM   12  O   UNL     1     -12.384  15.173  69.613  1.00  0.00    -0.281 OA 
HETATM   13  O   UNL     1     -11.828  14.325  67.312  1.00  0.00    -0.381 OA 
BRANCH  11  14
HETATM   14  C   UNL     1     -10.806  16.603  68.062  1.00  0.00    -0.337 A  
HETATM   15  C   UNL     1     -10.739  16.951  66.710  1.00  0.00    -0.111 A  
HETATM   16  C   UNL     1     -10.191  18.180  66.340  1.00  0.00    -0.405 A  
HETATM   17  C   UNL     1      -9.714  19.067  67.314  1.00  0.00    -0.368 A  
HETATM   18  C   UNL     1      -9.840  18.730  68.669  1.00  0.00    -0.441 A  
HETATM   19  C   UNL     1      -9.062  20.362  66.925  1.00  0.00    -0.412 C  
HETATM   20  C   UNL     1     -10.392  17.504  69.046  1.00  0.00    -0.303 A  
ENDBRANCH  11  14
ENDBRANCH   9  11
ENDBRANCH   7   9
ENDBRANCH   5   7
ENDBRANCH   4   5
ENDBRANCH   3   4
ENDBRANCH   2   3
TORSDOF 7
ENDMDL
MODEL      158
REMARK 921   NORMALIZED FREE ENERGY PREDICTED BY IDOCK:   -3.86 KCAL/MOL
REMARK 922        TOTAL FREE ENERGY PREDICTED BY IDOCK:   -6.06 KCAL/MOL
REMARK 923 INTER-LIGAND FREE ENERGY PREDICTED BY IDOCK:   -5.25 KCAL/MOL
REMARK 924 INTRA-LIGAND FREE ENERGY PREDICTED BY IDOCK:   -0.82 KCAL/MOL
REMARK 927      BINDING AFFINITY PREDICTED BY RF-SCORE:    0.00 PKD
ROOT
HETATM    1  C   UNL     1      -8.474  17.209  67.380  1.00  0.00    -0.202 C  
HETATM    2  C   UNL     1      -9.427  17.783  68.417  1.00  0.00    -0.297 C  
ENDROOT
BRANCH   2   3
HETATM    3  C   UNL     1     -10.776  17.060  68.406  1.00  0.00    -0.361 C  
BRANCH   3   4
HETATM    4  C   UNL     1     -11.034  16.292  69.703  1.00  0.00    -0.346 C  
BRANCH   4   5
HETATM    5  N   UNL     1     -11.939  15.173  69.523  1.00  0.00    -0.383 N  
HETATM    6  H   UNL     1     -12.555  15.151  68.710  1.00  0.00     0.000 HD 
BRANCH   5   7
HETATM    7  C   UNL     1     -11.980  14.147  70.425  1.00  0.00    -0.330 C  
HETATM    8  O   UNL     1     -12.181  14.315  71.618  1.00  0.00    -0.340 OA 
BRANCH   7   9
HETATM    9  N   UNL     1     -11.795  12.905  69.847  1.00  0.00    -0.433 N  
HETATM   10  H   UNL     1     -12.190  12.094  70.324  1.00  0.00     0.000 HD 
BRANCH   9  11
HETATM   11  S   UNL     1     -10.970  12.645  68.425  1.00  0.00    -0.271 S  
HETATM   12  O   UNL     1      -9.695  13.323  68.460  1.00  0.00    -0.215 OA 
HETATM   13  O   UNL     1     -11.929  12.931  67.375  1.00  0.00    -0.363 OA 
BRANCH  11  14
HETATM   14  C   UNL     1     -10.703  10.889  68.436  1.00  0.00    -0.203 A  
HETATM   15  C   UNL     1     -10.798  10.168  67.243  1.00  0.00    -0.295 A  
HETATM   16  C   UNL     1     -10.640   8.781  67.260  1.00  0.00    -0.303 A  
HETATM   17  C   UNL     1     -10.381   8.111  68.463  1.00  0.00    -0.230 A  
HETATM   18  C   UNL     1     -10.231   8.854  69.643  1.00  0.00    -0.209 A  
HETATM   19  C   UNL     1     -10.276   6.615  68.505  1.00  0.00    -0.185 C  
HETATM   20  C   UNL     1     -10.383  10.241  69.632  1.00  0.00    -0.281 A  
ENDBRANCH  11  14
ENDBRANCH   9  11
ENDBRANCH   7   9
ENDBRANCH   5   7
ENDBRANCH   4   5
ENDBRANCH   3   4
ENDBRANCH   2   3
TORSDOF 7
ENDMDL
MODEL      159
REMARK 921   NORMALIZED FREE ENERGY PREDICTED BY IDOCK:   -3.86 KCAL/MOL
REMARK 922        TOTAL FREE ENERGY PREDICTED BY IDOCK:   -6.06 KCAL/MOL
REMARK 923 INTER-LIGAND FREE ENERGY PREDICTED BY IDOCK:   -5.58 KCAL/MOL
REMARK 924 INTRA-LIGAND FREE ENERGY PREDICTED BY IDOCK:   -0.48 KCAL/MOL
REMARK 927      BINDING AFFINITY PREDICTED BY RF-SCORE:    0.00 PKD
ROOT
HETATM    1  C   UNL     1     -12.237  14.603  64.463  1.00  0.00    -0.473 C  
HETATM    2  C   UNL     1     -12.085  13.382  63.570  1.00  0.00    -0.497 C  
ENDROOT
BRANCH   2   3
HETATM    3  C   UNL     1     -11.220  12.304  64.229  1.00  0.00    -0.409 C  
BRANCH   3   4
HETATM    4  C   UNL     1     -11.474  12.194  65.733  1.00  0.00    -0.361 C  
BRANCH   4   5
HETATM    5  N   UNL     1     -10.285  12.446  66.524  1.00  0.00    -0.224 N  
HETATM    6  H   UNL     1      -9.368  12.221  66.138  1.00  0.00     0.000 HD 
BRANCH   5   7
HETATM    7  C   UNL     1     -10.373  12.979  67.780  1.00  0.00    -0.226 C  
HETATM    8  O   UNL     1     -10.750  12.342  68.751  1.00  0.00    -0.228 OA 
BRANCH   7   9
HETATM    9  N   UNL     1      -9.970  14.300  67.841  1.00  0.00    -0.226 N  
HETATM   10  H   UNL     1      -9.118  14.562  67.345  1.00  0.00     0.000 HD 
BRANCH   9  11
HETATM   11  S   UNL     1     -10.783  15.492  68.671  1.00  0.00    -0.265 S  
HETATM   12  O   UNL     1     -10.653  15.283  70.095  1.00  0.00    -0.287 OA 
HETATM   13  O   UNL     1     -12.093  15.557  68.052  1.00  0.00    -0.074 OA 
BRANCH  11  14
HETATM   14  C   UNL     1      -9.905  16.967  68.211  1.00  0.00    -0.266 A  
HETATM   15  C   UNL     1      -8.517  17.018  68.360  1.00  0.00    -0.239 A  
HETATM   16  C   UNL     1      -7.832  18.195  68.048  1.00  0.00    -0.266 A  
HETATM   17  C   UNL     1      -8.529  19.319  67.584  1.00  0.00    -0.327 A  
HETATM   18  C   UNL     1      -9.914  19.234  67.386  1.00  0.00    -0.462 A  
HETATM   19  C   UNL     1      -7.813  20.609  67.310  1.00  0.00    -0.341 C  
HETATM   20  C   UNL     1     -10.603  18.059  67.690  1.00  0.00    -0.413 A  
ENDBRANCH  11  14
ENDBRANCH   9  11
ENDBRANCH   7   9
ENDBRANCH   5   7
ENDBRANCH   4   5
ENDBRANCH   3   4
ENDBRANCH   2   3
TORSDOF 7
ENDMDL
MODEL      160
REMARK 921   NORMALIZED FREE ENERGY PREDICTED BY IDOCK:   -3.85 KCAL/MOL
REMARK 922        TOTAL FREE ENERGY PREDICTED BY IDOCK:   -6.05 KCAL/MOL
REMARK 923 INTER-LIGAND FREE ENERGY PREDICTED BY IDOCK:   -5.52 KCAL/MOL
REMARK 924 INTRA-LIGAND FREE ENERGY PREDICTED BY IDOCK:   -0.53 KCAL/MOL
REMARK 927      BINDING AFFINITY PREDICTED BY RF-SCORE:    0.00 PKD
ROOT
HETATM    1  C   UNL     1      -9.319   9.770  64.542  1.00  0.00    -0.298 C  
HETATM    2  C   UNL     1      -9.979   9.916  65.904  1.00  0.00    -0.347 C  
ENDROOT
BRANCH   2   3
HETATM    3  C   UNL     1      -8.943   9.997  67.029  1.00  0.00    -0.152 C  
BRANCH   3   4
HETATM    4  C   UNL     1      -8.908  11.375  67.689  1.00  0.00    -0.139 C  
BRANCH   4   5
HETATM    5  N   UNL     1      -8.292  12.386  66.850  1.00  0.00    -0.318 N  
HETATM    6  H   UNL     1      -7.634  12.103  66.124  1.00  0.00     0.000 HD 
BRANCH   5   7
HETATM    7  C   UNL     1      -8.579  13.712  67.017  1.00  0.00    -0.159 C  
HETATM    8  O   UNL     1      -7.761  14.527  67.414  1.00  0.00    -0.180 OA 
BRANCH   7   9
HETATM    9  N   UNL     1      -9.878  14.037  66.669  1.00  0.00    -0.275 N  
HETATM   10  H   UNL     1     -10.188  13.812  65.724  1.00  0.00     0.000 HD 
BRANCH   9  11
HETATM   11  S   UNL     1     -10.967  14.772  67.691  1.00  0.00    -0.301 S  
HETATM   12  O   UNL     1     -10.724  14.359  69.055  1.00  0.00    -0.244 OA 
HETATM   13  O   UNL     1     -12.263  14.561  67.076  1.00  0.00    -0.362 OA 
BRANCH  11  14
HETATM   14  C   UNL     1     -10.571  16.495  67.520  1.00  0.00    -0.313 A  
HETATM   15  C   UNL     1     -10.307  17.260  68.659  1.00  0.00    -0.357 A  
HETATM   16  C   UNL     1     -10.048  18.626  68.529  1.00  0.00    -0.426 A  
HETATM   17  C   UNL     1     -10.047  19.230  67.265  1.00  0.00    -0.481 A  
HETATM   18  C   UNL     1     -10.258  18.440  66.126  1.00  0.00    -0.408 A  
HETATM   19  C   UNL     1      -9.837  20.709  67.119  1.00  0.00    -0.497 C  
HETATM   20  C   UNL     1     -10.512  17.073  66.250  1.00  0.00    -0.258 A  
ENDBRANCH  11  14
ENDBRANCH   9  11
ENDBRANCH   7   9
ENDBRANCH   5   7
ENDBRANCH   4   5
ENDBRANCH   3   4
ENDBRANCH   2   3
TORSDOF 7
ENDMDL
MODEL      161
REMARK 921   NORMALIZED FREE ENERGY PREDICTED BY IDOCK:   -3.85 KCAL/MOL
REMARK 922        TOTAL FREE ENERGY PREDICTED BY IDOCK:   -6.04 KCAL/MOL
REMARK 923 INTER-LIGAND FREE ENERGY PREDICTED BY IDOCK:   -5.45 KCAL/MOL
REMARK 924 INTRA-LIGAND FREE ENERGY PREDICTED BY IDOCK:   -0.59 KCAL/MOL
REMARK 927      BINDING AFFINITY PREDICTED BY RF-SCORE:    0.00 PKD
ROOT
HETATM    1  C   UNL     1     -13.723  13.469  72.285  1.00  0.00    -0.700 C  
HETATM    2  C   UNL     1     -12.825  14.533  71.672  1.00  0.00    -0.409 C  
ENDROOT
BRANCH   2   3
HETATM    3  C   UNL     1     -12.213  14.064  70.350  1.00  0.00    -0.433 C  
BRANCH   3   4
HETATM    4  C   UNL     1     -12.589  12.620  70.016  1.00  0.00     0.161 C  
BRANCH   4   5
HETATM    5  N   UNL     1     -11.490  11.693  70.206  1.00  0.00    -0.501 N  
HETATM    6  H   UNL     1     -10.831  11.845  70.970  1.00  0.00     0.000 HD 
BRANCH   5   7
HETATM    7  C   UNL     1     -11.322  10.619  69.377  1.00  0.00    -0.284 C  
HETATM    8  O   UNL     1     -10.811  10.703  68.271  1.00  0.00    -0.204 OA 
BRANCH   7   9
HETATM    9  N   UNL     1     -11.766   9.431  69.928  1.00  0.00    -0.445 N  
HETATM   10  H   UNL     1     -12.637   9.037  69.572  1.00  0.00     0.000 HD 
BRANCH   9  11
HETATM   11  S   UNL     1     -10.972   8.601  71.133  1.00  0.00    -0.280 S  
HETATM   12  O   UNL     1     -11.875   8.334  72.229  1.00  0.00    -0.340 OA 
HETATM   13  O   UNL     1      -9.743   9.339  71.354  1.00  0.00    -0.284 OA 
BRANCH  11  14
HETATM   14  C   UNL     1     -10.538   7.071  70.343  1.00  0.00    -0.223 A  
HETATM   15  C   UNL     1     -10.037   6.015  71.108  1.00  0.00    -0.241 A  
HETATM   16  C   UNL     1      -9.647   4.831  70.480  1.00  0.00    -0.258 A  
HETATM   17  C   UNL     1      -9.759   4.695  69.090  1.00  0.00    -0.255 A  
HETATM   18  C   UNL     1     -10.316   5.741  68.341  1.00  0.00    -0.269 A  
HETATM   19  C   UNL     1      -9.281   3.453  68.396  1.00  0.00    -0.230 C  
HETATM   20  C   UNL     1     -10.713   6.925  68.964  1.00  0.00    -0.259 A  
ENDBRANCH  11  14
ENDBRANCH   9  11
ENDBRANCH   7   9
ENDBRANCH   5   7
ENDBRANCH   4   5
ENDBRANCH   3   4
ENDBRANCH   2   3
TORSDOF 7
ENDMDL
MODEL      162
REMARK 921   NORMALIZED FREE ENERGY PREDICTED BY IDOCK:   -3.83 KCAL/MOL
REMARK 922        TOTAL FREE ENERGY PREDICTED BY IDOCK:   -6.02 KCAL/MOL
REMARK 923 INTER-LIGAND FREE ENERGY PREDICTED BY IDOCK:   -5.45 KCAL/MOL
REMARK 924 INTRA-LIGAND FREE ENERGY PREDICTED BY IDOCK:   -0.58 KCAL/MOL
REMARK 927      BINDING AFFINITY PREDICTED BY RF-SCORE:    0.00 PKD
ROOT
HETATM    1  C   UNL     1      -9.293  19.105  67.770  1.00  0.00    -0.360 C  
HETATM    2  C   UNL     1      -9.586  18.282  66.525  1.00  0.00    -0.320 C  
ENDROOT
BRANCH   2   3
HETATM    3  C   UNL     1      -9.722  16.793  66.850  1.00  0.00    -0.263 C  
BRANCH   3   4
HETATM    4  C   UNL     1     -10.681  16.075  65.899  1.00  0.00    -0.280 C  
BRANCH   4   5
HETATM    5  N   UNL     1     -11.458  15.043  66.558  1.00  0.00    -0.293 N  
HETATM    6  H   UNL     1     -11.537  15.045  67.575  1.00  0.00     0.000 HD 
BRANCH   5   7
HETATM    7  C   UNL     1     -12.087  14.066  65.837  1.00  0.00    -0.428 C  
HETATM    8  O   UNL     1     -12.809  14.303  64.881  1.00  0.00    -0.680 OA 
BRANCH   7   9
HETATM    9  N   UNL     1     -11.804  12.789  66.286  1.00  0.00    -0.411 N  
HETATM   10  H   UNL     1     -12.516  12.308  66.836  1.00  0.00     0.000 HD 
BRANCH   9  11
HETATM   11  S   UNL     1     -10.377  11.985  65.987  1.00  0.00    -0.247 S  
HETATM   12  O   UNL     1      -9.253  12.851  66.259  1.00  0.00    -0.190 OA 
HETATM   13  O   UNL     1     -10.548  11.387  64.677  1.00  0.00    -0.290 OA 
BRANCH  11  14
HETATM   14  C   UNL     1     -10.406  10.669  67.179  1.00  0.00    -0.228 A  
HETATM   15  C   UNL     1     -10.353  10.970  68.543  1.00  0.00    -0.204 A  
HETATM   16  C   UNL     1     -10.323   9.933  69.478  1.00  0.00    -0.248 A  
HETATM   17  C   UNL     1     -10.350   8.597  69.058  1.00  0.00    -0.226 A  
HETATM   18  C   UNL     1     -10.461   8.311  67.689  1.00  0.00    -0.303 A  
HETATM   19  C   UNL     1     -10.251   7.475  70.049  1.00  0.00    -0.215 C  
HETATM   20  C   UNL     1     -10.497   9.342  66.750  1.00  0.00    -0.265 A  
ENDBRANCH  11  14
ENDBRANCH   9  11
ENDBRANCH   7   9
ENDBRANCH   5   7
ENDBRANCH   4   5
ENDBRANCH   3   4
ENDBRANCH   2   3
TORSDOF 7
ENDMDL
MODEL      163
REMARK 921   NORMALIZED FREE ENERGY PREDICTED BY IDOCK:   -3.83 KCAL/MOL
REMARK 922        TOTAL FREE ENERGY PREDICTED BY IDOCK:   -6.02 KCAL/MOL
REMARK 923 INTER-LIGAND FREE ENERGY PREDICTED BY IDOCK:   -5.50 KCAL/MOL
REMARK 924 INTRA-LIGAND FREE ENERGY PREDICTED BY IDOCK:   -0.51 KCAL/MOL
REMARK 927      BINDING AFFINITY PREDICTED BY RF-SCORE:    0.00 PKD
ROOT
HETATM    1  C   UNL     1     -10.030   4.803  70.261  1.00  0.00    -0.320 C  
HETATM    2  C   UNL     1     -10.590   5.774  71.288  1.00  0.00    -0.319 C  
ENDROOT
BRANCH   2   3
HETATM    3  C   UNL     1     -11.902   6.403  70.814  1.00  0.00    -0.319 C  
BRANCH   3   4
HETATM    4  C   UNL     1     -12.390   7.507  71.754  1.00  0.00    -0.326 C  
BRANCH   4   5
HETATM    5  N   UNL     1     -12.252   8.833  71.183  1.00  0.00    -0.380 N  
HETATM    6  H   UNL     1     -13.088   9.386  70.989  1.00  0.00     0.000 HD 
BRANCH   5   7
HETATM    7  C   UNL     1     -11.021   9.355  70.900  1.00  0.00    -0.320 C  
HETATM    8  O   UNL     1     -10.105   9.378  71.707  1.00  0.00    -0.200 OA 
BRANCH   7   9
HETATM    9  N   UNL     1     -10.914   9.830  69.606  1.00  0.00    -0.240 N  
HETATM   10  H   UNL     1     -11.441  10.668  69.361  1.00  0.00     0.000 HD 
BRANCH   9  11
HETATM   11  S   UNL     1      -9.981   9.124  68.422  1.00  0.00    -0.188 S  
HETATM   12  O   UNL     1     -10.411   7.764  68.196  1.00  0.00    -0.197 OA 
HETATM   13  O   UNL     1      -8.610   9.412  68.799  1.00  0.00    -0.123 OA 
BRANCH  11  14
HETATM   14  C   UNL     1     -10.353  10.104  66.987  1.00  0.00    -0.244 A  
HETATM   15  C   UNL     1      -9.840   9.729  65.742  1.00  0.00    -0.360 A  
HETATM   16  C   UNL     1     -10.089  10.527  64.624  1.00  0.00    -0.408 A  
HETATM   17  C   UNL     1     -10.852  11.696  64.743  1.00  0.00    -0.367 A  
HETATM   18  C   UNL     1     -11.408  12.029  65.986  1.00  0.00    -0.398 A  
HETATM   19  C   UNL     1     -11.070  12.597  63.562  1.00  0.00    -0.449 C  
HETATM   20  C   UNL     1     -11.167  11.232  67.106  1.00  0.00    -0.344 A  
ENDBRANCH  11  14
ENDBRANCH   9  11
ENDBRANCH   7   9
ENDBRANCH   5   7
ENDBRANCH   4   5
ENDBRANCH   3   4
ENDBRANCH   2   3
TORSDOF 7
ENDMDL
MODEL      164
REMARK 921   NORMALIZED FREE ENERGY PREDICTED BY IDOCK:   -3.82 KCAL/MOL
REMARK 922        TOTAL FREE ENERGY PREDICTED BY IDOCK:   -6.01 KCAL/MOL
REMARK 923 INTER-LIGAND FREE ENERGY PREDICTED BY IDOCK:   -5.90 KCAL/MOL
REMARK 924 INTRA-LIGAND FREE ENERGY PREDICTED BY IDOCK:   -0.12 KCAL/MOL
REMARK 927      BINDING AFFINITY PREDICTED BY RF-SCORE:    0.00 PKD
ROOT
HETATM    1  C   UNL     1      -9.257   7.534  66.644  1.00  0.00    -0.201 C  
HETATM    2  C   UNL     1     -10.173   8.742  66.761  1.00  0.00    -0.354 C  
ENDROOT
BRANCH   2   3
HETATM    3  C   UNL     1      -9.379  10.048  66.842  1.00  0.00    -0.188 C  
BRANCH   3   4
HETATM    4  C   UNL     1      -9.503  10.884  65.568  1.00  0.00    -0.211 C  
BRANCH   4   5
HETATM    5  N   UNL     1      -9.284  12.299  65.799  1.00  0.00    -0.438 N  
HETATM    6  H   UNL     1      -8.384  12.715  65.557  1.00  0.00     0.000 HD 
BRANCH   5   7
HETATM    7  C   UNL     1     -10.265  13.086  66.337  1.00  0.00    -0.280 C  
HETATM    8  O   UNL     1     -11.219  13.494  65.695  1.00  0.00    -0.293 OA 
BRANCH   7   9
HETATM    9  N   UNL     1     -10.077  13.349  67.681  1.00  0.00    -0.225 N  
HETATM   10  H   UNL     1      -9.207  13.034  68.112  1.00  0.00     0.000 HD 
BRANCH   9  11
HETATM   11  S   UNL     1     -11.176  14.147  68.644  1.00  0.00    -0.283 S  
HETATM   12  O   UNL     1     -12.214  14.735  67.829  1.00  0.00    -0.219 OA 
HETATM   13  O   UNL     1     -10.376  14.973  69.527  1.00  0.00    -0.240 OA 
BRANCH  11  14
HETATM   14  C   UNL     1     -11.869  12.837  69.624  1.00  0.00    -0.317 A  
HETATM   15  C   UNL     1     -12.504  13.140  70.831  1.00  0.00    -0.407 A  
HETATM   16  C   UNL     1     -13.002  12.106  71.627  1.00  0.00    -0.427 A  
HETATM   17  C   UNL     1     -12.873  10.772  71.219  1.00  0.00    -0.540 A  
HETATM   18  C   UNL     1     -12.285  10.487  69.978  1.00  0.00    -0.323 A  
HETATM   19  C   UNL     1     -13.345   9.649  72.096  1.00  0.00    -0.545 C  
HETATM   20  C   UNL     1     -11.790  11.516  69.176  1.00  0.00    -0.406 A  
ENDBRANCH  11  14
ENDBRANCH   9  11
ENDBRANCH   7   9
ENDBRANCH   5   7
ENDBRANCH   4   5
ENDBRANCH   3   4
ENDBRANCH   2   3
TORSDOF 7
ENDMDL
MODEL      165
REMARK 921   NORMALIZED FREE ENERGY PREDICTED BY IDOCK:   -3.82 KCAL/MOL
REMARK 922        TOTAL FREE ENERGY PREDICTED BY IDOCK:   -6.00 KCAL/MOL
REMARK 923 INTER-LIGAND FREE ENERGY PREDICTED BY IDOCK:   -5.36 KCAL/MOL
REMARK 924 INTRA-LIGAND FREE ENERGY PREDICTED BY IDOCK:   -0.64 KCAL/MOL
REMARK 927      BINDING AFFINITY PREDICTED BY RF-SCORE:    0.00 PKD
ROOT
HETATM    1  C   UNL     1     -13.258  13.304  71.882  1.00  0.00    -0.523 C  
HETATM    2  C   UNL     1     -12.276  13.473  70.733  1.00  0.00    -0.417 C  
ENDROOT
BRANCH   2   3
HETATM    3  C   UNL     1     -12.237  12.233  69.837  1.00  0.00    -0.234 C  
BRANCH   3   4
HETATM    4  C   UNL     1     -12.598  10.955  70.596  1.00  0.00    -0.346 C  
BRANCH   4   5
HETATM    5  N   UNL     1     -11.440  10.293  71.165  1.00  0.00    -0.309 N  
HETATM    6  H   UNL     1     -11.273  10.349  72.170  1.00  0.00     0.000 HD 
BRANCH   5   7
HETATM    7  C   UNL     1     -10.569   9.593  70.377  1.00  0.00    -0.295 C  
HETATM    8  O   UNL     1      -9.783  10.130  69.613  1.00  0.00    -0.228 OA 
BRANCH   7   9
HETATM    9  N   UNL     1     -10.654   8.224  70.552  1.00  0.00    -0.215 N  
HETATM   10  H   UNL     1     -10.103   7.629  69.933  1.00  0.00     0.000 HD 
BRANCH   9  11
HETATM   11  S   UNL     1     -11.596   7.483  71.707  1.00  0.00    -0.282 S  
HETATM   12  O   UNL     1     -12.968   7.413  71.258  1.00  0.00    -0.351 OA 
HETATM   13  O   UNL     1     -11.260   8.147  72.952  1.00  0.00    -0.381 OA 
BRANCH  11  14
HETATM   14  C   UNL     1     -10.918   5.843  71.780  1.00  0.00    -0.269 A  
HETATM   15  C   UNL     1     -10.935   5.141  72.988  1.00  0.00    -0.355 A  
HETATM   16  C   UNL     1     -10.355   3.873  73.058  1.00  0.00    -0.239 A  
HETATM   17  C   UNL     1      -9.760   3.301  71.925  1.00  0.00    -0.233 A  
HETATM   18  C   UNL     1      -9.801   3.993  70.706  1.00  0.00    -0.233 A  
HETATM   19  C   UNL     1      -9.075   1.968  72.005  1.00  0.00    -0.130 C  
HETATM   20  C   UNL     1     -10.385   5.258  70.628  1.00  0.00    -0.324 A  
ENDBRANCH  11  14
ENDBRANCH   9  11
ENDBRANCH   7   9
ENDBRANCH   5   7
ENDBRANCH   4   5
ENDBRANCH   3   4
ENDBRANCH   2   3
TORSDOF 7
ENDMDL
MODEL      166
REMARK 921   NORMALIZED FREE ENERGY PREDICTED BY IDOCK:   -3.81 KCAL/MOL
REMARK 922        TOTAL FREE ENERGY PREDICTED BY IDOCK:   -5.99 KCAL/MOL
REMARK 923 INTER-LIGAND FREE ENERGY PREDICTED BY IDOCK:   -5.32 KCAL/MOL
REMARK 924 INTRA-LIGAND FREE ENERGY PREDICTED BY IDOCK:   -0.67 KCAL/MOL
REMARK 927      BINDING AFFINITY PREDICTED BY RF-SCORE:    0.00 PKD
ROOT
HETATM    1  C   UNL     1      -8.532   8.062  70.172  1.00  0.00    -0.128 C  
HETATM    2  C   UNL     1      -9.605   9.026  69.691  1.00  0.00    -0.175 C  
ENDROOT
BRANCH   2   3
HETATM    3  C   UNL     1     -10.356   9.666  70.862  1.00  0.00    -0.334 C  
BRANCH   3   4
HETATM    4  C   UNL     1     -11.800  10.017  70.504  1.00  0.00    -0.303 C  
BRANCH   4   5
HETATM    5  N   UNL     1     -11.916  10.684  69.222  1.00  0.00    -0.510 N  
HETATM    6  H   UNL     1     -12.009  10.126  68.372  1.00  0.00     0.000 HD 
BRANCH   5   7
HETATM    7  C   UNL     1     -11.904  12.048  69.132  1.00  0.00    -0.311 C  
HETATM    8  O   UNL     1     -11.611  12.775  70.068  1.00  0.00    -0.236 OA 
BRANCH   7   9
HETATM    9  N   UNL     1     -12.232  12.515  67.873  1.00  0.00    -0.036 N  
HETATM   10  H   UNL     1     -13.080  13.073  67.777  1.00  0.00     0.000 HD 
BRANCH   9  11
HETATM   11  S   UNL     1     -11.332  12.226  66.502  1.00  0.00    -0.367 S  
HETATM   12  O   UNL     1     -12.191  12.201  65.341  1.00  0.00    -0.515 OA 
HETATM   13  O   UNL     1     -10.501  11.084  66.829  1.00  0.00    -0.231 OA 
BRANCH  11  14
HETATM   14  C   UNL     1     -10.271  13.648  66.417  1.00  0.00    -0.292 A  
HETATM   15  C   UNL     1      -9.079  13.665  67.145  1.00  0.00    -0.241 A  
HETATM   16  C   UNL     1      -8.270  14.804  67.120  1.00  0.00    -0.239 A  
HETATM   17  C   UNL     1      -8.645  15.924  66.366  1.00  0.00    -0.364 A  
HETATM   18  C   UNL     1      -9.815  15.871  65.595  1.00  0.00    -0.337 A  
HETATM   19  C   UNL     1      -7.819  17.176  66.384  1.00  0.00    -0.352 C  
HETATM   20  C   UNL     1     -10.624  14.734  65.612  1.00  0.00    -0.353 A  
ENDBRANCH  11  14
ENDBRANCH   9  11
ENDBRANCH   7   9
ENDBRANCH   5   7
ENDBRANCH   4   5
ENDBRANCH   3   4
ENDBRANCH   2   3
TORSDOF 7
ENDMDL
MODEL      167
REMARK 921   NORMALIZED FREE ENERGY PREDICTED BY IDOCK:   -3.80 KCAL/MOL
REMARK 922        TOTAL FREE ENERGY PREDICTED BY IDOCK:   -5.99 KCAL/MOL
REMARK 923 INTER-LIGAND FREE ENERGY PREDICTED BY IDOCK:   -5.41 KCAL/MOL
REMARK 924 INTRA-LIGAND FREE ENERGY PREDICTED BY IDOCK:   -0.58 KCAL/MOL
REMARK 927      BINDING AFFINITY PREDICTED BY RF-SCORE:    0.00 PKD
ROOT
HETATM    1  C   UNL     1     -10.631   7.516  69.112  1.00  0.00    -0.204 C  
HETATM    2  C   UNL     1     -10.736   8.305  70.408  1.00  0.00    -0.239 C  
ENDROOT
BRANCH   2   3
HETATM    3  C   UNL     1     -10.724   9.814  70.153  1.00  0.00    -0.339 C  
BRANCH   3   4
HETATM    4  C   UNL     1     -10.860  10.155  68.669  1.00  0.00    -0.235 C  
BRANCH   4   5
HETATM    5  N   UNL     1     -10.022  11.269  68.268  1.00  0.00    -0.188 N  
HETATM    6  H   UNL     1      -9.389  11.691  68.948  1.00  0.00     0.000 HD 
BRANCH   5   7
HETATM    7  C   UNL     1     -10.065  11.761  66.994  1.00  0.00    -0.209 C  
HETATM    8  O   UNL     1     -10.043  11.049  66.002  1.00  0.00    -0.230 OA 
BRANCH   7   9
HETATM    9  N   UNL     1     -10.161  13.140  66.945  1.00  0.00    -0.243 N  
HETATM   10  H   UNL     1      -9.325  13.667  66.694  1.00  0.00     0.000 HD 
BRANCH   9  11
HETATM   11  S   UNL     1     -11.552  13.995  67.269  1.00  0.00    -0.390 S  
HETATM   12  O   UNL     1     -12.041  13.666  68.588  1.00  0.00    -0.360 OA 
HETATM   13  O   UNL     1     -12.393  13.806  66.102  1.00  0.00    -0.445 OA 
BRANCH  11  14
HETATM   14  C   UNL     1     -10.994  15.682  67.253  1.00  0.00    -0.275 A  
HETATM   15  C   UNL     1     -10.565  16.257  66.054  1.00  0.00    -0.288 A  
HETATM   16  C   UNL     1     -10.077  17.565  66.051  1.00  0.00    -0.270 A  
HETATM   17  C   UNL     1     -10.019  18.303  67.241  1.00  0.00    -0.343 A  
HETATM   18  C   UNL     1     -10.506  17.733  68.426  1.00  0.00    -0.351 A  
HETATM   19  C   UNL     1      -9.435  19.685  67.262  1.00  0.00    -0.446 C  
HETATM   20  C   UNL     1     -11.001  16.428  68.434  1.00  0.00    -0.353 A  
ENDBRANCH  11  14
ENDBRANCH   9  11
ENDBRANCH   7   9
ENDBRANCH   5   7
ENDBRANCH   4   5
ENDBRANCH   3   4
ENDBRANCH   2   3
TORSDOF 7
ENDMDL
MODEL      168
REMARK 921   NORMALIZED FREE ENERGY PREDICTED BY IDOCK:   -3.80 KCAL/MOL
REMARK 922        TOTAL FREE ENERGY PREDICTED BY IDOCK:   -5.98 KCAL/MOL
REMARK 923 INTER-LIGAND FREE ENERGY PREDICTED BY IDOCK:   -5.20 KCAL/MOL
REMARK 924 INTRA-LIGAND FREE ENERGY PREDICTED BY IDOCK:   -0.78 KCAL/MOL
REMARK 927      BINDING AFFINITY PREDICTED BY RF-SCORE:    0.00 PKD
ROOT
HETATM    1  C   UNL     1      -9.952  11.606  67.911  1.00  0.00    -0.190 C  
HETATM    2  C   UNL     1     -10.649  12.891  68.329  1.00  0.00    -0.259 C  
ENDROOT
BRANCH   2   3
HETATM    3  C   UNL     1     -11.694  12.639  69.419  1.00  0.00    -0.387 C  
BRANCH   3   4
HETATM    4  C   UNL     1     -11.839  11.154  69.753  1.00  0.00    -0.349 C  
BRANCH   4   5
HETATM    5  N   UNL     1     -12.412  10.925  71.065  1.00  0.00    -0.382 N  
HETATM    6  H   UNL     1     -12.389  11.672  71.761  1.00  0.00     0.000 HD 
BRANCH   5   7
HETATM    7  C   UNL     1     -12.984   9.726  71.387  1.00  0.00    -0.395 C  
HETATM    8  O   UNL     1     -13.821   9.600  72.266  1.00  0.00    -0.380 OA 
BRANCH   7   9
HETATM    9  N   UNL     1     -12.535   8.680  70.601  1.00  0.00    -0.468 N  
HETATM   10  H   UNL     1     -12.985   8.536  69.697  1.00  0.00     0.000 HD 
BRANCH   9  11
HETATM   11  S   UNL     1     -11.309   7.640  71.034  1.00  0.00    -0.274 S  
HETATM   12  O   UNL     1     -11.831   6.570  71.851  1.00  0.00    -0.309 OA 
HETATM   13  O   UNL     1     -10.246   8.495  71.528  1.00  0.00    -0.208 OA 
BRANCH  11  14
HETATM   14  C   UNL     1     -10.777   6.982  69.472  1.00  0.00    -0.241 A  
HETATM   15  C   UNL     1     -10.622   5.601  69.321  1.00  0.00    -0.359 A  
HETATM   16  C   UNL     1     -10.154   5.088  68.110  1.00  0.00    -0.167 A  
HETATM   17  C   UNL     1      -9.844   5.946  67.047  1.00  0.00    -0.173 A  
HETATM   18  C   UNL     1     -10.059   7.325  67.194  1.00  0.00    -0.306 A  
HETATM   19  C   UNL     1      -9.277   5.412  65.765  1.00  0.00    -0.149 C  
HETATM   20  C   UNL     1     -10.532   7.843  68.400  1.00  0.00    -0.207 A  
ENDBRANCH  11  14
ENDBRANCH   9  11
ENDBRANCH   7   9
ENDBRANCH   5   7
ENDBRANCH   4   5
ENDBRANCH   3   4
ENDBRANCH   2   3
TORSDOF 7
ENDMDL
MODEL      169
REMARK 921   NORMALIZED FREE ENERGY PREDICTED BY IDOCK:   -3.79 KCAL/MOL
REMARK 922        TOTAL FREE ENERGY PREDICTED BY IDOCK:   -5.97 KCAL/MOL
REMARK 923 INTER-LIGAND FREE ENERGY PREDICTED BY IDOCK:   -5.20 KCAL/MOL
REMARK 924 INTRA-LIGAND FREE ENERGY PREDICTED BY IDOCK:   -0.77 KCAL/MOL
REMARK 927      BINDING AFFINITY PREDICTED BY RF-SCORE:    0.00 PKD
ROOT
HETATM    1  C   UNL     1     -13.145  10.012  71.213  1.00  0.00    -0.493 C  
HETATM    2  C   UNL     1     -12.920  11.498  71.446  1.00  0.00    -0.450 C  
ENDROOT
BRANCH   2   3
HETATM    3  C   UNL     1     -12.122  12.135  70.306  1.00  0.00    -0.385 C  
BRANCH   3   4
HETATM    4  C   UNL     1     -11.989  11.205  69.099  1.00  0.00    -0.343 C  
BRANCH   4   5
HETATM    5  N   UNL     1     -10.779  11.443  68.336  1.00  0.00    -0.192 N  
HETATM    6  H   UNL     1     -10.846  11.636  67.336  1.00  0.00     0.000 HD 
BRANCH   5   7
HETATM    7  C   UNL     1      -9.551  11.413  68.934  1.00  0.00    -0.073 C  
HETATM    8  O   UNL     1      -9.138  10.451  69.564  1.00  0.00    -0.183 OA 
BRANCH   7   9
HETATM    9  N   UNL     1      -8.818  12.569  68.734  1.00  0.00    -0.385 N  
HETATM   10  H   UNL     1      -8.459  13.054  69.556  1.00  0.00     0.000 HD 
BRANCH   9  11
HETATM   11  S   UNL     1      -8.484  13.220  67.239  1.00  0.00    -0.182 S  
HETATM   12  O   UNL     1      -9.162  12.469  66.208  1.00  0.00    -0.215 OA 
HETATM   13  O   UNL     1      -7.043  13.380  67.209  1.00  0.00    -0.134 OA 
BRANCH  11  14
HETATM   14  C   UNL     1      -9.196  14.845  67.346  1.00  0.00    -0.194 A  
HETATM   15  C   UNL     1      -9.137  15.699  66.242  1.00  0.00    -0.376 A  
HETATM   16  C   UNL     1      -9.650  16.994  66.344  1.00  0.00    -0.301 A  
HETATM   17  C   UNL     1     -10.225  17.438  67.542  1.00  0.00    -0.332 A  
HETATM   18  C   UNL     1     -10.328  16.551  68.623  1.00  0.00    -0.287 A  
HETATM   19  C   UNL     1     -10.718  18.848  67.683  1.00  0.00    -0.469 C  
HETATM   20  C   UNL     1      -9.823  15.253  68.526  1.00  0.00    -0.210 A  
ENDBRANCH  11  14
ENDBRANCH   9  11
ENDBRANCH   7   9
ENDBRANCH   5   7
ENDBRANCH   4   5
ENDBRANCH   3   4
ENDBRANCH   2   3
TORSDOF 7
ENDMDL
MODEL      170
REMARK 921   NORMALIZED FREE ENERGY PREDICTED BY IDOCK:   -3.79 KCAL/MOL
REMARK 922        TOTAL FREE ENERGY PREDICTED BY IDOCK:   -5.97 KCAL/MOL
REMARK 923 INTER-LIGAND FREE ENERGY PREDICTED BY IDOCK:   -5.50 KCAL/MOL
REMARK 924 INTRA-LIGAND FREE ENERGY PREDICTED BY IDOCK:   -0.47 KCAL/MOL
REMARK 927      BINDING AFFINITY PREDICTED BY RF-SCORE:    0.00 PKD
ROOT
HETATM    1  C   UNL     1     -12.109  11.969  64.178  1.00  0.00    -0.458 C  
HETATM    2  C   UNL     1     -11.086  13.080  64.003  1.00  0.00    -0.433 C  
ENDROOT
BRANCH   2   3
HETATM    3  C   UNL     1     -11.566  14.393  64.627  1.00  0.00    -0.414 C  
BRANCH   3   4
HETATM    4  C   UNL     1     -11.873  14.251  66.118  1.00  0.00    -0.402 C  
BRANCH   4   5
HETATM    5  N   UNL     1     -10.723  14.523  66.958  1.00  0.00    -0.286 N  
HETATM    6  H   UNL     1     -10.684  15.393  67.490  1.00  0.00     0.000 HD 
BRANCH   5   7
HETATM    7  C   UNL     1      -9.689  13.634  67.048  1.00  0.00    -0.251 C  
HETATM    8  O   UNL     1      -9.841  12.464  67.363  1.00  0.00    -0.196 OA 
BRANCH   7   9
HETATM    9  N   UNL     1      -8.464  14.186  66.724  1.00  0.00    -0.428 N  
HETATM   10  H   UNL     1      -8.228  14.276  65.736  1.00  0.00     0.000 HD 
BRANCH   9  11
HETATM   11  S   UNL     1      -7.348  14.715  67.841  1.00  0.00    -0.172 S  
HETATM   12  O   UNL     1      -6.026  14.261  67.475  1.00  0.00    -0.337 OA 
HETATM   13  O   UNL     1      -7.914  14.373  69.131  1.00  0.00    -0.103 OA 
BRANCH  11  14
HETATM   14  C   UNL     1      -7.429  16.482  67.677  1.00  0.00    -0.144 A  
HETATM   15  C   UNL     1      -7.522  17.055  66.407  1.00  0.00    -0.336 A  
HETATM   16  C   UNL     1      -7.533  18.445  66.275  1.00  0.00    -0.294 A  
HETATM   17  C   UNL     1      -7.455  19.266  67.408  1.00  0.00    -0.254 A  
HETATM   18  C   UNL     1      -7.420  18.677  68.680  1.00  0.00    -0.332 A  
HETATM   19  C   UNL     1      -7.398  20.759  67.275  1.00  0.00    -0.397 C  
HETATM   20  C   UNL     1      -7.415  17.288  68.819  1.00  0.00    -0.260 A  
ENDBRANCH  11  14
ENDBRANCH   9  11
ENDBRANCH   7   9
ENDBRANCH   5   7
ENDBRANCH   4   5
ENDBRANCH   3   4
ENDBRANCH   2   3
TORSDOF 7
ENDMDL
MODEL      171
REMARK 921   NORMALIZED FREE ENERGY PREDICTED BY IDOCK:   -3.77 KCAL/MOL
REMARK 922        TOTAL FREE ENERGY PREDICTED BY IDOCK:   -5.94 KCAL/MOL
REMARK 923 INTER-LIGAND FREE ENERGY PREDICTED BY IDOCK:   -5.74 KCAL/MOL
REMARK 924 INTRA-LIGAND FREE ENERGY PREDICTED BY IDOCK:   -0.20 KCAL/MOL
REMARK 927      BINDING AFFINITY PREDICTED BY RF-SCORE:    0.00 PKD
ROOT
HETATM    1  C   UNL     1     -12.931  10.088  71.227  1.00  0.00    -0.495 C  
HETATM    2  C   UNL     1     -12.826  11.508  71.760  1.00  0.00    -0.441 C  
ENDROOT
BRANCH   2   3
HETATM    3  C   UNL     1     -12.619  12.522  70.632  1.00  0.00    -0.237 C  
BRANCH   3   4
HETATM    4  C   UNL     1     -11.835  11.933  69.458  1.00  0.00    -0.331 C  
BRANCH   4   5
HETATM    5  N   UNL     1     -11.912  12.751  68.263  1.00  0.00    -0.293 N  
HETATM    6  H   UNL     1     -12.208  12.327  67.383  1.00  0.00     0.000 HD 
BRANCH   5   7
HETATM    7  C   UNL     1     -11.595  14.080  68.296  1.00  0.00    -0.329 C  
HETATM    8  O   UNL     1     -11.102  14.624  69.272  1.00  0.00    -0.249 OA 
BRANCH   7   9
HETATM    9  N   UNL     1     -11.867  14.735  67.109  1.00  0.00    -0.379 N  
HETATM   10  H   UNL     1     -12.824  15.049  66.946  1.00  0.00     0.000 HD 
BRANCH   9  11
HETATM   11  S   UNL     1     -10.735  15.046  65.929  1.00  0.00    -0.346 S  
HETATM   12  O   UNL     1     -11.392  15.425  64.699  1.00  0.00    -0.407 OA 
HETATM   13  O   UNL     1      -9.832  13.911  65.963  1.00  0.00    -0.299 OA 
BRANCH  11  14
HETATM   14  C   UNL     1      -9.855  16.445  66.580  1.00  0.00    -0.261 A  
HETATM   15  C   UNL     1     -10.480  17.694  66.626  1.00  0.00    -0.286 A  
HETATM   16  C   UNL     1      -9.770  18.804  67.089  1.00  0.00    -0.333 A  
HETATM   17  C   UNL     1      -8.441  18.671  67.511  1.00  0.00    -0.280 A  
HETATM   18  C   UNL     1      -7.846  17.401  67.513  1.00  0.00    -0.209 A  
HETATM   19  C   UNL     1      -7.648  19.868  67.947  1.00  0.00    -0.336 C  
HETATM   20  C   UNL     1      -8.552  16.287  67.057  1.00  0.00    -0.227 A  
ENDBRANCH  11  14
ENDBRANCH   9  11
ENDBRANCH   7   9
ENDBRANCH   5   7
ENDBRANCH   4   5
ENDBRANCH   3   4
ENDBRANCH   2   3
TORSDOF 7
ENDMDL
MODEL      172
REMARK 921   NORMALIZED FREE ENERGY PREDICTED BY IDOCK:   -3.76 KCAL/MOL
REMARK 922        TOTAL FREE ENERGY PREDICTED BY IDOCK:   -5.93 KCAL/MOL
REMARK 923 INTER-LIGAND FREE ENERGY PREDICTED BY IDOCK:   -5.60 KCAL/MOL
REMARK 924 INTRA-LIGAND FREE ENERGY PREDICTED BY IDOCK:   -0.33 KCAL/MOL
REMARK 927      BINDING AFFINITY PREDICTED BY RF-SCORE:    0.00 PKD
ROOT
HETATM    1  C   UNL     1      -5.746  19.597  64.204  1.00  0.00    -0.313 C  
HETATM    2  C   UNL     1      -6.637  20.532  65.007  1.00  0.00    -0.307 C  
ENDROOT
BRANCH   2   3
HETATM    3  C   UNL     1      -6.662  20.154  66.490  1.00  0.00    -0.252 C  
BRANCH   3   4
HETATM    4  C   UNL     1      -6.427  18.659  66.713  1.00  0.00    -0.184 C  
BRANCH   4   5
HETATM    5  N   UNL     1      -7.524  18.015  67.409  1.00  0.00    -0.201 N  
HETATM    6  H   UNL     1      -7.604  18.115  68.421  1.00  0.00     0.000 HD 
BRANCH   5   7
HETATM    7  C   UNL     1      -8.453  17.276  66.731  1.00  0.00    -0.247 C  
HETATM    8  O   UNL     1      -8.904  17.606  65.645  1.00  0.00    -0.383 OA 
BRANCH   7   9
HETATM    9  N   UNL     1      -8.808  16.112  67.387  1.00  0.00    -0.184 N  
HETATM   10  H   UNL     1      -8.071  15.437  67.593  1.00  0.00     0.000 HD 
BRANCH   9  11
HETATM   11  S   UNL     1     -10.359  15.739  67.862  1.00  0.00    -0.268 S  
HETATM   12  O   UNL     1     -11.190  16.920  67.817  1.00  0.00    -0.201 OA 
HETATM   13  O   UNL     1     -10.207  14.991  69.096  1.00  0.00    -0.228 OA 
BRANCH  11  14
HETATM   14  C   UNL     1     -10.894  14.597  66.612  1.00  0.00    -0.312 A  
HETATM   15  C   UNL     1     -10.528  14.808  65.280  1.00  0.00    -0.427 A  
HETATM   16  C   UNL     1     -10.992  13.940  64.290  1.00  0.00    -0.219 A  
HETATM   17  C   UNL     1     -11.817  12.858  64.625  1.00  0.00    -0.422 A  
HETATM   18  C   UNL     1     -12.130  12.625  65.972  1.00  0.00    -0.429 A  
HETATM   19  C   UNL     1     -12.376  11.958  63.562  1.00  0.00    -0.603 C  
HETATM   20  C   UNL     1     -11.664  13.486  66.967  1.00  0.00    -0.424 A  
ENDBRANCH  11  14
ENDBRANCH   9  11
ENDBRANCH   7   9
ENDBRANCH   5   7
ENDBRANCH   4   5
ENDBRANCH   3   4
ENDBRANCH   2   3
TORSDOF 7
ENDMDL
MODEL      173
REMARK 921   NORMALIZED FREE ENERGY PREDICTED BY IDOCK:   -3.75 KCAL/MOL
REMARK 922        TOTAL FREE ENERGY PREDICTED BY IDOCK:   -5.91 KCAL/MOL
REMARK 923 INTER-LIGAND FREE ENERGY PREDICTED BY IDOCK:   -5.78 KCAL/MOL
REMARK 924 INTRA-LIGAND FREE ENERGY PREDICTED BY IDOCK:   -0.13 KCAL/MOL
REMARK 927      BINDING AFFINITY PREDICTED BY RF-SCORE:    0.00 PKD
ROOT
HETATM    1  C   UNL     1     -11.115   6.355  68.535  1.00  0.00    -0.385 C  
HETATM    2  C   UNL     1      -9.610   6.570  68.591  1.00  0.00    -0.125 C  
ENDROOT
BRANCH   2   3
HETATM    3  C   UNL     1      -9.173   7.738  67.704  1.00  0.00    -0.146 C  
BRANCH   3   4
HETATM    4  C   UNL     1     -10.357   8.424  67.020  1.00  0.00    -0.315 C  
BRANCH   4   5
HETATM    5  N   UNL     1      -9.981   9.109  65.798  1.00  0.00    -0.434 N  
HETATM    6  H   UNL     1      -9.482   8.599  65.069  1.00  0.00     0.000 HD 
BRANCH   5   7
HETATM    7  C   UNL     1     -10.284  10.429  65.608  1.00  0.00    -0.238 C  
HETATM    8  O   UNL     1     -10.590  10.893  64.521  1.00  0.00    -0.343 OA 
BRANCH   7   9
HETATM    9  N   UNL     1     -10.230  11.174  66.772  1.00  0.00    -0.224 N  
HETATM   10  H   UNL     1      -9.945  10.700  67.629  1.00  0.00     0.000 HD 
BRANCH   9  11
HETATM   11  S   UNL     1     -10.601  12.794  66.866  1.00  0.00    -0.246 S  
HETATM   12  O   UNL     1     -11.561  13.144  65.844  1.00  0.00    -0.326 OA 
HETATM   13  O   UNL     1      -9.321  13.471  66.939  1.00  0.00    -0.237 OA 
BRANCH  11  14
HETATM   14  C   UNL     1     -11.367  12.934  68.463  1.00  0.00    -0.289 A  
HETATM   15  C   UNL     1     -11.668  11.778  69.189  1.00  0.00    -0.388 A  
HETATM   16  C   UNL     1     -12.317  11.886  70.420  1.00  0.00    -0.334 A  
HETATM   17  C   UNL     1     -12.663  13.143  70.933  1.00  0.00    -0.313 A  
HETATM   18  C   UNL     1     -12.303  14.297  70.220  1.00  0.00    -0.418 A  
HETATM   19  C   UNL     1     -13.419  13.268  72.222  1.00  0.00    -0.679 C  
HETATM   20  C   UNL     1     -11.649  14.196  68.991  1.00  0.00    -0.342 A  
ENDBRANCH  11  14
ENDBRANCH   9  11
ENDBRANCH   7   9
ENDBRANCH   5   7
ENDBRANCH   4   5
ENDBRANCH   3   4
ENDBRANCH   2   3
TORSDOF 7
ENDMDL
MODEL      174
REMARK 921   NORMALIZED FREE ENERGY PREDICTED BY IDOCK:   -3.75 KCAL/MOL
REMARK 922        TOTAL FREE ENERGY PREDICTED BY IDOCK:   -5.91 KCAL/MOL
REMARK 923 INTER-LIGAND FREE ENERGY PREDICTED BY IDOCK:   -4.58 KCAL/MOL
REMARK 924 INTRA-LIGAND FREE ENERGY PREDICTED BY IDOCK:   -1.33 KCAL/MOL
REMARK 927      BINDING AFFINITY PREDICTED BY RF-SCORE:    0.00 PKD
ROOT
HETATM    1  C   UNL     1      -9.712  10.517  66.940  1.00  0.00    -0.218 C  
HETATM    2  C   UNL     1     -10.779   9.646  67.584  1.00  0.00    -0.324 C  
ENDROOT
BRANCH   2   3
HETATM    3  C   UNL     1     -10.535   8.159  67.316  1.00  0.00    -0.379 C  
BRANCH   3   4
HETATM    4  C   UNL     1      -9.046   7.821  67.230  1.00  0.00    -0.131 C  
BRANCH   4   5
HETATM    5  N   UNL     1      -8.771   6.422  67.491  1.00  0.00    -0.114 N  
HETATM    6  H   UNL     1      -9.230   5.706  66.928  1.00  0.00     0.000 HD 
BRANCH   5   7
HETATM    7  C   UNL     1      -7.904   6.046  68.480  1.00  0.00    -0.100 C  
HETATM    8  O   UNL     1      -6.857   5.458  68.261  1.00  0.00    -0.056 OA 
BRANCH   7   9
HETATM    9  N   UNL     1      -8.324   6.418  69.743  1.00  0.00    -0.125 N  
HETATM   10  H   UNL     1      -7.811   7.163  70.216  1.00  0.00     0.000 HD 
BRANCH   9  11
HETATM   11  S   UNL     1      -9.612   5.732  70.545  1.00  0.00    -0.178 S  
HETATM   12  O   UNL     1      -9.158   5.091  71.757  1.00  0.00    -0.134 OA 
HETATM   13  O   UNL     1     -10.327   4.977  69.534  1.00  0.00    -0.238 OA 
BRANCH  11  14
HETATM   14  C   UNL     1     -10.614   7.138  70.964  1.00  0.00    -0.221 A  
HETATM   15  C   UNL     1     -11.980   6.967  71.201  1.00  0.00    -0.398 A  
HETATM   16  C   UNL     1     -12.777   8.080  71.479  1.00  0.00    -0.325 A  
HETATM   17  C   UNL     1     -12.214   9.362  71.525  1.00  0.00    -0.448 A  
HETATM   18  C   UNL     1     -10.831   9.511  71.342  1.00  0.00    -0.382 A  
HETATM   19  C   UNL     1     -13.071  10.572  71.757  1.00  0.00    -0.570 C  
HETATM   20  C   UNL     1     -10.029   8.402  71.070  1.00  0.00    -0.235 A  
ENDBRANCH  11  14
ENDBRANCH   9  11
ENDBRANCH   7   9
ENDBRANCH   5   7
ENDBRANCH   4   5
ENDBRANCH   3   4
ENDBRANCH   2   3
TORSDOF 7
ENDMDL
MODEL      175
REMARK 921   NORMALIZED FREE ENERGY PREDICTED BY IDOCK:   -3.74 KCAL/MOL
REMARK 922        TOTAL FREE ENERGY PREDICTED BY IDOCK:   -5.89 KCAL/MOL
REMARK 923 INTER-LIGAND FREE ENERGY PREDICTED BY IDOCK:   -5.45 KCAL/MOL
REMARK 924 INTRA-LIGAND FREE ENERGY PREDICTED BY IDOCK:   -0.45 KCAL/MOL
REMARK 927      BINDING AFFINITY PREDICTED BY RF-SCORE:    0.00 PKD
ROOT
HETATM    1  C   UNL     1     -10.102  10.263  69.213  1.00  0.00    -0.244 C  
HETATM    2  C   UNL     1     -10.702  10.209  67.816  1.00  0.00    -0.328 C  
ENDROOT
BRANCH   2   3
HETATM    3  C   UNL     1      -9.629  10.357  66.734  1.00  0.00    -0.209 C  
BRANCH   3   4
HETATM    4  C   UNL     1     -10.035  11.353  65.647  1.00  0.00    -0.240 C  
BRANCH   4   5
HETATM    5  N   UNL     1     -10.799  12.472  66.165  1.00  0.00    -0.266 N  
HETATM    6  H   UNL     1     -11.742  12.314  66.519  1.00  0.00     0.000 HD 
BRANCH   5   7
HETATM    7  C   UNL     1     -10.275  13.734  66.185  1.00  0.00    -0.301 C  
HETATM    8  O   UNL     1     -10.441  14.540  65.283  1.00  0.00    -0.337 OA 
BRANCH   7   9
HETATM    9  N   UNL     1      -9.562  14.010  67.337  1.00  0.00    -0.222 N  
HETATM   10  H   UNL     1      -8.883  13.318  67.655  1.00  0.00     0.000 HD 
BRANCH   9  11
HETATM   11  S   UNL     1      -9.738  15.398  68.240  1.00  0.00    -0.212 S  
HETATM   12  O   UNL     1     -10.376  16.426  67.450  1.00  0.00    -0.283 OA 
HETATM   13  O   UNL     1      -8.436  15.628  68.837  1.00  0.00    -0.178 OA 
BRANCH  11  14
HETATM   14  C   UNL     1     -10.836  14.889  69.540  1.00  0.00    -0.259 A  
HETATM   15  C   UNL     1     -10.979  15.690  70.676  1.00  0.00    -0.364 A  
HETATM   16  C   UNL     1     -11.802  15.265  71.721  1.00  0.00    -0.473 A  
HETATM   17  C   UNL     1     -12.485  14.045  71.635  1.00  0.00    -0.371 A  
HETATM   18  C   UNL     1     -12.376  13.279  70.465  1.00  0.00    -0.389 A  
HETATM   19  C   UNL     1     -13.318  13.546  72.779  1.00  0.00    -0.401 C  
HETATM   20  C   UNL     1     -11.560  13.701  69.415  1.00  0.00    -0.368 A  
ENDBRANCH  11  14
ENDBRANCH   9  11
ENDBRANCH   7   9
ENDBRANCH   5   7
ENDBRANCH   4   5
ENDBRANCH   3   4
ENDBRANCH   2   3
TORSDOF 7
ENDMDL
MODEL      176
REMARK 921   NORMALIZED FREE ENERGY PREDICTED BY IDOCK:   -3.74 KCAL/MOL
REMARK 922        TOTAL FREE ENERGY PREDICTED BY IDOCK:   -5.89 KCAL/MOL
REMARK 923 INTER-LIGAND FREE ENERGY PREDICTED BY IDOCK:   -5.59 KCAL/MOL
REMARK 924 INTRA-LIGAND FREE ENERGY PREDICTED BY IDOCK:   -0.31 KCAL/MOL
REMARK 927      BINDING AFFINITY PREDICTED BY RF-SCORE:    0.00 PKD
ROOT
HETATM    1  C   UNL     1     -10.573  18.329  67.334  1.00  0.00    -0.425 C  
HETATM    2  C   UNL     1      -9.656  17.496  66.453  1.00  0.00    -0.283 C  
ENDROOT
BRANCH   2   3
HETATM    3  C   UNL     1      -9.961  16.001  66.572  1.00  0.00    -0.293 C  
BRANCH   3   4
HETATM    4  C   UNL     1      -9.840  15.495  68.010  1.00  0.00    -0.212 C  
BRANCH   4   5
HETATM    5  N   UNL     1      -9.949  14.052  68.110  1.00  0.00    -0.235 N  
HETATM    6  H   UNL     1      -9.152  13.469  67.854  1.00  0.00     0.000 HD 
BRANCH   5   7
HETATM    7  C   UNL     1     -11.104  13.461  68.541  1.00  0.00    -0.270 C  
HETATM    8  O   UNL     1     -12.214  13.842  68.207  1.00  0.00    -0.332 OA 
BRANCH   7   9
HETATM    9  N   UNL     1     -10.884  12.377  69.371  1.00  0.00    -0.454 N  
HETATM   10  H   UNL     1     -10.310  12.521  70.202  1.00  0.00     0.000 HD 
BRANCH   9  11
HETATM   11  S   UNL     1     -11.494  10.851  69.103  1.00  0.00    -0.327 S  
HETATM   12  O   UNL     1     -11.078  10.371  67.805  1.00  0.00    -0.295 OA 
HETATM   13  O   UNL     1     -12.902  10.943  69.440  1.00  0.00    -0.201 OA 
BRANCH  11  14
HETATM   14  C   UNL     1     -10.708   9.881  70.367  1.00  0.00    -0.318 A  
HETATM   15  C   UNL     1      -9.327   9.675  70.321  1.00  0.00    -0.292 A  
HETATM   16  C   UNL     1      -8.717   8.869  71.285  1.00  0.00    -0.279 A  
HETATM   17  C   UNL     1      -9.480   8.273  72.298  1.00  0.00    -0.341 A  
HETATM   18  C   UNL     1     -10.856   8.536  72.365  1.00  0.00    -0.378 A  
HETATM   19  C   UNL     1      -8.846   7.352  73.299  1.00  0.00    -0.201 C  
HETATM   20  C   UNL     1     -11.470   9.344  71.407  1.00  0.00    -0.449 A  
ENDBRANCH  11  14
ENDBRANCH   9  11
ENDBRANCH   7   9
ENDBRANCH   5   7
ENDBRANCH   4   5
ENDBRANCH   3   4
ENDBRANCH   2   3
TORSDOF 7
ENDMDL
MODEL      177
REMARK 921   NORMALIZED FREE ENERGY PREDICTED BY IDOCK:   -3.70 KCAL/MOL
REMARK 922        TOTAL FREE ENERGY PREDICTED BY IDOCK:   -5.84 KCAL/MOL
REMARK 923 INTER-LIGAND FREE ENERGY PREDICTED BY IDOCK:   -5.45 KCAL/MOL
REMARK 924 INTRA-LIGAND FREE ENERGY PREDICTED BY IDOCK:   -0.39 KCAL/MOL
REMARK 927      BINDING AFFINITY PREDICTED BY RF-SCORE:    0.00 PKD
ROOT
HETATM    1  C   UNL     1     -13.589  14.001  72.492  1.00  0.00    -0.670 C  
HETATM    2  C   UNL     1     -12.461  14.715  71.764  1.00  0.00    -0.412 C  
ENDROOT
BRANCH   2   3
HETATM    3  C   UNL     1     -11.953  13.901  70.572  1.00  0.00    -0.384 C  
BRANCH   3   4
HETATM    4  C   UNL     1     -12.329  12.422  70.675  1.00  0.00    -0.279 C  
BRANCH   4   5
HETATM    5  N   UNL     1     -11.344  11.548  70.068  1.00  0.00    -0.492 N  
HETATM    6  H   UNL     1     -10.436  11.426  70.517  1.00  0.00     0.000 HD 
BRANCH   5   7
HETATM    7  C   UNL     1     -11.612  10.883  68.904  1.00  0.00    -0.309 C  
HETATM    8  O   UNL     1     -12.266  11.369  67.994  1.00  0.00    -0.607 OA 
BRANCH   7   9
HETATM    9  N   UNL     1     -11.050   9.621  68.854  1.00  0.00    -0.438 N  
HETATM   10  H   UNL     1     -11.641   8.826  69.099  1.00  0.00     0.000 HD 
BRANCH   9  11
HETATM   11  S   UNL     1      -9.472   9.313  68.422  1.00  0.00    -0.139 S  
HETATM   12  O   UNL     1      -8.612   9.412  69.579  1.00  0.00    -0.136 OA 
HETATM   13  O   UNL     1      -9.234  10.137  67.252  1.00  0.00    -0.137 OA 
BRANCH  11  14
HETATM   14  C   UNL     1      -9.532   7.623  67.878  1.00  0.00    -0.143 A  
HETATM   15  C   UNL     1      -8.414   6.802  68.047  1.00  0.00    -0.120 A  
HETATM   16  C   UNL     1      -8.443   5.490  67.572  1.00  0.00    -0.106 A  
HETATM   17  C   UNL     1      -9.586   4.992  66.932  1.00  0.00    -0.162 A  
HETATM   18  C   UNL     1     -10.720   5.809  66.820  1.00  0.00    -0.369 A  
HETATM   19  C   UNL     1      -9.605   3.605  66.358  1.00  0.00    -0.152 C  
HETATM   20  C   UNL     1     -10.699   7.120  67.298  1.00  0.00    -0.399 A  
ENDBRANCH  11  14
ENDBRANCH   9  11
ENDBRANCH   7   9
ENDBRANCH   5   7
ENDBRANCH   4   5
ENDBRANCH   3   4
ENDBRANCH   2   3
TORSDOF 7
ENDMDL
MODEL      178
REMARK 921   NORMALIZED FREE ENERGY PREDICTED BY IDOCK:   -3.70 KCAL/MOL
REMARK 922        TOTAL FREE ENERGY PREDICTED BY IDOCK:   -5.83 KCAL/MOL
REMARK 923 INTER-LIGAND FREE ENERGY PREDICTED BY IDOCK:   -5.09 KCAL/MOL
REMARK 924 INTRA-LIGAND FREE ENERGY PREDICTED BY IDOCK:   -0.75 KCAL/MOL
REMARK 927      BINDING AFFINITY PREDICTED BY RF-SCORE:    0.00 PKD
ROOT
HETATM    1  C   UNL     1      -9.808  11.298  63.164  1.00  0.00    -0.403 C  
HETATM    2  C   UNL     1     -10.929  11.423  64.184  1.00  0.00    -0.411 C  
ENDROOT
BRANCH   2   3
HETATM    3  C   UNL     1     -11.368  12.877  64.367  1.00  0.00    -0.402 C  
BRANCH   3   4
HETATM    4  C   UNL     1     -10.209  13.788  64.774  1.00  0.00    -0.335 C  
BRANCH   4   5
HETATM    5  N   UNL     1      -9.514  13.320  65.957  1.00  0.00    -0.470 N  
HETATM    6  H   UNL     1      -8.623  12.833  65.857  1.00  0.00     0.000 HD 
BRANCH   5   7
HETATM    7  C   UNL     1     -10.033  13.521  67.206  1.00  0.00    -0.236 C  
HETATM    8  O   UNL     1     -10.560  14.567  67.549  1.00  0.00    -0.258 OA 
BRANCH   7   9
HETATM    9  N   UNL     1      -9.922  12.414  68.027  1.00  0.00    -0.201 N  
HETATM   10  H   UNL     1      -8.999  12.185  68.396  1.00  0.00     0.000 HD 
BRANCH   9  11
HETATM   11  S   UNL     1     -11.196  11.430  68.452  1.00  0.00    -0.293 S  
HETATM   12  O   UNL     1     -12.248  11.525  67.467  1.00  0.00    -0.463 OA 
HETATM   13  O   UNL     1     -11.460  11.735  69.845  1.00  0.00    -0.272 OA 
BRANCH  11  14
HETATM   14  C   UNL     1     -10.480   9.805  68.392  1.00  0.00    -0.218 A  
HETATM   15  C   UNL     1     -10.282   9.093  69.577  1.00  0.00    -0.208 A  
HETATM   16  C   UNL     1      -9.671   7.838  69.535  1.00  0.00    -0.165 A  
HETATM   17  C   UNL     1      -9.262   7.289  68.312  1.00  0.00    -0.133 A  
HETATM   18  C   UNL     1      -9.519   7.990  67.125  1.00  0.00    -0.207 A  
HETATM   19  C   UNL     1      -8.545   5.972  68.261  1.00  0.00    -0.115 C  
HETATM   20  C   UNL     1     -10.134   9.242  67.161  1.00  0.00    -0.299 A  
ENDBRANCH  11  14
ENDBRANCH   9  11
ENDBRANCH   7   9
ENDBRANCH   5   7
ENDBRANCH   4   5
ENDBRANCH   3   4
ENDBRANCH   2   3
TORSDOF 7
ENDMDL
MODEL      179
REMARK 921   NORMALIZED FREE ENERGY PREDICTED BY IDOCK:   -3.68 KCAL/MOL
REMARK 922        TOTAL FREE ENERGY PREDICTED BY IDOCK:   -5.81 KCAL/MOL
REMARK 923 INTER-LIGAND FREE ENERGY PREDICTED BY IDOCK:   -5.13 KCAL/MOL
REMARK 924 INTRA-LIGAND FREE ENERGY PREDICTED BY IDOCK:   -0.68 KCAL/MOL
REMARK 927      BINDING AFFINITY PREDICTED BY RF-SCORE:    0.00 PKD
ROOT
HETATM    1  C   UNL     1      -8.692  17.392  67.714  1.00  0.00    -0.232 C  
HETATM    2  C   UNL     1      -9.327  16.024  67.903  1.00  0.00    -0.208 C  
ENDROOT
BRANCH   2   3
HETATM    3  C   UNL     1     -10.856  16.101  67.873  1.00  0.00    -0.332 C  
BRANCH   3   4
HETATM    4  C   UNL     1     -11.502  14.739  67.622  1.00  0.00    -0.347 C  
BRANCH   4   5
HETATM    5  N   UNL     1     -11.469  14.349  66.226  1.00  0.00    -0.351 N  
HETATM    6  H   UNL     1     -10.650  14.573  65.661  1.00  0.00     0.000 HD 
BRANCH   5   7
HETATM    7  C   UNL     1     -12.519  13.686  65.653  1.00  0.00    -0.496 C  
HETATM    8  O   UNL     1     -13.637  14.167  65.555  1.00  0.00    -0.568 OA 
BRANCH   7   9
HETATM    9  N   UNL     1     -12.179  12.433  65.179  1.00  0.00    -0.435 N  
HETATM   10  H   UNL     1     -12.842  11.672  65.326  1.00  0.00     0.000 HD 
BRANCH   9  11
HETATM   11  S   UNL     1     -10.759  12.084  64.383  1.00  0.00    -0.352 S  
HETATM   12  O   UNL     1     -10.069  13.307  64.040  1.00  0.00    -0.337 OA 
HETATM   13  O   UNL     1     -11.127  11.131  63.353  1.00  0.00    -0.260 OA 
BRANCH  11  14
HETATM   14  C   UNL     1      -9.822  11.205  65.609  1.00  0.00    -0.235 A  
HETATM   15  C   UNL     1     -10.160   9.886  65.924  1.00  0.00    -0.316 A  
HETATM   16  C   UNL     1      -9.457   9.213  66.925  1.00  0.00    -0.222 A  
HETATM   17  C   UNL     1      -8.415   9.850  67.611  1.00  0.00    -0.114 A  
HETATM   18  C   UNL     1      -8.049  11.154  67.245  1.00  0.00    -0.137 A  
HETATM   19  C   UNL     1      -7.697   9.160  68.733  1.00  0.00    -0.087 C  
HETATM   20  C   UNL     1      -8.744  11.830  66.242  1.00  0.00    -0.106 A  
ENDBRANCH  11  14
ENDBRANCH   9  11
ENDBRANCH   7   9
ENDBRANCH   5   7
ENDBRANCH   4   5
ENDBRANCH   3   4
ENDBRANCH   2   3
TORSDOF 7
ENDMDL
MODEL      180
REMARK 921   NORMALIZED FREE ENERGY PREDICTED BY IDOCK:   -3.67 KCAL/MOL
REMARK 922        TOTAL FREE ENERGY PREDICTED BY IDOCK:   -5.80 KCAL/MOL
REMARK 923 INTER-LIGAND FREE ENERGY PREDICTED BY IDOCK:   -5.07 KCAL/MOL
REMARK 924 INTRA-LIGAND FREE ENERGY PREDICTED BY IDOCK:   -0.73 KCAL/MOL
REMARK 927      BINDING AFFINITY PREDICTED BY RF-SCORE:    0.00 PKD
ROOT
HETATM    1  C   UNL     1     -10.833  15.403  64.992  1.00  0.00    -0.462 C  
HETATM    2  C   UNL     1      -9.878  15.692  66.139  1.00  0.00    -0.340 C  
ENDROOT
BRANCH   2   3
HETATM    3  C   UNL     1      -9.992  14.642  67.247  1.00  0.00    -0.235 C  
BRANCH   3   4
HETATM    4  C   UNL     1      -8.671  14.434  67.990  1.00  0.00    -0.170 C  
BRANCH   4   5
HETATM    5  N   UNL     1      -8.658  13.221  68.785  1.00  0.00    -0.369 N  
HETATM    6  H   UNL     1      -9.316  13.120  69.558  1.00  0.00     0.000 HD 
BRANCH   5   7
HETATM    7  C   UNL     1      -7.777  12.211  68.516  1.00  0.00    -0.119 C  
HETATM    8  O   UNL     1      -6.715  12.388  67.938  1.00  0.00    -0.078 OA 
BRANCH   7   9
HETATM    9  N   UNL     1      -8.198  10.980  68.984  1.00  0.00    -0.288 N  
HETATM   10  H   UNL     1      -7.747  10.608  69.820  1.00  0.00     0.000 HD 
BRANCH   9  11
HETATM   11  S   UNL     1      -9.395  10.066  68.273  1.00  0.00    -0.134 S  
HETATM   12  O   UNL     1      -8.904   8.735  67.998  1.00  0.00    -0.139 OA 
HETATM   13  O   UNL     1      -9.919  10.895  67.205  1.00  0.00    -0.179 OA 
BRANCH  11  14
HETATM   14  C   UNL     1     -10.637   9.984  69.541  1.00  0.00    -0.244 A  
HETATM   15  C   UNL     1     -10.754   8.830  70.320  1.00  0.00    -0.249 A  
HETATM   16  C   UNL     1     -11.764   8.745  71.280  1.00  0.00    -0.356 A  
HETATM   17  C   UNL     1     -12.655   9.810  71.469  1.00  0.00    -0.493 A  
HETATM   18  C   UNL     1     -12.490  10.984  70.720  1.00  0.00    -0.491 A  
HETATM   19  C   UNL     1     -13.785   9.704  72.451  1.00  0.00    -0.342 C  
HETATM   20  C   UNL     1     -11.479  11.077  69.762  1.00  0.00    -0.387 A  
ENDBRANCH  11  14
ENDBRANCH   9  11
ENDBRANCH   7   9
ENDBRANCH   5   7
ENDBRANCH   4   5
ENDBRANCH   3   4
ENDBRANCH   2   3
TORSDOF 7
ENDMDL
MODEL      181
REMARK 921   NORMALIZED FREE ENERGY PREDICTED BY IDOCK:   -3.67 KCAL/MOL
REMARK 922        TOTAL FREE ENERGY PREDICTED BY IDOCK:   -5.79 KCAL/MOL
REMARK 923 INTER-LIGAND FREE ENERGY PREDICTED BY IDOCK:   -5.39 KCAL/MOL
REMARK 924 INTRA-LIGAND FREE ENERGY PREDICTED BY IDOCK:   -0.40 KCAL/MOL
REMARK 927      BINDING AFFINITY PREDICTED BY RF-SCORE:    0.00 PKD
ROOT
HETATM    1  C   UNL     1      -9.823  11.246  63.061  1.00  0.00    -0.370 C  
HETATM    2  C   UNL     1     -11.185  11.400  63.719  1.00  0.00    -0.375 C  
ENDROOT
BRANCH   2   3
HETATM    3  C   UNL     1     -11.561  12.872  63.904  1.00  0.00    -0.515 C  
BRANCH   3   4
HETATM    4  C   UNL     1     -10.599  13.605  64.840  1.00  0.00    -0.408 C  
BRANCH   4   5
HETATM    5  N   UNL     1     -10.208  12.804  65.984  1.00  0.00    -0.273 N  
HETATM    6  H   UNL     1      -9.227  12.549  66.107  1.00  0.00     0.000 HD 
BRANCH   5   7
HETATM    7  C   UNL     1     -11.131  12.384  66.901  1.00  0.00    -0.287 C  
HETATM    8  O   UNL     1     -11.892  13.145  67.477  1.00  0.00    -0.355 OA 
BRANCH   7   9
HETATM    9  N   UNL     1     -11.129  11.014  67.088  1.00  0.00    -0.289 N  
HETATM   10  H   UNL     1     -12.008  10.513  66.951  1.00  0.00     0.000 HD 
BRANCH   9  11
HETATM   11  S   UNL     1      -9.789  10.128  67.523  1.00  0.00    -0.185 S  
HETATM   12  O   UNL     1      -8.788  10.995  68.101  1.00  0.00    -0.131 OA 
HETATM   13  O   UNL     1      -9.480   9.316  66.362  1.00  0.00    -0.182 OA 
BRANCH  11  14
HETATM   14  C   UNL     1     -10.421   9.041  68.778  1.00  0.00    -0.206 A  
HETATM   15  C   UNL     1     -10.527   7.673  68.518  1.00  0.00    -0.206 A  
HETATM   16  C   UNL     1     -11.073   6.826  69.485  1.00  0.00    -0.324 A  
HETATM   17  C   UNL     1     -11.509   7.340  70.713  1.00  0.00    -0.328 A  
HETATM   18  C   UNL     1     -11.343   8.707  70.983  1.00  0.00    -0.322 A  
HETATM   19  C   UNL     1     -12.158   6.452  71.733  1.00  0.00    -0.351 C  
HETATM   20  C   UNL     1     -10.793   9.557  70.022  1.00  0.00    -0.286 A  
ENDBRANCH  11  14
ENDBRANCH   9  11
ENDBRANCH   7   9
ENDBRANCH   5   7
ENDBRANCH   4   5
ENDBRANCH   3   4
ENDBRANCH   2   3
TORSDOF 7
ENDMDL
MODEL      182
REMARK 921   NORMALIZED FREE ENERGY PREDICTED BY IDOCK:   -3.66 KCAL/MOL
REMARK 922        TOTAL FREE ENERGY PREDICTED BY IDOCK:   -5.78 KCAL/MOL
REMARK 923 INTER-LIGAND FREE ENERGY PREDICTED BY IDOCK:   -4.89 KCAL/MOL
REMARK 924 INTRA-LIGAND FREE ENERGY PREDICTED BY IDOCK:   -0.89 KCAL/MOL
REMARK 927      BINDING AFFINITY PREDICTED BY RF-SCORE:    0.00 PKD
ROOT
HETATM    1  C   UNL     1     -12.260  12.893  70.334  1.00  0.00    -0.381 C  
HETATM    2  C   UNL     1     -12.920  12.040  71.406  1.00  0.00    -0.362 C  
ENDROOT
BRANCH   2   3
HETATM    3  C   UNL     1     -13.015  10.572  70.982  1.00  0.00    -0.475 C  
BRANCH   3   4
HETATM    4  C   UNL     1     -13.051   9.622  72.179  1.00  0.00    -0.431 C  
BRANCH   4   5
HETATM    5  N   UNL     1     -12.261   8.424  71.971  1.00  0.00    -0.339 N  
HETATM    6  H   UNL     1     -11.290   8.401  72.286  1.00  0.00     0.000 HD 
BRANCH   5   7
HETATM    7  C   UNL     1     -12.795   7.325  71.359  1.00  0.00    -0.382 C  
HETATM    8  O   UNL     1     -13.804   6.764  71.757  1.00  0.00    -0.244 OA 
BRANCH   7   9
HETATM    9  N   UNL     1     -12.091   6.930  70.236  1.00  0.00    -0.627 N  
HETATM   10  H   UNL     1     -12.568   6.976  69.335  1.00  0.00     0.000 HD 
BRANCH   9  11
HETATM   11  S   UNL     1     -10.518   6.386  70.257  1.00  0.00    -0.235 S  
HETATM   12  O   UNL     1     -10.399   5.182  69.467  1.00  0.00    -0.251 OA 
HETATM   13  O   UNL     1     -10.136   6.391  71.656  1.00  0.00    -0.185 OA 
BRANCH  11  14
HETATM   14  C   UNL     1      -9.631   7.702  69.460  1.00  0.00    -0.163 A  
HETATM   15  C   UNL     1      -8.275   7.543  69.166  1.00  0.00    -0.131 A  
HETATM   16  C   UNL     1      -7.566   8.597  68.587  1.00  0.00    -0.097 A  
HETATM   17  C   UNL     1      -8.207   9.809  68.296  1.00  0.00    -0.105 A  
HETATM   18  C   UNL     1      -9.581   9.934  68.544  1.00  0.00    -0.159 A  
HETATM   19  C   UNL     1      -7.440  10.971  67.736  1.00  0.00    -0.094 C  
HETATM   20  C   UNL     1     -10.297   8.882  69.118  1.00  0.00    -0.230 A  
ENDBRANCH  11  14
ENDBRANCH   9  11
ENDBRANCH   7   9
ENDBRANCH   5   7
ENDBRANCH   4   5
ENDBRANCH   3   4
ENDBRANCH   2   3
TORSDOF 7
ENDMDL
MODEL      183
REMARK 921   NORMALIZED FREE ENERGY PREDICTED BY IDOCK:   -3.66 KCAL/MOL
REMARK 922        TOTAL FREE ENERGY PREDICTED BY IDOCK:   -5.78 KCAL/MOL
REMARK 923 INTER-LIGAND FREE ENERGY PREDICTED BY IDOCK:   -4.94 KCAL/MOL
REMARK 924 INTRA-LIGAND FREE ENERGY PREDICTED BY IDOCK:   -0.84 KCAL/MOL
REMARK 927      BINDING AFFINITY PREDICTED BY RF-SCORE:    0.00 PKD
ROOT
HETATM    1  C   UNL     1     -11.067  11.355  66.913  1.00  0.00    -0.356 C  
HETATM    2  C   UNL     1     -10.633   9.901  67.008  1.00  0.00    -0.272 C  
ENDROOT
BRANCH   2   3
HETATM    3  C   UNL     1      -9.287   9.667  66.318  1.00  0.00    -0.238 C  
BRANCH   3   4
HETATM    4  C   UNL     1      -9.016   8.184  66.061  1.00  0.00    -0.171 C  
BRANCH   4   5
HETATM    5  N   UNL     1     -10.179   7.350  66.294  1.00  0.00    -0.441 N  
HETATM    6  H   UNL     1     -11.111   7.762  66.238  1.00  0.00     0.000 HD 
BRANCH   5   7
HETATM    7  C   UNL     1     -10.048   6.022  66.587  1.00  0.00    -0.174 C  
HETATM    8  O   UNL     1      -9.490   5.227  65.847  1.00  0.00    -0.158 OA 
BRANCH   7   9
HETATM    9  N   UNL     1     -10.590   5.677  67.812  1.00  0.00    -0.222 N  
HETATM   10  H   UNL     1     -11.513   5.244  67.820  1.00  0.00     0.000 HD 
BRANCH   9  11
HETATM   11  S   UNL     1      -9.833   5.924  69.274  1.00  0.00    -0.172 S  
HETATM   12  O   UNL     1      -8.561   6.577  69.071  1.00  0.00    -0.124 OA 
HETATM   13  O   UNL     1      -9.906   4.646  69.957  1.00  0.00    -0.193 OA 
BRANCH  11  14
HETATM   14  C   UNL     1     -10.938   7.036  70.110  1.00  0.00    -0.272 A  
HETATM   15  C   UNL     1     -10.669   8.407  70.110  1.00  0.00    -0.238 A  
HETATM   16  C   UNL     1     -11.509   9.275  70.811  1.00  0.00    -0.351 A  
HETATM   17  C   UNL     1     -12.618   8.780  71.509  1.00  0.00    -0.372 A  
HETATM   18  C   UNL     1     -12.908   7.409  71.453  1.00  0.00    -0.408 A  
HETATM   19  C   UNL     1     -13.488   9.694  72.320  1.00  0.00    -0.488 C  
HETATM   20  C   UNL     1     -12.076   6.537  70.749  1.00  0.00    -0.286 A  
ENDBRANCH  11  14
ENDBRANCH   9  11
ENDBRANCH   7   9
ENDBRANCH   5   7
ENDBRANCH   4   5
ENDBRANCH   3   4
ENDBRANCH   2   3
TORSDOF 7
ENDMDL
MODEL      184
REMARK 921   NORMALIZED FREE ENERGY PREDICTED BY IDOCK:   -3.65 KCAL/MOL
REMARK 922        TOTAL FREE ENERGY PREDICTED BY IDOCK:   -5.77 KCAL/MOL
REMARK 923 INTER-LIGAND FREE ENERGY PREDICTED BY IDOCK:   -5.19 KCAL/MOL
REMARK 924 INTRA-LIGAND FREE ENERGY PREDICTED BY IDOCK:   -0.58 KCAL/MOL
REMARK 927      BINDING AFFINITY PREDICTED BY RF-SCORE:    0.00 PKD
ROOT
HETATM    1  C   UNL     1      -7.308   3.047  69.465  1.00  0.00    -0.044 C  
HETATM    2  C   UNL     1      -8.761   3.480  69.581  1.00  0.00    -0.127 C  
ENDROOT
BRANCH   2   3
HETATM    3  C   UNL     1      -8.929   4.641  70.565  1.00  0.00    -0.155 C  
BRANCH   3   4
HETATM    4  C   UNL     1     -10.196   5.454  70.294  1.00  0.00    -0.267 C  
BRANCH   4   5
HETATM    5  N   UNL     1     -10.606   6.252  71.433  1.00  0.00    -0.229 N  
HETATM    6  H   UNL     1      -9.941   6.432  72.185  1.00  0.00     0.000 HD 
BRANCH   5   7
HETATM    7  C   UNL     1     -11.869   6.768  71.514  1.00  0.00    -0.333 C  
HETATM    8  O   UNL     1     -12.750   6.270  72.198  1.00  0.00    -0.214 OA 
BRANCH   7   9
HETATM    9  N   UNL     1     -12.038   7.918  70.766  1.00  0.00    -0.490 N  
HETATM   10  H   UNL     1     -12.627   7.864  69.935  1.00  0.00     0.000 HD 
BRANCH   9  11
HETATM   11  S   UNL     1     -11.344   9.386  71.132  1.00  0.00    -0.382 S  
HETATM   12  O   UNL     1     -10.012   9.188  71.657  1.00  0.00    -0.316 OA 
HETATM   13  O   UNL     1     -12.344  10.094  71.908  1.00  0.00    -0.362 OA 
BRANCH  11  14
HETATM   14  C   UNL     1     -11.239  10.183  69.548  1.00  0.00    -0.238 A  
HETATM   15  C   UNL     1     -10.548   9.559  68.505  1.00  0.00    -0.247 A  
HETATM   16  C   UNL     1     -10.421  10.208  67.276  1.00  0.00    -0.313 A  
HETATM   17  C   UNL     1     -10.984  11.476  67.081  1.00  0.00    -0.338 A  
HETATM   18  C   UNL     1     -11.723  12.065  68.118  1.00  0.00    -0.398 A  
HETATM   19  C   UNL     1     -10.797  12.212  65.787  1.00  0.00    -0.319 C  
HETATM   20  C   UNL     1     -11.859  11.418  69.347  1.00  0.00    -0.419 A  
ENDBRANCH  11  14
ENDBRANCH   9  11
ENDBRANCH   7   9
ENDBRANCH   5   7
ENDBRANCH   4   5
ENDBRANCH   3   4
ENDBRANCH   2   3
TORSDOF 7
ENDMDL
MODEL      185
REMARK 921   NORMALIZED FREE ENERGY PREDICTED BY IDOCK:   -3.63 KCAL/MOL
REMARK 922        TOTAL FREE ENERGY PREDICTED BY IDOCK:   -5.75 KCAL/MOL
REMARK 923 INTER-LIGAND FREE ENERGY PREDICTED BY IDOCK:   -4.62 KCAL/MOL
REMARK 924 INTRA-LIGAND FREE ENERGY PREDICTED BY IDOCK:   -1.13 KCAL/MOL
REMARK 927      BINDING AFFINITY PREDICTED BY RF-SCORE:    0.00 PKD
ROOT
HETATM    1  C   UNL     1     -11.131  11.482  66.970  1.00  0.00    -0.365 C  
HETATM    2  C   UNL     1     -10.770  10.038  67.282  1.00  0.00    -0.309 C  
ENDROOT
BRANCH   2   3
HETATM    3  C   UNL     1      -9.463   9.622  66.603  1.00  0.00    -0.221 C  
BRANCH   3   4
HETATM    4  C   UNL     1      -9.386   8.114  66.365  1.00  0.00    -0.210 C  
BRANCH   4   5
HETATM    5  N   UNL     1     -10.660   7.448  66.556  1.00  0.00    -0.460 N  
HETATM    6  H   UNL     1     -11.509   7.870  66.178  1.00  0.00     0.000 HD 
BRANCH   5   7
HETATM    7  C   UNL     1     -10.743   6.264  67.234  1.00  0.00    -0.349 C  
HETATM    8  O   UNL     1     -10.168   5.248  66.875  1.00  0.00    -0.191 OA 
BRANCH   7   9
HETATM    9  N   UNL     1     -11.520   6.342  68.375  1.00  0.00    -0.436 N  
HETATM   10  H   UNL     1     -12.517   6.522  68.261  1.00  0.00     0.000 HD 
BRANCH   9  11
HETATM   11  S   UNL     1     -10.934   6.161  69.923  1.00  0.00    -0.413 S  
HETATM   12  O   UNL     1     -10.399   4.831  70.099  1.00  0.00    -0.242 OA 
HETATM   13  O   UNL     1     -11.991   6.651  70.786  1.00  0.00    -0.382 OA 
BRANCH  11  14
HETATM   14  C   UNL     1      -9.607   7.341  69.986  1.00  0.00    -0.167 A  
HETATM   15  C   UNL     1      -8.306   6.935  69.677  1.00  0.00    -0.133 A  
HETATM   16  C   UNL     1      -7.256   7.849  69.777  1.00  0.00    -0.066 A  
HETATM   17  C   UNL     1      -7.499   9.169  70.180  1.00  0.00    -0.082 A  
HETATM   18  C   UNL     1      -8.817   9.577  70.431  1.00  0.00    -0.279 A  
HETATM   19  C   UNL     1      -6.370  10.141  70.356  1.00  0.00    -0.121 C  
HETATM   20  C   UNL     1      -9.872   8.669  70.327  1.00  0.00    -0.195 A  
ENDBRANCH  11  14
ENDBRANCH   9  11
ENDBRANCH   7   9
ENDBRANCH   5   7
ENDBRANCH   4   5
ENDBRANCH   3   4
ENDBRANCH   2   3
TORSDOF 7
ENDMDL
MODEL      186
REMARK 921   NORMALIZED FREE ENERGY PREDICTED BY IDOCK:   -3.63 KCAL/MOL
REMARK 922        TOTAL FREE ENERGY PREDICTED BY IDOCK:   -5.74 KCAL/MOL
REMARK 923 INTER-LIGAND FREE ENERGY PREDICTED BY IDOCK:   -4.26 KCAL/MOL
REMARK 924 INTRA-LIGAND FREE ENERGY PREDICTED BY IDOCK:   -1.48 KCAL/MOL
REMARK 927      BINDING AFFINITY PREDICTED BY RF-SCORE:    0.00 PKD
ROOT
HETATM    1  C   UNL     1      -9.052   8.595  65.591  1.00  0.00    -0.221 C  
HETATM    2  C   UNL     1     -10.045   9.744  65.502  1.00  0.00    -0.242 C  
ENDROOT
BRANCH   2   3
HETATM    3  C   UNL     1      -9.429  10.972  64.827  1.00  0.00    -0.267 C  
BRANCH   3   4
HETATM    4  C   UNL     1     -10.485  11.872  64.183  1.00  0.00    -0.349 C  
BRANCH   4   5
HETATM    5  N   UNL     1     -10.752  13.068  64.958  1.00  0.00    -0.303 N  
HETATM    6  H   UNL     1     -10.299  13.945  64.700  1.00  0.00     0.000 HD 
BRANCH   5   7
HETATM    7  C   UNL     1     -11.602  13.041  66.028  1.00  0.00    -0.365 C  
HETATM    8  O   UNL     1     -12.510  12.232  66.138  1.00  0.00    -0.466 OA 
BRANCH   7   9
HETATM    9  N   UNL     1     -11.313  14.002  66.979  1.00  0.00    -0.316 N  
HETATM   10  H   UNL     1     -11.351  14.981  66.693  1.00  0.00     0.000 HD 
BRANCH   9  11
HETATM   11  S   UNL     1     -10.909  13.668  68.559  1.00  0.00    -0.263 S  
HETATM   12  O   UNL     1     -12.022  13.042  69.234  1.00  0.00    -0.307 OA 
HETATM   13  O   UNL     1     -10.332  14.896  69.069  1.00  0.00    -0.233 OA 
BRANCH  11  14
HETATM   14  C   UNL     1      -9.588  12.492  68.389  1.00  0.00    -0.176 A  
HETATM   15  C   UNL     1      -9.758  11.188  68.863  1.00  0.00    -0.163 A  
HETATM   16  C   UNL     1      -8.701  10.279  68.778  1.00  0.00    -0.144 A  
HETATM   17  C   UNL     1      -7.477  10.665  68.216  1.00  0.00    -0.091 A  
HETATM   18  C   UNL     1      -7.340  11.959  67.693  1.00  0.00    -0.123 A  
HETATM   19  C   UNL     1      -6.314   9.718  68.180  1.00  0.00    -0.055 C  
HETATM   20  C   UNL     1      -8.394  12.870  67.771  1.00  0.00    -0.178 A  
ENDBRANCH  11  14
ENDBRANCH   9  11
ENDBRANCH   7   9
ENDBRANCH   5   7
ENDBRANCH   4   5
ENDBRANCH   3   4
ENDBRANCH   2   3
TORSDOF 7
ENDMDL
MODEL      187
REMARK 921   NORMALIZED FREE ENERGY PREDICTED BY IDOCK:   -3.63 KCAL/MOL
REMARK 922        TOTAL FREE ENERGY PREDICTED BY IDOCK:   -5.74 KCAL/MOL
REMARK 923 INTER-LIGAND FREE ENERGY PREDICTED BY IDOCK:   -5.39 KCAL/MOL
REMARK 924 INTRA-LIGAND FREE ENERGY PREDICTED BY IDOCK:   -0.34 KCAL/MOL
REMARK 927      BINDING AFFINITY PREDICTED BY RF-SCORE:    0.00 PKD
ROOT
HETATM    1  C   UNL     1      -9.588   4.750  70.211  1.00  0.00    -0.269 C  
HETATM    2  C   UNL     1     -10.618   5.690  70.817  1.00  0.00    -0.335 C  
ENDROOT
BRANCH   2   3
HETATM    3  C   UNL     1     -11.521   6.306  69.746  1.00  0.00    -0.449 C  
BRANCH   3   4
HETATM    4  C   UNL     1     -10.820   6.425  68.392  1.00  0.00    -0.311 C  
BRANCH   4   5
HETATM    5  N   UNL     1     -11.063   7.698  67.743  1.00  0.00    -0.479 N  
HETATM    6  H   UNL     1     -11.984   8.132  67.815  1.00  0.00     0.000 HD 
BRANCH   5   7
HETATM    7  C   UNL     1     -10.077   8.329  67.036  1.00  0.00    -0.283 C  
HETATM    8  O   UNL     1      -9.316   7.741  66.283  1.00  0.00    -0.185 OA 
BRANCH   7   9
HETATM    9  N   UNL     1     -10.047   9.696  67.241  1.00  0.00    -0.197 N  
HETATM   10  H   UNL     1     -10.238  10.040  68.182  1.00  0.00     0.000 HD 
BRANCH   9  11
HETATM   11  S   UNL     1      -9.719  10.816  66.054  1.00  0.00    -0.229 S  
HETATM   12  O   UNL     1     -10.501  10.530  64.873  1.00  0.00    -0.301 OA 
HETATM   13  O   UNL     1      -8.272  10.880  65.984  1.00  0.00    -0.162 OA 
BRANCH  11  14
HETATM   14  C   UNL     1     -10.284  12.337  66.777  1.00  0.00    -0.211 A  
HETATM   15  C   UNL     1      -9.435  13.447  66.803  1.00  0.00    -0.263 A  
HETATM   16  C   UNL     1      -9.859  14.626  67.418  1.00  0.00    -0.222 A  
HETATM   17  C   UNL     1     -11.129  14.704  68.004  1.00  0.00    -0.291 A  
HETATM   18  C   UNL     1     -11.992  13.601  67.920  1.00  0.00    -0.382 A  
HETATM   19  C   UNL     1     -11.570  15.943  68.726  1.00  0.00    -0.389 C  
HETATM   20  C   UNL     1     -11.576  12.422  67.302  1.00  0.00    -0.435 A  
ENDBRANCH  11  14
ENDBRANCH   9  11
ENDBRANCH   7   9
ENDBRANCH   5   7
ENDBRANCH   4   5
ENDBRANCH   3   4
ENDBRANCH   2   3
TORSDOF 7
ENDMDL
MODEL      188
REMARK 921   NORMALIZED FREE ENERGY PREDICTED BY IDOCK:   -3.62 KCAL/MOL
REMARK 922        TOTAL FREE ENERGY PREDICTED BY IDOCK:   -5.73 KCAL/MOL
REMARK 923 INTER-LIGAND FREE ENERGY PREDICTED BY IDOCK:   -5.15 KCAL/MOL
REMARK 924 INTRA-LIGAND FREE ENERGY PREDICTED BY IDOCK:   -0.57 KCAL/MOL
REMARK 927      BINDING AFFINITY PREDICTED BY RF-SCORE:    0.00 PKD
ROOT
HETATM    1  C   UNL     1      -9.310   9.739  64.848  1.00  0.00    -0.327 C  
HETATM    2  C   UNL     1      -9.984   9.749  66.211  1.00  0.00    -0.331 C  
ENDROOT
BRANCH   2   3
HETATM    3  C   UNL     1      -9.722  11.057  66.962  1.00  0.00    -0.208 C  
BRANCH   3   4
HETATM    4  C   UNL     1      -9.691  12.267  66.028  1.00  0.00    -0.242 C  
BRANCH   4   5
HETATM    5  N   UNL     1     -10.007  13.509  66.707  1.00  0.00    -0.262 N  
HETATM    6  H   UNL     1     -10.971  13.842  66.722  1.00  0.00     0.000 HD 
BRANCH   5   7
HETATM    7  C   UNL     1      -9.034  14.243  67.326  1.00  0.00    -0.213 C  
HETATM    8  O   UNL     1      -7.841  14.078  67.119  1.00  0.00    -0.150 OA 
BRANCH   7   9
HETATM    9  N   UNL     1      -9.537  15.200  68.188  1.00  0.00    -0.203 N  
HETATM   10  H   UNL     1      -9.305  15.119  69.178  1.00  0.00     0.000 HD 
BRANCH   9  11
HETATM   11  S   UNL     1     -10.497  16.475  67.715  1.00  0.00    -0.314 S  
HETATM   12  O   UNL     1     -11.534  16.704  68.694  1.00  0.00    -0.255 OA 
HETATM   13  O   UNL     1     -10.835  16.201  66.332  1.00  0.00    -0.255 OA 
BRANCH  11  14
HETATM   14  C   UNL     1      -9.368  17.847  67.724  1.00  0.00    -0.262 A  
HETATM   15  C   UNL     1      -9.794  19.096  67.267  1.00  0.00    -0.408 A  
HETATM   16  C   UNL     1      -8.892  20.161  67.225  1.00  0.00    -0.445 A  
HETATM   17  C   UNL     1      -7.566  19.984  67.642  1.00  0.00    -0.327 A  
HETATM   18  C   UNL     1      -7.167  18.740  68.151  1.00  0.00    -0.273 A  
HETATM   19  C   UNL     1      -6.570  21.102  67.538  1.00  0.00    -0.428 C  
HETATM   20  C   UNL     1      -8.066  17.673  68.201  1.00  0.00    -0.252 A  
ENDBRANCH  11  14
ENDBRANCH   9  11
ENDBRANCH   7   9
ENDBRANCH   5   7
ENDBRANCH   4   5
ENDBRANCH   3   4
ENDBRANCH   2   3
TORSDOF 7
ENDMDL
MODEL      189
REMARK 921   NORMALIZED FREE ENERGY PREDICTED BY IDOCK:   -3.61 KCAL/MOL
REMARK 922        TOTAL FREE ENERGY PREDICTED BY IDOCK:   -5.71 KCAL/MOL
REMARK 923 INTER-LIGAND FREE ENERGY PREDICTED BY IDOCK:   -5.08 KCAL/MOL
REMARK 924 INTRA-LIGAND FREE ENERGY PREDICTED BY IDOCK:   -0.63 KCAL/MOL
REMARK 927      BINDING AFFINITY PREDICTED BY RF-SCORE:    0.00 PKD
ROOT
HETATM    1  C   UNL     1     -13.263  14.242  71.352  1.00  0.00    -0.419 C  
HETATM    2  C   UNL     1     -12.059  14.235  70.424  1.00  0.00    -0.409 C  
ENDROOT
BRANCH   2   3
HETATM    3  C   UNL     1     -12.113  13.069  69.434  1.00  0.00    -0.267 C  
BRANCH   3   4
HETATM    4  C   UNL     1     -10.837  12.954  68.600  1.00  0.00    -0.258 C  
BRANCH   4   5
HETATM    5  N   UNL     1     -11.102  12.803  67.182  1.00  0.00    -0.267 N  
HETATM    6  H   UNL     1     -11.044  11.878  66.756  1.00  0.00     0.000 HD 
BRANCH   5   7
HETATM    7  C   UNL     1     -11.431  13.881  66.408  1.00  0.00    -0.344 C  
HETATM    8  O   UNL     1     -12.519  14.008  65.869  1.00  0.00    -0.470 OA 
BRANCH   7   9
HETATM    9  N   UNL     1     -10.417  14.816  66.317  1.00  0.00    -0.287 N  
HETATM   10  H   UNL     1      -9.561  14.546  65.832  1.00  0.00     0.000 HD 
BRANCH   9  11
HETATM   11  S   UNL     1     -10.501  16.355  66.947  1.00  0.00    -0.257 S  
HETATM   12  O   UNL     1     -11.617  16.457  67.859  1.00  0.00    -0.106 OA 
HETATM   13  O   UNL     1     -10.401  17.238  65.801  1.00  0.00    -0.531 OA 
BRANCH  11  14
HETATM   14  C   UNL     1      -8.983  16.494  67.859  1.00  0.00    -0.205 A  
HETATM   15  C   UNL     1      -8.646  15.512  68.794  1.00  0.00    -0.188 A  
HETATM   16  C   UNL     1      -7.479  15.649  69.548  1.00  0.00    -0.192 A  
HETATM   17  C   UNL     1      -6.644  16.759  69.369  1.00  0.00    -0.228 A  
HETATM   18  C   UNL     1      -6.965  17.707  68.386  1.00  0.00    -0.222 A  
HETATM   19  C   UNL     1      -5.423  16.951  70.220  1.00  0.00    -0.221 C  
HETATM   20  C   UNL     1      -8.127  17.573  67.626  1.00  0.00    -0.211 A  
ENDBRANCH  11  14
ENDBRANCH   9  11
ENDBRANCH   7   9
ENDBRANCH   5   7
ENDBRANCH   4   5
ENDBRANCH   3   4
ENDBRANCH   2   3
TORSDOF 7
ENDMDL
MODEL      190
REMARK 921   NORMALIZED FREE ENERGY PREDICTED BY IDOCK:   -3.61 KCAL/MOL
REMARK 922        TOTAL FREE ENERGY PREDICTED BY IDOCK:   -5.71 KCAL/MOL
REMARK 923 INTER-LIGAND FREE ENERGY PREDICTED BY IDOCK:   -5.16 KCAL/MOL
REMARK 924 INTRA-LIGAND FREE ENERGY PREDICTED BY IDOCK:   -0.55 KCAL/MOL
REMARK 927      BINDING AFFINITY PREDICTED BY RF-SCORE:    0.00 PKD
ROOT
HETATM    1  C   UNL     1      -9.498  19.111  68.458  1.00  0.00    -0.444 C  
HETATM    2  C   UNL     1     -10.526  19.549  67.426  1.00  0.00    -0.593 C  
ENDROOT
BRANCH   2   3
HETATM    3  C   UNL     1     -10.455  18.692  66.159  1.00  0.00    -0.473 C  
BRANCH   3   4
HETATM    4  C   UNL     1      -9.839  17.317  66.420  1.00  0.00    -0.299 C  
BRANCH   4   5
HETATM    5  N   UNL     1     -10.786  16.374  66.983  1.00  0.00    -0.268 N  
HETATM    6  H   UNL     1     -11.748  16.366  66.645  1.00  0.00     0.000 HD 
BRANCH   5   7
HETATM    7  C   UNL     1     -10.410  15.496  67.962  1.00  0.00    -0.247 C  
HETATM    8  O   UNL     1     -10.539  15.729  69.153  1.00  0.00    -0.214 OA 
BRANCH   7   9
HETATM    9  N   UNL     1      -9.893  14.314  67.464  1.00  0.00    -0.228 N  
HETATM   10  H   UNL     1      -8.925  14.086  67.689  1.00  0.00     0.000 HD 
BRANCH   9  11
HETATM   11  S   UNL     1     -10.748  13.240  66.523  1.00  0.00    -0.287 S  
HETATM   12  O   UNL     1     -10.377  13.392  65.135  1.00  0.00    -0.318 OA 
HETATM   13  O   UNL     1     -12.129  13.389  66.938  1.00  0.00    -0.388 OA 
BRANCH  11  14
HETATM   14  C   UNL     1     -10.185  11.661  67.111  1.00  0.00    -0.213 A  
HETATM   15  C   UNL     1      -8.834  11.479  67.418  1.00  0.00    -0.157 A  
HETATM   16  C   UNL     1      -8.382  10.224  67.830  1.00  0.00    -0.114 A  
HETATM   17  C   UNL     1      -9.275   9.150  67.943  1.00  0.00    -0.144 A  
HETATM   18  C   UNL     1     -10.637   9.362  67.687  1.00  0.00    -0.333 A  
HETATM   19  C   UNL     1      -8.789   7.781  68.320  1.00  0.00    -0.129 C  
HETATM   20  C   UNL     1     -11.096  10.615  67.279  1.00  0.00    -0.313 A  
ENDBRANCH  11  14
ENDBRANCH   9  11
ENDBRANCH   7   9
ENDBRANCH   5   7
ENDBRANCH   4   5
ENDBRANCH   3   4
ENDBRANCH   2   3
TORSDOF 7
ENDMDL
MODEL      191
REMARK 921   NORMALIZED FREE ENERGY PREDICTED BY IDOCK:   -3.60 KCAL/MOL
REMARK 922        TOTAL FREE ENERGY PREDICTED BY IDOCK:   -5.69 KCAL/MOL
REMARK 923 INTER-LIGAND FREE ENERGY PREDICTED BY IDOCK:   -5.22 KCAL/MOL
REMARK 924 INTRA-LIGAND FREE ENERGY PREDICTED BY IDOCK:   -0.47 KCAL/MOL
REMARK 927      BINDING AFFINITY PREDICTED BY RF-SCORE:    0.00 PKD
ROOT
HETATM    1  C   UNL     1      -9.872   4.383  66.991  1.00  0.00    -0.227 C  
HETATM    2  C   UNL     1      -9.487   3.163  67.813  1.00  0.00    -0.209 C  
ENDROOT
BRANCH   2   3
HETATM    3  C   UNL     1      -9.299   3.514  69.291  1.00  0.00    -0.242 C  
BRANCH   3   4
HETATM    4  C   UNL     1      -8.739   4.923  69.488  1.00  0.00    -0.086 C  
BRANCH   4   5
HETATM    5  N   UNL     1      -8.518   5.252  70.883  1.00  0.00    -0.119 N  
HETATM    6  H   UNL     1      -7.564   5.337  71.234  1.00  0.00     0.000 HD 
BRANCH   5   7
HETATM    7  C   UNL     1      -9.568   5.449  71.736  1.00  0.00    -0.149 C  
HETATM    8  O   UNL     1      -9.915   4.626  72.568  1.00  0.00    -0.156 OA 
BRANCH   7   9
HETATM    9  N   UNL     1     -10.177   6.680  71.575  1.00  0.00    -0.197 N  
HETATM   10  H   UNL     1      -9.629   7.514  71.784  1.00  0.00     0.000 HD 
BRANCH   9  11
HETATM   11  S   UNL     1     -11.747   6.889  71.062  1.00  0.00    -0.362 S  
HETATM   12  O   UNL     1     -12.665   6.369  72.049  1.00  0.00    -0.281 OA 
HETATM   13  O   UNL     1     -11.769   6.393  69.700  1.00  0.00    -0.389 OA 
BRANCH  11  14
HETATM   14  C   UNL     1     -11.907   8.657  70.986  1.00  0.00    -0.265 A  
HETATM   15  C   UNL     1     -12.796   9.308  71.845  1.00  0.00    -0.485 A  
HETATM   16  C   UNL     1     -12.961  10.691  71.749  1.00  0.00    -0.577 A  
HETATM   17  C   UNL     1     -12.238  11.428  70.802  1.00  0.00    -0.475 A  
HETATM   18  C   UNL     1     -11.307  10.769  69.985  1.00  0.00    -0.397 A  
HETATM   19  C   UNL     1     -12.455  12.904  70.644  1.00  0.00    -0.333 C  
HETATM   20  C   UNL     1     -11.134   9.388  70.080  1.00  0.00    -0.277 A  
ENDBRANCH  11  14
ENDBRANCH   9  11
ENDBRANCH   7   9
ENDBRANCH   5   7
ENDBRANCH   4   5
ENDBRANCH   3   4
ENDBRANCH   2   3
TORSDOF 7
ENDMDL
MODEL      192
REMARK 921   NORMALIZED FREE ENERGY PREDICTED BY IDOCK:   -3.57 KCAL/MOL
REMARK 922        TOTAL FREE ENERGY PREDICTED BY IDOCK:   -5.66 KCAL/MOL
REMARK 923 INTER-LIGAND FREE ENERGY PREDICTED BY IDOCK:   -5.14 KCAL/MOL
REMARK 924 INTRA-LIGAND FREE ENERGY PREDICTED BY IDOCK:   -0.52 KCAL/MOL
REMARK 927      BINDING AFFINITY PREDICTED BY RF-SCORE:    0.00 PKD
ROOT
HETATM    1  C   UNL     1     -10.685   5.765  70.793  1.00  0.00    -0.342 C  
HETATM    2  C   UNL     1     -11.264   6.525  71.976  1.00  0.00    -0.312 C  
ENDROOT
BRANCH   2   3
HETATM    3  C   UNL     1     -11.156   8.040  71.782  1.00  0.00    -0.313 C  
BRANCH   3   4
HETATM    4  C   UNL     1      -9.792   8.460  71.234  1.00  0.00    -0.198 C  
BRANCH   4   5
HETATM    5  N   UNL     1      -9.878   9.073  69.922  1.00  0.00    -0.176 N  
HETATM    6  H   UNL     1     -10.574   8.738  69.256  1.00  0.00     0.000 HD 
BRANCH   5   7
HETATM    7  C   UNL     1      -9.040  10.091  69.563  1.00  0.00    -0.220 C  
HETATM    8  O   UNL     1      -7.826   9.967  69.502  1.00  0.00    -0.121 OA 
BRANCH   7   9
HETATM    9  N   UNL     1      -9.706  11.263  69.254  1.00  0.00    -0.413 N  
HETATM   10  H   UNL     1      -9.212  12.144  69.395  1.00  0.00     0.000 HD 
BRANCH   9  11
HETATM   11  S   UNL     1     -11.263  11.330  68.668  1.00  0.00    -0.279 S  
HETATM   12  O   UNL     1     -12.183  11.645  69.736  1.00  0.00    -0.275 OA 
HETATM   13  O   UNL     1     -11.425  10.118  67.888  1.00  0.00    -0.283 OA 
BRANCH  11  14
HETATM   14  C   UNL     1     -11.199  12.690  67.527  1.00  0.00    -0.288 A  
HETATM   15  C   UNL     1     -11.910  13.860  67.806  1.00  0.00    -0.415 A  
HETATM   16  C   UNL     1     -11.902  14.909  66.885  1.00  0.00    -0.202 A  
HETATM   17  C   UNL     1     -11.184  14.797  65.687  1.00  0.00    -0.343 A  
HETATM   18  C   UNL     1     -10.429  13.639  65.446  1.00  0.00    -0.333 A  
HETATM   19  C   UNL     1     -11.222  15.890  64.660  1.00  0.00    -0.361 C  
HETATM   20  C   UNL     1     -10.428  12.590  66.366  1.00  0.00    -0.269 A  
ENDBRANCH  11  14
ENDBRANCH   9  11
ENDBRANCH   7   9
ENDBRANCH   5   7
ENDBRANCH   4   5
ENDBRANCH   3   4
ENDBRANCH   2   3
TORSDOF 7
ENDMDL
MODEL      193
REMARK 921   NORMALIZED FREE ENERGY PREDICTED BY IDOCK:   -3.57 KCAL/MOL
REMARK 922        TOTAL FREE ENERGY PREDICTED BY IDOCK:   -5.65 KCAL/MOL
REMARK 923 INTER-LIGAND FREE ENERGY PREDICTED BY IDOCK:   -4.69 KCAL/MOL
REMARK 924 INTRA-LIGAND FREE ENERGY PREDICTED BY IDOCK:   -0.96 KCAL/MOL
REMARK 927      BINDING AFFINITY PREDICTED BY RF-SCORE:    0.00 PKD
ROOT
HETATM    1  C   UNL     1     -12.078  12.453  70.152  1.00  0.00    -0.366 C  
HETATM    2  C   UNL     1     -12.279  10.963  69.927  1.00  0.00    -0.408 C  
ENDROOT
BRANCH   2   3
HETATM    3  C   UNL     1     -11.140  10.357  69.102  1.00  0.00    -0.296 C  
BRANCH   3   4
HETATM    4  C   UNL     1     -10.084   9.681  69.977  1.00  0.00    -0.252 C  
BRANCH   4   5
HETATM    5  N   UNL     1      -8.816  10.385  69.975  1.00  0.00    -0.321 N  
HETATM    6  H   UNL     1      -8.717  11.244  70.517  1.00  0.00     0.000 HD 
BRANCH   5   7
HETATM    7  C   UNL     1      -7.751   9.917  69.257  1.00  0.00    -0.109 C  
HETATM    8  O   UNL     1      -6.852   9.256  69.753  1.00  0.00    -0.047 OA 
BRANCH   7   9
HETATM    9  N   UNL     1      -7.809  10.248  67.916  1.00  0.00    -0.100 N  
HETATM   10  H   UNL     1      -7.933   9.491  67.243  1.00  0.00     0.000 HD 
BRANCH   9  11
HETATM   11  S   UNL     1      -7.689  11.800  67.327  1.00  0.00    -0.165 S  
HETATM   12  O   UNL     1      -6.450  11.962  66.602  1.00  0.00    -0.086 OA 
HETATM   13  O   UNL     1      -8.002  12.657  68.454  1.00  0.00    -0.142 OA 
BRANCH  11  14
HETATM   14  C   UNL     1      -9.051  11.900  66.191  1.00  0.00    -0.161 A  
HETATM   15  C   UNL     1     -10.048  12.859  66.388  1.00  0.00    -0.272 A  
HETATM   16  C   UNL     1     -11.145  12.903  65.526  1.00  0.00    -0.306 A  
HETATM   17  C   UNL     1     -11.249  11.995  64.464  1.00  0.00    -0.390 A  
HETATM   18  C   UNL     1     -10.214  11.075  64.243  1.00  0.00    -0.414 A  
HETATM   19  C   UNL     1     -12.456  11.989  63.571  1.00  0.00    -0.654 C  
HETATM   20  C   UNL     1      -9.112  11.030  65.099  1.00  0.00    -0.199 A  
ENDBRANCH  11  14
ENDBRANCH   9  11
ENDBRANCH   7   9
ENDBRANCH   5   7
ENDBRANCH   4   5
ENDBRANCH   3   4
ENDBRANCH   2   3
TORSDOF 7
ENDMDL
MODEL      194
REMARK 921   NORMALIZED FREE ENERGY PREDICTED BY IDOCK:   -3.57 KCAL/MOL
REMARK 922        TOTAL FREE ENERGY PREDICTED BY IDOCK:   -5.65 KCAL/MOL
REMARK 923 INTER-LIGAND FREE ENERGY PREDICTED BY IDOCK:   -4.80 KCAL/MOL
REMARK 924 INTRA-LIGAND FREE ENERGY PREDICTED BY IDOCK:   -0.85 KCAL/MOL
REMARK 927      BINDING AFFINITY PREDICTED BY RF-SCORE:    0.00 PKD
ROOT
HETATM    1  C   UNL     1     -10.639  15.512  65.277  1.00  0.00    -0.446 C  
HETATM    2  C   UNL     1     -10.485  16.352  66.535  1.00  0.00    -0.282 C  
ENDROOT
BRANCH   2   3
HETATM    3  C   UNL     1     -10.986  15.608  67.776  1.00  0.00    -0.316 C  
BRANCH   3   4
HETATM    4  C   UNL     1      -9.861  15.305  68.766  1.00  0.00    -0.217 C  
BRANCH   4   5
HETATM    5  N   UNL     1      -9.449  13.915  68.741  1.00  0.00    -0.385 N  
HETATM    6  H   UNL     1      -9.849  13.260  69.414  1.00  0.00     0.000 HD 
BRANCH   5   7
HETATM    7  C   UNL     1      -8.534  13.467  67.829  1.00  0.00    -0.181 C  
HETATM    8  O   UNL     1      -7.695  14.190  67.316  1.00  0.00    -0.181 OA 
BRANCH   7   9
HETATM    9  N   UNL     1      -8.641  12.113  67.569  1.00  0.00    -0.162 N  
HETATM   10  H   UNL     1      -7.975  11.486  68.021  1.00  0.00     0.000 HD 
BRANCH   9  11
HETATM   11  S   UNL     1      -9.786  11.439  66.565  1.00  0.00    -0.206 S  
HETATM   12  O   UNL     1      -9.241  11.264  65.239  1.00  0.00    -0.218 OA 
HETATM   13  O   UNL     1     -10.983  12.230  66.773  1.00  0.00    -0.253 OA 
BRANCH  11  14
HETATM   14  C   UNL     1     -10.068   9.846  67.299  1.00  0.00    -0.211 A  
HETATM   15  C   UNL     1     -10.274   8.733  66.479  1.00  0.00    -0.314 A  
HETATM   16  C   UNL     1     -10.548   7.492  67.056  1.00  0.00    -0.409 A  
HETATM   17  C   UNL     1     -10.612   7.355  68.449  1.00  0.00    -0.192 A  
HETATM   18  C   UNL     1     -10.347   8.467  69.260  1.00  0.00    -0.227 A  
HETATM   19  C   UNL     1     -10.972   6.041  69.078  1.00  0.00    -0.409 C  
HETATM   20  C   UNL     1     -10.067   9.710  68.690  1.00  0.00    -0.196 A  
ENDBRANCH  11  14
ENDBRANCH   9  11
ENDBRANCH   7   9
ENDBRANCH   5   7
ENDBRANCH   4   5
ENDBRANCH   3   4
ENDBRANCH   2   3
TORSDOF 7
ENDMDL
MODEL      195
REMARK 921   NORMALIZED FREE ENERGY PREDICTED BY IDOCK:   -3.56 KCAL/MOL
REMARK 922        TOTAL FREE ENERGY PREDICTED BY IDOCK:   -5.64 KCAL/MOL
REMARK 923 INTER-LIGAND FREE ENERGY PREDICTED BY IDOCK:   -4.33 KCAL/MOL
REMARK 924 INTRA-LIGAND FREE ENERGY PREDICTED BY IDOCK:   -1.30 KCAL/MOL
REMARK 927      BINDING AFFINITY PREDICTED BY RF-SCORE:    0.00 PKD
ROOT
HETATM    1  C   UNL     1      -6.635   5.864  69.882  1.00  0.00    -0.050 C  
HETATM    2  C   UNL     1      -7.575   5.648  71.058  1.00  0.00    -0.095 C  
ENDROOT
BRANCH   2   3
HETATM    3  C   UNL     1      -7.527   6.819  72.043  1.00  0.00    -0.093 C  
BRANCH   3   4
HETATM    4  C   UNL     1      -8.695   6.797  73.029  1.00  0.00    -0.119 C  
BRANCH   4   5
HETATM    5  N   UNL     1      -9.602   5.688  72.803  1.00  0.00    -0.152 N  
HETATM    6  H   UNL     1      -9.245   4.823  72.397  1.00  0.00     0.000 HD 
BRANCH   5   7
HETATM    7  C   UNL     1     -10.927   5.783  73.126  1.00  0.00    -0.271 C  
HETATM    8  O   UNL     1     -11.613   4.817  73.419  1.00  0.00    -0.323 OA 
BRANCH   7   9
HETATM    9  N   UNL     1     -11.400   7.082  73.108  1.00  0.00    -0.546 N  
HETATM   10  H   UNL     1     -11.125   7.700  73.872  1.00  0.00     0.000 HD 
BRANCH   9  11
HETATM   11  S   UNL     1     -12.390   7.704  71.923  1.00  0.00    -0.297 S  
HETATM   12  O   UNL     1     -12.647   9.104  72.175  1.00  0.00    -0.369 OA 
HETATM   13  O   UNL     1     -13.486   6.761  71.813  1.00  0.00    -0.282 OA 
BRANCH  11  14
HETATM   14  C   UNL     1     -11.402   7.543  70.456  1.00  0.00    -0.260 A  
HETATM   15  C   UNL     1     -11.497   6.384  69.682  1.00  0.00    -0.446 A  
HETATM   16  C   UNL     1     -10.682   6.235  68.558  1.00  0.00    -0.354 A  
HETATM   17  C   UNL     1      -9.775   7.241  68.201  1.00  0.00    -0.155 A  
HETATM   18  C   UNL     1      -9.732   8.424  68.953  1.00  0.00    -0.168 A  
HETATM   19  C   UNL     1      -8.848   7.064  67.035  1.00  0.00    -0.124 C  
HETATM   20  C   UNL     1     -10.548   8.581  70.074  1.00  0.00    -0.230 A  
ENDBRANCH  11  14
ENDBRANCH   9  11
ENDBRANCH   7   9
ENDBRANCH   5   7
ENDBRANCH   4   5
ENDBRANCH   3   4
ENDBRANCH   2   3
TORSDOF 7
ENDMDL
MODEL      196
REMARK 921   NORMALIZED FREE ENERGY PREDICTED BY IDOCK:   -3.55 KCAL/MOL
REMARK 922        TOTAL FREE ENERGY PREDICTED BY IDOCK:   -5.62 KCAL/MOL
REMARK 923 INTER-LIGAND FREE ENERGY PREDICTED BY IDOCK:   -5.39 KCAL/MOL
REMARK 924 INTRA-LIGAND FREE ENERGY PREDICTED BY IDOCK:   -0.24 KCAL/MOL
REMARK 927      BINDING AFFINITY PREDICTED BY RF-SCORE:    0.00 PKD
ROOT
HETATM    1  C   UNL     1     -11.385   6.498  69.957  1.00  0.00    -0.472 C  
HETATM    2  C   UNL     1     -10.688   7.060  71.186  1.00  0.00    -0.253 C  
ENDROOT
BRANCH   2   3
HETATM    3  C   UNL     1     -10.116   8.455  70.922  1.00  0.00    -0.234 C  
BRANCH   3   4
HETATM    4  C   UNL     1     -11.186   9.445  70.458  1.00  0.00    -0.275 C  
BRANCH   4   5
HETATM    5  N   UNL     1     -10.625  10.652  69.884  1.00  0.00    -0.433 N  
HETATM    6  H   UNL     1      -9.671  10.926  70.122  1.00  0.00     0.000 HD 
BRANCH   5   7
HETATM    7  C   UNL     1     -11.353  11.430  69.027  1.00  0.00    -0.280 C  
HETATM    8  O   UNL     1     -12.484  11.146  68.666  1.00  0.00    -0.463 OA 
BRANCH   7   9
HETATM    9  N   UNL     1     -10.689  12.577  68.634  1.00  0.00    -0.237 N  
HETATM   10  H   UNL     1      -9.670  12.548  68.594  1.00  0.00     0.000 HD 
BRANCH   9  11
HETATM   11  S   UNL     1     -11.443  14.003  68.222  1.00  0.00    -0.325 S  
HETATM   12  O   UNL     1     -12.190  14.513  69.348  1.00  0.00    -0.306 OA 
HETATM   13  O   UNL     1     -12.104  13.730  66.960  1.00  0.00    -0.406 OA 
BRANCH  11  14
HETATM   14  C   UNL     1     -10.079  15.090  67.882  1.00  0.00    -0.226 A  
HETATM   15  C   UNL     1      -9.460  15.051  66.630  1.00  0.00    -0.288 A  
HETATM   16  C   UNL     1      -8.355  15.868  66.381  1.00  0.00    -0.310 A  
HETATM   17  C   UNL     1      -7.868  16.726  67.376  1.00  0.00    -0.193 A  
HETATM   18  C   UNL     1      -8.534  16.795  68.608  1.00  0.00    -0.259 A  
HETATM   19  C   UNL     1      -6.641  17.558  67.142  1.00  0.00    -0.194 C  
HETATM   20  C   UNL     1      -9.642  15.986  68.861  1.00  0.00    -0.236 A  
ENDBRANCH  11  14
ENDBRANCH   9  11
ENDBRANCH   7   9
ENDBRANCH   5   7
ENDBRANCH   4   5
ENDBRANCH   3   4
ENDBRANCH   2   3
TORSDOF 7
ENDMDL
MODEL      197
REMARK 921   NORMALIZED FREE ENERGY PREDICTED BY IDOCK:   -3.52 KCAL/MOL
REMARK 922        TOTAL FREE ENERGY PREDICTED BY IDOCK:   -5.59 KCAL/MOL
REMARK 923 INTER-LIGAND FREE ENERGY PREDICTED BY IDOCK:   -4.83 KCAL/MOL
REMARK 924 INTRA-LIGAND FREE ENERGY PREDICTED BY IDOCK:   -0.76 KCAL/MOL
REMARK 927      BINDING AFFINITY PREDICTED BY RF-SCORE:    0.00 PKD
ROOT
HETATM    1  C   UNL     1     -12.466  12.455  63.609  1.00  0.00    -0.610 C  
HETATM    2  C   UNL     1     -11.561  13.527  64.194  1.00  0.00    -0.415 C  
ENDROOT
BRANCH   2   3
HETATM    3  C   UNL     1     -12.254  14.299  65.320  1.00  0.00    -0.414 C  
BRANCH   3   4
HETATM    4  C   UNL     1     -11.279  14.723  66.419  1.00  0.00    -0.342 C  
BRANCH   4   5
HETATM    5  N   UNL     1     -11.121  13.716  67.451  1.00  0.00    -0.276 N  
HETATM    6  H   UNL     1     -11.931  13.171  67.749  1.00  0.00     0.000 HD 
BRANCH   5   7
HETATM    7  C   UNL     1      -9.905  13.485  68.031  1.00  0.00    -0.238 C  
HETATM    8  O   UNL     1      -9.390  14.252  68.828  1.00  0.00    -0.189 OA 
BRANCH   7   9
HETATM    9  N   UNL     1      -9.334  12.287  67.642  1.00  0.00    -0.180 N  
HETATM   10  H   UNL     1      -8.352  12.294  67.368  1.00  0.00     0.000 HD 
BRANCH   9  11
HETATM   11  S   UNL     1     -10.146  10.834  67.590  1.00  0.00    -0.182 S  
HETATM   12  O   UNL     1     -11.544  11.056  67.304  1.00  0.00    -0.496 OA 
HETATM   13  O   UNL     1      -9.741  10.133  68.793  1.00  0.00    -0.159 OA 
BRANCH  11  14
HETATM   14  C   UNL     1      -9.389  10.005  66.213  1.00  0.00    -0.168 A  
HETATM   15  C   UNL     1      -9.504  10.549  64.931  1.00  0.00    -0.304 A  
HETATM   16  C   UNL     1      -8.954   9.870  63.842  1.00  0.00    -0.280 A  
HETATM   17  C   UNL     1      -8.285   8.653  64.028  1.00  0.00    -0.149 A  
HETATM   18  C   UNL     1      -8.127   8.149  65.327  1.00  0.00    -0.136 A  
HETATM   19  C   UNL     1      -7.749   7.882  62.857  1.00  0.00    -0.132 C  
HETATM   20  C   UNL     1      -8.670   8.825  66.420  1.00  0.00    -0.158 A  
ENDBRANCH  11  14
ENDBRANCH   9  11
ENDBRANCH   7   9
ENDBRANCH   5   7
ENDBRANCH   4   5
ENDBRANCH   3   4
ENDBRANCH   2   3
TORSDOF 7
ENDMDL
MODEL      198
REMARK 921   NORMALIZED FREE ENERGY PREDICTED BY IDOCK:   -3.52 KCAL/MOL
REMARK 922        TOTAL FREE ENERGY PREDICTED BY IDOCK:   -5.58 KCAL/MOL
REMARK 923 INTER-LIGAND FREE ENERGY PREDICTED BY IDOCK:   -4.59 KCAL/MOL
REMARK 924 INTRA-LIGAND FREE ENERGY PREDICTED BY IDOCK:   -0.99 KCAL/MOL
REMARK 927      BINDING AFFINITY PREDICTED BY RF-SCORE:    0.00 PKD
ROOT
HETATM    1  C   UNL     1      -9.526   6.177  69.403  1.00  0.00    -0.153 C  
HETATM    2  C   UNL     1      -8.283   7.054  69.401  1.00  0.00    -0.132 C  
ENDROOT
BRANCH   2   3
HETATM    3  C   UNL     1      -8.593   8.472  68.917  1.00  0.00    -0.127 C  
BRANCH   3   4
HETATM    4  C   UNL     1     -10.082   8.680  68.640  1.00  0.00    -0.190 C  
BRANCH   4   5
HETATM    5  N   UNL     1     -10.383  10.013  68.154  1.00  0.00    -0.182 N  
HETATM    6  H   UNL     1      -9.807  10.421  67.417  1.00  0.00     0.000 HD 
BRANCH   5   7
HETATM    7  C   UNL     1     -11.427  10.732  68.667  1.00  0.00    -0.295 C  
HETATM    8  O   UNL     1     -12.261  11.288  67.969  1.00  0.00    -0.621 OA 
BRANCH   7   9
HETATM    9  N   UNL     1     -11.455  10.743  70.049  1.00  0.00    -0.306 N  
HETATM   10  H   UNL     1     -10.627  11.082  70.539  1.00  0.00     0.000 HD 
BRANCH   9  11
HETATM   11  S   UNL     1     -12.750  10.240  70.966  1.00  0.00    -0.417 S  
HETATM   12  O   UNL     1     -13.895   9.999  70.118  1.00  0.00     0.395 OA 
HETATM   13  O   UNL     1     -12.829  11.189  72.060  1.00  0.00    -0.375 OA 
BRANCH  11  14
HETATM   14  C   UNL     1     -12.184   8.698  71.641  1.00  0.00    -0.333 A  
HETATM   15  C   UNL     1     -10.968   8.649  72.328  1.00  0.00    -0.392 A  
HETATM   16  C   UNL     1     -10.498   7.426  72.813  1.00  0.00    -0.323 A  
HETATM   17  C   UNL     1     -11.240   6.254  72.618  1.00  0.00    -0.302 A  
HETATM   18  C   UNL     1     -12.485   6.327  71.977  1.00  0.00    -0.127 A  
HETATM   19  C   UNL     1     -10.713   4.925  73.076  1.00  0.00    -0.305 C  
HETATM   20  C   UNL     1     -12.963   7.547  71.496  1.00  0.00    -0.400 A  
ENDBRANCH  11  14
ENDBRANCH   9  11
ENDBRANCH   7   9
ENDBRANCH   5   7
ENDBRANCH   4   5
ENDBRANCH   3   4
ENDBRANCH   2   3
TORSDOF 7
ENDMDL
MODEL      199
REMARK 921   NORMALIZED FREE ENERGY PREDICTED BY IDOCK:   -3.51 KCAL/MOL
REMARK 922        TOTAL FREE ENERGY PREDICTED BY IDOCK:   -5.57 KCAL/MOL
REMARK 923 INTER-LIGAND FREE ENERGY PREDICTED BY IDOCK:   -5.41 KCAL/MOL
REMARK 924 INTRA-LIGAND FREE ENERGY PREDICTED BY IDOCK:   -0.15 KCAL/MOL
REMARK 927      BINDING AFFINITY PREDICTED BY RF-SCORE:    0.00 PKD
ROOT
HETATM    1  C   UNL     1      -9.150   4.411  70.067  1.00  0.00    -0.168 C  
HETATM    2  C   UNL     1     -10.306   5.233  70.614  1.00  0.00    -0.324 C  
ENDROOT
BRANCH   2   3
HETATM    3  C   UNL     1     -11.117   5.886  69.492  1.00  0.00    -0.403 C  
BRANCH   3   4
HETATM    4  C   UNL     1     -10.248   6.267  68.293  1.00  0.00    -0.169 C  
BRANCH   4   5
HETATM    5  N   UNL     1     -10.252   7.692  68.025  1.00  0.00    -0.194 N  
HETATM    6  H   UNL     1     -10.269   8.023  67.060  1.00  0.00     0.000 HD 
BRANCH   5   7
HETATM    7  C   UNL     1     -10.234   8.601  69.046  1.00  0.00    -0.207 C  
HETATM    8  O   UNL     1      -9.521   8.485  70.031  1.00  0.00    -0.161 OA 
BRANCH   7   9
HETATM    9  N   UNL     1     -11.084   9.672  68.838  1.00  0.00    -0.438 N  
HETATM   10  H   UNL     1     -12.069   9.472  68.666  1.00  0.00     0.000 HD 
BRANCH   9  11
HETATM   11  S   UNL     1     -10.605  11.266  68.851  1.00  0.00    -0.199 S  
HETATM   12  O   UNL     1      -9.177  11.354  69.055  1.00  0.00    -0.079 OA 
HETATM   13  O   UNL     1     -11.521  11.929  69.759  1.00  0.00    -0.278 OA 
BRANCH  11  14
HETATM   14  C   UNL     1     -10.999  11.812  67.207  1.00  0.00    -0.267 A  
HETATM   15  C   UNL     1     -11.821  12.927  67.028  1.00  0.00    -0.437 A  
HETATM   16  C   UNL     1     -12.173  13.325  65.736  1.00  0.00    -0.510 A  
HETATM   17  C   UNL     1     -11.703  12.616  64.623  1.00  0.00    -0.411 A  
HETATM   18  C   UNL     1     -10.832  11.534  64.816  1.00  0.00    -0.360 A  
HETATM   19  C   UNL     1     -12.128  12.993  63.234  1.00  0.00    -0.499 C  
HETATM   20  C   UNL     1     -10.472  11.136  66.104  1.00  0.00    -0.307 A  
ENDBRANCH  11  14
ENDBRANCH   9  11
ENDBRANCH   7   9
ENDBRANCH   5   7
ENDBRANCH   4   5
ENDBRANCH   3   4
ENDBRANCH   2   3
TORSDOF 7
ENDMDL
MODEL      200
REMARK 921   NORMALIZED FREE ENERGY PREDICTED BY IDOCK:   -3.50 KCAL/MOL
REMARK 922        TOTAL FREE ENERGY PREDICTED BY IDOCK:   -5.56 KCAL/MOL
REMARK 923 INTER-LIGAND FREE ENERGY PREDICTED BY IDOCK:   -5.07 KCAL/MOL
REMARK 924 INTRA-LIGAND FREE ENERGY PREDICTED BY IDOCK:   -0.49 KCAL/MOL
REMARK 927      BINDING AFFINITY PREDICTED BY RF-SCORE:    0.00 PKD
ROOT
HETATM    1  C   UNL     1     -13.307  14.195  71.421  1.00  0.00    -0.402 C  
HETATM    2  C   UNL     1     -11.986  14.205  70.669  1.00  0.00    -0.385 C  
ENDROOT
BRANCH   2   3
HETATM    3  C   UNL     1     -12.003  13.239  69.482  1.00  0.00    -0.366 C  
BRANCH   3   4
HETATM    4  C   UNL     1     -10.628  13.094  68.830  1.00  0.00    -0.201 C  
BRANCH   4   5
HETATM    5  N   UNL     1     -10.632  13.445  67.423  1.00  0.00    -0.250 N  
HETATM    6  H   UNL     1     -10.578  12.707  66.721  1.00  0.00     0.000 HD 
BRANCH   5   7
HETATM    7  C   UNL     1     -10.708  14.750  67.022  1.00  0.00    -0.300 C  
HETATM    8  O   UNL     1     -11.738  15.264  66.614  1.00  0.00    -0.140 OA 
BRANCH   7   9
HETATM    9  N   UNL     1      -9.511  15.430  67.148  1.00  0.00    -0.209 N  
HETATM   10  H   UNL     1      -8.818  15.317  66.408  1.00  0.00     0.000 HD 
BRANCH   9  11
HETATM   11  S   UNL     1      -9.125  16.421  68.429  1.00  0.00    -0.222 S  
HETATM   12  O   UNL     1      -8.222  15.740  69.329  1.00  0.00    -0.228 OA 
HETATM   13  O   UNL     1     -10.395  16.932  68.907  1.00  0.00    -0.293 OA 
BRANCH  11  14
HETATM   14  C   UNL     1      -8.271  17.768  67.646  1.00  0.00    -0.230 A  
HETATM   15  C   UNL     1      -7.468  17.521  66.530  1.00  0.00    -0.309 A  
HETATM   16  C   UNL     1      -6.755  18.571  65.947  1.00  0.00    -0.310 A  
HETATM   17  C   UNL     1      -6.845  19.867  66.471  1.00  0.00    -0.235 A  
HETATM   18  C   UNL     1      -7.700  20.110  67.556  1.00  0.00    -0.342 A  
HETATM   19  C   UNL     1      -6.033  20.989  65.894  1.00  0.00    -0.295 C  
HETATM   20  C   UNL     1      -8.419  19.066  68.140  1.00  0.00    -0.351 A  
ENDBRANCH  11  14
ENDBRANCH   9  11
ENDBRANCH   7   9
ENDBRANCH   5   7
ENDBRANCH   4   5
ENDBRANCH   3   4
ENDBRANCH   2   3
TORSDOF 7
ENDMDL
MODEL      201
REMARK 921   NORMALIZED FREE ENERGY PREDICTED BY IDOCK:   -3.50 KCAL/MOL
REMARK 922        TOTAL FREE ENERGY PREDICTED BY IDOCK:   -5.56 KCAL/MOL
REMARK 923 INTER-LIGAND FREE ENERGY PREDICTED BY IDOCK:   -4.88 KCAL/MOL
REMARK 924 INTRA-LIGAND FREE ENERGY PREDICTED BY IDOCK:   -0.68 KCAL/MOL
REMARK 927      BINDING AFFINITY PREDICTED BY RF-SCORE:    0.00 PKD
ROOT
HETATM    1  C   UNL     1     -12.782  14.362  65.878  1.00  0.00    -0.201 C  
HETATM    2  C   UNL     1     -12.094  14.415  64.523  1.00  0.00    -0.498 C  
ENDROOT
BRANCH   2   3
HETATM    3  C   UNL     1     -10.929  13.426  64.441  1.00  0.00    -0.413 C  
BRANCH   3   4
HETATM    4  C   UNL     1     -10.158  13.325  65.758  1.00  0.00    -0.286 C  
BRANCH   4   5
HETATM    5  N   UNL     1     -10.109  11.973  66.280  1.00  0.00    -0.217 N  
HETATM    6  H   UNL     1      -9.534  11.273  65.810  1.00  0.00     0.000 HD 
BRANCH   5   7
HETATM    7  C   UNL     1     -10.822  11.619  67.391  1.00  0.00    -0.250 C  
HETATM    8  O   UNL     1     -12.029  11.429  67.378  1.00  0.00    -0.606 OA 
BRANCH   7   9
HETATM    9  N   UNL     1     -10.037  11.476  68.520  1.00  0.00    -0.203 N  
HETATM   10  H   UNL     1     -10.155  12.156  69.272  1.00  0.00     0.000 HD 
BRANCH   9  11
HETATM   11  S   UNL     1      -8.912  10.268  68.734  1.00  0.00    -0.164 S  
HETATM   12  O   UNL     1      -7.623  10.840  69.047  1.00  0.00    -0.106 OA 
HETATM   13  O   UNL     1      -9.073   9.395  67.587  1.00  0.00    -0.122 OA 
BRANCH  11  14
HETATM   14  C   UNL     1      -9.529   9.398  70.155  1.00  0.00    -0.240 A  
HETATM   15  C   UNL     1      -8.669   9.112  71.218  1.00  0.00    -0.157 A  
HETATM   16  C   UNL     1      -9.141   8.382  72.311  1.00  0.00    -0.313 A  
HETATM   17  C   UNL     1     -10.470   7.940  72.348  1.00  0.00    -0.339 A  
HETATM   18  C   UNL     1     -11.337   8.283  71.301  1.00  0.00    -0.308 A  
HETATM   19  C   UNL     1     -10.970   7.098  73.486  1.00  0.00    -0.185 C  
HETATM   20  C   UNL     1     -10.873   9.017  70.208  1.00  0.00    -0.269 A  
ENDBRANCH  11  14
ENDBRANCH   9  11
ENDBRANCH   7   9
ENDBRANCH   5   7
ENDBRANCH   4   5
ENDBRANCH   3   4
ENDBRANCH   2   3
TORSDOF 7
ENDMDL
MODEL      202
REMARK 921   NORMALIZED FREE ENERGY PREDICTED BY IDOCK:   -3.50 KCAL/MOL
REMARK 922        TOTAL FREE ENERGY PREDICTED BY IDOCK:   -5.55 KCAL/MOL
REMARK 923 INTER-LIGAND FREE ENERGY PREDICTED BY IDOCK:   -4.97 KCAL/MOL
REMARK 924 INTRA-LIGAND FREE ENERGY PREDICTED BY IDOCK:   -0.58 KCAL/MOL
REMARK 927      BINDING AFFINITY PREDICTED BY RF-SCORE:    0.00 PKD
ROOT
HETATM    1  C   UNL     1      -5.458   4.649  67.697  1.00  0.00    -0.013 C  
HETATM    2  C   UNL     1      -5.491   6.044  67.092  1.00  0.00    -0.009 C  
ENDROOT
BRANCH   2   3
HETATM    3  C   UNL     1      -6.667   6.865  67.628  1.00  0.00    -0.067 C  
BRANCH   3   4
HETATM    4  C   UNL     1      -8.019   6.276  67.225  1.00  0.00    -0.109 C  
BRANCH   4   5
HETATM    5  N   UNL     1      -9.090   7.253  67.256  1.00  0.00    -0.122 N  
HETATM    6  H   UNL     1      -8.868   8.245  67.167  1.00  0.00     0.000 HD 
BRANCH   5   7
HETATM    7  C   UNL     1     -10.393   6.868  67.403  1.00  0.00    -0.231 C  
HETATM    8  O   UNL     1     -10.880   5.919  66.807  1.00  0.00    -0.308 OA 
BRANCH   7   9
HETATM    9  N   UNL     1     -11.093   7.643  68.309  1.00  0.00    -0.414 N  
HETATM   10  H   UNL     1     -11.753   8.328  67.941  1.00  0.00     0.000 HD 
BRANCH   9  11
HETATM   11  S   UNL     1     -10.929   7.532  69.962  1.00  0.00    -0.205 S  
HETATM   12  O   UNL     1      -9.531   7.554  70.325  1.00  0.00    -0.165 OA 
HETATM   13  O   UNL     1     -11.775   6.420  70.352  1.00  0.00    -0.396 OA 
BRANCH  11  14
HETATM   14  C   UNL     1     -11.710   9.020  70.539  1.00  0.00    -0.126 A  
HETATM   15  C   UNL     1     -11.341  10.251  69.990  1.00  0.00    -0.370 A  
HETATM   16  C   UNL     1     -11.916  11.425  70.481  1.00  0.00    -0.451 A  
HETATM   17  C   UNL     1     -12.862  11.375  71.513  1.00  0.00    -0.508 A  
HETATM   18  C   UNL     1     -13.264  10.129  72.015  1.00  0.00    -0.534 A  
HETATM   19  C   UNL     1     -13.437  12.634  72.094  1.00  0.00    -0.561 C  
HETATM   20  C   UNL     1     -12.697   8.951  71.525  1.00  0.00    -0.386 A  
ENDBRANCH  11  14
ENDBRANCH   9  11
ENDBRANCH   7   9
ENDBRANCH   5   7
ENDBRANCH   4   5
ENDBRANCH   3   4
ENDBRANCH   2   3
TORSDOF 7
ENDMDL
MODEL      203
REMARK 921   NORMALIZED FREE ENERGY PREDICTED BY IDOCK:   -3.49 KCAL/MOL
REMARK 922        TOTAL FREE ENERGY PREDICTED BY IDOCK:   -5.55 KCAL/MOL
REMARK 923 INTER-LIGAND FREE ENERGY PREDICTED BY IDOCK:   -5.03 KCAL/MOL
REMARK 924 INTRA-LIGAND FREE ENERGY PREDICTED BY IDOCK:   -0.52 KCAL/MOL
REMARK 927      BINDING AFFINITY PREDICTED BY RF-SCORE:    0.00 PKD
ROOT
HETATM    1  C   UNL     1      -9.615   8.643  72.072  1.00  0.00    -0.385 C  
HETATM    2  C   UNL     1      -9.143   8.469  70.636  1.00  0.00    -0.184 C  
ENDROOT
BRANCH   2   3
HETATM    3  C   UNL     1      -8.270   9.641  70.182  1.00  0.00    -0.206 C  
BRANCH   3   4
HETATM    4  C   UNL     1      -8.977  10.531  69.160  1.00  0.00    -0.161 C  
BRANCH   4   5
HETATM    5  N   UNL     1     -10.246   9.985  68.721  1.00  0.00    -0.177 N  
HETATM    6  H   UNL     1     -10.935   9.694  69.415  1.00  0.00     0.000 HD 
BRANCH   5   7
HETATM    7  C   UNL     1     -10.536   9.854  67.391  1.00  0.00    -0.267 C  
HETATM    8  O   UNL     1     -10.567   8.776  66.818  1.00  0.00    -0.258 OA 
BRANCH   7   9
HETATM    9  N   UNL     1     -10.811  11.059  66.771  1.00  0.00    -0.268 N  
HETATM   10  H   UNL     1     -11.526  11.656  67.186  1.00  0.00     0.000 HD 
BRANCH   9  11
HETATM   11  S   UNL     1     -10.051  11.600  65.392  1.00  0.00    -0.269 S  
HETATM   12  O   UNL     1     -10.806  11.208  64.224  1.00  0.00    -0.361 OA 
HETATM   13  O   UNL     1      -8.665  11.200  65.543  1.00  0.00    -0.176 OA 
BRANCH  11  14
HETATM   14  C   UNL     1     -10.116  13.366  65.569  1.00  0.00    -0.266 A  
HETATM   15  C   UNL     1      -9.444  13.980  66.629  1.00  0.00    -0.300 A  
HETATM   16  C   UNL     1      -9.538  15.362  66.798  1.00  0.00    -0.257 A  
HETATM   17  C   UNL     1     -10.298  16.136  65.911  1.00  0.00    -0.384 A  
HETATM   18  C   UNL     1     -10.921  15.514  64.819  1.00  0.00    -0.416 A  
HETATM   19  C   UNL     1     -10.462  17.613  66.122  1.00  0.00    -0.295 C  
HETATM   20  C   UNL     1     -10.825  14.133  64.641  1.00  0.00    -0.401 A  
ENDBRANCH  11  14
ENDBRANCH   9  11
ENDBRANCH   7   9
ENDBRANCH   5   7
ENDBRANCH   4   5
ENDBRANCH   3   4
ENDBRANCH   2   3
TORSDOF 7
ENDMDL
MODEL      204
REMARK 921   NORMALIZED FREE ENERGY PREDICTED BY IDOCK:   -3.48 KCAL/MOL
REMARK 922        TOTAL FREE ENERGY PREDICTED BY IDOCK:   -5.54 KCAL/MOL
REMARK 923 INTER-LIGAND FREE ENERGY PREDICTED BY IDOCK:   -5.67 KCAL/MOL
REMARK 924 INTRA-LIGAND FREE ENERGY PREDICTED BY IDOCK:    0.13 KCAL/MOL
REMARK 927      BINDING AFFINITY PREDICTED BY RF-SCORE:    0.00 PKD
ROOT
HETATM    1  C   UNL     1      -6.784  17.976  66.609  1.00  0.00    -0.236 C  
HETATM    2  C   UNL     1      -6.111  16.737  67.179  1.00  0.00    -0.209 C  
ENDROOT
BRANCH   2   3
HETATM    3  C   UNL     1      -7.136  15.701  67.645  1.00  0.00    -0.192 C  
BRANCH   3   4
HETATM    4  C   UNL     1      -8.550  16.278  67.727  1.00  0.00    -0.171 C  
BRANCH   4   5
HETATM    5  N   UNL     1      -9.554  15.269  68.004  1.00  0.00    -0.202 N  
HETATM    6  H   UNL     1      -9.406  14.311  67.684  1.00  0.00     0.000 HD 
BRANCH   5   7
HETATM    7  C   UNL     1     -10.697  15.580  68.688  1.00  0.00    -0.252 C  
HETATM    8  O   UNL     1     -11.679  16.072  68.156  1.00  0.00    -0.259 OA 
BRANCH   7   9
HETATM    9  N   UNL     1     -10.633  15.258  70.031  1.00  0.00    -0.374 N  
HETATM   10  H   UNL     1      -9.713  15.089  70.438  1.00  0.00     0.000 HD 
BRANCH   9  11
HETATM   11  S   UNL     1     -11.960  15.127  71.028  1.00  0.00    -0.370 S  
HETATM   12  O   UNL     1     -13.094  15.798  70.435  1.00  0.00    -0.399 OA 
HETATM   13  O   UNL     1     -11.483  15.508  72.344  1.00  0.00    -0.435 OA 
BRANCH  11  14
HETATM   14  C   UNL     1     -12.263  13.377  71.059  1.00  0.00    -0.224 A  
HETATM   15  C   UNL     1     -13.205  12.855  71.950  1.00  0.00    -0.521 A  
HETATM   16  C   UNL     1     -13.405  11.474  72.011  1.00  0.00    -0.397 A  
HETATM   17  C   UNL     1     -12.672  10.613  71.183  1.00  0.00    -0.522 A  
HETATM   18  C   UNL     1     -11.771  11.156  70.255  1.00  0.00    -0.431 A  
HETATM   19  C   UNL     1     -12.830   9.125  71.288  1.00  0.00    -0.323 C  
HETATM   20  C   UNL     1     -11.571  12.535  70.185  1.00  0.00    -0.150 A  
ENDBRANCH  11  14
ENDBRANCH   9  11
ENDBRANCH   7   9
ENDBRANCH   5   7
ENDBRANCH   4   5
ENDBRANCH   3   4
ENDBRANCH   2   3
TORSDOF 7
ENDMDL
MODEL      205
REMARK 921   NORMALIZED FREE ENERGY PREDICTED BY IDOCK:   -3.48 KCAL/MOL
REMARK 922        TOTAL FREE ENERGY PREDICTED BY IDOCK:   -5.53 KCAL/MOL
REMARK 923 INTER-LIGAND FREE ENERGY PREDICTED BY IDOCK:   -4.92 KCAL/MOL
REMARK 924 INTRA-LIGAND FREE ENERGY PREDICTED BY IDOCK:   -0.61 KCAL/MOL
REMARK 927      BINDING AFFINITY PREDICTED BY RF-SCORE:    0.00 PKD
ROOT
HETATM    1  C   UNL     1     -11.933  13.934  69.131  1.00  0.00    -0.404 C  
HETATM    2  C   UNL     1     -11.658  14.946  68.029  1.00  0.00    -0.363 C  
ENDROOT
BRANCH   2   3
HETATM    3  C   UNL     1     -11.542  14.272  66.660  1.00  0.00    -0.397 C  
BRANCH   3   4
HETATM    4  C   UNL     1     -10.211  14.579  65.972  1.00  0.00    -0.315 C  
BRANCH   4   5
HETATM    5  N   UNL     1      -9.092  13.885  66.578  1.00  0.00    -0.446 N  
HETATM    6  H   UNL     1      -8.277  14.417  66.884  1.00  0.00     0.000 HD 
BRANCH   5   7
HETATM    7  C   UNL     1      -9.110  12.528  66.746  1.00  0.00    -0.214 C  
HETATM    8  O   UNL     1      -9.288  11.992  67.828  1.00  0.00    -0.178 OA 
BRANCH   7   9
HETATM    9  N   UNL     1      -8.930  11.830  65.566  1.00  0.00    -0.411 N  
HETATM   10  H   UNL     1      -8.058  11.974  65.055  1.00  0.00     0.000 HD 
BRANCH   9  11
HETATM   11  S   UNL     1     -10.042  10.771  64.924  1.00  0.00    -0.332 S  
HETATM   12  O   UNL     1      -9.802  10.596  63.510  1.00  0.00    -0.307 OA 
HETATM   13  O   UNL     1     -11.329  11.239  65.401  1.00  0.00    -0.081 OA 
BRANCH  11  14
HETATM   14  C   UNL     1      -9.681   9.253  65.774  1.00  0.00    -0.269 A  
HETATM   15  C   UNL     1      -8.584   8.484  65.379  1.00  0.00    -0.202 A  
HETATM   16  C   UNL     1      -8.331   7.266  66.012  1.00  0.00    -0.140 A  
HETATM   17  C   UNL     1      -9.167   6.814  67.041  1.00  0.00    -0.152 A  
HETATM   18  C   UNL     1     -10.231   7.623  67.466  1.00  0.00    -0.294 A  
HETATM   19  C   UNL     1      -8.945   5.476  67.683  1.00  0.00    -0.108 C  
HETATM   20  C   UNL     1     -10.485   8.844  66.840  1.00  0.00    -0.304 A  
ENDBRANCH  11  14
ENDBRANCH   9  11
ENDBRANCH   7   9
ENDBRANCH   5   7
ENDBRANCH   4   5
ENDBRANCH   3   4
ENDBRANCH   2   3
TORSDOF 7
ENDMDL
MODEL      206
REMARK 921   NORMALIZED FREE ENERGY PREDICTED BY IDOCK:   -3.47 KCAL/MOL
REMARK 922        TOTAL FREE ENERGY PREDICTED BY IDOCK:   -5.52 KCAL/MOL
REMARK 923 INTER-LIGAND FREE ENERGY PREDICTED BY IDOCK:   -4.74 KCAL/MOL
REMARK 924 INTRA-LIGAND FREE ENERGY PREDICTED BY IDOCK:   -0.78 KCAL/MOL
REMARK 927      BINDING AFFINITY PREDICTED BY RF-SCORE:    0.00 PKD
ROOT
HETATM    1  C   UNL     1      -5.433  19.535  66.430  1.00  0.00    -0.161 C  
HETATM    2  C   UNL     1      -6.674  18.850  66.980  1.00  0.00    -0.204 C  
ENDROOT
BRANCH   2   3
HETATM    3  C   UNL     1      -7.390  18.029  65.904  1.00  0.00    -0.248 C  
BRANCH   3   4
HETATM    4  C   UNL     1      -8.144  16.834  66.490  1.00  0.00    -0.294 C  
BRANCH   4   5
HETATM    5  N   UNL     1      -8.821  17.151  67.732  1.00  0.00    -0.222 N  
HETATM    6  H   UNL     1      -8.290  17.174  68.603  1.00  0.00     0.000 HD 
BRANCH   5   7
HETATM    7  C   UNL     1     -10.161  17.420  67.756  1.00  0.00    -0.345 C  
HETATM    8  O   UNL     1     -10.613  18.550  67.855  1.00  0.00    -0.392 OA 
BRANCH   7   9
HETATM    9  N   UNL     1     -10.947  16.289  67.633  1.00  0.00    -0.288 N  
HETATM   10  H   UNL     1     -11.533  16.203  66.803  1.00  0.00     0.000 HD 
BRANCH   9  11
HETATM   11  S   UNL     1     -11.000  15.057  68.752  1.00  0.00    -0.269 S  
HETATM   12  O   UNL     1     -12.346  14.898  69.252  1.00  0.00    -0.214 OA 
HETATM   13  O   UNL     1      -9.902  15.326  69.662  1.00  0.00    -0.252 OA 
BRANCH  11  14
HETATM   14  C   UNL     1     -10.557  13.630  67.793  1.00  0.00    -0.242 A  
HETATM   15  C   UNL     1     -10.283  13.771  66.430  1.00  0.00    -0.292 A  
HETATM   16  C   UNL     1      -9.986  12.641  65.665  1.00  0.00    -0.253 A  
HETATM   17  C   UNL     1      -9.957  11.371  66.256  1.00  0.00    -0.259 A  
HETATM   18  C   UNL     1     -10.177  11.252  67.636  1.00  0.00    -0.206 A  
HETATM   19  C   UNL     1      -9.705  10.143  65.431  1.00  0.00    -0.355 C  
HETATM   20  C   UNL     1     -10.469  12.378  68.407  1.00  0.00    -0.245 A  
ENDBRANCH  11  14
ENDBRANCH   9  11
ENDBRANCH   7   9
ENDBRANCH   5   7
ENDBRANCH   4   5
ENDBRANCH   3   4
ENDBRANCH   2   3
TORSDOF 7
ENDMDL
MODEL      207
REMARK 921   NORMALIZED FREE ENERGY PREDICTED BY IDOCK:   -3.46 KCAL/MOL
REMARK 922        TOTAL FREE ENERGY PREDICTED BY IDOCK:   -5.50 KCAL/MOL
REMARK 923 INTER-LIGAND FREE ENERGY PREDICTED BY IDOCK:   -4.96 KCAL/MOL
REMARK 924 INTRA-LIGAND FREE ENERGY PREDICTED BY IDOCK:   -0.54 KCAL/MOL
REMARK 927      BINDING AFFINITY PREDICTED BY RF-SCORE:    0.00 PKD
ROOT
HETATM    1  C   UNL     1     -12.813  10.369  71.804  1.00  0.00    -0.561 C  
HETATM    2  C   UNL     1     -12.352  11.251  70.654  1.00  0.00    -0.477 C  
ENDROOT
BRANCH   2   3
HETATM    3  C   UNL     1     -11.326  10.539  69.771  1.00  0.00    -0.367 C  
BRANCH   3   4
HETATM    4  C   UNL     1     -10.860   9.213  70.374  1.00  0.00    -0.242 C  
BRANCH   4   5
HETATM    5  N   UNL     1     -11.236   8.066  69.571  1.00  0.00    -0.441 N  
HETATM    6  H   UNL     1     -12.195   7.983  69.231  1.00  0.00     0.000 HD 
BRANCH   5   7
HETATM    7  C   UNL     1     -10.327   7.093  69.261  1.00  0.00    -0.203 C  
HETATM    8  O   UNL     1     -10.429   5.938  69.645  1.00  0.00    -0.221 OA 
BRANCH   7   9
HETATM    9  N   UNL     1      -9.300   7.543  68.453  1.00  0.00    -0.142 N  
HETATM   10  H   UNL     1      -8.694   8.278  68.818  1.00  0.00     0.000 HD 
BRANCH   9  11
HETATM   11  S   UNL     1      -8.987   6.965  66.924  1.00  0.00    -0.126 S  
HETATM   12  O   UNL     1      -9.947   5.944  66.573  1.00  0.00    -0.162 OA 
HETATM   13  O   UNL     1      -7.565   6.677  66.912  1.00  0.00    -0.091 OA 
BRANCH  11  14
HETATM   14  C   UNL     1      -9.247   8.393  65.899  1.00  0.00    -0.155 A  
HETATM   15  C   UNL     1     -10.026   9.451  66.373  1.00  0.00    -0.346 A  
HETATM   16  C   UNL     1     -10.274  10.550  65.547  1.00  0.00    -0.325 A  
HETATM   17  C   UNL     1      -9.744  10.598  64.251  1.00  0.00    -0.372 A  
HETATM   18  C   UNL     1      -8.917   9.555  63.810  1.00  0.00    -0.211 A  
HETATM   19  C   UNL     1     -10.058  11.741  63.332  1.00  0.00    -0.470 C  
HETATM   20  C   UNL     1      -8.661   8.456  64.632  1.00  0.00    -0.046 A  
ENDBRANCH  11  14
ENDBRANCH   9  11
ENDBRANCH   7   9
ENDBRANCH   5   7
ENDBRANCH   4   5
ENDBRANCH   3   4
ENDBRANCH   2   3
TORSDOF 7
ENDMDL
MODEL      208
REMARK 921   NORMALIZED FREE ENERGY PREDICTED BY IDOCK:   -3.46 KCAL/MOL
REMARK 922        TOTAL FREE ENERGY PREDICTED BY IDOCK:   -5.50 KCAL/MOL
REMARK 923 INTER-LIGAND FREE ENERGY PREDICTED BY IDOCK:   -4.49 KCAL/MOL
REMARK 924 INTRA-LIGAND FREE ENERGY PREDICTED BY IDOCK:   -1.01 KCAL/MOL
REMARK 927      BINDING AFFINITY PREDICTED BY RF-SCORE:    0.00 PKD
ROOT
HETATM    1  C   UNL     1      -8.547   8.558  65.184  1.00  0.00    -0.179 C  
HETATM    2  C   UNL     1      -8.103   9.948  64.757  1.00  0.00    -0.151 C  
ENDROOT
BRANCH   2   3
HETATM    3  C   UNL     1      -9.221  10.701  64.032  1.00  0.00    -0.269 C  
BRANCH   3   4
HETATM    4  C   UNL     1     -10.516  10.743  64.844  1.00  0.00    -0.254 C  
BRANCH   4   5
HETATM    5  N   UNL     1     -11.415  11.797  64.416  1.00  0.00    -0.305 N  
HETATM    6  H   UNL     1     -12.148  11.588  63.738  1.00  0.00     0.000 HD 
BRANCH   5   7
HETATM    7  C   UNL     1     -11.296  13.068  64.906  1.00  0.00    -0.303 C  
HETATM    8  O   UNL     1     -10.682  13.951  64.329  1.00  0.00    -0.339 OA 
BRANCH   7   9
HETATM    9  N   UNL     1     -11.960  13.254  66.105  1.00  0.00    -0.399 N  
HETATM   10  H   UNL     1     -12.977  13.174  66.104  1.00  0.00     0.000 HD 
BRANCH   9  11
HETATM   11  S   UNL     1     -11.208  13.601  67.549  1.00  0.00    -0.307 S  
HETATM   12  O   UNL     1     -12.190  13.963  68.545  1.00  0.00    -0.342 OA 
HETATM   13  O   UNL     1     -10.134  14.513  67.207  1.00  0.00    -0.244 OA 
BRANCH  11  14
HETATM   14  C   UNL     1     -10.466  12.050  67.993  1.00  0.00    -0.207 A  
HETATM   15  C   UNL     1      -9.074  11.931  68.015  1.00  0.00    -0.189 A  
HETATM   16  C   UNL     1      -8.491  10.697  68.313  1.00  0.00    -0.127 A  
HETATM   17  C   UNL     1      -9.293   9.583  68.593  1.00  0.00    -0.142 A  
HETATM   18  C   UNL     1     -10.687   9.731  68.624  1.00  0.00    -0.247 A  
HETATM   19  C   UNL     1      -8.679   8.237  68.849  1.00  0.00    -0.137 C  
HETATM   20  C   UNL     1     -11.275  10.963  68.333  1.00  0.00    -0.347 A  
ENDBRANCH  11  14
ENDBRANCH   9  11
ENDBRANCH   7   9
ENDBRANCH   5   7
ENDBRANCH   4   5
ENDBRANCH   3   4
ENDBRANCH   2   3
TORSDOF 7
ENDMDL
MODEL      209
REMARK 921   NORMALIZED FREE ENERGY PREDICTED BY IDOCK:   -3.44 KCAL/MOL
REMARK 922        TOTAL FREE ENERGY PREDICTED BY IDOCK:   -5.48 KCAL/MOL
REMARK 923 INTER-LIGAND FREE ENERGY PREDICTED BY IDOCK:   -4.61 KCAL/MOL
REMARK 924 INTRA-LIGAND FREE ENERGY PREDICTED BY IDOCK:   -0.87 KCAL/MOL
REMARK 927      BINDING AFFINITY PREDICTED BY RF-SCORE:    0.00 PKD
ROOT
HETATM    1  C   UNL     1      -8.986   9.167  65.954  1.00  0.00    -0.231 C  
HETATM    2  C   UNL     1     -10.240   9.562  66.717  1.00  0.00    -0.313 C  
ENDROOT
BRANCH   2   3
HETATM    3  C   UNL     1      -9.934  10.569  67.828  1.00  0.00    -0.198 C  
BRANCH   3   4
HETATM    4  C   UNL     1     -11.169  10.906  68.665  1.00  0.00    -0.267 C  
BRANCH   4   5
HETATM    5  N   UNL     1     -11.651   9.777  69.437  1.00  0.00    -0.449 N  
HETATM    6  H   UNL     1     -11.818   8.885  68.971  1.00  0.00     0.000 HD 
BRANCH   5   7
HETATM    7  C   UNL     1     -11.884   9.888  70.779  1.00  0.00    -0.330 C  
HETATM    8  O   UNL     1     -12.959  10.238  71.242  1.00  0.00    -0.364 OA 
BRANCH   7   9
HETATM    9  N   UNL     1     -10.792   9.543  71.553  1.00  0.00    -0.330 N  
HETATM   10  H   UNL     1     -10.100  10.266  71.750  1.00  0.00     0.000 HD 
BRANCH   9  11
HETATM   11  S   UNL     1     -10.532   8.025  72.185  1.00  0.00    -0.290 S  
HETATM   12  O   UNL     1     -11.753   7.512  72.763  1.00  0.00    -0.279 OA 
HETATM   13  O   UNL     1      -9.332   8.151  72.989  1.00  0.00    -0.251 OA 
BRANCH  11  14
HETATM   14  C   UNL     1     -10.113   7.064  70.751  1.00  0.00    -0.194 A  
HETATM   15  C   UNL     1     -10.859   5.925  70.439  1.00  0.00    -0.378 A  
HETATM   16  C   UNL     1     -10.497   5.141  69.342  1.00  0.00    -0.203 A  
HETATM   17  C   UNL     1      -9.394   5.492  68.552  1.00  0.00    -0.143 A  
HETATM   18  C   UNL     1      -8.689   6.669  68.843  1.00  0.00    -0.128 A  
HETATM   19  C   UNL     1      -8.955   4.622  67.412  1.00  0.00    -0.119 C  
HETATM   20  C   UNL     1      -9.050   7.460  69.935  1.00  0.00    -0.141 A  
ENDBRANCH  11  14
ENDBRANCH   9  11
ENDBRANCH   7   9
ENDBRANCH   5   7
ENDBRANCH   4   5
ENDBRANCH   3   4
ENDBRANCH   2   3
TORSDOF 7
ENDMDL
MODEL      210
REMARK 921   NORMALIZED FREE ENERGY PREDICTED BY IDOCK:   -3.42 KCAL/MOL
REMARK 922        TOTAL FREE ENERGY PREDICTED BY IDOCK:   -5.45 KCAL/MOL
REMARK 923 INTER-LIGAND FREE ENERGY PREDICTED BY IDOCK:   -4.43 KCAL/MOL
REMARK 924 INTRA-LIGAND FREE ENERGY PREDICTED BY IDOCK:   -1.01 KCAL/MOL
REMARK 927      BINDING AFFINITY PREDICTED BY RF-SCORE:    0.00 PKD
ROOT
HETATM    1  C   UNL     1      -7.385  15.032  69.333  1.00  0.00    -0.194 C  
HETATM    2  C   UNL     1      -6.591  14.806  68.056  1.00  0.00    -0.157 C  
ENDROOT
BRANCH   2   3
HETATM    3  C   UNL     1      -5.883  13.449  68.063  1.00  0.00    -0.124 C  
BRANCH   3   4
HETATM    4  C   UNL     1      -6.836  12.294  67.755  1.00  0.00    -0.109 C  
BRANCH   4   5
HETATM    5  N   UNL     1      -6.827  11.915  66.356  1.00  0.00    -0.339 N  
HETATM    6  H   UNL     1      -6.431  12.553  65.665  1.00  0.00     0.000 HD 
BRANCH   5   7
HETATM    7  C   UNL     1      -7.341  10.716  65.947  1.00  0.00    -0.128 C  
HETATM    8  O   UNL     1      -7.072   9.655  66.489  1.00  0.00    -0.087 OA 
BRANCH   7   9
HETATM    9  N   UNL     1      -8.210  10.831  64.877  1.00  0.00    -0.357 N  
HETATM   10  H   UNL     1      -7.807  10.921  63.944  1.00  0.00     0.000 HD 
BRANCH   9  11
HETATM   11  S   UNL     1      -9.869  10.831  65.012  1.00  0.00    -0.314 S  
HETATM   12  O   UNL     1     -10.298   9.746  65.864  1.00  0.00    -0.214 OA 
HETATM   13  O   UNL     1     -10.359  10.939  63.651  1.00  0.00    -0.355 OA 
BRANCH  11  14
HETATM   14  C   UNL     1     -10.201  12.378  65.820  1.00  0.00    -0.260 A  
HETATM   15  C   UNL     1     -10.219  13.559  65.072  1.00  0.00    -0.345 A  
HETATM   16  C   UNL     1     -10.428  14.780  65.716  1.00  0.00    -0.348 A  
HETATM   17  C   UNL     1     -10.623  14.828  67.102  1.00  0.00    -0.285 A  
HETATM   18  C   UNL     1     -10.660  13.630  67.831  1.00  0.00    -0.255 A  
HETATM   19  C   UNL     1     -10.782  16.139  67.813  1.00  0.00    -0.325 C  
HETATM   20  C   UNL     1     -10.457  12.405  67.193  1.00  0.00    -0.236 A  
ENDBRANCH  11  14
ENDBRANCH   9  11
ENDBRANCH   7   9
ENDBRANCH   5   7
ENDBRANCH   4   5
ENDBRANCH   3   4
ENDBRANCH   2   3
TORSDOF 7
ENDMDL
MODEL      211
REMARK 921   NORMALIZED FREE ENERGY PREDICTED BY IDOCK:   -3.41 KCAL/MOL
REMARK 922        TOTAL FREE ENERGY PREDICTED BY IDOCK:   -5.44 KCAL/MOL
REMARK 923 INTER-LIGAND FREE ENERGY PREDICTED BY IDOCK:   -4.84 KCAL/MOL
REMARK 924 INTRA-LIGAND FREE ENERGY PREDICTED BY IDOCK:   -0.60 KCAL/MOL
REMARK 927      BINDING AFFINITY PREDICTED BY RF-SCORE:    0.00 PKD
ROOT
HETATM    1  C   UNL     1      -8.300   4.111  69.879  1.00  0.00    -0.079 C  
HETATM    2  C   UNL     1      -9.205   4.938  70.779  1.00  0.00    -0.196 C  
ENDROOT
BRANCH   2   3
HETATM    3  C   UNL     1      -9.241   6.407  70.349  1.00  0.00    -0.159 C  
BRANCH   3   4
HETATM    4  C   UNL     1     -10.666   6.959  70.286  1.00  0.00    -0.242 C  
BRANCH   4   5
HETATM    5  N   UNL     1     -10.705   8.390  70.057  1.00  0.00    -0.236 N  
HETATM    6  H   UNL     1     -10.715   8.746  69.100  1.00  0.00     0.000 HD 
BRANCH   5   7
HETATM    7  C   UNL     1     -10.728   9.272  71.101  1.00  0.00    -0.333 C  
HETATM    8  O   UNL     1     -10.712   8.921  72.271  1.00  0.00    -0.320 OA 
BRANCH   7   9
HETATM    9  N   UNL     1     -10.749  10.594  70.698  1.00  0.00    -0.247 N  
HETATM   10  H   UNL     1      -9.858  11.088  70.639  1.00  0.00     0.000 HD 
BRANCH   9  11
HETATM   11  S   UNL     1     -12.131  11.434  70.303  1.00  0.00    -0.370 S  
HETATM   12  O   UNL     1     -12.404  12.439  71.304  1.00  0.00    -0.248 OA 
HETATM   13  O   UNL     1     -13.116  10.415  69.993  1.00  0.00    -0.067 OA 
BRANCH  11  14
HETATM   14  C   UNL     1     -11.691  12.229  68.777  1.00  0.00    -0.340 A  
HETATM   15  C   UNL     1     -10.933  11.535  67.830  1.00  0.00    -0.287 A  
HETATM   16  C   UNL     1     -10.542  12.177  66.654  1.00  0.00    -0.266 A  
HETATM   17  C   UNL     1     -10.909  13.509  66.416  1.00  0.00    -0.291 A  
HETATM   18  C   UNL     1     -11.718  14.174  67.349  1.00  0.00    -0.422 A  
HETATM   19  C   UNL     1     -10.439  14.230  65.188  1.00  0.00    -0.432 C  
HETATM   20  C   UNL     1     -12.116  13.535  68.525  1.00  0.00    -0.303 A  
ENDBRANCH  11  14
ENDBRANCH   9  11
ENDBRANCH   7   9
ENDBRANCH   5   7
ENDBRANCH   4   5
ENDBRANCH   3   4
ENDBRANCH   2   3
TORSDOF 7
ENDMDL
MODEL      212
REMARK 921   NORMALIZED FREE ENERGY PREDICTED BY IDOCK:   -3.41 KCAL/MOL
REMARK 922        TOTAL FREE ENERGY PREDICTED BY IDOCK:   -5.44 KCAL/MOL
REMARK 923 INTER-LIGAND FREE ENERGY PREDICTED BY IDOCK:   -4.62 KCAL/MOL
REMARK 924 INTRA-LIGAND FREE ENERGY PREDICTED BY IDOCK:   -0.81 KCAL/MOL
REMARK 927      BINDING AFFINITY PREDICTED BY RF-SCORE:    0.00 PKD
ROOT
HETATM    1  C   UNL     1     -13.224  13.061  72.413  1.00  0.00    -0.487 C  
HETATM    2  C   UNL     1     -13.213  11.594  72.015  1.00  0.00    -0.443 C  
ENDROOT
BRANCH   2   3
HETATM    3  C   UNL     1     -12.333  11.348  70.787  1.00  0.00    -0.483 C  
BRANCH   3   4
HETATM    4  C   UNL     1     -11.607  10.003  70.852  1.00  0.00    -0.378 C  
BRANCH   4   5
HETATM    5  N   UNL     1     -12.487   8.876  70.612  1.00  0.00    -0.476 N  
HETATM    6  H   UNL     1     -13.272   8.980  69.969  1.00  0.00     0.000 HD 
BRANCH   5   7
HETATM    7  C   UNL     1     -12.282   7.676  71.234  1.00  0.00    -0.315 C  
HETATM    8  O   UNL     1     -12.322   7.537  72.446  1.00  0.00    -0.206 OA 
BRANCH   7   9
HETATM    9  N   UNL     1     -12.049   6.638  70.351  1.00  0.00    -0.543 N  
HETATM   10  H   UNL     1     -12.716   5.866  70.337  1.00  0.00     0.000 HD 
BRANCH   9  11
HETATM   11  S   UNL     1     -10.753   6.564  69.310  1.00  0.00    -0.311 S  
HETATM   12  O   UNL     1     -10.750   7.717  68.439  1.00  0.00    -0.155 OA 
HETATM   13  O   UNL     1     -10.787   5.223  68.759  1.00  0.00    -0.062 OA 
BRANCH  11  14
HETATM   14  C   UNL     1      -9.358   6.652  70.406  1.00  0.00    -0.159 A  
HETATM   15  C   UNL     1      -9.095   5.592  71.277  1.00  0.00    -0.156 A  
HETATM   16  C   UNL     1      -8.030   5.684  72.175  1.00  0.00    -0.107 A  
HETATM   17  C   UNL     1      -7.222   6.829  72.204  1.00  0.00    -0.080 A  
HETATM   18  C   UNL     1      -7.463   7.861  71.285  1.00  0.00    -0.073 A  
HETATM   19  C   UNL     1      -6.117   6.967  73.209  1.00  0.00    -0.057 C  
HETATM   20  C   UNL     1      -8.522   7.772  70.381  1.00  0.00    -0.132 A  
ENDBRANCH  11  14
ENDBRANCH   9  11
ENDBRANCH   7   9
ENDBRANCH   5   7
ENDBRANCH   4   5
ENDBRANCH   3   4
ENDBRANCH   2   3
TORSDOF 7
ENDMDL
MODEL      213
REMARK 921   NORMALIZED FREE ENERGY PREDICTED BY IDOCK:   -3.41 KCAL/MOL
REMARK 922        TOTAL FREE ENERGY PREDICTED BY IDOCK:   -5.43 KCAL/MOL
REMARK 923 INTER-LIGAND FREE ENERGY PREDICTED BY IDOCK:   -4.91 KCAL/MOL
REMARK 924 INTRA-LIGAND FREE ENERGY PREDICTED BY IDOCK:   -0.52 KCAL/MOL
REMARK 927      BINDING AFFINITY PREDICTED BY RF-SCORE:    0.00 PKD
ROOT
HETATM    1  C   UNL     1      -8.925   9.030  65.325  1.00  0.00    -0.233 C  
HETATM    2  C   UNL     1      -8.752   9.465  66.771  1.00  0.00    -0.138 C  
ENDROOT
BRANCH   2   3
HETATM    3  C   UNL     1      -7.444  10.232  66.979  1.00  0.00    -0.093 C  
BRANCH   3   4
HETATM    4  C   UNL     1      -7.593  11.726  66.687  1.00  0.00    -0.005 C  
BRANCH   4   5
HETATM    5  N   UNL     1      -7.957  12.495  67.861  1.00  0.00    -0.144 N  
HETATM    6  H   UNL     1      -7.232  12.778  68.521  1.00  0.00     0.000 HD 
BRANCH   5   7
HETATM    7  C   UNL     1      -9.257  12.848  68.098  1.00  0.00    -0.212 C  
HETATM    8  O   UNL     1      -9.839  13.715  67.465  1.00  0.00    -0.220 OA 
BRANCH   7   9
HETATM    9  N   UNL     1      -9.847  12.109  69.107  1.00  0.00    -0.355 N  
HETATM   10  H   UNL     1      -9.251  11.774  69.864  1.00  0.00     0.000 HD 
BRANCH   9  11
HETATM   11  S   UNL     1     -11.466  11.728  69.167  1.00  0.00    -0.323 S  
HETATM   12  O   UNL     1     -11.971  11.495  67.833  1.00  0.00    -0.618 OA 
HETATM   13  O   UNL     1     -12.062  12.744  70.014  1.00  0.00    -0.328 OA 
BRANCH  11  14
HETATM   14  C   UNL     1     -11.483  10.202  70.076  1.00  0.00    -0.277 A  
HETATM   15  C   UNL     1     -12.167  10.129  71.292  1.00  0.00    -0.496 A  
HETATM   16  C   UNL     1     -12.136   8.946  72.032  1.00  0.00    -0.442 A  
HETATM   17  C   UNL     1     -11.428   7.833  71.560  1.00  0.00    -0.298 A  
HETATM   18  C   UNL     1     -10.793   7.902  70.311  1.00  0.00    -0.241 A  
HETATM   19  C   UNL     1     -11.331   6.578  72.377  1.00  0.00    -0.314 C  
HETATM   20  C   UNL     1     -10.826   9.080  69.564  1.00  0.00    -0.177 A  
ENDBRANCH  11  14
ENDBRANCH   9  11
ENDBRANCH   7   9
ENDBRANCH   5   7
ENDBRANCH   4   5
ENDBRANCH   3   4
ENDBRANCH   2   3
TORSDOF 7
ENDMDL
MODEL      214
REMARK 921   NORMALIZED FREE ENERGY PREDICTED BY IDOCK:   -3.41 KCAL/MOL
REMARK 922        TOTAL FREE ENERGY PREDICTED BY IDOCK:   -5.43 KCAL/MOL
REMARK 923 INTER-LIGAND FREE ENERGY PREDICTED BY IDOCK:   -4.83 KCAL/MOL
REMARK 924 INTRA-LIGAND FREE ENERGY PREDICTED BY IDOCK:   -0.59 KCAL/MOL
REMARK 927      BINDING AFFINITY PREDICTED BY RF-SCORE:    0.00 PKD
ROOT
HETATM    1  C   UNL     1      -9.165  10.558  62.379  1.00  0.00    -0.302 C  
HETATM    2  C   UNL     1      -8.783   9.960  63.724  1.00  0.00    -0.226 C  
ENDROOT
BRANCH   2   3
HETATM    3  C   UNL     1      -9.900  10.131  64.757  1.00  0.00    -0.382 C  
BRANCH   3   4
HETATM    4  C   UNL     1     -10.823  11.304  64.426  1.00  0.00    -0.303 C  
BRANCH   4   5
HETATM    5  N   UNL     1     -11.031  12.192  65.553  1.00  0.00    -0.291 N  
HETATM    6  H   UNL     1     -11.162  11.799  66.485  1.00  0.00     0.000 HD 
BRANCH   5   7
HETATM    7  C   UNL     1     -11.053  13.549  65.387  1.00  0.00    -0.293 C  
HETATM    8  O   UNL     1     -11.059  14.087  64.291  1.00  0.00    -0.325 OA 
BRANCH   7   9
HETATM    9  N   UNL     1     -11.092  14.244  66.582  1.00  0.00    -0.314 N  
HETATM   10  H   UNL     1     -11.875  14.879  66.738  1.00  0.00     0.000 HD 
BRANCH   9  11
HETATM   11  S   UNL     1      -9.945  14.112  67.782  1.00  0.00    -0.239 S  
HETATM   12  O   UNL     1      -9.054  13.012  67.497  1.00  0.00    -0.174 OA 
HETATM   13  O   UNL     1     -10.692  14.155  69.024  1.00  0.00    -0.245 OA 
BRANCH  11  14
HETATM   14  C   UNL     1      -9.052  15.642  67.647  1.00  0.00    -0.192 A  
HETATM   15  C   UNL     1      -9.006  16.309  66.420  1.00  0.00    -0.343 A  
HETATM   16  C   UNL     1      -8.260  17.484  66.301  1.00  0.00    -0.275 A  
HETATM   17  C   UNL     1      -7.564  17.998  67.403  1.00  0.00    -0.213 A  
HETATM   18  C   UNL     1      -7.666  17.349  68.642  1.00  0.00    -0.273 A  
HETATM   19  C   UNL     1      -6.706  19.221  67.270  1.00  0.00    -0.207 C  
HETATM   20  C   UNL     1      -8.415  16.177  68.769  1.00  0.00    -0.236 A  
ENDBRANCH  11  14
ENDBRANCH   9  11
ENDBRANCH   7   9
ENDBRANCH   5   7
ENDBRANCH   4   5
ENDBRANCH   3   4
ENDBRANCH   2   3
TORSDOF 7
ENDMDL
MODEL      215
REMARK 921   NORMALIZED FREE ENERGY PREDICTED BY IDOCK:   -3.41 KCAL/MOL
REMARK 922        TOTAL FREE ENERGY PREDICTED BY IDOCK:   -5.43 KCAL/MOL
REMARK 923 INTER-LIGAND FREE ENERGY PREDICTED BY IDOCK:   -4.96 KCAL/MOL
REMARK 924 INTRA-LIGAND FREE ENERGY PREDICTED BY IDOCK:   -0.47 KCAL/MOL
REMARK 927      BINDING AFFINITY PREDICTED BY RF-SCORE:    0.00 PKD
ROOT
HETATM    1  C   UNL     1     -10.500  18.846  66.755  1.00  0.00    -0.497 C  
HETATM    2  C   UNL     1      -9.929  17.648  66.013  1.00  0.00    -0.220 C  
ENDROOT
BRANCH   2   3
HETATM    3  C   UNL     1      -9.410  16.580  66.979  1.00  0.00    -0.242 C  
BRANCH   3   4
HETATM    4  C   UNL     1     -10.506  16.053  67.906  1.00  0.00    -0.292 C  
BRANCH   4   5
HETATM    5  N   UNL     1     -10.792  14.647  67.699  1.00  0.00    -0.277 N  
HETATM    6  H   UNL     1     -11.642  14.374  67.205  1.00  0.00     0.000 HD 
BRANCH   5   7
HETATM    7  C   UNL     1      -9.940  13.680  68.154  1.00  0.00    -0.246 C  
HETATM    8  O   UNL     1      -8.846  13.465  67.654  1.00  0.00    -0.177 OA 
BRANCH   7   9
HETATM    9  N   UNL     1     -10.431  12.990  69.247  1.00  0.00    -0.420 N  
HETATM   10  H   UNL     1     -10.094  13.259  70.171  1.00  0.00     0.000 HD 
BRANCH   9  11
HETATM   11  S   UNL     1     -11.537  11.749  69.154  1.00  0.00    -0.336 S  
HETATM   12  O   UNL     1     -12.159  11.736  67.850  1.00  0.00    -0.592 OA 
HETATM   13  O   UNL     1     -12.342  11.869  70.354  1.00  0.00    -0.306 OA 
BRANCH  11  14
HETATM   14  C   UNL     1     -10.524  10.301  69.337  1.00  0.00    -0.236 A  
HETATM   15  C   UNL     1     -10.580   9.564  70.522  1.00  0.00    -0.358 A  
HETATM   16  C   UNL     1      -9.746   8.456  70.687  1.00  0.00    -0.203 A  
HETATM   17  C   UNL     1      -8.860   8.078  69.670  1.00  0.00    -0.141 A  
HETATM   18  C   UNL     1      -8.856   8.793  68.463  1.00  0.00    -0.138 A  
HETATM   19  C   UNL     1      -7.912   6.931  69.861  1.00  0.00    -0.120 C  
HETATM   20  C   UNL     1      -9.691   9.898  68.291  1.00  0.00    -0.159 A  
ENDBRANCH  11  14
ENDBRANCH   9  11
ENDBRANCH   7   9
ENDBRANCH   5   7
ENDBRANCH   4   5
ENDBRANCH   3   4
ENDBRANCH   2   3
TORSDOF 7
ENDMDL
MODEL      216
REMARK 921   NORMALIZED FREE ENERGY PREDICTED BY IDOCK:   -3.40 KCAL/MOL
REMARK 922        TOTAL FREE ENERGY PREDICTED BY IDOCK:   -5.42 KCAL/MOL
REMARK 923 INTER-LIGAND FREE ENERGY PREDICTED BY IDOCK:   -4.08 KCAL/MOL
REMARK 924 INTRA-LIGAND FREE ENERGY PREDICTED BY IDOCK:   -1.34 KCAL/MOL
REMARK 927      BINDING AFFINITY PREDICTED BY RF-SCORE:    0.00 PKD
ROOT
HETATM    1  C   UNL     1     -10.385  10.480  66.470  1.00  0.00    -0.294 C  
HETATM    2  C   UNL     1     -10.729   9.224  67.255  1.00  0.00    -0.244 C  
ENDROOT
BRANCH   2   3
HETATM    3  C   UNL     1     -10.144   7.970  66.601  1.00  0.00    -0.329 C  
BRANCH   3   4
HETATM    4  C   UNL     1     -10.882   6.697  67.018  1.00  0.00    -0.397 C  
BRANCH   4   5
HETATM    5  N   UNL     1     -11.452   6.788  68.348  1.00  0.00    -0.524 N  
HETATM    6  H   UNL     1     -12.240   7.414  68.515  1.00  0.00     0.000 HD 
BRANCH   5   7
HETATM    7  C   UNL     1     -10.951   6.048  69.383  1.00  0.00    -0.385 C  
HETATM    8  O   UNL     1     -10.397   4.971  69.226  1.00  0.00    -0.213 OA 
BRANCH   7   9
HETATM    9  N   UNL     1     -11.114   6.654  70.615  1.00  0.00    -0.277 N  
HETATM   10  H   UNL     1     -12.064   6.868  70.919  1.00  0.00     0.000 HD 
BRANCH   9  11
HETATM   11  S   UNL     1      -9.862   7.056  71.636  1.00  0.00    -0.161 S  
HETATM   12  O   UNL     1      -9.138   5.868  72.025  1.00  0.00    -0.144 OA 
HETATM   13  O   UNL     1     -10.454   7.921  72.638  1.00  0.00    -0.267 OA 
BRANCH  11  14
HETATM   14  C   UNL     1      -8.823   8.067  70.609  1.00  0.00    -0.143 A  
HETATM   15  C   UNL     1      -9.012   9.452  70.584  1.00  0.00    -0.285 A  
HETATM   16  C   UNL     1      -8.230  10.240  69.738  1.00  0.00    -0.111 A  
HETATM   17  C   UNL     1      -7.257   9.653  68.919  1.00  0.00    -0.072 A  
HETATM   18  C   UNL     1      -7.039   8.270  68.997  1.00  0.00    -0.065 A  
HETATM   19  C   UNL     1      -6.457  10.482  67.958  1.00  0.00    -0.059 C  
HETATM   20  C   UNL     1      -7.813   7.477  69.845  1.00  0.00    -0.107 A  
ENDBRANCH  11  14
ENDBRANCH   9  11
ENDBRANCH   7   9
ENDBRANCH   5   7
ENDBRANCH   4   5
ENDBRANCH   3   4
ENDBRANCH   2   3
TORSDOF 7
ENDMDL
MODEL      217
REMARK 921   NORMALIZED FREE ENERGY PREDICTED BY IDOCK:   -3.40 KCAL/MOL
REMARK 922        TOTAL FREE ENERGY PREDICTED BY IDOCK:   -5.42 KCAL/MOL
REMARK 923 INTER-LIGAND FREE ENERGY PREDICTED BY IDOCK:   -5.61 KCAL/MOL
REMARK 924 INTRA-LIGAND FREE ENERGY PREDICTED BY IDOCK:    0.19 KCAL/MOL
REMARK 927      BINDING AFFINITY PREDICTED BY RF-SCORE:    0.00 PKD
ROOT
HETATM    1  C   UNL     1     -14.089  13.765  72.362  1.00  0.00    -0.593 C  
HETATM    2  C   UNL     1     -13.148  12.899  71.539  1.00  0.00    -0.390 C  
ENDROOT
BRANCH   2   3
HETATM    3  C   UNL     1     -13.347  11.410  71.833  1.00  0.00    -0.409 C  
BRANCH   3   4
HETATM    4  C   UNL     1     -12.322  10.533  71.112  1.00  0.00    -0.405 C  
BRANCH   4   5
HETATM    5  N   UNL     1     -12.229  10.827  69.695  1.00  0.00    -0.477 N  
HETATM    6  H   UNL     1     -12.934  10.456  69.057  1.00  0.00     0.000 HD 
BRANCH   5   7
HETATM    7  C   UNL     1     -11.210  11.593  69.199  1.00  0.00    -0.263 C  
HETATM    8  O   UNL     1     -11.375  12.723  68.767  1.00  0.00    -0.249 OA 
BRANCH   7   9
HETATM    9  N   UNL     1      -9.979  10.968  69.260  1.00  0.00    -0.406 N  
HETATM   10  H   UNL     1      -9.214  11.464  69.719  1.00  0.00     0.000 HD 
BRANCH   9  11
HETATM   11  S   UNL     1      -9.660   9.459  68.633  1.00  0.00    -0.149 S  
HETATM   12  O   UNL     1     -10.735   8.549  68.958  1.00  0.00    -0.193 OA 
HETATM   13  O   UNL     1      -8.298   9.163  69.032  1.00  0.00    -0.121 OA 
BRANCH  11  14
HETATM   14  C   UNL     1      -9.648   9.751  66.881  1.00  0.00    -0.180 A  
HETATM   15  C   UNL     1      -8.828   8.977  66.056  1.00  0.00    -0.208 A  
HETATM   16  C   UNL     1      -8.779   9.241  64.686  1.00  0.00    -0.223 A  
HETATM   17  C   UNL     1      -9.550  10.274  64.135  1.00  0.00    -0.376 A  
HETATM   18  C   UNL     1     -10.411  11.005  64.965  1.00  0.00    -0.344 A  
HETATM   19  C   UNL     1      -9.455  10.611  62.676  1.00  0.00    -0.332 C  
HETATM   20  C   UNL     1     -10.469  10.741  66.335  1.00  0.00    -0.293 A  
ENDBRANCH  11  14
ENDBRANCH   9  11
ENDBRANCH   7   9
ENDBRANCH   5   7
ENDBRANCH   4   5
ENDBRANCH   3   4
ENDBRANCH   2   3
TORSDOF 7
ENDMDL
MODEL      218
REMARK 921   NORMALIZED FREE ENERGY PREDICTED BY IDOCK:   -3.35 KCAL/MOL
REMARK 922        TOTAL FREE ENERGY PREDICTED BY IDOCK:   -5.35 KCAL/MOL
REMARK 923 INTER-LIGAND FREE ENERGY PREDICTED BY IDOCK:   -4.77 KCAL/MOL
REMARK 924 INTRA-LIGAND FREE ENERGY PREDICTED BY IDOCK:   -0.58 KCAL/MOL
REMARK 927      BINDING AFFINITY PREDICTED BY RF-SCORE:    0.00 PKD
ROOT
HETATM    1  C   UNL     1     -12.278   6.539  71.811  1.00  0.00    -0.374 C  
HETATM    2  C   UNL     1     -11.247   7.319  71.010  1.00  0.00    -0.291 C  
ENDROOT
BRANCH   2   3
HETATM    3  C   UNL     1     -11.112   8.759  71.514  1.00  0.00    -0.377 C  
BRANCH   3   4
HETATM    4  C   UNL     1     -11.229   9.783  70.384  1.00  0.00    -0.300 C  
BRANCH   4   5
HETATM    5  N   UNL     1      -9.962  10.408  70.059  1.00  0.00    -0.421 N  
HETATM    6  H   UNL     1      -9.735  11.320  70.456  1.00  0.00     0.000 HD 
BRANCH   5   7
HETATM    7  C   UNL     1      -9.066   9.795  69.228  1.00  0.00    -0.184 C  
HETATM    8  O   UNL     1      -8.295   8.925  69.603  1.00  0.00    -0.115 OA 
BRANCH   7   9
HETATM    9  N   UNL     1      -9.138  10.243  67.922  1.00  0.00    -0.131 N  
HETATM   10  H   UNL     1      -9.756   9.745  67.281  1.00  0.00     0.000 HD 
BRANCH   9  11
HETATM   11  S   UNL     1      -8.283  11.542  67.327  1.00  0.00    -0.162 S  
HETATM   12  O   UNL     1      -7.283  11.089  66.387  1.00  0.00    -0.141 OA 
HETATM   13  O   UNL     1      -7.903  12.311  68.496  1.00  0.00    -0.131 OA 
BRANCH  11  14
HETATM   14  C   UNL     1      -9.526  12.471  66.460  1.00  0.00    -0.240 A  
HETATM   15  C   UNL     1     -10.098  11.944  65.300  1.00  0.00    -0.290 A  
HETATM   16  C   UNL     1     -11.036  12.697  64.590  1.00  0.00    -0.348 A  
HETATM   17  C   UNL     1     -11.408  13.972  65.037  1.00  0.00    -0.342 A  
HETATM   18  C   UNL     1     -10.867  14.464  66.235  1.00  0.00    -0.313 A  
HETATM   19  C   UNL     1     -12.364  14.817  64.248  1.00  0.00    -0.345 C  
HETATM   20  C   UNL     1      -9.934  13.713  66.951  1.00  0.00    -0.260 A  
ENDBRANCH  11  14
ENDBRANCH   9  11
ENDBRANCH   7   9
ENDBRANCH   5   7
ENDBRANCH   4   5
ENDBRANCH   3   4
ENDBRANCH   2   3
TORSDOF 7
ENDMDL
MODEL      219
REMARK 921   NORMALIZED FREE ENERGY PREDICTED BY IDOCK:   -3.34 KCAL/MOL
REMARK 922        TOTAL FREE ENERGY PREDICTED BY IDOCK:   -5.34 KCAL/MOL
REMARK 923 INTER-LIGAND FREE ENERGY PREDICTED BY IDOCK:   -4.64 KCAL/MOL
REMARK 924 INTRA-LIGAND FREE ENERGY PREDICTED BY IDOCK:   -0.70 KCAL/MOL
REMARK 927      BINDING AFFINITY PREDICTED BY RF-SCORE:    0.00 PKD
ROOT
HETATM    1  C   UNL     1     -10.272   7.648  73.120  1.00  0.00    -0.401 C  
HETATM    2  C   UNL     1     -11.573   7.845  72.357  1.00  0.00    -0.436 C  
ENDROOT
BRANCH   2   3
HETATM    3  C   UNL     1     -11.326   8.420  70.960  1.00  0.00    -0.303 C  
BRANCH   3   4
HETATM    4  C   UNL     1     -11.554   9.931  70.904  1.00  0.00    -0.373 C  
BRANCH   4   5
HETATM    5  N   UNL     1     -12.147  10.366  69.654  1.00  0.00    -0.507 N  
HETATM    6  H   UNL     1     -12.646   9.691  69.074  1.00  0.00     0.000 HD 
BRANCH   5   7
HETATM    7  C   UNL     1     -12.050  11.665  69.241  1.00  0.00    -0.259 C  
HETATM    8  O   UNL     1     -11.949  12.605  70.013  1.00  0.00    -0.339 OA 
BRANCH   7   9
HETATM    9  N   UNL     1     -12.052  11.801  67.865  1.00  0.00    -0.080 N  
HETATM   10  H   UNL     1     -12.896  12.165  67.423  1.00  0.00     0.000 HD 
BRANCH   9  11
HETATM   11  S   UNL     1     -10.767  11.410  66.881  1.00  0.00    -0.277 S  
HETATM   12  O   UNL     1     -11.127  11.599  65.495  1.00  0.00    -0.292 OA 
HETATM   13  O   UNL     1     -10.307  10.119  67.355  1.00  0.00    -0.207 OA 
BRANCH  11  14
HETATM   14  C   UNL     1      -9.538  12.610  67.338  1.00  0.00    -0.194 A  
HETATM   15  C   UNL     1      -9.829  13.973  67.227  1.00  0.00    -0.242 A  
HETATM   16  C   UNL     1      -8.846  14.915  67.536  1.00  0.00    -0.195 A  
HETATM   17  C   UNL     1      -7.575  14.503  67.959  1.00  0.00    -0.138 A  
HETATM   18  C   UNL     1      -7.316  13.134  68.119  1.00  0.00    -0.119 A  
HETATM   19  C   UNL     1      -6.490  15.504  68.228  1.00  0.00    -0.122 C  
HETATM   20  C   UNL     1      -8.297  12.187  67.818  1.00  0.00    -0.159 A  
ENDBRANCH  11  14
ENDBRANCH   9  11
ENDBRANCH   7   9
ENDBRANCH   5   7
ENDBRANCH   4   5
ENDBRANCH   3   4
ENDBRANCH   2   3
TORSDOF 7
ENDMDL
MODEL      220
REMARK 921   NORMALIZED FREE ENERGY PREDICTED BY IDOCK:   -3.33 KCAL/MOL
REMARK 922        TOTAL FREE ENERGY PREDICTED BY IDOCK:   -5.32 KCAL/MOL
REMARK 923 INTER-LIGAND FREE ENERGY PREDICTED BY IDOCK:   -3.89 KCAL/MOL
REMARK 924 INTRA-LIGAND FREE ENERGY PREDICTED BY IDOCK:   -1.42 KCAL/MOL
REMARK 927      BINDING AFFINITY PREDICTED BY RF-SCORE:    0.00 PKD
ROOT
HETATM    1  C   UNL     1      -9.763   4.505  68.540  1.00  0.00    -0.198 C  
HETATM    2  C   UNL     1      -8.771   4.623  69.686  1.00  0.00    -0.111 C  
ENDROOT
BRANCH   2   3
HETATM    3  C   UNL     1      -8.145   6.019  69.751  1.00  0.00    -0.114 C  
BRANCH   3   4
HETATM    4  C   UNL     1      -8.779   6.987  68.752  1.00  0.00    -0.127 C  
BRANCH   4   5
HETATM    5  N   UNL     1      -9.357   8.155  69.388  1.00  0.00    -0.155 N  
HETATM    6  H   UNL     1      -8.797   8.696  70.047  1.00  0.00     0.000 HD 
BRANCH   5   7
HETATM    7  C   UNL     1     -10.640   8.542  69.120  1.00  0.00    -0.173 C  
HETATM    8  O   UNL     1     -10.934   9.281  68.193  1.00  0.00    -0.138 OA 
BRANCH   7   9
HETATM    9  N   UNL     1     -11.568   7.994  69.986  1.00  0.00    -0.462 N  
HETATM   10  H   UNL     1     -12.225   7.310  69.610  1.00  0.00     0.000 HD 
BRANCH   9  11
HETATM   11  S   UNL     1     -11.683   8.376  71.602  1.00  0.00    -0.320 S  
HETATM   12  O   UNL     1     -13.065   8.348  72.022  1.00  0.00    -0.335 OA 
HETATM   13  O   UNL     1     -10.887   9.577  71.764  1.00  0.00    -0.298 OA 
BRANCH  11  14
HETATM   14  C   UNL     1     -10.803   7.047  72.388  1.00  0.00    -0.240 A  
HETATM   15  C   UNL     1     -11.357   5.764  72.401  1.00  0.00    -0.348 A  
HETATM   16  C   UNL     1     -10.690   4.731  73.063  1.00  0.00    -0.302 A  
HETATM   17  C   UNL     1      -9.471   4.973  73.709  1.00  0.00    -0.129 A  
HETATM   18  C   UNL     1      -8.899   6.252  73.639  1.00  0.00    -0.128 A  
HETATM   19  C   UNL     1      -8.779   3.888  74.481  1.00  0.00    -0.095 C  
HETATM   20  C   UNL     1      -9.558   7.287  72.974  1.00  0.00    -0.219 A  
ENDBRANCH  11  14
ENDBRANCH   9  11
ENDBRANCH   7   9
ENDBRANCH   5   7
ENDBRANCH   4   5
ENDBRANCH   3   4
ENDBRANCH   2   3
TORSDOF 7
ENDMDL
MODEL      221
REMARK 921   NORMALIZED FREE ENERGY PREDICTED BY IDOCK:   -3.33 KCAL/MOL
REMARK 922        TOTAL FREE ENERGY PREDICTED BY IDOCK:   -5.31 KCAL/MOL
REMARK 923 INTER-LIGAND FREE ENERGY PREDICTED BY IDOCK:   -4.71 KCAL/MOL
REMARK 924 INTRA-LIGAND FREE ENERGY PREDICTED BY IDOCK:   -0.60 KCAL/MOL
REMARK 927      BINDING AFFINITY PREDICTED BY RF-SCORE:    0.00 PKD
ROOT
HETATM    1  C   UNL     1      -5.618   5.472  68.421  1.00  0.00    -0.011 C  
HETATM    2  C   UNL     1      -6.865   5.752  67.598  1.00  0.00    -0.060 C  
ENDROOT
BRANCH   2   3
HETATM    3  C   UNL     1      -8.142   5.488  68.398  1.00  0.00    -0.099 C  
BRANCH   3   4
HETATM    4  C   UNL     1      -9.262   6.469  68.048  1.00  0.00    -0.111 C  
BRANCH   4   5
HETATM    5  N   UNL     1      -9.422   7.517  69.038  1.00  0.00    -0.146 N  
HETATM    6  H   UNL     1      -8.608   8.051  69.341  1.00  0.00     0.000 HD 
BRANCH   5   7
HETATM    7  C   UNL     1     -10.648   7.800  69.572  1.00  0.00    -0.221 C  
HETATM    8  O   UNL     1     -11.142   7.159  70.487  1.00  0.00    -0.253 OA 
BRANCH   7   9
HETATM    9  N   UNL     1     -11.257   8.897  68.990  1.00  0.00    -0.403 N  
HETATM   10  H   UNL     1     -12.121   8.742  68.470  1.00  0.00     0.000 HD 
BRANCH   9  11
HETATM   11  S   UNL     1     -10.672  10.453  69.082  1.00  0.00    -0.250 S  
HETATM   12  O   UNL     1      -9.256  10.435  69.364  1.00  0.00    -0.201 OA 
HETATM   13  O   UNL     1     -11.591  11.150  69.962  1.00  0.00    -0.296 OA 
BRANCH  11  14
HETATM   14  C   UNL     1     -10.936  11.074  67.439  1.00  0.00    -0.291 A  
HETATM   15  C   UNL     1     -10.354  10.419  66.350  1.00  0.00    -0.278 A  
HETATM   16  C   UNL     1     -10.519  10.937  65.064  1.00  0.00    -0.331 A  
HETATM   17  C   UNL     1     -11.266  12.104  64.860  1.00  0.00    -0.374 A  
HETATM   18  C   UNL     1     -11.891  12.719  65.954  1.00  0.00    -0.490 A  
HETATM   19  C   UNL     1     -11.393  12.708  63.492  1.00  0.00    -0.527 C  
HETATM   20  C   UNL     1     -11.736  12.203  67.241  1.00  0.00    -0.369 A  
ENDBRANCH  11  14
ENDBRANCH   9  11
ENDBRANCH   7   9
ENDBRANCH   5   7
ENDBRANCH   4   5
ENDBRANCH   3   4
ENDBRANCH   2   3
TORSDOF 7
ENDMDL
MODEL      222
REMARK 921   NORMALIZED FREE ENERGY PREDICTED BY IDOCK:   -3.29 KCAL/MOL
REMARK 922        TOTAL FREE ENERGY PREDICTED BY IDOCK:   -5.27 KCAL/MOL
REMARK 923 INTER-LIGAND FREE ENERGY PREDICTED BY IDOCK:   -4.91 KCAL/MOL
REMARK 924 INTRA-LIGAND FREE ENERGY PREDICTED BY IDOCK:   -0.36 KCAL/MOL
REMARK 927      BINDING AFFINITY PREDICTED BY RF-SCORE:    0.00 PKD
ROOT
HETATM    1  C   UNL     1      -9.236   9.355  66.247  1.00  0.00    -0.229 C  
HETATM    2  C   UNL     1     -10.519   9.053  67.005  1.00  0.00    -0.316 C  
ENDROOT
BRANCH   2   3
HETATM    3  C   UNL     1     -10.262   8.862  68.501  1.00  0.00    -0.223 C  
BRANCH   3   4
HETATM    4  C   UNL     1     -11.033   9.867  69.358  1.00  0.00    -0.230 C  
BRANCH   4   5
HETATM    5  N   UNL     1     -11.023  11.206  68.800  1.00  0.00    -0.201 N  
HETATM    6  H   UNL     1     -10.744  11.343  67.829  1.00  0.00     0.000 HD 
BRANCH   5   7
HETATM    7  C   UNL     1     -11.382  12.287  69.556  1.00  0.00    -0.187 C  
HETATM    8  O   UNL     1     -12.105  12.205  70.537  1.00  0.00    -0.364 OA 
BRANCH   7   9
HETATM    9  N   UNL     1     -10.825  13.472  69.112  1.00  0.00    -0.407 N  
HETATM   10  H   UNL     1      -9.808  13.530  69.060  1.00  0.00     0.000 HD 
BRANCH   9  11
HETATM   11  S   UNL     1     -11.705  14.809  68.656  1.00  0.00    -0.313 S  
HETATM   12  O   UNL     1     -12.446  15.324  69.784  1.00  0.00    -0.275 OA 
HETATM   13  O   UNL     1     -12.392  14.413  67.441  1.00  0.00    -0.300 OA 
BRANCH  11  14
HETATM   14  C   UNL     1     -10.446  15.976  68.198  1.00  0.00    -0.269 A  
HETATM   15  C   UNL     1      -9.530  15.646  67.196  1.00  0.00    -0.226 A  
HETATM   16  C   UNL     1      -8.509  16.542  66.873  1.00  0.00    -0.244 A  
HETATM   17  C   UNL     1      -8.401  17.767  67.543  1.00  0.00    -0.227 A  
HETATM   18  C   UNL     1      -9.361  18.109  68.506  1.00  0.00    -0.321 A  
HETATM   19  C   UNL     1      -7.269  18.708  67.252  1.00  0.00    -0.215 C  
HETATM   20  C   UNL     1     -10.388  17.221  68.830  1.00  0.00    -0.358 A  
ENDBRANCH  11  14
ENDBRANCH   9  11
ENDBRANCH   7   9
ENDBRANCH   5   7
ENDBRANCH   4   5
ENDBRANCH   3   4
ENDBRANCH   2   3
TORSDOF 7
ENDMDL
MODEL      223
REMARK 921   NORMALIZED FREE ENERGY PREDICTED BY IDOCK:   -3.29 KCAL/MOL
REMARK 922        TOTAL FREE ENERGY PREDICTED BY IDOCK:   -5.26 KCAL/MOL
REMARK 923 INTER-LIGAND FREE ENERGY PREDICTED BY IDOCK:   -4.65 KCAL/MOL
REMARK 924 INTRA-LIGAND FREE ENERGY PREDICTED BY IDOCK:   -0.60 KCAL/MOL
REMARK 927      BINDING AFFINITY PREDICTED BY RF-SCORE:    0.00 PKD
ROOT
HETATM    1  C   UNL     1     -10.543   4.156  64.592  1.00  0.00    -0.176 C  
HETATM    2  C   UNL     1      -9.087   3.911  64.957  1.00  0.00    -0.142 C  
ENDROOT
BRANCH   2   3
HETATM    3  C   UNL     1      -8.715   4.583  66.281  1.00  0.00    -0.113 C  
BRANCH   3   4
HETATM    4  C   UNL     1      -8.649   6.106  66.162  1.00  0.00    -0.141 C  
BRANCH   4   5
HETATM    5  N   UNL     1      -8.773   6.777  67.442  1.00  0.00    -0.119 N  
HETATM    6  H   UNL     1      -7.943   7.173  67.883  1.00  0.00     0.000 HD 
BRANCH   5   7
HETATM    7  C   UNL     1      -9.984   6.887  68.066  1.00  0.00    -0.154 C  
HETATM    8  O   UNL     1     -10.406   6.056  68.855  1.00  0.00    -0.176 OA 
BRANCH   7   9
HETATM    9  N   UNL     1     -10.667   8.042  67.732  1.00  0.00    -0.464 N  
HETATM   10  H   UNL     1     -11.457   7.961  67.092  1.00  0.00     0.000 HD 
BRANCH   9  11
HETATM   11  S   UNL     1     -10.284   9.558  68.306  1.00  0.00    -0.202 S  
HETATM   12  O   UNL     1      -8.863   9.651  68.552  1.00  0.00    -0.122 OA 
HETATM   13  O   UNL     1     -11.235   9.809  69.372  1.00  0.00    -0.205 OA 
BRANCH  11  14
HETATM   14  C   UNL     1     -10.716  10.618  66.948  1.00  0.00    -0.237 A  
HETATM   15  C   UNL     1     -11.373  11.825  67.196  1.00  0.00    -0.387 A  
HETATM   16  C   UNL     1     -11.759  12.634  66.124  1.00  0.00    -0.461 A  
HETATM   17  C   UNL     1     -11.487  12.243  64.807  1.00  0.00    -0.382 A  
HETATM   18  C   UNL     1     -10.776  11.056  64.576  1.00  0.00    -0.335 A  
HETATM   19  C   UNL     1     -11.956  13.070  63.646  1.00  0.00    -0.608 C  
HETATM   20  C   UNL     1     -10.383  10.247  65.643  1.00  0.00    -0.232 A  
ENDBRANCH  11  14
ENDBRANCH   9  11
ENDBRANCH   7   9
ENDBRANCH   5   7
ENDBRANCH   4   5
ENDBRANCH   3   4
ENDBRANCH   2   3
TORSDOF 7
ENDMDL
MODEL      224
REMARK 921   NORMALIZED FREE ENERGY PREDICTED BY IDOCK:   -3.28 KCAL/MOL
REMARK 922        TOTAL FREE ENERGY PREDICTED BY IDOCK:   -5.25 KCAL/MOL
REMARK 923 INTER-LIGAND FREE ENERGY PREDICTED BY IDOCK:   -4.44 KCAL/MOL
REMARK 924 INTRA-LIGAND FREE ENERGY PREDICTED BY IDOCK:   -0.81 KCAL/MOL
REMARK 927      BINDING AFFINITY PREDICTED BY RF-SCORE:    0.00 PKD
ROOT
HETATM    1  C   UNL     1      -6.409   4.439  65.723  1.00  0.00    -0.036 C  
HETATM    2  C   UNL     1      -6.564   5.945  65.580  1.00  0.00    -0.044 C  
ENDROOT
BRANCH   2   3
HETATM    3  C   UNL     1      -7.629   6.496  66.532  1.00  0.00    -0.090 C  
BRANCH   3   4
HETATM    4  C   UNL     1      -9.045   6.334  65.977  1.00  0.00    -0.109 C  
BRANCH   4   5
HETATM    5  N   UNL     1      -9.890   7.481  66.249  1.00  0.00    -0.447 N  
HETATM    6  H   UNL     1      -9.869   8.281  65.617  1.00  0.00     0.000 HD 
BRANCH   5   7
HETATM    7  C   UNL     1     -10.715   7.506  67.338  1.00  0.00    -0.261 C  
HETATM    8  O   UNL     1     -11.267   6.511  67.781  1.00  0.00    -0.305 OA 
BRANCH   7   9
HETATM    9  N   UNL     1     -10.841   8.764  67.898  1.00  0.00    -0.488 N  
HETATM   10  H   UNL     1     -11.532   8.890  68.638  1.00  0.00     0.000 HD 
BRANCH   9  11
HETATM   11  S   UNL     1      -9.938  10.087  67.444  1.00  0.00    -0.209 S  
HETATM   12  O   UNL     1     -10.167  10.390  66.050  1.00  0.00    -0.243 OA 
HETATM   13  O   UNL     1      -8.599   9.816  67.930  1.00  0.00    -0.124 OA 
BRANCH  11  14
HETATM   14  C   UNL     1     -10.612  11.391  68.446  1.00  0.00    -0.202 A  
HETATM   15  C   UNL     1     -11.625  11.103  69.364  1.00  0.00    -0.388 A  
HETATM   16  C   UNL     1     -12.191  12.136  70.113  1.00  0.00    -0.308 A  
HETATM   17  C   UNL     1     -11.746  13.455  69.954  1.00  0.00    -0.337 A  
HETATM   18  C   UNL     1     -10.689  13.720  69.071  1.00  0.00    -0.209 A  
HETATM   19  C   UNL     1     -12.392  14.583  70.704  1.00  0.00    -0.407 C  
HETATM   20  C   UNL     1     -10.115  12.691  68.323  1.00  0.00    -0.233 A  
ENDBRANCH  11  14
ENDBRANCH   9  11
ENDBRANCH   7   9
ENDBRANCH   5   7
ENDBRANCH   4   5
ENDBRANCH   3   4
ENDBRANCH   2   3
TORSDOF 7
ENDMDL
MODEL      225
REMARK 921   NORMALIZED FREE ENERGY PREDICTED BY IDOCK:   -3.26 KCAL/MOL
REMARK 922        TOTAL FREE ENERGY PREDICTED BY IDOCK:   -5.22 KCAL/MOL
REMARK 923 INTER-LIGAND FREE ENERGY PREDICTED BY IDOCK:   -4.93 KCAL/MOL
REMARK 924 INTRA-LIGAND FREE ENERGY PREDICTED BY IDOCK:   -0.29 KCAL/MOL
REMARK 927      BINDING AFFINITY PREDICTED BY RF-SCORE:    0.00 PKD
ROOT
HETATM    1  C   UNL     1     -13.425  13.103  72.175  1.00  0.00    -0.653 C  
HETATM    2  C   UNL     1     -12.576  14.088  71.388  1.00  0.00    -0.451 C  
ENDROOT
BRANCH   2   3
HETATM    3  C   UNL     1     -12.038  13.466  70.097  1.00  0.00    -0.415 C  
BRANCH   3   4
HETATM    4  C   UNL     1     -12.268  11.955  70.040  1.00  0.00    -0.217 C  
BRANCH   4   5
HETATM    5  N   UNL     1     -11.040  11.206  69.859  1.00  0.00    -0.446 N  
HETATM    6  H   UNL     1     -10.281  11.316  70.533  1.00  0.00     0.000 HD 
BRANCH   5   7
HETATM    7  C   UNL     1     -10.882  10.355  68.802  1.00  0.00    -0.232 C  
HETATM    8  O   UNL     1     -10.971  10.713  67.638  1.00  0.00    -0.270 OA 
BRANCH   7   9
HETATM    9  N   UNL     1     -10.588   9.059  69.184  1.00  0.00    -0.279 N  
HETATM   10  H   UNL     1     -10.781   8.791  70.149  1.00  0.00     0.000 HD 
BRANCH   9  11
HETATM   11  S   UNL     1      -9.940   7.906  68.172  1.00  0.00    -0.186 S  
HETATM   12  O   UNL     1      -8.627   8.316  67.730  1.00  0.00    -0.129 OA 
HETATM   13  O   UNL     1     -10.986   7.617  67.210  1.00  0.00    -0.245 OA 
BRANCH  11  14
HETATM   14  C   UNL     1      -9.787   6.488  69.232  1.00  0.00    -0.148 A  
HETATM   15  C   UNL     1      -9.514   6.667  70.590  1.00  0.00    -0.174 A  
HETATM   16  C   UNL     1      -9.342   5.552  71.412  1.00  0.00    -0.174 A  
HETATM   17  C   UNL     1      -9.446   4.258  70.884  1.00  0.00    -0.239 A  
HETATM   18  C   UNL     1      -9.777   4.094  69.531  1.00  0.00    -0.254 A  
HETATM   19  C   UNL     1      -9.198   3.053  71.743  1.00  0.00    -0.181 C  
HETATM   20  C   UNL     1      -9.956   5.205  68.706  1.00  0.00    -0.237 A  
ENDBRANCH  11  14
ENDBRANCH   9  11
ENDBRANCH   7   9
ENDBRANCH   5   7
ENDBRANCH   4   5
ENDBRANCH   3   4
ENDBRANCH   2   3
TORSDOF 7
ENDMDL
MODEL      226
REMARK 921   NORMALIZED FREE ENERGY PREDICTED BY IDOCK:   -3.25 KCAL/MOL
REMARK 922        TOTAL FREE ENERGY PREDICTED BY IDOCK:   -5.20 KCAL/MOL
REMARK 923 INTER-LIGAND FREE ENERGY PREDICTED BY IDOCK:   -4.49 KCAL/MOL
REMARK 924 INTRA-LIGAND FREE ENERGY PREDICTED BY IDOCK:   -0.72 KCAL/MOL
REMARK 927      BINDING AFFINITY PREDICTED BY RF-SCORE:    0.00 PKD
ROOT
HETATM    1  C   UNL     1      -6.959   6.126  70.693  1.00  0.00    -0.064 C  
HETATM    2  C   UNL     1      -7.710   7.448  70.671  1.00  0.00    -0.091 C  
ENDROOT
BRANCH   2   3
HETATM    3  C   UNL     1      -8.507   7.666  71.960  1.00  0.00    -0.133 C  
BRANCH   3   4
HETATM    4  C   UNL     1      -9.987   7.319  71.794  1.00  0.00    -0.171 C  
BRANCH   4   5
HETATM    5  N   UNL     1     -10.585   7.944  70.630  1.00  0.00    -0.215 N  
HETATM    6  H   UNL     1     -10.476   7.508  69.714  1.00  0.00     0.000 HD 
BRANCH   5   7
HETATM    7  C   UNL     1     -11.292   9.108  70.740  1.00  0.00    -0.280 C  
HETATM    8  O   UNL     1     -11.566   9.624  71.813  1.00  0.00    -0.378 OA 
BRANCH   7   9
HETATM    9  N   UNL     1     -11.644   9.651  69.518  1.00  0.00    -0.444 N  
HETATM   10  H   UNL     1     -12.635   9.697  69.284  1.00  0.00     0.000 HD 
BRANCH   9  11
HETATM   11  S   UNL     1     -10.554  10.234  68.403  1.00  0.00    -0.232 S  
HETATM   12  O   UNL     1     -10.893   9.759  67.082  1.00  0.00    -0.235 OA 
HETATM   13  O   UNL     1      -9.248   9.962  68.972  1.00  0.00    -0.150 OA 
BRANCH  11  14
HETATM   14  C   UNL     1     -10.811  11.991  68.479  1.00  0.00    -0.233 A  
HETATM   15  C   UNL     1     -10.074  12.834  67.642  1.00  0.00    -0.220 A  
HETATM   16  C   UNL     1     -10.238  14.217  67.739  1.00  0.00    -0.242 A  
HETATM   17  C   UNL     1     -11.137  14.762  68.664  1.00  0.00    -0.274 A  
HETATM   18  C   UNL     1     -11.912  13.902  69.457  1.00  0.00    -0.396 A  
HETATM   19  C   UNL     1     -11.273  16.248  68.823  1.00  0.00    -0.343 C  
HETATM   20  C   UNL     1     -11.756  12.519  69.361  1.00  0.00    -0.383 A  
ENDBRANCH  11  14
ENDBRANCH   9  11
ENDBRANCH   7   9
ENDBRANCH   5   7
ENDBRANCH   4   5
ENDBRANCH   3   4
ENDBRANCH   2   3
TORSDOF 7
ENDMDL
MODEL      227
REMARK 921   NORMALIZED FREE ENERGY PREDICTED BY IDOCK:   -3.24 KCAL/MOL
REMARK 922        TOTAL FREE ENERGY PREDICTED BY IDOCK:   -5.19 KCAL/MOL
REMARK 923 INTER-LIGAND FREE ENERGY PREDICTED BY IDOCK:   -4.65 KCAL/MOL
REMARK 924 INTRA-LIGAND FREE ENERGY PREDICTED BY IDOCK:   -0.54 KCAL/MOL
REMARK 927      BINDING AFFINITY PREDICTED BY RF-SCORE:    0.00 PKD
ROOT
HETATM    1  C   UNL     1      -6.835   7.019  70.799  1.00  0.00    -0.054 C  
HETATM    2  C   UNL     1      -7.909   5.952  70.656  1.00  0.00    -0.105 C  
ENDROOT
BRANCH   2   3
HETATM    3  C   UNL     1      -9.184   6.513  70.022  1.00  0.00    -0.157 C  
BRANCH   3   4
HETATM    4  C   UNL     1      -8.918   7.176  68.670  1.00  0.00    -0.131 C  
BRANCH   4   5
HETATM    5  N   UNL     1      -9.507   8.497  68.565  1.00  0.00    -0.142 N  
HETATM    6  H   UNL     1      -9.415   9.151  69.343  1.00  0.00     0.000 HD 
BRANCH   5   7
HETATM    7  C   UNL     1     -10.185   8.880  67.442  1.00  0.00    -0.249 C  
HETATM    8  O   UNL     1      -9.804   8.619  66.311  1.00  0.00    -0.267 OA 
BRANCH   7   9
HETATM    9  N   UNL     1     -11.352   9.568  67.716  1.00  0.00    -0.368 N  
HETATM   10  H   UNL     1     -12.220   9.217  67.311  1.00  0.00     0.000 HD 
BRANCH   9  11
HETATM   11  S   UNL     1     -11.435  10.933  68.666  1.00  0.00    -0.306 S  
HETATM   12  O   UNL     1     -10.222  11.075  69.438  1.00  0.00    -0.178 OA 
HETATM   13  O   UNL     1     -12.725  10.857  69.325  1.00  0.00    -0.282 OA 
BRANCH  11  14
HETATM   14  C   UNL     1     -11.527  12.244  67.470  1.00  0.00    -0.347 A  
HETATM   15  C   UNL     1     -11.586  11.934  66.109  1.00  0.00    -0.299 A  
HETATM   16  C   UNL     1     -11.605  12.965  65.167  1.00  0.00    -0.367 A  
HETATM   17  C   UNL     1     -11.569  14.304  65.579  1.00  0.00    -0.338 A  
HETATM   18  C   UNL     1     -11.567  14.600  66.950  1.00  0.00    -0.374 A  
HETATM   19  C   UNL     1     -11.522  15.418  64.575  1.00  0.00    -0.314 C  
HETATM   20  C   UNL     1     -11.554  13.574  67.896  1.00  0.00    -0.377 A  
ENDBRANCH  11  14
ENDBRANCH   9  11
ENDBRANCH   7   9
ENDBRANCH   5   7
ENDBRANCH   4   5
ENDBRANCH   3   4
ENDBRANCH   2   3
TORSDOF 7
ENDMDL
MODEL      228
REMARK 921   NORMALIZED FREE ENERGY PREDICTED BY IDOCK:   -3.24 KCAL/MOL
REMARK 922        TOTAL FREE ENERGY PREDICTED BY IDOCK:   -5.19 KCAL/MOL
REMARK 923 INTER-LIGAND FREE ENERGY PREDICTED BY IDOCK:   -4.68 KCAL/MOL
REMARK 924 INTRA-LIGAND FREE ENERGY PREDICTED BY IDOCK:   -0.50 KCAL/MOL
REMARK 927      BINDING AFFINITY PREDICTED BY RF-SCORE:    0.00 PKD
ROOT
HETATM    1  C   UNL     1      -6.629   4.763  68.122  1.00  0.00    -0.042 C  
HETATM    2  C   UNL     1      -6.149   6.086  67.546  1.00  0.00    -0.018 C  
ENDROOT
BRANCH   2   3
HETATM    3  C   UNL     1      -6.925   7.270  68.128  1.00  0.00    -0.076 C  
BRANCH   3   4
HETATM    4  C   UNL     1      -8.400   6.940  68.364  1.00  0.00    -0.120 C  
BRANCH   4   5
HETATM    5  N   UNL     1      -9.182   8.100  68.744  1.00  0.00    -0.144 N  
HETATM    6  H   UNL     1      -8.724   8.883  69.212  1.00  0.00     0.000 HD 
BRANCH   5   7
HETATM    7  C   UNL     1     -10.523   8.162  68.487  1.00  0.00    -0.162 C  
HETATM    8  O   UNL     1     -11.123   7.301  67.862  1.00  0.00    -0.078 OA 
BRANCH   7   9
HETATM    9  N   UNL     1     -11.131   9.280  69.026  1.00  0.00    -0.445 N  
HETATM   10  H   UNL     1     -11.322  10.066  68.404  1.00  0.00     0.000 HD 
BRANCH   9  11
HETATM   11  S   UNL     1     -11.572   9.430  70.625  1.00  0.00    -0.249 S  
HETATM   12  O   UNL     1     -10.429   9.203  71.478  1.00  0.00    -0.316 OA 
HETATM   13  O   UNL     1     -12.768   8.622  70.764  1.00  0.00     0.003 OA 
BRANCH  11  14
HETATM   14  C   UNL     1     -12.065  11.133  70.743  1.00  0.00    -0.357 A  
HETATM   15  C   UNL     1     -11.637  12.045  69.775  1.00  0.00    -0.348 A  
HETATM   16  C   UNL     1     -11.981  13.393  69.897  1.00  0.00    -0.408 A  
HETATM   17  C   UNL     1     -12.755  13.833  70.979  1.00  0.00    -0.416 A  
HETATM   18  C   UNL     1     -13.226  12.897  71.911  1.00  0.00    -0.521 A  
HETATM   19  C   UNL     1     -13.074  15.288  71.156  1.00  0.00    -0.546 C  
HETATM   20  C   UNL     1     -12.890  11.547  71.792  1.00  0.00    -0.441 A  
ENDBRANCH  11  14
ENDBRANCH   9  11
ENDBRANCH   7   9
ENDBRANCH   5   7
ENDBRANCH   4   5
ENDBRANCH   3   4
ENDBRANCH   2   3
TORSDOF 7
ENDMDL
MODEL      229
REMARK 921   NORMALIZED FREE ENERGY PREDICTED BY IDOCK:   -3.23 KCAL/MOL
REMARK 922        TOTAL FREE ENERGY PREDICTED BY IDOCK:   -5.18 KCAL/MOL
REMARK 923 INTER-LIGAND FREE ENERGY PREDICTED BY IDOCK:   -5.56 KCAL/MOL
REMARK 924 INTRA-LIGAND FREE ENERGY PREDICTED BY IDOCK:    0.38 KCAL/MOL
REMARK 927      BINDING AFFINITY PREDICTED BY RF-SCORE:    0.00 PKD
ROOT
HETATM    1  C   UNL     1      -9.246   9.630  65.022  1.00  0.00    -0.310 C  
HETATM    2  C   UNL     1      -9.848   9.031  66.284  1.00  0.00    -0.361 C  
ENDROOT
BRANCH   2   3
HETATM    3  C   UNL     1      -9.401   9.787  67.538  1.00  0.00    -0.152 C  
BRANCH   3   4
HETATM    4  C   UNL     1      -9.295  11.294  67.301  1.00  0.00    -0.166 C  
BRANCH   4   5
HETATM    5  N   UNL     1     -10.308  11.793  66.392  1.00  0.00    -0.216 N  
HETATM    6  H   UNL     1     -10.067  11.962  65.415  1.00  0.00     0.000 HD 
BRANCH   5   7
HETATM    7  C   UNL     1     -11.582  12.042  66.822  1.00  0.00    -0.321 C  
HETATM    8  O   UNL     1     -11.988  11.718  67.927  1.00  0.00    -0.575 OA 
BRANCH   7   9
HETATM    9  N   UNL     1     -12.351  12.714  65.890  1.00  0.00    -0.311 N  
HETATM   10  H   UNL     1     -13.349  12.507  65.857  1.00  0.00     0.000 HD 
BRANCH   9  11
HETATM   11  S   UNL     1     -11.755  13.841  64.819  1.00  0.00    -0.402 S  
HETATM   12  O   UNL     1     -12.843  14.550  64.188  1.00  0.00    -0.643 OA 
HETATM   13  O   UNL     1     -10.780  13.123  64.020  1.00  0.00    -0.399 OA 
BRANCH  11  14
HETATM   14  C   UNL     1     -10.860  14.956  65.873  1.00  0.00    -0.334 A  
HETATM   15  C   UNL     1      -9.533  15.276  65.574  1.00  0.00    -0.141 A  
HETATM   16  C   UNL     1      -8.814  16.111  66.431  1.00  0.00    -0.355 A  
HETATM   17  C   UNL     1      -9.415  16.632  67.584  1.00  0.00    -0.226 A  
HETATM   18  C   UNL     1     -10.764  16.348  67.842  1.00  0.00    -0.332 A  
HETATM   19  C   UNL     1      -8.632  17.475  68.547  1.00  0.00    -0.276 C  
HETATM   20  C   UNL     1     -11.490  15.519  66.986  1.00  0.00    -0.036 A  
ENDBRANCH  11  14
ENDBRANCH   9  11
ENDBRANCH   7   9
ENDBRANCH   5   7
ENDBRANCH   4   5
ENDBRANCH   3   4
ENDBRANCH   2   3
TORSDOF 7
ENDMDL
MODEL      230
REMARK 921   NORMALIZED FREE ENERGY PREDICTED BY IDOCK:   -3.22 KCAL/MOL
REMARK 922        TOTAL FREE ENERGY PREDICTED BY IDOCK:   -5.16 KCAL/MOL
REMARK 923 INTER-LIGAND FREE ENERGY PREDICTED BY IDOCK:   -4.84 KCAL/MOL
REMARK 924 INTRA-LIGAND FREE ENERGY PREDICTED BY IDOCK:   -0.32 KCAL/MOL
REMARK 927      BINDING AFFINITY PREDICTED BY RF-SCORE:    0.00 PKD
ROOT
HETATM    1  C   UNL     1     -13.968   9.019  72.304  1.00  0.00    -0.522 C  
HETATM    2  C   UNL     1     -12.505   8.607  72.260  1.00  0.00    -0.460 C  
ENDROOT
BRANCH   2   3
HETATM    3  C   UNL     1     -11.762   9.277  71.101  1.00  0.00    -0.394 C  
BRANCH   3   4
HETATM    4  C   UNL     1     -12.645  10.269  70.342  1.00  0.00    -0.204 C  
BRANCH   4   5
HETATM    5  N   UNL     1     -11.945  10.928  69.257  1.00  0.00    -0.430 N  
HETATM    6  H   UNL     1     -11.846  10.452  68.360  1.00  0.00     0.000 HD 
BRANCH   5   7
HETATM    7  C   UNL     1     -11.414  12.178  69.415  1.00  0.00    -0.290 C  
HETATM    8  O   UNL     1     -12.053  13.123  69.851  1.00  0.00    -0.314 OA 
BRANCH   7   9
HETATM    9  N   UNL     1     -10.081  12.255  69.057  1.00  0.00    -0.422 N  
HETATM   10  H   UNL     1      -9.412  11.694  69.586  1.00  0.00     0.000 HD 
BRANCH   9  11
HETATM   11  S   UNL     1      -9.496  13.201  67.819  1.00  0.00    -0.216 S  
HETATM   12  O   UNL     1      -8.462  14.081  68.313  1.00  0.00    -0.158 OA 
HETATM   13  O   UNL     1     -10.673  13.740  67.166  1.00  0.00    -0.278 OA 
BRANCH  11  14
HETATM   14  C   UNL     1      -8.774  12.010  66.716  1.00  0.00    -0.192 A  
HETATM   15  C   UNL     1      -7.444  11.622  66.892  1.00  0.00    -0.131 A  
HETATM   16  C   UNL     1      -6.862  10.726  65.993  1.00  0.00    -0.107 A  
HETATM   17  C   UNL     1      -7.604  10.212  64.922  1.00  0.00    -0.138 A  
HETATM   18  C   UNL     1      -8.954  10.566  64.791  1.00  0.00    -0.227 A  
HETATM   19  C   UNL     1      -6.970   9.301  63.912  1.00  0.00    -0.092 C  
HETATM   20  C   UNL     1      -9.544  11.457  65.689  1.00  0.00    -0.258 A  
ENDBRANCH  11  14
ENDBRANCH   9  11
ENDBRANCH   7   9
ENDBRANCH   5   7
ENDBRANCH   4   5
ENDBRANCH   3   4
ENDBRANCH   2   3
TORSDOF 7
ENDMDL
MODEL      231
REMARK 921   NORMALIZED FREE ENERGY PREDICTED BY IDOCK:   -3.20 KCAL/MOL
REMARK 922        TOTAL FREE ENERGY PREDICTED BY IDOCK:   -5.14 KCAL/MOL
REMARK 923 INTER-LIGAND FREE ENERGY PREDICTED BY IDOCK:   -4.39 KCAL/MOL
REMARK 924 INTRA-LIGAND FREE ENERGY PREDICTED BY IDOCK:   -0.75 KCAL/MOL
REMARK 927      BINDING AFFINITY PREDICTED BY RF-SCORE:    0.00 PKD
ROOT
HETATM    1  C   UNL     1     -12.613  13.889  65.499  1.00  0.00    -0.560 C  
HETATM    2  C   UNL     1     -11.822  12.792  66.195  1.00  0.00    -0.484 C  
ENDROOT
BRANCH   2   3
HETATM    3  C   UNL     1     -10.336  13.143  66.294  1.00  0.00    -0.291 C  
BRANCH   3   4
HETATM    4  C   UNL     1      -9.798  12.998  67.719  1.00  0.00    -0.224 C  
BRANCH   4   5
HETATM    5  N   UNL     1      -9.888  11.640  68.219  1.00  0.00    -0.194 N  
HETATM    6  H   UNL     1     -10.749  11.111  68.083  1.00  0.00     0.000 HD 
BRANCH   5   7
HETATM    7  C   UNL     1      -8.836  11.057  68.869  1.00  0.00    -0.113 C  
HETATM    8  O   UNL     1      -7.726  11.563  68.930  1.00  0.00    -0.132 OA 
BRANCH   7   9
HETATM    9  N   UNL     1      -9.163   9.854  69.466  1.00  0.00    -0.210 N  
HETATM   10  H   UNL     1      -8.460   9.407  70.055  1.00  0.00     0.000 HD 
BRANCH   9  11
HETATM   11  S   UNL     1     -10.630   9.087  69.289  1.00  0.00    -0.181 S  
HETATM   12  O   UNL     1     -10.846   8.742  67.902  1.00  0.00    -0.151 OA 
HETATM   13  O   UNL     1     -11.581   9.921  69.998  1.00  0.00    -0.238 OA 
BRANCH  11  14
HETATM   14  C   UNL     1     -10.418   7.600  70.238  1.00  0.00    -0.224 A  
HETATM   15  C   UNL     1     -11.496   7.082  70.961  1.00  0.00    -0.343 A  
HETATM   16  C   UNL     1     -11.315   5.943  71.749  1.00  0.00    -0.289 A  
HETATM   17  C   UNL     1     -10.063   5.316  71.813  1.00  0.00    -0.257 A  
HETATM   18  C   UNL     1      -9.006   5.814  71.037  1.00  0.00    -0.150 A  
HETATM   19  C   UNL     1      -9.840   4.132  72.707  1.00  0.00    -0.197 C  
HETATM   20  C   UNL     1      -9.182   6.948  70.244  1.00  0.00    -0.156 A  
ENDBRANCH  11  14
ENDBRANCH   9  11
ENDBRANCH   7   9
ENDBRANCH   5   7
ENDBRANCH   4   5
ENDBRANCH   3   4
ENDBRANCH   2   3
TORSDOF 7
ENDMDL
MODEL      232
REMARK 921   NORMALIZED FREE ENERGY PREDICTED BY IDOCK:   -3.19 KCAL/MOL
REMARK 922        TOTAL FREE ENERGY PREDICTED BY IDOCK:   -5.13 KCAL/MOL
REMARK 923 INTER-LIGAND FREE ENERGY PREDICTED BY IDOCK:   -4.52 KCAL/MOL
REMARK 924 INTRA-LIGAND FREE ENERGY PREDICTED BY IDOCK:   -0.61 KCAL/MOL
REMARK 927      BINDING AFFINITY PREDICTED BY RF-SCORE:    0.00 PKD
ROOT
HETATM    1  C   UNL     1     -12.884  14.459  65.358  1.00  0.00    -0.235 C  
HETATM    2  C   UNL     1     -12.186  14.454  64.007  1.00  0.00    -0.300 C  
ENDROOT
BRANCH   2   3
HETATM    3  C   UNL     1     -11.035  13.445  63.969  1.00  0.00    -0.245 C  
BRANCH   3   4
HETATM    4  C   UNL     1     -10.260  13.396  65.286  1.00  0.00    -0.298 C  
BRANCH   4   5
HETATM    5  N   UNL     1      -9.335  14.503  65.436  1.00  0.00    -0.365 N  
HETATM    6  H   UNL     1      -9.170  15.130  64.648  1.00  0.00     0.000 HD 
BRANCH   5   7
HETATM    7  C   UNL     1      -8.681  14.721  66.616  1.00  0.00    -0.194 C  
HETATM    8  O   UNL     1      -7.811  13.978  67.044  1.00  0.00    -0.090 OA 
BRANCH   7   9
HETATM    9  N   UNL     1      -9.087  15.875  67.261  1.00  0.00    -0.202 N  
HETATM   10  H   UNL     1      -9.642  15.776  68.110  1.00  0.00     0.000 HD 
BRANCH   9  11
HETATM   11  S   UNL     1      -8.728  17.415  66.740  1.00  0.00    -0.267 S  
HETATM   12  O   UNL     1      -9.941  18.189  66.607  1.00  0.00    -0.323 OA 
HETATM   13  O   UNL     1      -7.841  17.234  65.607  1.00  0.00    -0.417 OA 
BRANCH  11  14
HETATM   14  C   UNL     1      -7.757  18.069  68.076  1.00  0.00    -0.250 A  
HETATM   15  C   UNL     1      -8.122  19.281  68.667  1.00  0.00    -0.405 A  
HETATM   16  C   UNL     1      -7.329  19.821  69.681  1.00  0.00    -0.045 A  
HETATM   17  C   UNL     1      -6.175  19.154  70.111  1.00  0.00    -0.165 A  
HETATM   18  C   UNL     1      -5.851  17.911  69.548  1.00  0.00    -0.238 A  
HETATM   19  C   UNL     1      -5.279  19.757  71.153  1.00  0.00    -0.295 C  
HETATM   20  C   UNL     1      -6.643  17.363  68.538  1.00  0.00    -0.184 A  
ENDBRANCH  11  14
ENDBRANCH   9  11
ENDBRANCH   7   9
ENDBRANCH   5   7
ENDBRANCH   4   5
ENDBRANCH   3   4
ENDBRANCH   2   3
TORSDOF 7
ENDMDL
MODEL      233
REMARK 921   NORMALIZED FREE ENERGY PREDICTED BY IDOCK:   -3.19 KCAL/MOL
REMARK 922        TOTAL FREE ENERGY PREDICTED BY IDOCK:   -5.12 KCAL/MOL
REMARK 923 INTER-LIGAND FREE ENERGY PREDICTED BY IDOCK:   -4.91 KCAL/MOL
REMARK 924 INTRA-LIGAND FREE ENERGY PREDICTED BY IDOCK:   -0.21 KCAL/MOL
REMARK 927      BINDING AFFINITY PREDICTED BY RF-SCORE:    0.00 PKD
ROOT
HETATM    1  C   UNL     1      -6.067   6.791  68.002  1.00  0.00    -0.032 C  
HETATM    2  C   UNL     1      -7.139   7.648  68.657  1.00  0.00    -0.080 C  
ENDROOT
BRANCH   2   3
HETATM    3  C   UNL     1      -6.640   9.070  68.925  1.00  0.00    -0.052 C  
BRANCH   3   4
HETATM    4  C   UNL     1      -7.692   9.933  69.624  1.00  0.00    -0.149 C  
BRANCH   4   5
HETATM    5  N   UNL     1      -8.994   9.298  69.680  1.00  0.00    -0.149 N  
HETATM    6  H   UNL     1      -9.125   8.382  69.249  1.00  0.00     0.000 HD 
BRANCH   5   7
HETATM    7  C   UNL     1     -10.049   9.906  70.300  1.00  0.00    -0.237 C  
HETATM    8  O   UNL     1     -10.651   9.405  71.238  1.00  0.00    -0.313 OA 
BRANCH   7   9
HETATM    9  N   UNL     1     -10.349  11.149  69.775  1.00  0.00    -0.406 N  
HETATM   10  H   UNL     1      -9.575  11.722  69.436  1.00  0.00     0.000 HD 
BRANCH   9  11
HETATM   11  S   UNL     1     -11.888  11.774  69.660  1.00  0.00    -0.335 S  
HETATM   12  O   UNL     1     -12.093  12.778  70.678  1.00  0.00    -0.353 OA 
HETATM   13  O   UNL     1     -12.759  10.617  69.577  1.00  0.00    -0.229 OA 
BRANCH  11  14
HETATM   14  C   UNL     1     -11.882  12.550  68.062  1.00  0.00    -0.325 A  
HETATM   15  C   UNL     1     -11.962  13.942  67.970  1.00  0.00    -0.390 A  
HETATM   16  C   UNL     1     -12.010  14.549  66.713  1.00  0.00    -0.364 A  
HETATM   17  C   UNL     1     -11.976  13.772  65.548  1.00  0.00    -0.404 A  
HETATM   18  C   UNL     1     -11.839  12.380  65.656  1.00  0.00    -0.468 A  
HETATM   19  C   UNL     1     -12.095  14.408  64.194  1.00  0.00    -0.405 C  
HETATM   20  C   UNL     1     -11.784  11.768  66.909  1.00  0.00    -0.221 A  
ENDBRANCH  11  14
ENDBRANCH   9  11
ENDBRANCH   7   9
ENDBRANCH   5   7
ENDBRANCH   4   5
ENDBRANCH   3   4
ENDBRANCH   2   3
TORSDOF 7
ENDMDL
MODEL      234
REMARK 921   NORMALIZED FREE ENERGY PREDICTED BY IDOCK:   -3.19 KCAL/MOL
REMARK 922        TOTAL FREE ENERGY PREDICTED BY IDOCK:   -5.12 KCAL/MOL
REMARK 923 INTER-LIGAND FREE ENERGY PREDICTED BY IDOCK:   -4.66 KCAL/MOL
REMARK 924 INTRA-LIGAND FREE ENERGY PREDICTED BY IDOCK:   -0.46 KCAL/MOL
REMARK 927      BINDING AFFINITY PREDICTED BY RF-SCORE:    0.00 PKD
ROOT
HETATM    1  C   UNL     1      -7.411  15.512  69.414  1.00  0.00    -0.215 C  
HETATM    2  C   UNL     1      -6.739  15.259  68.073  1.00  0.00    -0.156 C  
ENDROOT
BRANCH   2   3
HETATM    3  C   UNL     1      -5.975  13.932  68.065  1.00  0.00    -0.140 C  
BRANCH   3   4
HETATM    4  C   UNL     1      -6.883  12.737  68.359  1.00  0.00    -0.091 C  
BRANCH   4   5
HETATM    5  N   UNL     1      -7.946  12.584  67.385  1.00  0.00    -0.171 N  
HETATM    6  H   UNL     1      -8.221  13.382  66.812  1.00  0.00     0.000 HD 
BRANCH   5   7
HETATM    7  C   UNL     1      -8.585  11.386  67.220  1.00  0.00    -0.146 C  
HETATM    8  O   UNL     1      -8.113  10.322  67.589  1.00  0.00    -0.106 OA 
BRANCH   7   9
HETATM    9  N   UNL     1      -9.824  11.507  66.619  1.00  0.00    -0.199 N  
HETATM   10  H   UNL     1      -9.986  10.993  65.754  1.00  0.00     0.000 HD 
BRANCH   9  11
HETATM   11  S   UNL     1     -11.069  12.439  67.216  1.00  0.00    -0.299 S  
HETATM   12  O   UNL     1     -12.198  12.391  66.316  1.00  0.00    -0.620 OA 
HETATM   13  O   UNL     1     -10.458  13.706  67.567  1.00  0.00    -0.239 OA 
BRANCH  11  14
HETATM   14  C   UNL     1     -11.490  11.614  68.732  1.00  0.00    -0.285 A  
HETATM   15  C   UNL     1     -11.276  10.239  68.853  1.00  0.00    -0.259 A  
HETATM   16  C   UNL     1     -11.656   9.582  70.026  1.00  0.00    -0.091 A  
HETATM   17  C   UNL     1     -12.244  10.294  71.079  1.00  0.00    -0.487 A  
HETATM   18  C   UNL     1     -12.400  11.683  70.966  1.00  0.00    -0.405 A  
HETATM   19  C   UNL     1     -12.717   9.589  72.316  1.00  0.00    -0.388 C  
HETATM   20  C   UNL     1     -12.017  12.346  69.799  1.00  0.00    -0.359 A  
ENDBRANCH  11  14
ENDBRANCH   9  11
ENDBRANCH   7   9
ENDBRANCH   5   7
ENDBRANCH   4   5
ENDBRANCH   3   4
ENDBRANCH   2   3
TORSDOF 7
ENDMDL
MODEL      235
REMARK 921   NORMALIZED FREE ENERGY PREDICTED BY IDOCK:   -3.15 KCAL/MOL
REMARK 922        TOTAL FREE ENERGY PREDICTED BY IDOCK:   -5.07 KCAL/MOL
REMARK 923 INTER-LIGAND FREE ENERGY PREDICTED BY IDOCK:   -4.58 KCAL/MOL
REMARK 924 INTRA-LIGAND FREE ENERGY PREDICTED BY IDOCK:   -0.49 KCAL/MOL
REMARK 927      BINDING AFFINITY PREDICTED BY RF-SCORE:    0.00 PKD
ROOT
HETATM    1  C   UNL     1     -10.758  10.398  70.037  1.00  0.00    -0.321 C  
HETATM    2  C   UNL     1     -11.436  10.300  68.680  1.00  0.00    -0.178 C  
ENDROOT
BRANCH   2   3
HETATM    3  C   UNL     1     -10.427  10.404  67.534  1.00  0.00    -0.292 C  
BRANCH   3   4
HETATM    4  C   UNL     1     -10.993  11.150  66.325  1.00  0.00    -0.163 C  
BRANCH   4   5
HETATM    5  N   UNL     1     -11.676  12.376  66.691  1.00  0.00    -0.385 N  
HETATM    6  H   UNL     1     -12.369  12.361  67.439  1.00  0.00     0.000 HD 
BRANCH   5   7
HETATM    7  C   UNL     1     -11.406  13.553  66.049  1.00  0.00    -0.312 C  
HETATM    8  O   UNL     1     -12.127  14.021  65.182  1.00  0.00    -0.371 OA 
BRANCH   7   9
HETATM    9  N   UNL     1     -10.250  14.166  66.497  1.00  0.00    -0.272 N  
HETATM   10  H   UNL     1      -9.420  13.586  66.620  1.00  0.00     0.000 HD 
BRANCH   9  11
HETATM   11  S   UNL     1     -10.125  15.788  66.850  1.00  0.00    -0.273 S  
HETATM   12  O   UNL     1     -11.266  16.217  67.626  1.00  0.00    -0.266 OA 
HETATM   13  O   UNL     1      -9.810  16.426  65.586  1.00  0.00    -0.484 OA 
BRANCH  11  14
HETATM   14  C   UNL     1      -8.666  15.863  67.861  1.00  0.00    -0.168 A  
HETATM   15  C   UNL     1      -8.259  14.731  68.572  1.00  0.00    -0.153 A  
HETATM   16  C   UNL     1      -7.142  14.806  69.407  1.00  0.00    -0.170 A  
HETATM   17  C   UNL     1      -6.427  16.004  69.532  1.00  0.00    -0.187 A  
HETATM   18  C   UNL     1      -6.814  17.115  68.768  1.00  0.00    -0.209 A  
HETATM   19  C   UNL     1      -5.267  16.115  70.476  1.00  0.00    -0.183 C  
HETATM   20  C   UNL     1      -7.925  17.046  67.927  1.00  0.00    -0.192 A  
ENDBRANCH  11  14
ENDBRANCH   9  11
ENDBRANCH   7   9
ENDBRANCH   5   7
ENDBRANCH   4   5
ENDBRANCH   3   4
ENDBRANCH   2   3
TORSDOF 7
ENDMDL
MODEL      236
REMARK 921   NORMALIZED FREE ENERGY PREDICTED BY IDOCK:   -3.14 KCAL/MOL
REMARK 922        TOTAL FREE ENERGY PREDICTED BY IDOCK:   -5.05 KCAL/MOL
REMARK 923 INTER-LIGAND FREE ENERGY PREDICTED BY IDOCK:   -4.52 KCAL/MOL
REMARK 924 INTRA-LIGAND FREE ENERGY PREDICTED BY IDOCK:   -0.52 KCAL/MOL
REMARK 927      BINDING AFFINITY PREDICTED BY RF-SCORE:    0.00 PKD
ROOT
HETATM    1  C   UNL     1     -10.562  19.312  66.456  1.00  0.00    -0.538 C  
HETATM    2  C   UNL     1      -9.419  18.310  66.415  1.00  0.00    -0.290 C  
ENDROOT
BRANCH   2   3
HETATM    3  C   UNL     1      -9.542  17.266  67.527  1.00  0.00    -0.259 C  
BRANCH   3   4
HETATM    4  C   UNL     1     -10.821  16.436  67.407  1.00  0.00    -0.219 C  
BRANCH   4   5
HETATM    5  N   UNL     1     -10.672  15.297  66.522  1.00  0.00    -0.308 N  
HETATM    6  H   UNL     1     -10.642  15.446  65.513  1.00  0.00     0.000 HD 
BRANCH   5   7
HETATM    7  C   UNL     1     -10.571  14.027  67.017  1.00  0.00    -0.279 C  
HETATM    8  O   UNL     1     -10.108  13.775  68.119  1.00  0.00    -0.231 OA 
BRANCH   7   9
HETATM    9  N   UNL     1     -11.067  13.065  66.156  1.00  0.00    -0.283 N  
HETATM   10  H   UNL     1     -11.674  12.344  66.546  1.00  0.00     0.000 HD 
BRANCH   9  11
HETATM   11  S   UNL     1     -10.737  13.006  64.526  1.00  0.00    -0.405 S  
HETATM   12  O   UNL     1      -9.915  14.131  64.145  1.00  0.00     0.270 OA 
HETATM   13  O   UNL     1     -12.020  12.781  63.889  1.00  0.00    -0.403 OA 
BRANCH  11  14
HETATM   14  C   UNL     1      -9.795  11.508  64.365  1.00  0.00    -0.241 A  
HETATM   15  C   UNL     1      -9.163  11.216  63.154  1.00  0.00    -0.298 A  
HETATM   16  C   UNL     1      -8.467  10.014  63.011  1.00  0.00    -0.178 A  
HETATM   17  C   UNL     1      -8.394   9.105  64.075  1.00  0.00    -0.183 A  
HETATM   18  C   UNL     1      -8.984   9.438  65.303  1.00  0.00    -0.250 A  
HETATM   19  C   UNL     1      -7.706   7.782  63.912  1.00  0.00    -0.123 C  
HETATM   20  C   UNL     1      -9.677  10.640  65.453  1.00  0.00    -0.306 A  
ENDBRANCH  11  14
ENDBRANCH   9  11
ENDBRANCH   7   9
ENDBRANCH   5   7
ENDBRANCH   4   5
ENDBRANCH   3   4
ENDBRANCH   2   3
TORSDOF 7
ENDMDL
MODEL      237
REMARK 921   NORMALIZED FREE ENERGY PREDICTED BY IDOCK:   -3.14 KCAL/MOL
REMARK 922        TOTAL FREE ENERGY PREDICTED BY IDOCK:   -5.05 KCAL/MOL
REMARK 923 INTER-LIGAND FREE ENERGY PREDICTED BY IDOCK:   -4.68 KCAL/MOL
REMARK 924 INTRA-LIGAND FREE ENERGY PREDICTED BY IDOCK:   -0.37 KCAL/MOL
REMARK 927      BINDING AFFINITY PREDICTED BY RF-SCORE:    0.00 PKD
ROOT
HETATM    1  C   UNL     1      -8.738   9.521  64.821  1.00  0.00    -0.225 C  
HETATM    2  C   UNL     1     -10.035   9.504  65.615  1.00  0.00    -0.269 C  
ENDROOT
BRANCH   2   3
HETATM    3  C   UNL     1      -9.848  10.090  67.017  1.00  0.00    -0.238 C  
BRANCH   3   4
HETATM    4  C   UNL     1     -10.811  11.245  67.297  1.00  0.00    -0.267 C  
BRANCH   4   5
HETATM    5  N   UNL     1     -10.493  12.439  66.539  1.00  0.00    -0.228 N  
HETATM    6  H   UNL     1      -9.787  12.394  65.803  1.00  0.00     0.000 HD 
BRANCH   5   7
HETATM    7  C   UNL     1     -11.123  13.625  66.794  1.00  0.00    -0.307 C  
HETATM    8  O   UNL     1     -12.330  13.777  66.684  1.00  0.00    -0.418 OA 
BRANCH   7   9
HETATM    9  N   UNL     1     -10.261  14.623  67.209  1.00  0.00    -0.240 N  
HETATM   10  H   UNL     1     -10.070  14.702  68.208  1.00  0.00     0.000 HD 
BRANCH   9  11
HETATM   11  S   UNL     1      -9.514  15.704  66.187  1.00  0.00    -0.360 S  
HETATM   12  O   UNL     1     -10.182  15.717  64.906  1.00  0.00    -0.449 OA 
HETATM   13  O   UNL     1      -8.100  15.395  66.279  1.00  0.00    -0.004 OA 
BRANCH  11  14
HETATM   14  C   UNL     1      -9.771  17.262  67.000  1.00  0.00    -0.267 A  
HETATM   15  C   UNL     1      -9.211  17.485  68.261  1.00  0.00    -0.277 A  
HETATM   16  C   UNL     1      -9.457  18.690  68.922  1.00  0.00    -0.297 A  
HETATM   17  C   UNL     1     -10.256  19.675  68.328  1.00  0.00    -0.567 A  
HETATM   18  C   UNL     1     -10.764  19.461  67.039  1.00  0.00    -0.582 A  
HETATM   19  C   UNL     1     -10.582  20.946  69.057  1.00  0.00     0.706 C  
HETATM   20  C   UNL     1     -10.517  18.261  66.370  1.00  0.00    -0.387 A  
ENDBRANCH  11  14
ENDBRANCH   9  11
ENDBRANCH   7   9
ENDBRANCH   5   7
ENDBRANCH   4   5
ENDBRANCH   3   4
ENDBRANCH   2   3
TORSDOF 7
ENDMDL
MODEL      238
REMARK 921   NORMALIZED FREE ENERGY PREDICTED BY IDOCK:   -3.12 KCAL/MOL
REMARK 922        TOTAL FREE ENERGY PREDICTED BY IDOCK:   -5.02 KCAL/MOL
REMARK 923 INTER-LIGAND FREE ENERGY PREDICTED BY IDOCK:   -4.07 KCAL/MOL
REMARK 924 INTRA-LIGAND FREE ENERGY PREDICTED BY IDOCK:   -0.95 KCAL/MOL
REMARK 927      BINDING AFFINITY PREDICTED BY RF-SCORE:    0.00 PKD
ROOT
HETATM    1  C   UNL     1     -10.188  15.344  64.903  1.00  0.00    -0.162 C  
HETATM    2  C   UNL     1      -9.138  15.478  65.994  1.00  0.00    -0.316 C  
ENDROOT
BRANCH   2   3
HETATM    3  C   UNL     1      -9.389  14.500  67.144  1.00  0.00    -0.225 C  
BRANCH   3   4
HETATM    4  C   UNL     1      -8.101  14.116  67.873  1.00  0.00    -0.154 C  
BRANCH   4   5
HETATM    5  N   UNL     1      -8.299  13.060  68.847  1.00  0.00    -0.344 N  
HETATM    6  H   UNL     1      -8.786  13.266  69.719  1.00  0.00     0.000 HD 
BRANCH   5   7
HETATM    7  C   UNL     1      -7.844  11.792  68.615  1.00  0.00    -0.117 C  
HETATM    8  O   UNL     1      -6.738  11.554  68.156  1.00  0.00    -0.060 OA 
BRANCH   7   9
HETATM    9  N   UNL     1      -8.752  10.812  68.974  1.00  0.00    -0.258 N  
HETATM   10  H   UNL     1      -8.457  10.117  69.660  1.00  0.00     0.000 HD 
BRANCH   9  11
HETATM   11  S   UNL     1     -10.295  10.693  68.360  1.00  0.00    -0.187 S  
HETATM   12  O   UNL     1     -11.093  11.812  68.804  1.00  0.00    -0.210 OA 
HETATM   13  O   UNL     1     -10.709   9.332  68.643  1.00  0.00    -0.209 OA 
BRANCH  11  14
HETATM   14  C   UNL     1     -10.035  10.815  66.607  1.00  0.00    -0.206 A  
HETATM   15  C   UNL     1     -10.914  11.573  65.829  1.00  0.00    -0.305 A  
HETATM   16  C   UNL     1     -10.740  11.626  64.445  1.00  0.00    -0.387 A  
HETATM   17  C   UNL     1      -9.690  10.928  63.834  1.00  0.00    -0.352 A  
HETATM   18  C   UNL     1      -8.782  10.218  64.633  1.00  0.00    -0.203 A  
HETATM   19  C   UNL     1      -9.533  10.923  62.341  1.00  0.00    -0.205 C  
HETATM   20  C   UNL     1      -8.947  10.166  66.018  1.00  0.00    -0.174 A  
ENDBRANCH  11  14
ENDBRANCH   9  11
ENDBRANCH   7   9
ENDBRANCH   5   7
ENDBRANCH   4   5
ENDBRANCH   3   4
ENDBRANCH   2   3
TORSDOF 7
ENDMDL
MODEL      239
REMARK 921   NORMALIZED FREE ENERGY PREDICTED BY IDOCK:   -3.11 KCAL/MOL
REMARK 922        TOTAL FREE ENERGY PREDICTED BY IDOCK:   -5.01 KCAL/MOL
REMARK 923 INTER-LIGAND FREE ENERGY PREDICTED BY IDOCK:   -4.75 KCAL/MOL
REMARK 924 INTRA-LIGAND FREE ENERGY PREDICTED BY IDOCK:   -0.26 KCAL/MOL
REMARK 927      BINDING AFFINITY PREDICTED BY RF-SCORE:    0.00 PKD
ROOT
HETATM    1  C   UNL     1      -6.909   6.548  68.719  1.00  0.00    -0.070 C  
HETATM    2  C   UNL     1      -8.069   7.003  69.589  1.00  0.00    -0.130 C  
ENDROOT
BRANCH   2   3
HETATM    3  C   UNL     1      -7.737   8.290  70.347  1.00  0.00    -0.084 C  
BRANCH   3   4
HETATM    4  C   UNL     1      -8.914   8.791  71.186  1.00  0.00    -0.222 C  
BRANCH   4   5
HETATM    5  N   UNL     1     -10.142   8.066  70.923  1.00  0.00    -0.190 N  
HETATM    6  H   UNL     1     -10.121   7.249  70.313  1.00  0.00     0.000 HD 
BRANCH   5   7
HETATM    7  C   UNL     1     -11.326   8.460  71.480  1.00  0.00    -0.276 C  
HETATM    8  O   UNL     1     -12.172   7.673  71.875  1.00  0.00    -0.288 OA 
BRANCH   7   9
HETATM    9  N   UNL     1     -11.457   9.833  71.570  1.00  0.00    -0.366 N  
HETATM   10  H   UNL     1     -10.675  10.362  71.957  1.00  0.00     0.000 HD 
BRANCH   9  11
HETATM   11  S   UNL     1     -12.806  10.681  71.088  1.00  0.00    -0.426 S  
HETATM   12  O   UNL     1     -13.367  11.401  72.208  1.00  0.00    -0.410 OA 
HETATM   13  O   UNL     1     -13.608   9.726  70.349  1.00  0.00     0.054 OA 
BRANCH  11  14
HETATM   14  C   UNL     1     -12.147  11.842  69.915  1.00  0.00    -0.287 A  
HETATM   15  C   UNL     1     -12.050  13.192  70.259  1.00  0.00    -0.399 A  
HETATM   16  C   UNL     1     -11.582  14.112  69.319  1.00  0.00    -0.350 A  
HETATM   17  C   UNL     1     -11.206  13.688  68.037  1.00  0.00    -0.295 A  
HETATM   18  C   UNL     1     -11.255  12.322  67.725  1.00  0.00    -0.331 A  
HETATM   19  C   UNL     1     -10.765  14.676  66.997  1.00  0.00    -0.290 C  
HETATM   20  C   UNL     1     -11.717  11.397  68.663  1.00  0.00    -0.394 A  
ENDBRANCH  11  14
ENDBRANCH   9  11
ENDBRANCH   7   9
ENDBRANCH   5   7
ENDBRANCH   4   5
ENDBRANCH   3   4
ENDBRANCH   2   3
TORSDOF 7
ENDMDL
MODEL      240
REMARK 921   NORMALIZED FREE ENERGY PREDICTED BY IDOCK:   -3.11 KCAL/MOL
REMARK 922        TOTAL FREE ENERGY PREDICTED BY IDOCK:   -5.01 KCAL/MOL
REMARK 923 INTER-LIGAND FREE ENERGY PREDICTED BY IDOCK:   -4.43 KCAL/MOL
REMARK 924 INTRA-LIGAND FREE ENERGY PREDICTED BY IDOCK:   -0.58 KCAL/MOL
REMARK 927      BINDING AFFINITY PREDICTED BY RF-SCORE:    0.00 PKD
ROOT
HETATM    1  C   UNL     1     -10.820   5.991  72.074  1.00  0.00    -0.300 C  
HETATM    2  C   UNL     1     -11.114   7.007  70.982  1.00  0.00    -0.295 C  
ENDROOT
BRANCH   2   3
HETATM    3  C   UNL     1     -11.399   6.329  69.640  1.00  0.00    -0.492 C  
BRANCH   3   4
HETATM    4  C   UNL     1     -10.121   6.048  68.848  1.00  0.00    -0.176 C  
BRANCH   4   5
HETATM    5  N   UNL     1      -9.687   7.185  68.059  1.00  0.00    -0.137 N  
HETATM    6  H   UNL     1     -10.250   8.035  68.050  1.00  0.00     0.000 HD 
BRANCH   5   7
HETATM    7  C   UNL     1      -8.533   7.135  67.327  1.00  0.00    -0.122 C  
HETATM    8  O   UNL     1      -7.733   6.216  67.403  1.00  0.00    -0.092 OA 
BRANCH   7   9
HETATM    9  N   UNL     1      -8.379   8.216  66.478  1.00  0.00    -0.109 N  
HETATM   10  H   UNL     1      -8.529   8.064  65.481  1.00  0.00     0.000 HD 
BRANCH   9  11
HETATM   11  S   UNL     1      -7.965   9.749  66.977  1.00  0.00    -0.105 S  
HETATM   12  O   UNL     1      -6.589  10.027  66.637  1.00  0.00    -0.069 OA 
HETATM   13  O   UNL     1      -8.416   9.833  68.353  1.00  0.00    -0.112 OA 
BRANCH  11  14
HETATM   14  C   UNL     1      -9.032  10.785  66.005  1.00  0.00    -0.181 A  
HETATM   15  C   UNL     1      -9.303  12.089  66.428  1.00  0.00    -0.232 A  
HETATM   16  C   UNL     1     -10.182  12.885  65.692  1.00  0.00    -0.295 A  
HETATM   17  C   UNL     1     -10.789  12.386  64.532  1.00  0.00    -0.358 A  
HETATM   18  C   UNL     1     -10.463  11.096  64.088  1.00  0.00    -0.442 A  
HETATM   19  C   UNL     1     -11.787  13.208  63.770  1.00  0.00    -0.546 C  
HETATM   20  C   UNL     1      -9.580  10.298  64.816  1.00  0.00    -0.369 A  
ENDBRANCH  11  14
ENDBRANCH   9  11
ENDBRANCH   7   9
ENDBRANCH   5   7
ENDBRANCH   4   5
ENDBRANCH   3   4
ENDBRANCH   2   3
TORSDOF 7
ENDMDL
MODEL      241
REMARK 921   NORMALIZED FREE ENERGY PREDICTED BY IDOCK:   -3.11 KCAL/MOL
REMARK 922        TOTAL FREE ENERGY PREDICTED BY IDOCK:   -5.01 KCAL/MOL
REMARK 923 INTER-LIGAND FREE ENERGY PREDICTED BY IDOCK:   -4.30 KCAL/MOL
REMARK 924 INTRA-LIGAND FREE ENERGY PREDICTED BY IDOCK:   -0.70 KCAL/MOL
REMARK 927      BINDING AFFINITY PREDICTED BY RF-SCORE:    0.00 PKD
ROOT
HETATM    1  C   UNL     1     -11.564   6.503  72.100  1.00  0.00    -0.349 C  
HETATM    2  C   UNL     1     -11.651   7.467  70.927  1.00  0.00    -0.309 C  
ENDROOT
BRANCH   2   3
HETATM    3  C   UNL     1     -11.099   6.846  69.642  1.00  0.00    -0.302 C  
BRANCH   3   4
HETATM    4  C   UNL     1      -9.651   7.258  69.372  1.00  0.00    -0.154 C  
BRANCH   4   5
HETATM    5  N   UNL     1      -9.531   8.632  68.926  1.00  0.00    -0.146 N  
HETATM    6  H   UNL     1      -9.969   8.916  68.049  1.00  0.00     0.000 HD 
BRANCH   5   7
HETATM    7  C   UNL     1      -8.841   9.555  69.662  1.00  0.00    -0.187 C  
HETATM    8  O   UNL     1      -8.568   9.398  70.842  1.00  0.00    -0.233 OA 
BRANCH   7   9
HETATM    9  N   UNL     1      -8.466  10.666  68.930  1.00  0.00    -0.148 N  
HETATM   10  H   UNL     1      -7.469  10.871  68.851  1.00  0.00     0.000 HD 
BRANCH   9  11
HETATM   11  S   UNL     1      -9.533  11.693  68.169  1.00  0.00    -0.195 S  
HETATM   12  O   UNL     1      -9.059  13.055  68.256  1.00  0.00    -0.197 OA 
HETATM   13  O   UNL     1     -10.839  11.332  68.687  1.00  0.00    -0.180 OA 
BRANCH  11  14
HETATM   14  C   UNL     1      -9.465  11.153  66.478  1.00  0.00    -0.193 A  
HETATM   15  C   UNL     1      -8.322  10.504  66.005  1.00  0.00    -0.158 A  
HETATM   16  C   UNL     1      -8.248  10.126  64.663  1.00  0.00    -0.165 A  
HETATM   17  C   UNL     1      -9.313  10.391  63.791  1.00  0.00    -0.329 A  
HETATM   18  C   UNL     1     -10.477  10.992  64.293  1.00  0.00    -0.427 A  
HETATM   19  C   UNL     1      -9.218  10.051  62.333  1.00  0.00    -0.319 C  
HETATM   20  C   UNL     1     -10.559  11.366  65.635  1.00  0.00    -0.314 A  
ENDBRANCH  11  14
ENDBRANCH   9  11
ENDBRANCH   7   9
ENDBRANCH   5   7
ENDBRANCH   4   5
ENDBRANCH   3   4
ENDBRANCH   2   3
TORSDOF 7
ENDMDL
MODEL      242
REMARK 921   NORMALIZED FREE ENERGY PREDICTED BY IDOCK:   -3.10 KCAL/MOL
REMARK 922        TOTAL FREE ENERGY PREDICTED BY IDOCK:   -4.99 KCAL/MOL
REMARK 923 INTER-LIGAND FREE ENERGY PREDICTED BY IDOCK:   -3.87 KCAL/MOL
REMARK 924 INTRA-LIGAND FREE ENERGY PREDICTED BY IDOCK:   -1.12 KCAL/MOL
REMARK 927      BINDING AFFINITY PREDICTED BY RF-SCORE:    0.00 PKD
ROOT
HETATM    1  C   UNL     1      -7.055   6.982  67.524  1.00  0.00    -0.085 C  
HETATM    2  C   UNL     1      -7.264   8.033  68.602  1.00  0.00    -0.081 C  
ENDROOT
BRANCH   2   3
HETATM    3  C   UNL     1      -7.444   7.398  69.983  1.00  0.00    -0.084 C  
BRANCH   3   4
HETATM    4  C   UNL     1      -8.781   7.772  70.625  1.00  0.00    -0.139 C  
BRANCH   4   5
HETATM    5  N   UNL     1      -9.044   9.197  70.587  1.00  0.00    -0.237 N  
HETATM    6  H   UNL     1      -8.278   9.854  70.736  1.00  0.00     0.000 HD 
BRANCH   5   7
HETATM    7  C   UNL     1     -10.304   9.676  70.356  1.00  0.00    -0.291 C  
HETATM    8  O   UNL     1     -11.304   8.978  70.415  1.00  0.00    -0.255 OA 
BRANCH   7   9
HETATM    9  N   UNL     1     -10.330  11.029  70.074  1.00  0.00    -0.311 N  
HETATM   10  H   UNL     1      -9.980  11.671  70.786  1.00  0.00     0.000 HD 
BRANCH   9  11
HETATM   11  S   UNL     1     -10.894  11.680  68.650  1.00  0.00    -0.225 S  
HETATM   12  O   UNL     1     -10.689  13.110  68.642  1.00  0.00    -0.247 OA 
HETATM   13  O   UNL     1     -12.223  11.124  68.481  1.00  0.00    -0.600 OA 
BRANCH  11  14
HETATM   14  C   UNL     1      -9.846  10.930  67.427  1.00  0.00    -0.173 A  
HETATM   15  C   UNL     1      -8.569  11.450  67.199  1.00  0.00    -0.151 A  
HETATM   16  C   UNL     1      -7.765  10.893  66.202  1.00  0.00    -0.133 A  
HETATM   17  C   UNL     1      -8.229   9.817  65.435  1.00  0.00    -0.131 A  
HETATM   18  C   UNL     1      -9.490   9.269  65.714  1.00  0.00    -0.329 A  
HETATM   19  C   UNL     1      -7.402   9.254  64.317  1.00  0.00    -0.106 C  
HETATM   20  C   UNL     1     -10.296   9.817  66.712  1.00  0.00    -0.289 A  
ENDBRANCH  11  14
ENDBRANCH   9  11
ENDBRANCH   7   9
ENDBRANCH   5   7
ENDBRANCH   4   5
ENDBRANCH   3   4
ENDBRANCH   2   3
TORSDOF 7
ENDMDL
MODEL      243
REMARK 921   NORMALIZED FREE ENERGY PREDICTED BY IDOCK:   -3.06 KCAL/MOL
REMARK 922        TOTAL FREE ENERGY PREDICTED BY IDOCK:   -4.94 KCAL/MOL
REMARK 923 INTER-LIGAND FREE ENERGY PREDICTED BY IDOCK:   -4.64 KCAL/MOL
REMARK 924 INTRA-LIGAND FREE ENERGY PREDICTED BY IDOCK:   -0.30 KCAL/MOL
REMARK 927      BINDING AFFINITY PREDICTED BY RF-SCORE:    0.00 PKD
ROOT
HETATM    1  C   UNL     1      -7.489   4.371  66.388  1.00  0.00    -0.082 C  
HETATM    2  C   UNL     1      -7.689   5.798  65.902  1.00  0.00    -0.092 C  
ENDROOT
BRANCH   2   3
HETATM    3  C   UNL     1      -8.457   6.641  66.924  1.00  0.00    -0.115 C  
BRANCH   3   4
HETATM    4  C   UNL     1      -9.950   6.313  66.944  1.00  0.00    -0.169 C  
BRANCH   4   5
HETATM    5  N   UNL     1     -10.787   7.496  66.914  1.00  0.00    -0.542 N  
HETATM    6  H   UNL     1     -11.334   7.704  66.078  1.00  0.00     0.000 HD 
BRANCH   5   7
HETATM    7  C   UNL     1     -10.856   8.340  67.988  1.00  0.00     0.059 C  
HETATM    8  O   UNL     1     -10.702   7.966  69.140  1.00  0.00    -0.204 OA 
BRANCH   7   9
HETATM    9  N   UNL     1     -11.092   9.655  67.634  1.00  0.00    -0.459 N  
HETATM   10  H   UNL     1     -11.458   9.839  66.700  1.00  0.00     0.000 HD 
BRANCH   9  11
HETATM   11  S   UNL     1     -10.818  10.959  68.633  1.00  0.00    -0.238 S  
HETATM   12  O   UNL     1      -9.476  10.902  69.165  1.00  0.00    -0.176 OA 
HETATM   13  O   UNL     1     -11.963  11.001  69.521  1.00  0.00    -0.301 OA 
BRANCH  11  14
HETATM   14  C   UNL     1     -10.952  12.342  67.526  1.00  0.00    -0.254 A  
HETATM   15  C   UNL     1     -11.708  12.221  66.357  1.00  0.00    -0.431 A  
HETATM   16  C   UNL     1     -11.771  13.290  65.462  1.00  0.00    -0.376 A  
HETATM   17  C   UNL     1     -11.086  14.482  65.731  1.00  0.00    -0.324 A  
HETATM   18  C   UNL     1     -10.378  14.610  66.935  1.00  0.00    -0.264 A  
HETATM   19  C   UNL     1     -11.092  15.613  64.745  1.00  0.00    -0.426 C  
HETATM   20  C   UNL     1     -10.316  13.546  67.836  1.00  0.00    -0.249 A  
ENDBRANCH  11  14
ENDBRANCH   9  11
ENDBRANCH   7   9
ENDBRANCH   5   7
ENDBRANCH   4   5
ENDBRANCH   3   4
ENDBRANCH   2   3
TORSDOF 7
ENDMDL
MODEL      244
REMARK 921   NORMALIZED FREE ENERGY PREDICTED BY IDOCK:   -3.06 KCAL/MOL
REMARK 922        TOTAL FREE ENERGY PREDICTED BY IDOCK:   -4.94 KCAL/MOL
REMARK 923 INTER-LIGAND FREE ENERGY PREDICTED BY IDOCK:   -3.99 KCAL/MOL
REMARK 924 INTRA-LIGAND FREE ENERGY PREDICTED BY IDOCK:   -0.94 KCAL/MOL
REMARK 927      BINDING AFFINITY PREDICTED BY RF-SCORE:    0.00 PKD
ROOT
HETATM    1  C   UNL     1      -5.873  10.316  68.889  1.00  0.00    -0.041 C  
HETATM    2  C   UNL     1      -6.746   9.573  69.887  1.00  0.00    -0.063 C  
ENDROOT
BRANCH   2   3
HETATM    3  C   UNL     1      -8.180  10.110  69.892  1.00  0.00    -0.128 C  
BRANCH   3   4
HETATM    4  C   UNL     1      -9.162   9.151  69.217  1.00  0.00    -0.146 C  
BRANCH   4   5
HETATM    5  N   UNL     1      -9.016   9.120  67.775  1.00  0.00    -0.127 N  
HETATM    6  H   UNL     1      -8.084   9.054  67.365  1.00  0.00     0.000 HD 
BRANCH   5   7
HETATM    7  C   UNL     1     -10.107   9.179  66.954  1.00  0.00    -0.258 C  
HETATM    8  O   UNL     1     -10.835   8.221  66.742  1.00  0.00    -0.188 OA 
BRANCH   7   9
HETATM    9  N   UNL     1     -10.314  10.433  66.410  1.00  0.00    -0.232 N  
HETATM   10  H   UNL     1      -9.825  10.665  65.545  1.00  0.00     0.000 HD 
BRANCH   9  11
HETATM   11  S   UNL     1     -11.310  11.591  67.074  1.00  0.00    -0.204 S  
HETATM   12  O   UNL     1     -11.982  11.059  68.237  1.00  0.00    -0.593 OA 
HETATM   13  O   UNL     1     -12.071  12.119  65.959  1.00  0.00    -0.612 OA 
BRANCH  11  14
HETATM   14  C   UNL     1     -10.167  12.853  67.582  1.00  0.00    -0.220 A  
HETATM   15  C   UNL     1      -8.807  12.710  67.296  1.00  0.00    -0.196 A  
HETATM   16  C   UNL     1      -7.902  13.676  67.741  1.00  0.00    -0.172 A  
HETATM   17  C   UNL     1      -8.351  14.787  68.467  1.00  0.00    -0.160 A  
HETATM   18  C   UNL     1      -9.725  14.946  68.698  1.00  0.00    -0.226 A  
HETATM   19  C   UNL     1      -7.381  15.796  69.008  1.00  0.00    -0.177 C  
HETATM   20  C   UNL     1     -10.635  13.987  68.250  1.00  0.00    -0.253 A  
ENDBRANCH  11  14
ENDBRANCH   9  11
ENDBRANCH   7   9
ENDBRANCH   5   7
ENDBRANCH   4   5
ENDBRANCH   3   4
ENDBRANCH   2   3
TORSDOF 7
ENDMDL
MODEL      245
REMARK 921   NORMALIZED FREE ENERGY PREDICTED BY IDOCK:   -3.06 KCAL/MOL
REMARK 922        TOTAL FREE ENERGY PREDICTED BY IDOCK:   -4.93 KCAL/MOL
REMARK 923 INTER-LIGAND FREE ENERGY PREDICTED BY IDOCK:   -4.24 KCAL/MOL
REMARK 924 INTRA-LIGAND FREE ENERGY PREDICTED BY IDOCK:   -0.69 KCAL/MOL
REMARK 927      BINDING AFFINITY PREDICTED BY RF-SCORE:    0.00 PKD
ROOT
HETATM    1  C   UNL     1      -9.697   4.427  68.622  1.00  0.00    -0.190 C  
HETATM    2  C   UNL     1      -8.264   4.604  69.097  1.00  0.00    -0.081 C  
ENDROOT
BRANCH   2   3
HETATM    3  C   UNL     1      -7.626   5.867  68.513  1.00  0.00    -0.090 C  
BRANCH   3   4
HETATM    4  C   UNL     1      -8.503   6.520  67.443  1.00  0.00    -0.119 C  
BRANCH   4   5
HETATM    5  N   UNL     1      -8.776   7.918  67.716  1.00  0.00    -0.127 N  
HETATM    6  H   UNL     1      -8.060   8.492  68.161  1.00  0.00     0.000 HD 
BRANCH   5   7
HETATM    7  C   UNL     1      -9.978   8.479  67.385  1.00  0.00    -0.214 C  
HETATM    8  O   UNL     1     -10.339   8.650  66.231  1.00  0.00    -0.214 OA 
BRANCH   7   9
HETATM    9  N   UNL     1     -10.747   8.809  68.485  1.00  0.00    -0.416 N  
HETATM   10  H   UNL     1     -11.591   8.263  68.658  1.00  0.00     0.000 HD 
BRANCH   9  11
HETATM   11  S   UNL     1     -10.386  10.040  69.547  1.00  0.00    -0.251 S  
HETATM   12  O   UNL     1      -9.051   9.866  70.072  1.00  0.00    -0.225 OA 
HETATM   13  O   UNL     1     -11.526  10.114  70.441  1.00  0.00    -0.275 OA 
BRANCH  11  14
HETATM   14  C   UNL     1     -10.427  11.483  68.512  1.00  0.00    -0.208 A  
HETATM   15  C   UNL     1      -9.233  12.012  68.016  1.00  0.00    -0.192 A  
HETATM   16  C   UNL     1      -9.262  13.176  67.245  1.00  0.00    -0.221 A  
HETATM   17  C   UNL     1     -10.478  13.812  66.964  1.00  0.00    -0.274 A  
HETATM   18  C   UNL     1     -11.674  13.237  67.420  1.00  0.00    -0.419 A  
HETATM   19  C   UNL     1     -10.515  15.099  66.194  1.00  0.00    -0.320 C  
HETATM   20  C   UNL     1     -11.652  12.071  68.186  1.00  0.00    -0.403 A  
ENDBRANCH  11  14
ENDBRANCH   9  11
ENDBRANCH   7   9
ENDBRANCH   5   7
ENDBRANCH   4   5
ENDBRANCH   3   4
ENDBRANCH   2   3
TORSDOF 7
ENDMDL
MODEL      246
REMARK 921   NORMALIZED FREE ENERGY PREDICTED BY IDOCK:   -3.04 KCAL/MOL
REMARK 922        TOTAL FREE ENERGY PREDICTED BY IDOCK:   -4.90 KCAL/MOL
REMARK 923 INTER-LIGAND FREE ENERGY PREDICTED BY IDOCK:   -4.90 KCAL/MOL
REMARK 924 INTRA-LIGAND FREE ENERGY PREDICTED BY IDOCK:   -0.00 KCAL/MOL
REMARK 927      BINDING AFFINITY PREDICTED BY RF-SCORE:    0.00 PKD
ROOT
HETATM    1  C   UNL     1     -10.443   7.920  72.335  1.00  0.00    -0.339 C  
HETATM    2  C   UNL     1     -11.751   8.687  72.220  1.00  0.00    -0.428 C  
ENDROOT
BRANCH   2   3
HETATM    3  C   UNL     1     -12.001   9.165  70.788  1.00  0.00    -0.243 C  
BRANCH   3   4
HETATM    4  C   UNL     1     -11.798  10.673  70.634  1.00  0.00    -0.363 C  
BRANCH   4   5
HETATM    5  N   UNL     1     -11.999  11.133  69.274  1.00  0.00    -0.344 N  
HETATM    6  H   UNL     1     -12.908  11.507  68.999  1.00  0.00     0.000 HD 
BRANCH   5   7
HETATM    7  C   UNL     1     -10.991  11.072  68.352  1.00  0.00    -0.230 C  
HETATM    8  O   UNL     1     -10.476  10.024  67.995  1.00  0.00    -0.189 OA 
BRANCH   7   9
HETATM    9  N   UNL     1     -10.634  12.310  67.852  1.00  0.00    -0.206 N  
HETATM   10  H   UNL     1     -10.105  12.935  68.460  1.00  0.00     0.000 HD 
BRANCH   9  11
HETATM   11  S   UNL     1     -11.011  12.848  66.322  1.00  0.00    -0.288 S  
HETATM   12  O   UNL     1     -10.628  14.233  66.175  1.00  0.00    -0.284 OA 
HETATM   13  O   UNL     1     -12.385  12.436  66.105  1.00  0.00    -0.606 OA 
BRANCH  11  14
HETATM   14  C   UNL     1      -9.983  11.840  65.282  1.00  0.00    -0.253 A  
HETATM   15  C   UNL     1      -8.757  11.375  65.764  1.00  0.00    -0.062 A  
HETATM   16  C   UNL     1      -7.925  10.627  64.929  1.00  0.00     0.012 A  
HETATM   17  C   UNL     1      -8.315  10.337  63.615  1.00  0.00    -0.169 A  
HETATM   18  C   UNL     1      -9.574  10.761  63.163  1.00  0.00    -0.385 A  
HETATM   19  C   UNL     1      -7.402   9.591  62.687  1.00  0.00    -0.103 C  
HETATM   20  C   UNL     1     -10.412  11.504  63.995  1.00  0.00    -0.424 A  
ENDBRANCH  11  14
ENDBRANCH   9  11
ENDBRANCH   7   9
ENDBRANCH   5   7
ENDBRANCH   4   5
ENDBRANCH   3   4
ENDBRANCH   2   3
TORSDOF 7
ENDMDL
MODEL      247
REMARK 921   NORMALIZED FREE ENERGY PREDICTED BY IDOCK:   -3.03 KCAL/MOL
REMARK 922        TOTAL FREE ENERGY PREDICTED BY IDOCK:   -4.90 KCAL/MOL
REMARK 923 INTER-LIGAND FREE ENERGY PREDICTED BY IDOCK:   -4.59 KCAL/MOL
REMARK 924 INTRA-LIGAND FREE ENERGY PREDICTED BY IDOCK:   -0.30 KCAL/MOL
REMARK 927      BINDING AFFINITY PREDICTED BY RF-SCORE:    0.00 PKD
ROOT
HETATM    1  C   UNL     1      -6.970   6.682  66.679  1.00  0.00    -0.067 C  
HETATM    2  C   UNL     1      -7.873   7.876  66.415  1.00  0.00    -0.097 C  
ENDROOT
BRANCH   2   3
HETATM    3  C   UNL     1      -7.329   8.759  65.289  1.00  0.00    -0.085 C  
BRANCH   3   4
HETATM    4  C   UNL     1      -7.773  10.216  65.427  1.00  0.00    -0.143 C  
BRANCH   4   5
HETATM    5  N   UNL     1      -9.215  10.365  65.454  1.00  0.00    -0.179 N  
HETATM    6  H   UNL     1      -9.795   9.585  65.766  1.00  0.00     0.000 HD 
BRANCH   5   7
HETATM    7  C   UNL     1      -9.812  11.533  65.068  1.00  0.00    -0.257 C  
HETATM    8  O   UNL     1     -10.493  11.633  64.059  1.00  0.00    -0.299 OA 
BRANCH   7   9
HETATM    9  N   UNL     1      -9.584  12.577  65.945  1.00  0.00    -0.383 N  
HETATM   10  H   UNL     1      -8.690  13.064  65.884  1.00  0.00     0.000 HD 
BRANCH   9  11
HETATM   11  S   UNL     1     -10.674  13.092  67.093  1.00  0.00    -0.256 S  
HETATM   12  O   UNL     1     -10.288  12.604  68.397  1.00  0.00    -0.228 OA 
HETATM   13  O   UNL     1     -11.978  12.777  66.544  1.00  0.00    -0.402 OA 
BRANCH  11  14
HETATM   14  C   UNL     1     -10.492  14.859  67.049  1.00  0.00    -0.272 A  
HETATM   15  C   UNL     1     -11.237  15.652  67.925  1.00  0.00    -0.328 A  
HETATM   16  C   UNL     1     -11.133  17.043  67.855  1.00  0.00    -0.125 A  
HETATM   17  C   UNL     1     -10.285  17.644  66.916  1.00  0.00    -0.334 A  
HETATM   18  C   UNL     1      -9.500  16.834  66.082  1.00  0.00    -0.295 A  
HETATM   19  C   UNL     1     -10.215  19.138  66.786  1.00  0.00    -0.482 C  
HETATM   20  C   UNL     1      -9.595  15.444  66.152  1.00  0.00    -0.362 A  
ENDBRANCH  11  14
ENDBRANCH   9  11
ENDBRANCH   7   9
ENDBRANCH   5   7
ENDBRANCH   4   5
ENDBRANCH   3   4
ENDBRANCH   2   3
TORSDOF 7
ENDMDL
MODEL      248
REMARK 921   NORMALIZED FREE ENERGY PREDICTED BY IDOCK:   -3.00 KCAL/MOL
REMARK 922        TOTAL FREE ENERGY PREDICTED BY IDOCK:   -4.85 KCAL/MOL
REMARK 923 INTER-LIGAND FREE ENERGY PREDICTED BY IDOCK:   -3.52 KCAL/MOL
REMARK 924 INTRA-LIGAND FREE ENERGY PREDICTED BY IDOCK:   -1.33 KCAL/MOL
REMARK 927      BINDING AFFINITY PREDICTED BY RF-SCORE:    0.00 PKD
ROOT
HETATM    1  C   UNL     1      -8.435   5.341  70.088  1.00  0.00    -0.109 C  
HETATM    2  C   UNL     1      -7.331   5.903  69.206  1.00  0.00    -0.083 C  
ENDROOT
BRANCH   2   3
HETATM    3  C   UNL     1      -7.033   7.367  69.539  1.00  0.00    -0.057 C  
BRANCH   3   4
HETATM    4  C   UNL     1      -8.243   8.087  70.134  1.00  0.00    -0.120 C  
BRANCH   4   5
HETATM    5  N   UNL     1      -7.996   9.495  70.381  1.00  0.00    -0.170 N  
HETATM    6  H   UNL     1      -7.657   9.792  71.296  1.00  0.00     0.000 HD 
BRANCH   5   7
HETATM    7  C   UNL     1      -8.208  10.430  69.406  1.00  0.00    -0.151 C  
HETATM    8  O   UNL     1      -7.303  11.037  68.856  1.00  0.00    -0.094 OA 
BRANCH   7   9
HETATM    9  N   UNL     1      -9.545  10.598  69.094  1.00  0.00    -0.285 N  
HETATM   10  H   UNL     1     -10.193  10.783  69.859  1.00  0.00     0.000 HD 
BRANCH   9  11
HETATM   11  S   UNL     1     -10.164  10.519  67.551  1.00  0.00    -0.219 S  
HETATM   12  O   UNL     1      -9.352  11.302  66.649  1.00  0.00    -0.173 OA 
HETATM   13  O   UNL     1     -11.580  10.796  67.698  1.00  0.00    -0.523 OA 
BRANCH  11  14
HETATM   14  C   UNL     1     -10.000   8.797  67.145  1.00  0.00    -0.230 A  
HETATM   15  C   UNL     1      -8.952   8.378  66.322  1.00  0.00    -0.213 A  
HETATM   16  C   UNL     1      -8.854   7.033  65.960  1.00  0.00    -0.155 A  
HETATM   17  C   UNL     1      -9.795   6.103  66.421  1.00  0.00    -0.141 A  
HETATM   18  C   UNL     1     -10.809   6.528  67.293  1.00  0.00    -0.463 A  
HETATM   19  C   UNL     1      -9.739   4.669  65.985  1.00  0.00    -0.208 C  
HETATM   20  C   UNL     1     -10.909   7.870  67.662  1.00  0.00    -0.125 A  
ENDBRANCH  11  14
ENDBRANCH   9  11
ENDBRANCH   7   9
ENDBRANCH   5   7
ENDBRANCH   4   5
ENDBRANCH   3   4
ENDBRANCH   2   3
TORSDOF 7
ENDMDL
MODEL      249
REMARK 921   NORMALIZED FREE ENERGY PREDICTED BY IDOCK:   -2.97 KCAL/MOL
REMARK 922        TOTAL FREE ENERGY PREDICTED BY IDOCK:   -4.81 KCAL/MOL
REMARK 923 INTER-LIGAND FREE ENERGY PREDICTED BY IDOCK:   -4.24 KCAL/MOL
REMARK 924 INTRA-LIGAND FREE ENERGY PREDICTED BY IDOCK:   -0.57 KCAL/MOL
REMARK 927      BINDING AFFINITY PREDICTED BY RF-SCORE:    0.00 PKD
ROOT
HETATM    1  C   UNL     1     -10.341  17.870  68.385  1.00  0.00    -0.380 C  
HETATM    2  C   UNL     1     -10.340  16.358  68.551  1.00  0.00    -0.270 C  
ENDROOT
BRANCH   2   3
HETATM    3  C   UNL     1     -11.542  15.713  67.857  1.00  0.00    -0.195 C  
BRANCH   3   4
HETATM    4  C   UNL     1     -11.300  14.239  67.527  1.00  0.00    -0.326 C  
BRANCH   4   5
HETATM    5  N   UNL     1     -10.226  14.046  66.572  1.00  0.00    -0.273 N  
HETATM    6  H   UNL     1      -9.456  14.714  66.540  1.00  0.00     0.000 HD 
BRANCH   5   7
HETATM    7  C   UNL     1     -10.229  12.983  65.713  1.00  0.00    -0.290 C  
HETATM    8  O   UNL     1     -10.350  13.102  64.504  1.00  0.00    -0.381 OA 
BRANCH   7   9
HETATM    9  N   UNL     1     -10.057  11.767  66.349  1.00  0.00    -0.205 N  
HETATM   10  H   UNL     1     -10.782  11.060  66.229  1.00  0.00     0.000 HD 
BRANCH   9  11
HETATM   11  S   UNL     1      -8.745  11.382  67.298  1.00  0.00    -0.152 S  
HETATM   12  O   UNL     1      -8.534  12.409  68.293  1.00  0.00    -0.171 OA 
HETATM   13  O   UNL     1      -7.692  11.033  66.364  1.00  0.00    -0.150 OA 
BRANCH  11  14
HETATM   14  C   UNL     1      -9.261   9.884  68.101  1.00  0.00    -0.128 A  
HETATM   15  C   UNL     1     -10.193   9.051  67.476  1.00  0.00    -0.302 A  
HETATM   16  C   UNL     1     -10.638   7.900  68.130  1.00  0.00    -0.179 A  
HETATM   17  C   UNL     1     -10.153   7.575  69.404  1.00  0.00    -0.190 A  
HETATM   18  C   UNL     1      -9.175   8.390  69.994  1.00  0.00    -0.158 A  
HETATM   19  C   UNL     1     -10.673   6.378  70.144  1.00  0.00    -0.328 C  
HETATM   20  C   UNL     1      -8.723   9.538  69.343  1.00  0.00    -0.166 A  
ENDBRANCH  11  14
ENDBRANCH   9  11
ENDBRANCH   7   9
ENDBRANCH   5   7
ENDBRANCH   4   5
ENDBRANCH   3   4
ENDBRANCH   2   3
TORSDOF 7
ENDMDL
MODEL      250
REMARK 921   NORMALIZED FREE ENERGY PREDICTED BY IDOCK:   -2.95 KCAL/MOL
REMARK 922        TOTAL FREE ENERGY PREDICTED BY IDOCK:   -4.79 KCAL/MOL
REMARK 923 INTER-LIGAND FREE ENERGY PREDICTED BY IDOCK:   -4.11 KCAL/MOL
REMARK 924 INTRA-LIGAND FREE ENERGY PREDICTED BY IDOCK:   -0.67 KCAL/MOL
REMARK 927      BINDING AFFINITY PREDICTED BY RF-SCORE:    0.00 PKD
ROOT
HETATM    1  C   UNL     1     -10.310   6.167  69.242  1.00  0.00    -0.276 C  
HETATM    2  C   UNL     1     -11.009   6.003  67.901  1.00  0.00    -0.334 C  
ENDROOT
BRANCH   2   3
HETATM    3  C   UNL     1     -10.301   6.789  66.795  1.00  0.00    -0.286 C  
BRANCH   3   4
HETATM    4  C   UNL     1      -9.996   8.229  67.209  1.00  0.00    -0.224 C  
BRANCH   4   5
HETATM    5  N   UNL     1      -8.744   8.718  66.665  1.00  0.00    -0.122 N  
HETATM    6  H   UNL     1      -8.671   8.912  65.666  1.00  0.00     0.000 HD 
BRANCH   5   7
HETATM    7  C   UNL     1      -7.657   8.923  67.470  1.00  0.00    -0.093 C  
HETATM    8  O   UNL     1      -7.039   8.014  68.001  1.00  0.00    -0.081 OA 
BRANCH   7   9
HETATM    9  N   UNL     1      -7.319  10.258  67.599  1.00  0.00    -0.088 N  
HETATM   10  H   UNL     1      -6.578  10.622  67.001  1.00  0.00     0.000 HD 
BRANCH   9  11
HETATM   11  S   UNL     1      -8.042  11.309  68.668  1.00  0.00    -0.129 S  
HETATM   12  O   UNL     1      -7.131  12.378  69.006  1.00  0.00    -0.099 OA 
HETATM   13  O   UNL     1      -8.607  10.466  69.704  1.00  0.00    -0.145 OA 
BRANCH  11  14
HETATM   14  C   UNL     1      -9.396  11.967  67.724  1.00  0.00    -0.184 A  
HETATM   15  C   UNL     1      -9.138  12.662  66.539  1.00  0.00    -0.163 A  
HETATM   16  C   UNL     1     -10.198  13.224  65.824  1.00  0.00    -0.296 A  
HETATM   17  C   UNL     1     -11.514  13.091  66.285  1.00  0.00    -0.379 A  
HETATM   18  C   UNL     1     -11.763  12.342  67.445  1.00  0.00    -0.417 A  
HETATM   19  C   UNL     1     -12.654  13.747  65.562  1.00  0.00    -0.551 C  
HETATM   20  C   UNL     1     -10.708  11.773  68.160  1.00  0.00    -0.247 A  
ENDBRANCH  11  14
ENDBRANCH   9  11
ENDBRANCH   7   9
ENDBRANCH   5   7
ENDBRANCH   4   5
ENDBRANCH   3   4
ENDBRANCH   2   3
TORSDOF 7
ENDMDL
MODEL      251
REMARK 921   NORMALIZED FREE ENERGY PREDICTED BY IDOCK:   -2.95 KCAL/MOL
REMARK 922        TOTAL FREE ENERGY PREDICTED BY IDOCK:   -4.78 KCAL/MOL
REMARK 923 INTER-LIGAND FREE ENERGY PREDICTED BY IDOCK:   -4.35 KCAL/MOL
REMARK 924 INTRA-LIGAND FREE ENERGY PREDICTED BY IDOCK:   -0.43 KCAL/MOL
REMARK 927      BINDING AFFINITY PREDICTED BY RF-SCORE:    0.00 PKD
ROOT
HETATM    1  C   UNL     1     -14.283   7.137  71.486  1.00  0.00    -0.486 C  
HETATM    2  C   UNL     1     -12.975   7.840  71.811  1.00  0.00    -0.351 C  
ENDROOT
BRANCH   2   3
HETATM    3  C   UNL     1     -12.913   9.236  71.187  1.00  0.00    -0.264 C  
BRANCH   3   4
HETATM    4  C   UNL     1     -11.502   9.605  70.725  1.00  0.00    -0.328 C  
BRANCH   4   5
HETATM    5  N   UNL     1     -11.374  11.006  70.373  1.00  0.00    -0.467 N  
HETATM    6  H   UNL     1     -11.289  11.703  71.113  1.00  0.00     0.000 HD 
BRANCH   5   7
HETATM    7  C   UNL     1     -11.364  11.407  69.066  1.00  0.00    -0.280 C  
HETATM    8  O   UNL     1     -12.267  11.155  68.284  1.00  0.00    -0.613 OA 
BRANCH   7   9
HETATM    9  N   UNL     1     -10.243  12.144  68.731  1.00  0.00    -0.381 N  
HETATM   10  H   UNL     1     -10.134  13.065  69.154  1.00  0.00     0.000 HD 
BRANCH   9  11
HETATM   11  S   UNL     1      -9.060  11.626  67.680  1.00  0.00    -0.180 S  
HETATM   12  O   UNL     1      -8.169  12.717  67.360  1.00  0.00    -0.166 OA 
HETATM   13  O   UNL     1      -9.769  10.920  66.631  1.00  0.00    -0.181 OA 
BRANCH  11  14
HETATM   14  C   UNL     1      -8.183  10.413  68.637  1.00  0.00    -0.121 A  
HETATM   15  C   UNL     1      -7.211  10.825  69.552  1.00  0.00    -0.132 A  
HETATM   16  C   UNL     1      -6.485   9.869  70.265  1.00  0.00    -0.103 A  
HETATM   17  C   UNL     1      -6.729   8.503  70.072  1.00  0.00    -0.042 A  
HETATM   18  C   UNL     1      -7.747   8.106  69.194  1.00  0.00    -0.098 A  
HETATM   19  C   UNL     1      -5.910   7.466  70.783  1.00  0.00    -0.031 C  
HETATM   20  C   UNL     1      -8.480   9.056  68.482  1.00  0.00    -0.128 A  
ENDBRANCH  11  14
ENDBRANCH   9  11
ENDBRANCH   7   9
ENDBRANCH   5   7
ENDBRANCH   4   5
ENDBRANCH   3   4
ENDBRANCH   2   3
TORSDOF 7
ENDMDL
MODEL      252
REMARK 921   NORMALIZED FREE ENERGY PREDICTED BY IDOCK:   -2.95 KCAL/MOL
REMARK 922        TOTAL FREE ENERGY PREDICTED BY IDOCK:   -4.78 KCAL/MOL
REMARK 923 INTER-LIGAND FREE ENERGY PREDICTED BY IDOCK:   -4.39 KCAL/MOL
REMARK 924 INTRA-LIGAND FREE ENERGY PREDICTED BY IDOCK:   -0.38 KCAL/MOL
REMARK 927      BINDING AFFINITY PREDICTED BY RF-SCORE:    0.00 PKD
ROOT
HETATM    1  C   UNL     1      -8.289   8.032  64.447  1.00  0.00    -0.026 C  
HETATM    2  C   UNL     1      -7.598   9.385  64.525  1.00  0.00    -0.110 C  
ENDROOT
BRANCH   2   3
HETATM    3  C   UNL     1      -8.462  10.495  63.921  1.00  0.00    -0.120 C  
BRANCH   3   4
HETATM    4  C   UNL     1      -9.922  10.404  64.366  1.00  0.00    -0.318 C  
BRANCH   4   5
HETATM    5  N   UNL     1     -10.592  11.690  64.366  1.00  0.00    -0.300 N  
HETATM    6  H   UNL     1     -11.093  11.995  63.531  1.00  0.00     0.000 HD 
BRANCH   5   7
HETATM    7  C   UNL     1     -10.563  12.500  65.466  1.00  0.00    -0.275 C  
HETATM    8  O   UNL     1     -10.425  13.712  65.399  1.00  0.00    -0.299 OA 
BRANCH   7   9
HETATM    9  N   UNL     1     -10.731  11.814  66.654  1.00  0.00    -0.251 N  
HETATM   10  H   UNL     1     -11.468  11.109  66.698  1.00  0.00     0.000 HD 
BRANCH   9  11
HETATM   11  S   UNL     1      -9.810  12.061  68.019  1.00  0.00    -0.204 S  
HETATM   12  O   UNL     1      -8.601  12.775  67.679  1.00  0.00    -0.158 OA 
HETATM   13  O   UNL     1      -9.744  10.766  68.670  1.00  0.00    -0.171 OA 
BRANCH  11  14
HETATM   14  C   UNL     1     -10.848  13.104  69.015  1.00  0.00    -0.161 A  
HETATM   15  C   UNL     1     -11.910  12.543  69.727  1.00  0.00    -0.380 A  
HETATM   16  C   UNL     1     -12.757  13.369  70.468  1.00  0.00    -0.194 A  
HETATM   17  C   UNL     1     -12.545  14.754  70.504  1.00  0.00    -0.416 A  
HETATM   18  C   UNL     1     -11.441  15.296  69.830  1.00  0.00    -0.332 A  
HETATM   19  C   UNL     1     -13.487  15.659  71.241  1.00  0.00    -0.439 C  
HETATM   20  C   UNL     1     -10.587  14.474  69.092  1.00  0.00    -0.242 A  
ENDBRANCH  11  14
ENDBRANCH   9  11
ENDBRANCH   7   9
ENDBRANCH   5   7
ENDBRANCH   4   5
ENDBRANCH   3   4
ENDBRANCH   2   3
TORSDOF 7
ENDMDL
MODEL      253
REMARK 921   NORMALIZED FREE ENERGY PREDICTED BY IDOCK:   -2.94 KCAL/MOL
REMARK 922        TOTAL FREE ENERGY PREDICTED BY IDOCK:   -4.77 KCAL/MOL
REMARK 923 INTER-LIGAND FREE ENERGY PREDICTED BY IDOCK:   -4.18 KCAL/MOL
REMARK 924 INTRA-LIGAND FREE ENERGY PREDICTED BY IDOCK:   -0.59 KCAL/MOL
REMARK 927      BINDING AFFINITY PREDICTED BY RF-SCORE:    0.00 PKD
ROOT
HETATM    1  C   UNL     1      -6.328   5.472  68.912  1.00  0.00    -0.038 C  
HETATM    2  C   UNL     1      -6.445   5.980  70.341  1.00  0.00    -0.043 C  
ENDROOT
BRANCH   2   3
HETATM    3  C   UNL     1      -5.928   7.414  70.474  1.00  0.00    -0.031 C  
BRANCH   3   4
HETATM    4  C   UNL     1      -6.854   8.290  71.320  1.00  0.00    -0.059 C  
BRANCH   4   5
HETATM    5  N   UNL     1      -7.716   7.517  72.194  1.00  0.00    -0.087 N  
HETATM    6  H   UNL     1      -7.461   6.558  72.431  1.00  0.00     0.000 HD 
BRANCH   5   7
HETATM    7  C   UNL     1      -8.865   8.052  72.705  1.00  0.00    -0.203 C  
HETATM    8  O   UNL     1      -9.245   7.849  73.847  1.00  0.00    -0.267 OA 
BRANCH   7   9
HETATM    9  N   UNL     1      -9.535   8.862  71.807  1.00  0.00    -0.289 N  
HETATM   10  H   UNL     1      -9.222   9.828  71.709  1.00  0.00     0.000 HD 
BRANCH   9  11
HETATM   11  S   UNL     1     -10.821   8.365  70.874  1.00  0.00    -0.238 S  
HETATM   12  O   UNL     1     -11.968   8.098  71.711  1.00  0.00    -0.276 OA 
HETATM   13  O   UNL     1     -10.284   7.332  70.009  1.00  0.00    -0.195 OA 
BRANCH  11  14
HETATM   14  C   UNL     1     -11.151   9.787  69.861  1.00  0.00    -0.254 A  
HETATM   15  C   UNL     1     -10.776   9.779  68.515  1.00  0.00    -0.252 A  
HETATM   16  C   UNL     1     -10.987  10.916  67.733  1.00  0.00    -0.339 A  
HETATM   17  C   UNL     1     -11.576  12.060  68.288  1.00  0.00    -0.394 A  
HETATM   18  C   UNL     1     -12.000  12.033  69.625  1.00  0.00    -0.360 A  
HETATM   19  C   UNL     1     -11.748  13.310  67.476  1.00  0.00    -0.410 C  
HETATM   20  C   UNL     1     -11.796  10.898  70.410  1.00  0.00    -0.449 A  
ENDBRANCH  11  14
ENDBRANCH   9  11
ENDBRANCH   7   9
ENDBRANCH   5   7
ENDBRANCH   4   5
ENDBRANCH   3   4
ENDBRANCH   2   3
TORSDOF 7
ENDMDL
MODEL      254
REMARK 921   NORMALIZED FREE ENERGY PREDICTED BY IDOCK:   -2.92 KCAL/MOL
REMARK 922        TOTAL FREE ENERGY PREDICTED BY IDOCK:   -4.74 KCAL/MOL
REMARK 923 INTER-LIGAND FREE ENERGY PREDICTED BY IDOCK:   -4.33 KCAL/MOL
REMARK 924 INTRA-LIGAND FREE ENERGY PREDICTED BY IDOCK:   -0.41 KCAL/MOL
REMARK 927      BINDING AFFINITY PREDICTED BY RF-SCORE:    0.00 PKD
ROOT
HETATM    1  C   UNL     1     -11.640  10.688  69.011  1.00  0.00    -0.332 C  
HETATM    2  C   UNL     1     -10.559   9.789  68.431  1.00  0.00    -0.264 C  
ENDROOT
BRANCH   2   3
HETATM    3  C   UNL     1     -10.367  10.031  66.932  1.00  0.00    -0.297 C  
BRANCH   3   4
HETATM    4  C   UNL     1      -8.997  10.630  66.610  1.00  0.00    -0.150 C  
BRANCH   4   5
HETATM    5  N   UNL     1      -8.798  11.934  67.212  1.00  0.00    -0.172 N  
HETATM    6  H   UNL     1      -9.591  12.421  67.629  1.00  0.00     0.000 HD 
BRANCH   5   7
HETATM    7  C   UNL     1      -7.563  12.521  67.230  1.00  0.00    -0.131 C  
HETATM    8  O   UNL     1      -6.528  11.893  67.389  1.00  0.00    -0.097 OA 
BRANCH   7   9
HETATM    9  N   UNL     1      -7.607  13.888  67.028  1.00  0.00    -0.321 N  
HETATM   10  H   UNL     1      -7.996  14.228  66.149  1.00  0.00     0.000 HD 
BRANCH   9  11
HETATM   11  S   UNL     1      -7.065  15.016  68.126  1.00  0.00    -0.134 S  
HETATM   12  O   UNL     1      -5.687  15.355  67.851  1.00  0.00    -0.130 OA 
HETATM   13  O   UNL     1      -7.451  14.496  69.424  1.00  0.00    -0.135 OA 
BRANCH  11  14
HETATM   14  C   UNL     1      -8.095  16.424  67.790  1.00  0.00    -0.157 A  
HETATM   15  C   UNL     1      -8.113  16.976  66.506  1.00  0.00    -0.320 A  
HETATM   16  C   UNL     1      -8.882  18.114  66.255  1.00  0.00    -0.196 A  
HETATM   17  C   UNL     1      -9.636  18.701  67.280  1.00  0.00    -0.316 A  
HETATM   18  C   UNL     1      -9.653  18.103  68.548  1.00  0.00    -0.349 A  
HETATM   19  C   UNL     1     -10.413  19.962  67.039  1.00  0.00    -0.570 C  
HETATM   20  C   UNL     1      -8.891  16.962  68.804  1.00  0.00    -0.255 A  
ENDBRANCH  11  14
ENDBRANCH   9  11
ENDBRANCH   7   9
ENDBRANCH   5   7
ENDBRANCH   4   5
ENDBRANCH   3   4
ENDBRANCH   2   3
TORSDOF 7
ENDMDL
MODEL      255
REMARK 921   NORMALIZED FREE ENERGY PREDICTED BY IDOCK:   -2.89 KCAL/MOL
REMARK 922        TOTAL FREE ENERGY PREDICTED BY IDOCK:   -4.69 KCAL/MOL
REMARK 923 INTER-LIGAND FREE ENERGY PREDICTED BY IDOCK:   -4.34 KCAL/MOL
REMARK 924 INTRA-LIGAND FREE ENERGY PREDICTED BY IDOCK:   -0.35 KCAL/MOL
REMARK 927      BINDING AFFINITY PREDICTED BY RF-SCORE:    0.00 PKD
ROOT
HETATM    1  C   UNL     1     -13.015  13.748  65.631  1.00  0.00    -0.346 C  
HETATM    2  C   UNL     1     -11.844  13.584  64.675  1.00  0.00    -0.428 C  
ENDROOT
BRANCH   2   3
HETATM    3  C   UNL     1     -10.505  13.584  65.416  1.00  0.00    -0.322 C  
BRANCH   3   4
HETATM    4  C   UNL     1      -9.792  12.234  65.328  1.00  0.00    -0.180 C  
BRANCH   4   5
HETATM    5  N   UNL     1     -10.452  11.198  66.099  1.00  0.00    -0.250 N  
HETATM    6  H   UNL     1     -11.182  11.455  66.764  1.00  0.00     0.000 HD 
BRANCH   5   7
HETATM    7  C   UNL     1     -10.111   9.883  65.950  1.00  0.00    -0.245 C  
HETATM    8  O   UNL     1      -9.581   9.441  64.943  1.00  0.00    -0.191 OA 
BRANCH   7   9
HETATM    9  N   UNL     1     -10.404   9.114  67.061  1.00  0.00    -0.264 N  
HETATM   10  H   UNL     1     -11.234   9.357  67.603  1.00  0.00     0.000 HD 
BRANCH   9  11
HETATM   11  S   UNL     1      -9.494   7.817  67.572  1.00  0.00    -0.146 S  
HETATM   12  O   UNL     1      -8.086   8.120  67.448  1.00  0.00    -0.118 OA 
HETATM   13  O   UNL     1     -10.063   6.666  66.898  1.00  0.00    -0.170 OA 
BRANCH  11  14
HETATM   14  C   UNL     1      -9.917   7.688  69.293  1.00  0.00    -0.180 A  
HETATM   15  C   UNL     1     -10.231   6.440  69.836  1.00  0.00    -0.224 A  
HETATM   16  C   UNL     1     -10.615   6.346  71.175  1.00  0.00    -0.282 A  
HETATM   17  C   UNL     1     -10.682   7.494  71.976  1.00  0.00    -0.264 A  
HETATM   18  C   UNL     1     -10.309   8.732  71.433  1.00  0.00    -0.348 A  
HETATM   19  C   UNL     1     -11.157   7.414  73.397  1.00  0.00    -0.181 C  
HETATM   20  C   UNL     1      -9.919   8.831  70.097  1.00  0.00    -0.201 A  
ENDBRANCH  11  14
ENDBRANCH   9  11
ENDBRANCH   7   9
ENDBRANCH   5   7
ENDBRANCH   4   5
ENDBRANCH   3   4
ENDBRANCH   2   3
TORSDOF 7
ENDMDL
MODEL      256
REMARK 921   NORMALIZED FREE ENERGY PREDICTED BY IDOCK:   -2.89 KCAL/MOL
REMARK 922        TOTAL FREE ENERGY PREDICTED BY IDOCK:   -4.69 KCAL/MOL
REMARK 923 INTER-LIGAND FREE ENERGY PREDICTED BY IDOCK:   -4.18 KCAL/MOL
REMARK 924 INTRA-LIGAND FREE ENERGY PREDICTED BY IDOCK:   -0.51 KCAL/MOL
REMARK 927      BINDING AFFINITY PREDICTED BY RF-SCORE:    0.00 PKD
ROOT
HETATM    1  C   UNL     1     -10.812   8.056  69.895  1.00  0.00    -0.217 C  
HETATM    2  C   UNL     1      -9.978   9.220  69.383  1.00  0.00    -0.184 C  
ENDROOT
BRANCH   2   3
HETATM    3  C   UNL     1     -10.853  10.317  68.772  1.00  0.00    -0.265 C  
BRANCH   3   4
HETATM    4  C   UNL     1     -10.969  10.190  67.253  1.00  0.00    -0.183 C  
BRANCH   4   5
HETATM    5  N   UNL     1     -10.291  11.258  66.545  1.00  0.00    -0.232 N  
HETATM    6  H   UNL     1     -10.840  11.983  66.083  1.00  0.00     0.000 HD 
BRANCH   5   7
HETATM    7  C   UNL     1      -8.926  11.309  66.486  1.00  0.00    -0.184 C  
HETATM    8  O   UNL     1      -8.221  10.312  66.466  1.00  0.00    -0.122 OA 
BRANCH   7   9
HETATM    9  N   UNL     1      -8.431  12.599  66.429  1.00  0.00    -0.402 N  
HETATM   10  H   UNL     1      -8.656  13.160  65.607  1.00  0.00     0.000 HD 
BRANCH   9  11
HETATM   11  S   UNL     1      -7.490  13.297  67.612  1.00  0.00    -0.174 S  
HETATM   12  O   UNL     1      -6.134  13.452  67.141  1.00  0.00    -0.274 OA 
HETATM   13  O   UNL     1      -7.771  12.536  68.815  1.00  0.00    -0.092 OA 
BRANCH  11  14
HETATM   14  C   UNL     1      -8.230  14.899  67.813  1.00  0.00    -0.156 A  
HETATM   15  C   UNL     1      -9.079  15.138  68.897  1.00  0.00    -0.206 A  
HETATM   16  C   UNL     1      -9.701  16.381  69.026  1.00  0.00    -0.262 A  
HETATM   17  C   UNL     1      -9.476  17.389  68.079  1.00  0.00    -0.281 A  
HETATM   18  C   UNL     1      -8.577  17.155  67.028  1.00  0.00    -0.239 A  
HETATM   19  C   UNL     1     -10.191  18.705  68.170  1.00  0.00    -0.423 C  
HETATM   20  C   UNL     1      -7.948  15.916  66.897  1.00  0.00    -0.287 A  
ENDBRANCH  11  14
ENDBRANCH   9  11
ENDBRANCH   7   9
ENDBRANCH   5   7
ENDBRANCH   4   5
ENDBRANCH   3   4
ENDBRANCH   2   3
TORSDOF 7
ENDMDL
MODEL      257
REMARK 921   NORMALIZED FREE ENERGY PREDICTED BY IDOCK:   -2.88 KCAL/MOL
REMARK 922        TOTAL FREE ENERGY PREDICTED BY IDOCK:   -4.69 KCAL/MOL
REMARK 923 INTER-LIGAND FREE ENERGY PREDICTED BY IDOCK:   -3.38 KCAL/MOL
REMARK 924 INTRA-LIGAND FREE ENERGY PREDICTED BY IDOCK:   -1.31 KCAL/MOL
REMARK 927      BINDING AFFINITY PREDICTED BY RF-SCORE:    0.00 PKD
ROOT
HETATM    1  C   UNL     1     -11.989  12.112  70.235  1.00  0.00    -0.389 C  
HETATM    2  C   UNL     1     -12.609  10.726  70.168  1.00  0.00    -0.309 C  
ENDROOT
BRANCH   2   3
HETATM    3  C   UNL     1     -11.680   9.723  69.480  1.00  0.00     0.106 C  
BRANCH   3   4
HETATM    4  C   UNL     1     -11.156   8.658  70.444  1.00  0.00    -0.230 C  
BRANCH   4   5
HETATM    5  N   UNL     1      -9.735   8.785  70.704  1.00  0.00    -0.184 N  
HETATM    6  H   UNL     1      -9.403   9.509  71.341  1.00  0.00     0.000 HD 
BRANCH   5   7
HETATM    7  C   UNL     1      -8.832   7.949  70.108  1.00  0.00    -0.144 C  
HETATM    8  O   UNL     1      -8.343   6.983  70.674  1.00  0.00    -0.124 OA 
BRANCH   7   9
HETATM    9  N   UNL     1      -8.550   8.294  68.800  1.00  0.00    -0.132 N  
HETATM   10  H   UNL     1      -8.952   7.720  68.058  1.00  0.00     0.000 HD 
BRANCH   9  11
HETATM   11  S   UNL     1      -7.596   9.584  68.354  1.00  0.00    -0.081 S  
HETATM   12  O   UNL     1      -6.578   9.151  67.426  1.00  0.00    -0.063 OA 
HETATM   13  O   UNL     1      -7.232  10.232  69.600  1.00  0.00    -0.105 OA 
BRANCH  11  14
HETATM   14  C   UNL     1      -8.741  10.652  67.515  1.00  0.00    -0.125 A  
HETATM   15  C   UNL     1      -8.806  12.004  67.861  1.00  0.00    -0.174 A  
HETATM   16  C   UNL     1      -9.742  12.832  67.238  1.00  0.00    -0.206 A  
HETATM   17  C   UNL     1     -10.610  12.316  66.267  1.00  0.00    -0.282 A  
HETATM   18  C   UNL     1     -10.495  10.971  65.888  1.00  0.00    -0.300 A  
HETATM   19  C   UNL     1     -11.664  13.180  65.639  1.00  0.00    -0.402 C  
HETATM   20  C   UNL     1      -9.557  10.140  66.503  1.00  0.00    -0.236 A  
ENDBRANCH  11  14
ENDBRANCH   9  11
ENDBRANCH   7   9
ENDBRANCH   5   7
ENDBRANCH   4   5
ENDBRANCH   3   4
ENDBRANCH   2   3
TORSDOF 7
ENDMDL
MODEL      258
REMARK 921   NORMALIZED FREE ENERGY PREDICTED BY IDOCK:   -2.87 KCAL/MOL
REMARK 922        TOTAL FREE ENERGY PREDICTED BY IDOCK:   -4.66 KCAL/MOL
REMARK 923 INTER-LIGAND FREE ENERGY PREDICTED BY IDOCK:   -4.28 KCAL/MOL
REMARK 924 INTRA-LIGAND FREE ENERGY PREDICTED BY IDOCK:   -0.39 KCAL/MOL
REMARK 927      BINDING AFFINITY PREDICTED BY RF-SCORE:    0.00 PKD
ROOT
HETATM    1  C   UNL     1     -12.035  12.745  68.854  1.00  0.00    -0.286 C  
HETATM    2  C   UNL     1     -11.585  11.500  69.602  1.00  0.00    -0.403 C  
ENDROOT
BRANCH   2   3
HETATM    3  C   UNL     1     -10.377  10.842  68.929  1.00  0.00    -0.222 C  
BRANCH   3   4
HETATM    4  C   UNL     1     -10.763  10.075  67.663  1.00  0.00    -0.284 C  
BRANCH   4   5
HETATM    5  N   UNL     1     -11.138   8.700  67.931  1.00  0.00    -0.408 N  
HETATM    6  H   UNL     1     -11.812   8.498  68.671  1.00  0.00     0.000 HD 
BRANCH   5   7
HETATM    7  C   UNL     1     -10.605   7.670  67.208  1.00  0.00    -0.318 C  
HETATM    8  O   UNL     1     -11.262   6.717  66.819  1.00  0.00    -0.312 OA 
BRANCH   7   9
HETATM    9  N   UNL     1      -9.257   7.829  66.945  1.00  0.00    -0.144 N  
HETATM   10  H   UNL     1      -8.990   8.200  66.033  1.00  0.00     0.000 HD 
BRANCH   9  11
HETATM   11  S   UNL     1      -8.040   7.456  68.019  1.00  0.00    -0.124 S  
HETATM   12  O   UNL     1      -7.333   8.656  68.404  1.00  0.00    -0.083 OA 
HETATM   13  O   UNL     1      -7.332   6.344  67.416  1.00  0.00    -0.083 OA 
BRANCH  11  14
HETATM   14  C   UNL     1      -8.929   6.823  69.420  1.00  0.00    -0.137 A  
HETATM   15  C   UNL     1      -9.333   5.485  69.436  1.00  0.00    -0.154 A  
HETATM   16  C   UNL     1     -10.077   5.001  70.514  1.00  0.00    -0.323 A  
HETATM   17  C   UNL     1     -10.415   5.846  71.579  1.00  0.00    -0.287 A  
HETATM   18  C   UNL     1      -9.954   7.170  71.577  1.00  0.00    -0.190 A  
HETATM   19  C   UNL     1     -11.270   5.355  72.710  1.00  0.00    -0.358 C  
HETATM   20  C   UNL     1      -9.205   7.658  70.505  1.00  0.00    -0.159 A  
ENDBRANCH  11  14
ENDBRANCH   9  11
ENDBRANCH   7   9
ENDBRANCH   5   7
ENDBRANCH   4   5
ENDBRANCH   3   4
ENDBRANCH   2   3
TORSDOF 7
ENDMDL
MODEL      259
REMARK 921   NORMALIZED FREE ENERGY PREDICTED BY IDOCK:   -2.86 KCAL/MOL
REMARK 922        TOTAL FREE ENERGY PREDICTED BY IDOCK:   -4.65 KCAL/MOL
REMARK 923 INTER-LIGAND FREE ENERGY PREDICTED BY IDOCK:   -4.37 KCAL/MOL
REMARK 924 INTRA-LIGAND FREE ENERGY PREDICTED BY IDOCK:   -0.28 KCAL/MOL
REMARK 927      BINDING AFFINITY PREDICTED BY RF-SCORE:    0.00 PKD
ROOT
HETATM    1  C   UNL     1      -5.211  18.862  64.654  1.00  0.00    -0.236 C  
HETATM    2  C   UNL     1      -6.492  19.123  65.430  1.00  0.00    -0.313 C  
ENDROOT
BRANCH   2   3
HETATM    3  C   UNL     1      -6.251  19.103  66.942  1.00  0.00    -0.185 C  
BRANCH   3   4
HETATM    4  C   UNL     1      -5.700  17.761  67.425  1.00  0.00    -0.147 C  
BRANCH   4   5
HETATM    5  N   UNL     1      -6.568  17.109  68.386  1.00  0.00    -0.159 N  
HETATM    6  H   UNL     1      -6.249  16.982  69.347  1.00  0.00     0.000 HD 
BRANCH   5   7
HETATM    7  C   UNL     1      -7.809  16.663  68.026  1.00  0.00    -0.170 C  
HETATM    8  O   UNL     1      -8.073  16.258  66.904  1.00  0.00    -0.186 OA 
BRANCH   7   9
HETATM    9  N   UNL     1      -8.723  16.694  69.064  1.00  0.00    -0.231 N  
HETATM   10  H   UNL     1      -8.361  16.772  70.014  1.00  0.00     0.000 HD 
BRANCH   9  11
HETATM   11  S   UNL     1     -10.373  16.611  68.863  1.00  0.00    -0.319 S  
HETATM   12  O   UNL     1     -10.798  17.550  67.850  1.00  0.00    -0.374 OA 
HETATM   13  O   UNL     1     -10.920  16.676  70.205  1.00  0.00    -0.321 OA 
BRANCH  11  14
HETATM   14  C   UNL     1     -10.619  14.955  68.269  1.00  0.00    -0.240 A  
HETATM   15  C   UNL     1     -11.420  14.735  67.146  1.00  0.00    -0.375 A  
HETATM   16  C   UNL     1     -11.655  13.430  66.710  1.00  0.00    -0.404 A  
HETATM   17  C   UNL     1     -11.090  12.342  67.389  1.00  0.00    -0.320 A  
HETATM   18  C   UNL     1     -10.242  12.581  68.481  1.00  0.00    -0.210 A  
HETATM   19  C   UNL     1     -11.390  10.933  66.972  1.00  0.00    -0.105 C  
HETATM   20  C   UNL     1      -9.998  13.884  68.917  1.00  0.00    -0.077 A  
ENDBRANCH  11  14
ENDBRANCH   9  11
ENDBRANCH   7   9
ENDBRANCH   5   7
ENDBRANCH   4   5
ENDBRANCH   3   4
ENDBRANCH   2   3
TORSDOF 7
ENDMDL
MODEL      260
REMARK 921   NORMALIZED FREE ENERGY PREDICTED BY IDOCK:   -2.86 KCAL/MOL
REMARK 922        TOTAL FREE ENERGY PREDICTED BY IDOCK:   -4.65 KCAL/MOL
REMARK 923 INTER-LIGAND FREE ENERGY PREDICTED BY IDOCK:   -4.33 KCAL/MOL
REMARK 924 INTRA-LIGAND FREE ENERGY PREDICTED BY IDOCK:   -0.32 KCAL/MOL
REMARK 927      BINDING AFFINITY PREDICTED BY RF-SCORE:    0.00 PKD
ROOT
HETATM    1  C   UNL     1     -13.993   8.861  72.253  1.00  0.00    -0.531 C  
HETATM    2  C   UNL     1     -12.481   8.960  72.129  1.00  0.00    -0.459 C  
ENDROOT
BRANCH   2   3
HETATM    3  C   UNL     1     -12.062  10.143  71.252  1.00  0.00    -0.489 C  
BRANCH   3   4
HETATM    4  C   UNL     1     -10.770   9.868  70.483  1.00  0.00    -0.317 C  
BRANCH   4   5
HETATM    5  N   UNL     1     -10.445  10.916  69.536  1.00  0.00    -0.398 N  
HETATM    6  H   UNL     1     -10.069  11.802  69.876  1.00  0.00     0.000 HD 
BRANCH   5   7
HETATM    7  C   UNL     1     -10.633  10.738  68.193  1.00  0.00    -0.203 C  
HETATM    8  O   UNL     1     -11.681  11.003  67.626  1.00  0.00    -0.576 OA 
BRANCH   7   9
HETATM    9  N   UNL     1      -9.513  10.251  67.545  1.00  0.00    -0.151 N  
HETATM   10  H   UNL     1      -8.641  10.770  67.646  1.00  0.00     0.000 HD 
BRANCH   9  11
HETATM   11  S   UNL     1      -9.494   8.873  66.611  1.00  0.00    -0.222 S  
HETATM   12  O   UNL     1      -9.085   9.193  65.263  1.00  0.00    -0.209 OA 
HETATM   13  O   UNL     1     -10.769   8.229  66.862  1.00  0.00    -0.299 OA 
BRANCH  11  14
HETATM   14  C   UNL     1      -8.239   7.884  67.387  1.00  0.00    -0.123 A  
HETATM   15  C   UNL     1      -6.894   8.119  67.091  1.00  0.00    -0.070 A  
HETATM   16  C   UNL     1      -5.910   7.308  67.661  1.00  0.00    -0.030 A  
HETATM   17  C   UNL     1      -6.264   6.266  68.528  1.00  0.00    -0.032 A  
HETATM   18  C   UNL     1      -7.613   6.078  68.860  1.00  0.00    -0.091 A  
HETATM   19  C   UNL     1      -5.221   5.346  69.093  1.00  0.00     0.000 C  
HETATM   20  C   UNL     1      -8.601   6.889  68.299  1.00  0.00    -0.125 A  
ENDBRANCH  11  14
ENDBRANCH   9  11
ENDBRANCH   7   9
ENDBRANCH   5   7
ENDBRANCH   4   5
ENDBRANCH   3   4
ENDBRANCH   2   3
TORSDOF 7
ENDMDL
MODEL      261
REMARK 921   NORMALIZED FREE ENERGY PREDICTED BY IDOCK:   -2.85 KCAL/MOL
REMARK 922        TOTAL FREE ENERGY PREDICTED BY IDOCK:   -4.64 KCAL/MOL
REMARK 923 INTER-LIGAND FREE ENERGY PREDICTED BY IDOCK:   -4.17 KCAL/MOL
REMARK 924 INTRA-LIGAND FREE ENERGY PREDICTED BY IDOCK:   -0.47 KCAL/MOL
REMARK 927      BINDING AFFINITY PREDICTED BY RF-SCORE:    0.00 PKD
ROOT
HETATM    1  C   UNL     1      -9.152   4.934  67.513  1.00  0.00    -0.127 C  
HETATM    2  C   UNL     1      -8.942   3.526  68.045  1.00  0.00    -0.174 C  
ENDROOT
BRANCH   2   3
HETATM    3  C   UNL     1      -8.199   3.532  69.383  1.00  0.00    -0.069 C  
BRANCH   3   4
HETATM    4  C   UNL     1      -7.652   4.915  69.738  1.00  0.00    -0.056 C  
BRANCH   4   5
HETATM    5  N   UNL     1      -7.130   4.984  71.089  1.00  0.00    -0.051 N  
HETATM    6  H   UNL     1      -6.127   4.884  71.247  1.00  0.00     0.000 HD 
BRANCH   5   7
HETATM    7  C   UNL     1      -7.962   5.181  72.157  1.00  0.00    -0.112 C  
HETATM    8  O   UNL     1      -8.041   4.402  73.094  1.00  0.00    -0.093 OA 
BRANCH   7   9
HETATM    9  N   UNL     1      -8.681   6.359  72.078  1.00  0.00    -0.134 N  
HETATM   10  H   UNL     1      -8.267   7.137  71.563  1.00  0.00     0.000 HD 
BRANCH   9  11
HETATM   11  S   UNL     1     -10.179   6.592  72.766  1.00  0.00    -0.195 S  
HETATM   12  O   UNL     1     -10.039   6.859  74.179  1.00  0.00    -0.331 OA 
HETATM   13  O   UNL     1     -10.985   5.480  72.302  1.00  0.00    -0.233 OA 
BRANCH  11  14
HETATM   14  C   UNL     1     -10.769   8.054  71.948  1.00  0.00    -0.251 A  
HETATM   15  C   UNL     1     -10.027   8.607  70.901  1.00  0.00    -0.257 A  
HETATM   16  C   UNL     1     -10.464   9.786  70.293  1.00  0.00    -0.345 A  
HETATM   17  C   UNL     1     -11.642  10.412  70.722  1.00  0.00    -0.450 A  
HETATM   18  C   UNL     1     -12.406   9.814  71.735  1.00  0.00    -0.470 A  
HETATM   19  C   UNL     1     -12.086  11.713  70.122  1.00  0.00    -0.414 C  
HETATM   20  C   UNL     1     -11.977   8.633  72.343  1.00  0.00    -0.410 A  
ENDBRANCH  11  14
ENDBRANCH   9  11
ENDBRANCH   7   9
ENDBRANCH   5   7
ENDBRANCH   4   5
ENDBRANCH   3   4
ENDBRANCH   2   3
TORSDOF 7
ENDMDL
MODEL      262
REMARK 921   NORMALIZED FREE ENERGY PREDICTED BY IDOCK:   -2.83 KCAL/MOL
REMARK 922        TOTAL FREE ENERGY PREDICTED BY IDOCK:   -4.61 KCAL/MOL
REMARK 923 INTER-LIGAND FREE ENERGY PREDICTED BY IDOCK:   -3.89 KCAL/MOL
REMARK 924 INTRA-LIGAND FREE ENERGY PREDICTED BY IDOCK:   -0.72 KCAL/MOL
REMARK 927      BINDING AFFINITY PREDICTED BY RF-SCORE:    0.00 PKD
ROOT
HETATM    1  C   UNL     1      -8.144   2.315  71.495  1.00  0.00    -0.054 C  
HETATM    2  C   UNL     1      -9.190   3.126  72.243  1.00  0.00    -0.157 C  
ENDROOT
BRANCH   2   3
HETATM    3  C   UNL     1      -9.255   4.569  71.739  1.00  0.00    -0.179 C  
BRANCH   3   4
HETATM    4  C   UNL     1     -10.610   4.909  71.117  1.00  0.00    -0.026 C  
BRANCH   4   5
HETATM    5  N   UNL     1     -10.526   5.169  69.693  1.00  0.00    -0.257 N  
HETATM    6  H   UNL     1     -10.342   4.398  69.051  1.00  0.00     0.000 HD 
BRANCH   5   7
HETATM    7  C   UNL     1     -10.690   6.432  69.196  1.00  0.00    -0.284 C  
HETATM    8  O   UNL     1     -10.025   6.878  68.275  1.00  0.00    -0.145 OA 
BRANCH   7   9
HETATM    9  N   UNL     1     -11.697   7.140  69.826  1.00  0.00    -0.548 N  
HETATM   10  H   UNL     1     -12.610   6.693  69.915  1.00  0.00     0.000 HD 
BRANCH   9  11
HETATM   11  S   UNL     1     -11.518   8.673  70.450  1.00  0.00    -0.061 S  
HETATM   12  O   UNL     1     -12.660   9.012  71.268  1.00  0.00    -0.318 OA 
HETATM   13  O   UNL     1     -11.149   9.501  69.318  1.00  0.00    -0.190 OA 
BRANCH  11  14
HETATM   14  C   UNL     1     -10.081   8.515  71.483  1.00  0.00    -0.245 A  
HETATM   15  C   UNL     1      -8.839   8.948  71.010  1.00  0.00    -0.285 A  
HETATM   16  C   UNL     1      -7.702   8.776  71.801  1.00  0.00    -0.090 A  
HETATM   17  C   UNL     1      -7.799   8.178  73.065  1.00  0.00    -0.207 A  
HETATM   18  C   UNL     1      -9.060   7.802  73.550  1.00  0.00    -0.342 A  
HETATM   19  C   UNL     1      -6.575   7.928  73.895  1.00  0.00    -0.115 C  
HETATM   20  C   UNL     1     -10.202   7.976  72.766  1.00  0.00    -0.389 A  
ENDBRANCH  11  14
ENDBRANCH   9  11
ENDBRANCH   7   9
ENDBRANCH   5   7
ENDBRANCH   4   5
ENDBRANCH   3   4
ENDBRANCH   2   3
TORSDOF 7
ENDMDL
MODEL      263
REMARK 921   NORMALIZED FREE ENERGY PREDICTED BY IDOCK:   -2.80 KCAL/MOL
REMARK 922        TOTAL FREE ENERGY PREDICTED BY IDOCK:   -4.57 KCAL/MOL
REMARK 923 INTER-LIGAND FREE ENERGY PREDICTED BY IDOCK:   -4.22 KCAL/MOL
REMARK 924 INTRA-LIGAND FREE ENERGY PREDICTED BY IDOCK:   -0.35 KCAL/MOL
REMARK 927      BINDING AFFINITY PREDICTED BY RF-SCORE:    0.00 PKD
ROOT
HETATM    1  C   UNL     1      -7.212   4.740  65.447  1.00  0.00    -0.071 C  
HETATM    2  C   UNL     1      -8.461   5.454  64.954  1.00  0.00    -0.148 C  
ENDROOT
BRANCH   2   3
HETATM    3  C   UNL     1      -8.250   6.967  64.863  1.00  0.00    -0.076 C  
BRANCH   3   4
HETATM    4  C   UNL     1      -8.739   7.699  66.113  1.00  0.00    -0.156 C  
BRANCH   4   5
HETATM    5  N   UNL     1      -9.907   8.521  65.862  1.00  0.00    -0.463 N  
HETATM    6  H   UNL     1     -10.800   8.075  65.649  1.00  0.00     0.000 HD 
BRANCH   5   7
HETATM    7  C   UNL     1      -9.832   9.886  65.907  1.00  0.00    -0.274 C  
HETATM    8  O   UNL     1     -10.022  10.596  64.932  1.00  0.00    -0.271 OA 
BRANCH   7   9
HETATM    9  N   UNL     1      -9.543  10.375  67.167  1.00  0.00    -0.162 N  
HETATM   10  H   UNL     1      -8.602  10.224  67.533  1.00  0.00     0.000 HD 
BRANCH   9  11
HETATM   11  S   UNL     1     -10.628  11.195  68.127  1.00  0.00    -0.208 S  
HETATM   12  O   UNL     1     -10.509  10.755  69.498  1.00  0.00    -0.220 OA 
HETATM   13  O   UNL     1     -11.896  11.099  67.429  1.00  0.00    -0.570 OA 
BRANCH  11  14
HETATM   14  C   UNL     1     -10.078  12.879  68.000  1.00  0.00    -0.235 A  
HETATM   15  C   UNL     1     -10.746  13.880  68.710  1.00  0.00    -0.278 A  
HETATM   16  C   UNL     1     -10.347  15.210  68.569  1.00  0.00    -0.230 A  
HETATM   17  C   UNL     1      -9.279  15.545  67.725  1.00  0.00    -0.179 A  
HETATM   18  C   UNL     1      -8.582  14.524  67.063  1.00  0.00    -0.241 A  
HETATM   19  C   UNL     1      -8.884  16.977  67.514  1.00  0.00    -0.214 C  
HETATM   20  C   UNL     1      -8.973  13.192  67.204  1.00  0.00    -0.228 A  
ENDBRANCH  11  14
ENDBRANCH   9  11
ENDBRANCH   7   9
ENDBRANCH   5   7
ENDBRANCH   4   5
ENDBRANCH   3   4
ENDBRANCH   2   3
TORSDOF 7
ENDMDL
MODEL      264
REMARK 921   NORMALIZED FREE ENERGY PREDICTED BY IDOCK:   -2.80 KCAL/MOL
REMARK 922        TOTAL FREE ENERGY PREDICTED BY IDOCK:   -4.56 KCAL/MOL
REMARK 923 INTER-LIGAND FREE ENERGY PREDICTED BY IDOCK:   -3.83 KCAL/MOL
REMARK 924 INTRA-LIGAND FREE ENERGY PREDICTED BY IDOCK:   -0.73 KCAL/MOL
REMARK 927      BINDING AFFINITY PREDICTED BY RF-SCORE:    0.00 PKD
ROOT
HETATM    1  C   UNL     1     -12.416  13.963  65.895  1.00  0.00    -0.519 C  
HETATM    2  C   UNL     1     -11.899  12.693  66.552  1.00  0.00    -0.463 C  
ENDROOT
BRANCH   2   3
HETATM    3  C   UNL     1     -10.394  12.766  66.819  1.00  0.00    -0.248 C  
BRANCH   3   4
HETATM    4  C   UNL     1     -10.021  12.225  68.200  1.00  0.00    -0.210 C  
BRANCH   4   5
HETATM    5  N   UNL     1      -9.910  10.779  68.226  1.00  0.00    -0.161 N  
HETATM    6  H   UNL     1     -10.695  10.209  67.910  1.00  0.00     0.000 HD 
BRANCH   5   7
HETATM    7  C   UNL     1      -8.770  10.167  68.667  1.00  0.00    -0.128 C  
HETATM    8  O   UNL     1      -7.786  10.783  69.046  1.00  0.00    -0.114 OA 
BRANCH   7   9
HETATM    9  N   UNL     1      -8.854   8.787  68.662  1.00  0.00    -0.137 N  
HETATM   10  H   UNL     1      -7.994   8.256  68.799  1.00  0.00     0.000 HD 
BRANCH   9  11
HETATM   11  S   UNL     1     -10.268   7.935  68.449  1.00  0.00    -0.199 S  
HETATM   12  O   UNL     1     -10.721   8.060  67.082  1.00  0.00    -0.322 OA 
HETATM   13  O   UNL     1     -11.123   8.338  69.549  1.00  0.00    -0.112 OA 
BRANCH  11  14
HETATM   14  C   UNL     1      -9.770   6.257  68.751  1.00  0.00    -0.128 A  
HETATM   15  C   UNL     1     -10.335   5.549  69.816  1.00  0.00    -0.366 A  
HETATM   16  C   UNL     1      -9.905   4.249  70.086  1.00  0.00    -0.271 A  
HETATM   17  C   UNL     1      -8.916   3.649  69.294  1.00  0.00    -0.176 A  
HETATM   18  C   UNL     1      -8.400   4.350  68.194  1.00  0.00    -0.096 A  
HETATM   19  C   UNL     1      -8.399   2.278  69.615  1.00  0.00    -0.075 C  
HETATM   20  C   UNL     1      -8.830   5.649  67.916  1.00  0.00    -0.105 A  
ENDBRANCH  11  14
ENDBRANCH   9  11
ENDBRANCH   7   9
ENDBRANCH   5   7
ENDBRANCH   4   5
ENDBRANCH   3   4
ENDBRANCH   2   3
TORSDOF 7
ENDMDL
MODEL      265
REMARK 921   NORMALIZED FREE ENERGY PREDICTED BY IDOCK:   -2.78 KCAL/MOL
REMARK 922        TOTAL FREE ENERGY PREDICTED BY IDOCK:   -4.54 KCAL/MOL
REMARK 923 INTER-LIGAND FREE ENERGY PREDICTED BY IDOCK:   -4.44 KCAL/MOL
REMARK 924 INTRA-LIGAND FREE ENERGY PREDICTED BY IDOCK:   -0.10 KCAL/MOL
REMARK 927      BINDING AFFINITY PREDICTED BY RF-SCORE:    0.00 PKD
ROOT
HETATM    1  C   UNL     1      -9.107  20.496  67.461  1.00  0.00    -0.413 C  
HETATM    2  C   UNL     1      -9.961  19.465  68.182  1.00  0.00    -0.510 C  
ENDROOT
BRANCH   2   3
HETATM    3  C   UNL     1      -9.667  18.045  67.693  1.00  0.00    -0.291 C  
BRANCH   3   4
HETATM    4  C   UNL     1     -10.844  17.096  67.922  1.00  0.00    -0.294 C  
BRANCH   4   5
HETATM    5  N   UNL     1     -10.439  15.705  67.992  1.00  0.00    -0.257 N  
HETATM    6  H   UNL     1     -10.388  15.242  68.899  1.00  0.00     0.000 HD 
BRANCH   5   7
HETATM    7  C   UNL     1     -10.126  15.004  66.861  1.00  0.00    -0.249 C  
HETATM    8  O   UNL     1      -9.269  15.364  66.068  1.00  0.00    -0.316 OA 
BRANCH   7   9
HETATM    9  N   UNL     1     -10.857  13.839  66.720  1.00  0.00    -0.283 N  
HETATM   10  H   UNL     1     -11.327  13.676  65.829  1.00  0.00     0.000 HD 
BRANCH   9  11
HETATM   11  S   UNL     1     -11.023  12.686  67.910  1.00  0.00    -0.244 S  
HETATM   12  O   UNL     1     -11.952  11.665  67.485  1.00  0.00    -0.622 OA 
HETATM   13  O   UNL     1     -11.255  13.433  69.131  1.00  0.00    -0.255 OA 
BRANCH  11  14
HETATM   14  C   UNL     1      -9.392  11.989  68.016  1.00  0.00    -0.196 A  
HETATM   15  C   UNL     1      -9.165  10.689  67.558  1.00  0.00    -0.151 A  
HETATM   16  C   UNL     1      -7.896  10.122  67.690  1.00  0.00    -0.098 A  
HETATM   17  C   UNL     1      -6.851  10.850  68.273  1.00  0.00    -0.067 A  
HETATM   18  C   UNL     1      -7.079  12.174  68.676  1.00  0.00    -0.103 A  
HETATM   19  C   UNL     1      -5.501  10.228  68.481  1.00  0.00    -0.038 C  
HETATM   20  C   UNL     1      -8.344  12.748  68.542  1.00  0.00    -0.054 A  
ENDBRANCH  11  14
ENDBRANCH   9  11
ENDBRANCH   7   9
ENDBRANCH   5   7
ENDBRANCH   4   5
ENDBRANCH   3   4
ENDBRANCH   2   3
TORSDOF 7
ENDMDL
MODEL      266
REMARK 921   NORMALIZED FREE ENERGY PREDICTED BY IDOCK:   -2.76 KCAL/MOL
REMARK 922        TOTAL FREE ENERGY PREDICTED BY IDOCK:   -4.52 KCAL/MOL
REMARK 923 INTER-LIGAND FREE ENERGY PREDICTED BY IDOCK:   -4.11 KCAL/MOL
REMARK 924 INTRA-LIGAND FREE ENERGY PREDICTED BY IDOCK:   -0.41 KCAL/MOL
REMARK 927      BINDING AFFINITY PREDICTED BY RF-SCORE:    0.00 PKD
ROOT
HETATM    1  C   UNL     1     -10.172   4.849  66.590  1.00  0.00    -0.291 C  
HETATM    2  C   UNL     1      -9.074   4.134  67.362  1.00  0.00    -0.163 C  
ENDROOT
BRANCH   2   3
HETATM    3  C   UNL     1      -8.494   5.017  68.469  1.00  0.00    -0.091 C  
BRANCH   3   4
HETATM    4  C   UNL     1      -8.132   6.416  67.968  1.00  0.00    -0.116 C  
BRANCH   4   5
HETATM    5  N   UNL     1      -7.548   7.250  69.001  1.00  0.00    -0.097 N  
HETATM    6  H   UNL     1      -6.555   7.477  68.961  1.00  0.00     0.000 HD 
BRANCH   5   7
HETATM    7  C   UNL     1      -8.308   7.736  70.028  1.00  0.00    -0.130 C  
HETATM    8  O   UNL     1      -8.279   7.273  71.157  1.00  0.00    -0.106 OA 
BRANCH   7   9
HETATM    9  N   UNL     1      -9.090   8.817  69.663  1.00  0.00    -0.147 N  
HETATM   10  H   UNL     1      -8.630   9.719  69.544  1.00  0.00     0.000 HD 
BRANCH   9  11
HETATM   11  S   UNL     1     -10.733   8.741  69.407  1.00  0.00    -0.114 S  
HETATM   12  O   UNL     1     -11.358   7.929  70.426  1.00  0.00    -0.264 OA 
HETATM   13  O   UNL     1     -10.882   8.408  68.003  1.00  0.00    -0.101 OA 
BRANCH  11  14
HETATM   14  C   UNL     1     -11.244  10.431  69.607  1.00  0.00    -0.277 A  
HETATM   15  C   UNL     1     -10.878  11.382  68.651  1.00  0.00    -0.249 A  
HETATM   16  C   UNL     1     -11.235  12.719  68.836  1.00  0.00    -0.332 A  
HETATM   17  C   UNL     1     -11.960  13.111  69.969  1.00  0.00    -0.391 A  
HETATM   18  C   UNL     1     -12.370  12.136  70.891  1.00  0.00    -0.370 A  
HETATM   19  C   UNL     1     -12.291  14.554  70.211  1.00  0.00    -0.408 C  
HETATM   20  C   UNL     1     -12.021  10.797  70.709  1.00  0.00    -0.464 A  
ENDBRANCH  11  14
ENDBRANCH   9  11
ENDBRANCH   7   9
ENDBRANCH   5   7
ENDBRANCH   4   5
ENDBRANCH   3   4
ENDBRANCH   2   3
TORSDOF 7
ENDMDL
MODEL      267
REMARK 921   NORMALIZED FREE ENERGY PREDICTED BY IDOCK:   -2.75 KCAL/MOL
REMARK 922        TOTAL FREE ENERGY PREDICTED BY IDOCK:   -4.49 KCAL/MOL
REMARK 923 INTER-LIGAND FREE ENERGY PREDICTED BY IDOCK:   -3.91 KCAL/MOL
REMARK 924 INTRA-LIGAND FREE ENERGY PREDICTED BY IDOCK:   -0.59 KCAL/MOL
REMARK 927      BINDING AFFINITY PREDICTED BY RF-SCORE:    0.00 PKD
ROOT
HETATM    1  C   UNL     1      -5.846   1.864  71.624  1.00  0.00    -0.009 C  
HETATM    2  C   UNL     1      -6.207   2.718  72.829  1.00  0.00    -0.009 C  
ENDROOT
BRANCH   2   3
HETATM    3  C   UNL     1      -7.546   3.434  72.635  1.00  0.00    -0.052 C  
BRANCH   3   4
HETATM    4  C   UNL     1      -7.671   4.066  71.248  1.00  0.00    -0.066 C  
BRANCH   4   5
HETATM    5  N   UNL     1      -7.906   5.496  71.301  1.00  0.00    -0.107 N  
HETATM    6  H   UNL     1      -7.654   6.016  72.142  1.00  0.00     0.000 HD 
BRANCH   5   7
HETATM    7  C   UNL     1      -8.460   6.159  70.242  1.00  0.00    -0.126 C  
HETATM    8  O   UNL     1      -9.339   5.682  69.542  1.00  0.00    -0.129 OA 
BRANCH   7   9
HETATM    9  N   UNL     1      -7.942   7.428  70.061  1.00  0.00    -0.117 N  
HETATM   10  H   UNL     1      -7.456   7.625  69.186  1.00  0.00     0.000 HD 
BRANCH   9  11
HETATM   11  S   UNL     1      -8.058   8.657  71.179  1.00  0.00    -0.158 S  
HETATM   12  O   UNL     1      -7.605   9.900  70.599  1.00  0.00    -0.288 OA 
HETATM   13  O   UNL     1      -7.438   8.134  72.381  1.00  0.00    -0.102 OA 
BRANCH  11  14
HETATM   14  C   UNL     1      -9.806   8.753  71.482  1.00  0.00    -0.301 A  
HETATM   15  C   UNL     1     -10.374   7.984  72.501  1.00  0.00    -0.374 A  
HETATM   16  C   UNL     1     -11.755   8.020  72.706  1.00  0.00    -0.352 A  
HETATM   17  C   UNL     1     -12.570   8.825  71.899  1.00  0.00    -0.428 A  
HETATM   18  C   UNL     1     -11.980   9.634  70.918  1.00  0.00    -0.391 A  
HETATM   19  C   UNL     1     -14.062   8.820  72.065  1.00  0.00    -0.508 C  
HETATM   20  C   UNL     1     -10.600   9.607  70.713  1.00  0.00    -0.392 A  
ENDBRANCH  11  14
ENDBRANCH   9  11
ENDBRANCH   7   9
ENDBRANCH   5   7
ENDBRANCH   4   5
ENDBRANCH   3   4
ENDBRANCH   2   3
TORSDOF 7
ENDMDL
MODEL      268
REMARK 921   NORMALIZED FREE ENERGY PREDICTED BY IDOCK:   -2.73 KCAL/MOL
REMARK 922        TOTAL FREE ENERGY PREDICTED BY IDOCK:   -4.48 KCAL/MOL
REMARK 923 INTER-LIGAND FREE ENERGY PREDICTED BY IDOCK:   -3.92 KCAL/MOL
REMARK 924 INTRA-LIGAND FREE ENERGY PREDICTED BY IDOCK:   -0.55 KCAL/MOL
REMARK 927      BINDING AFFINITY PREDICTED BY RF-SCORE:    0.00 PKD
ROOT
HETATM    1  C   UNL     1     -12.661  13.826  70.592  1.00  0.00    -0.386 C  
HETATM    2  C   UNL     1     -12.339  12.448  71.149  1.00  0.00    -0.243 C  
ENDROOT
BRANCH   2   3
HETATM    3  C   UNL     1     -11.972  11.461  70.038  1.00  0.00    -0.442 C  
BRANCH   3   4
HETATM    4  C   UNL     1     -11.335  10.182  70.583  1.00  0.00    -0.352 C  
BRANCH   4   5
HETATM    5  N   UNL     1      -9.895  10.155  70.414  1.00  0.00    -0.366 N  
HETATM    6  H   UNL     1      -9.294  10.097  71.236  1.00  0.00     0.000 HD 
BRANCH   5   7
HETATM    7  C   UNL     1      -9.330  10.206  69.170  1.00  0.00    -0.197 C  
HETATM    8  O   UNL     1      -8.734  11.185  68.748  1.00  0.00    -0.161 OA 
BRANCH   7   9
HETATM    9  N   UNL     1      -9.480   9.033  68.454  1.00  0.00    -0.145 N  
HETATM   10  H   UNL     1      -9.036   8.191  68.819  1.00  0.00     0.000 HD 
BRANCH   9  11
HETATM   11  S   UNL     1     -10.340   8.906  67.034  1.00  0.00    -0.252 S  
HETATM   12  O   UNL     1     -11.186  10.064  66.860  1.00  0.00    -0.031 OA 
HETATM   13  O   UNL     1     -10.909   7.572  67.055  1.00  0.00    -0.348 OA 
BRANCH  11  14
HETATM   14  C   UNL     1      -9.065   8.918  65.796  1.00  0.00    -0.221 A  
HETATM   15  C   UNL     1      -8.203   7.825  65.681  1.00  0.00    -0.135 A  
HETATM   16  C   UNL     1      -7.168   7.857  64.744  1.00  0.00    -0.074 A  
HETATM   17  C   UNL     1      -6.994   8.975  63.917  1.00  0.00    -0.088 A  
HETATM   18  C   UNL     1      -7.902  10.041  64.005  1.00  0.00    -0.150 A  
HETATM   19  C   UNL     1      -5.846   9.049  62.953  1.00  0.00    -0.089 C  
HETATM   20  C   UNL     1      -8.941  10.012  64.936  1.00  0.00    -0.241 A  
ENDBRANCH  11  14
ENDBRANCH   9  11
ENDBRANCH   7   9
ENDBRANCH   5   7
ENDBRANCH   4   5
ENDBRANCH   3   4
ENDBRANCH   2   3
TORSDOF 7
ENDMDL
MODEL      269
REMARK 921   NORMALIZED FREE ENERGY PREDICTED BY IDOCK:   -2.73 KCAL/MOL
REMARK 922        TOTAL FREE ENERGY PREDICTED BY IDOCK:   -4.47 KCAL/MOL
REMARK 923 INTER-LIGAND FREE ENERGY PREDICTED BY IDOCK:   -4.32 KCAL/MOL
REMARK 924 INTRA-LIGAND FREE ENERGY PREDICTED BY IDOCK:   -0.15 KCAL/MOL
REMARK 927      BINDING AFFINITY PREDICTED BY RF-SCORE:    0.00 PKD
ROOT
HETATM    1  C   UNL     1      -6.902   3.465  63.035  1.00  0.00    -0.032 C  
HETATM    2  C   UNL     1      -8.345   3.005  63.167  1.00  0.00    -0.085 C  
ENDROOT
BRANCH   2   3
HETATM    3  C   UNL     1      -9.260   4.140  63.634  1.00  0.00    -0.141 C  
BRANCH   3   4
HETATM    4  C   UNL     1     -10.637   3.636  64.067  1.00  0.00    -0.263 C  
BRANCH   4   5
HETATM    5  N   UNL     1     -11.257   4.481  65.069  1.00  0.00    -0.946 N  
HETATM    6  H   UNL     1     -12.235   4.751  64.964  1.00  0.00     0.000 HD 
BRANCH   5   7
HETATM    7  C   UNL     1     -10.551   4.924  66.153  1.00  0.00    -0.271 C  
HETATM    8  O   UNL     1     -10.314   6.104  66.359  1.00  0.00    -0.137 OA 
BRANCH   7   9
HETATM    9  N   UNL     1     -10.156   3.904  67.000  1.00  0.00    -0.226 N  
HETATM   10  H   UNL     1     -10.724   3.057  67.023  1.00  0.00     0.000 HD 
BRANCH   9  11
HETATM   11  S   UNL     1      -8.815   3.969  67.984  1.00  0.00    -0.116 S  
HETATM   12  O   UNL     1      -7.957   5.060  67.582  1.00  0.00    -0.094 OA 
HETATM   13  O   UNL     1      -8.310   2.610  68.024  1.00  0.00    -0.071 OA 
BRANCH  11  14
HETATM   14  C   UNL     1      -9.510   4.324  69.580  1.00  0.00    -0.187 A  
HETATM   15  C   UNL     1     -10.262   5.488  69.762  1.00  0.00    -0.336 A  
HETATM   16  C   UNL     1     -10.764   5.793  71.029  1.00  0.00    -0.326 A  
HETATM   17  C   UNL     1     -10.522   4.940  72.113  1.00  0.00    -0.257 A  
HETATM   18  C   UNL     1      -9.814   3.748  71.903  1.00  0.00    -0.248 A  
HETATM   19  C   UNL     1     -10.998   5.292  73.492  1.00  0.00    -0.353 C  
HETATM   20  C   UNL     1      -9.314   3.434  70.638  1.00  0.00    -0.232 A  
ENDBRANCH  11  14
ENDBRANCH   9  11
ENDBRANCH   7   9
ENDBRANCH   5   7
ENDBRANCH   4   5
ENDBRANCH   3   4
ENDBRANCH   2   3
TORSDOF 7
ENDMDL
MODEL      270
REMARK 921   NORMALIZED FREE ENERGY PREDICTED BY IDOCK:   -2.73 KCAL/MOL
REMARK 922        TOTAL FREE ENERGY PREDICTED BY IDOCK:   -4.47 KCAL/MOL
REMARK 923 INTER-LIGAND FREE ENERGY PREDICTED BY IDOCK:   -3.77 KCAL/MOL
REMARK 924 INTRA-LIGAND FREE ENERGY PREDICTED BY IDOCK:   -0.70 KCAL/MOL
REMARK 927      BINDING AFFINITY PREDICTED BY RF-SCORE:    0.00 PKD
ROOT
HETATM    1  C   UNL     1     -10.820   8.034  69.736  1.00  0.00    -0.194 C  
HETATM    2  C   UNL     1      -9.755   8.819  68.986  1.00  0.00    -0.172 C  
ENDROOT
BRANCH   2   3
HETATM    3  C   UNL     1     -10.375   9.811  67.998  1.00  0.00    -0.250 C  
BRANCH   3   4
HETATM    4  C   UNL     1     -10.409   9.265  66.570  1.00  0.00    -0.200 C  
BRANCH   4   5
HETATM    5  N   UNL     1      -9.591  10.035  65.653  1.00  0.00    -0.231 N  
HETATM    6  H   UNL     1     -10.040  10.582  64.918  1.00  0.00     0.000 HD 
BRANCH   5   7
HETATM    7  C   UNL     1      -8.228  10.040  65.758  1.00  0.00    -0.130 C  
HETATM    8  O   UNL     1      -7.555   9.021  65.759  1.00  0.00    -0.089 OA 
BRANCH   7   9
HETATM    9  N   UNL     1      -7.692  11.312  65.838  1.00  0.00    -0.372 N  
HETATM   10  H   UNL     1      -7.716  11.893  64.999  1.00  0.00     0.000 HD 
BRANCH   9  11
HETATM   11  S   UNL     1      -7.009  11.958  67.211  1.00  0.00    -0.146 S  
HETATM   12  O   UNL     1      -5.694  12.477  66.915  1.00  0.00    -0.319 OA 
HETATM   13  O   UNL     1      -7.188  10.945  68.234  1.00  0.00    -0.079 OA 
BRANCH  11  14
HETATM   14  C   UNL     1      -8.099  13.305  67.601  1.00  0.00    -0.174 A  
HETATM   15  C   UNL     1      -7.756  14.199  68.619  1.00  0.00    -0.135 A  
HETATM   16  C   UNL     1      -8.637  15.227  68.960  1.00  0.00    -0.226 A  
HETATM   17  C   UNL     1      -9.857  15.369  68.287  1.00  0.00    -0.213 A  
HETATM   18  C   UNL     1     -10.162  14.499  67.229  1.00  0.00    -0.255 A  
HETATM   19  C   UNL     1     -10.841  16.428  68.689  1.00  0.00    -0.331 C  
HETATM   20  C   UNL     1      -9.283  13.473  66.880  1.00  0.00    -0.254 A  
ENDBRANCH  11  14
ENDBRANCH   9  11
ENDBRANCH   7   9
ENDBRANCH   5   7
ENDBRANCH   4   5
ENDBRANCH   3   4
ENDBRANCH   2   3
TORSDOF 7
ENDMDL
MODEL      271
REMARK 921   NORMALIZED FREE ENERGY PREDICTED BY IDOCK:   -2.72 KCAL/MOL
REMARK 922        TOTAL FREE ENERGY PREDICTED BY IDOCK:   -4.46 KCAL/MOL
REMARK 923 INTER-LIGAND FREE ENERGY PREDICTED BY IDOCK:   -3.57 KCAL/MOL
REMARK 924 INTRA-LIGAND FREE ENERGY PREDICTED BY IDOCK:   -0.90 KCAL/MOL
REMARK 927      BINDING AFFINITY PREDICTED BY RF-SCORE:    0.00 PKD
ROOT
HETATM    1  C   UNL     1      -9.931   6.597  73.529  1.00  0.00    -0.251 C  
HETATM    2  C   UNL     1     -10.713   7.789  73.002  1.00  0.00    -0.446 C  
ENDROOT
BRANCH   2   3
HETATM    3  C   UNL     1     -12.097   7.378  72.495  1.00  0.00    -0.111 C  
BRANCH   3   4
HETATM    4  C   UNL     1     -12.020   6.442  71.288  1.00  0.00    -0.227 C  
BRANCH   4   5
HETATM    5  N   UNL     1     -11.648   7.128  70.066  1.00  0.00    -0.520 N  
HETATM    6  H   UNL     1     -12.303   7.784  69.639  1.00  0.00     0.000 HD 
BRANCH   5   7
HETATM    7  C   UNL     1     -10.435   6.911  69.476  1.00  0.00    -0.223 C  
HETATM    8  O   UNL     1     -10.123   5.848  68.962  1.00  0.00    -0.158 OA 
BRANCH   7   9
HETATM    9  N   UNL     1      -9.610   8.021  69.500  1.00  0.00    -0.163 N  
HETATM   10  H   UNL     1      -8.608   7.868  69.614  1.00  0.00     0.000 HD 
BRANCH   9  11
HETATM   11  S   UNL     1     -10.145   9.591  69.356  1.00  0.00    -0.211 S  
HETATM   12  O   UNL     1     -10.644  10.063  70.627  1.00  0.00    -0.295 OA 
HETATM   13  O   UNL     1     -10.997   9.593  68.183  1.00  0.00    -0.216 OA 
BRANCH  11  14
HETATM   14  C   UNL     1      -8.664  10.479  68.940  1.00  0.00    -0.154 A  
HETATM   15  C   UNL     1      -7.445  10.091  69.501  1.00  0.00    -0.123 A  
HETATM   16  C   UNL     1      -6.290  10.821  69.215  1.00  0.00    -0.061 A  
HETATM   17  C   UNL     1      -6.346  11.934  68.366  1.00  0.00    -0.052 A  
HETATM   18  C   UNL     1      -7.566  12.278  67.765  1.00  0.00    -0.131 A  
HETATM   19  C   UNL     1      -5.125  12.766  68.104  1.00  0.00    -0.077 C  
HETATM   20  C   UNL     1      -8.723  11.548  68.043  1.00  0.00    -0.151 A  
ENDBRANCH  11  14
ENDBRANCH   9  11
ENDBRANCH   7   9
ENDBRANCH   5   7
ENDBRANCH   4   5
ENDBRANCH   3   4
ENDBRANCH   2   3
TORSDOF 7
ENDMDL
MODEL      272
REMARK 921   NORMALIZED FREE ENERGY PREDICTED BY IDOCK:   -2.72 KCAL/MOL
REMARK 922        TOTAL FREE ENERGY PREDICTED BY IDOCK:   -4.45 KCAL/MOL
REMARK 923 INTER-LIGAND FREE ENERGY PREDICTED BY IDOCK:   -3.88 KCAL/MOL
REMARK 924 INTRA-LIGAND FREE ENERGY PREDICTED BY IDOCK:   -0.57 KCAL/MOL
REMARK 927      BINDING AFFINITY PREDICTED BY RF-SCORE:    0.00 PKD
ROOT
HETATM    1  C   UNL     1     -10.194  19.450  65.967  1.00  0.00    -0.540 C  
HETATM    2  C   UNL     1      -9.375  18.847  67.097  1.00  0.00    -0.328 C  
ENDROOT
BRANCH   2   3
HETATM    3  C   UNL     1      -9.891  17.462  67.493  1.00  0.00    -0.277 C  
BRANCH   3   4
HETATM    4  C   UNL     1      -9.152  16.337  66.768  1.00  0.00    -0.232 C  
BRANCH   4   5
HETATM    5  N   UNL     1      -8.455  15.445  67.674  1.00  0.00    -0.156 N  
HETATM    6  H   UNL     1      -7.457  15.276  67.544  1.00  0.00     0.000 HD 
BRANCH   5   7
HETATM    7  C   UNL     1      -9.113  14.828  68.701  1.00  0.00    -0.186 C  
HETATM    8  O   UNL     1      -9.342  15.372  69.770  1.00  0.00    -0.253 OA 
BRANCH   7   9
HETATM    9  N   UNL     1      -9.511  13.539  68.397  1.00  0.00    -0.272 N  
HETATM   10  H   UNL     1     -10.390  13.206  68.794  1.00  0.00     0.000 HD 
BRANCH   9  11
HETATM   11  S   UNL     1      -8.652  12.496  67.426  1.00  0.00    -0.196 S  
HETATM   12  O   UNL     1      -7.234  12.667  67.646  1.00  0.00    -0.114 OA 
HETATM   13  O   UNL     1      -9.217  12.661  66.101  1.00  0.00    -0.168 OA 
BRANCH  11  14
HETATM   14  C   UNL     1      -9.150  10.898  68.020  1.00  0.00    -0.152 A  
HETATM   15  C   UNL     1      -8.192  10.027  68.546  1.00  0.00    -0.108 A  
HETATM   16  C   UNL     1      -8.576   8.751  68.965  1.00  0.00    -0.132 A  
HETATM   17  C   UNL     1      -9.912   8.343  68.865  1.00  0.00    -0.194 A  
HETATM   18  C   UNL     1     -10.872   9.248  68.389  1.00  0.00    -0.125 A  
HETATM   19  C   UNL     1     -10.324   6.952  69.250  1.00  0.00    -0.212 C  
HETATM   20  C   UNL     1     -10.496  10.527  67.974  1.00  0.00    -0.232 A  
ENDBRANCH  11  14
ENDBRANCH   9  11
ENDBRANCH   7   9
ENDBRANCH   5   7
ENDBRANCH   4   5
ENDBRANCH   3   4
ENDBRANCH   2   3
TORSDOF 7
ENDMDL
MODEL      273
REMARK 921   NORMALIZED FREE ENERGY PREDICTED BY IDOCK:   -2.68 KCAL/MOL
REMARK 922        TOTAL FREE ENERGY PREDICTED BY IDOCK:   -4.40 KCAL/MOL
REMARK 923 INTER-LIGAND FREE ENERGY PREDICTED BY IDOCK:   -4.13 KCAL/MOL
REMARK 924 INTRA-LIGAND FREE ENERGY PREDICTED BY IDOCK:   -0.27 KCAL/MOL
REMARK 927      BINDING AFFINITY PREDICTED BY RF-SCORE:    0.00 PKD
ROOT
HETATM    1  C   UNL     1      -6.932   3.994  65.069  1.00  0.00    -0.058 C  
HETATM    2  C   UNL     1      -8.118   4.453  64.236  1.00  0.00    -0.097 C  
ENDROOT
BRANCH   2   3
HETATM    3  C   UNL     1      -8.107   5.968  64.022  1.00  0.00    -0.089 C  
BRANCH   3   4
HETATM    4  C   UNL     1      -8.039   6.741  65.340  1.00  0.00    -0.129 C  
BRANCH   4   5
HETATM    5  N   UNL     1      -9.311   7.328  65.714  1.00  0.00    -0.382 N  
HETATM    6  H   UNL     1     -10.158   6.761  65.671  1.00  0.00     0.000 HD 
BRANCH   5   7
HETATM    7  C   UNL     1      -9.394   8.629  66.125  1.00  0.00    -0.226 C  
HETATM    8  O   UNL     1      -9.735   9.541  65.387  1.00  0.00    -0.294 OA 
BRANCH   7   9
HETATM    9  N   UNL     1      -9.077   8.801  67.459  1.00  0.00    -0.133 N  
HETATM   10  H   UNL     1      -8.205   8.394  67.799  1.00  0.00     0.000 HD 
BRANCH   9  11
HETATM   11  S   UNL     1     -10.025   9.630  68.549  1.00  0.00    -0.172 S  
HETATM   12  O   UNL     1     -11.267  10.024  67.927  1.00  0.00    -0.254 OA 
HETATM   13  O   UNL     1      -9.146  10.623  69.136  1.00  0.00    -0.181 OA 
BRANCH  11  14
HETATM   14  C   UNL     1     -10.354   8.409  69.797  1.00  0.00    -0.216 A  
HETATM   15  C   UNL     1     -10.797   7.138  69.421  1.00  0.00    -0.225 A  
HETATM   16  C   UNL     1     -11.106   6.196  70.404  1.00  0.00    -0.420 A  
HETATM   17  C   UNL     1     -10.970   6.515  71.761  1.00  0.00    -0.287 A  
HETATM   18  C   UNL     1     -10.471   7.775  72.122  1.00  0.00    -0.287 A  
HETATM   19  C   UNL     1     -11.363   5.534  72.826  1.00  0.00    -0.359 C  
HETATM   20  C   UNL     1     -10.155   8.719  71.144  1.00  0.00    -0.317 A  
ENDBRANCH  11  14
ENDBRANCH   9  11
ENDBRANCH   7   9
ENDBRANCH   5   7
ENDBRANCH   4   5
ENDBRANCH   3   4
ENDBRANCH   2   3
TORSDOF 7
ENDMDL
MODEL      274
REMARK 921   NORMALIZED FREE ENERGY PREDICTED BY IDOCK:   -2.65 KCAL/MOL
REMARK 922        TOTAL FREE ENERGY PREDICTED BY IDOCK:   -4.36 KCAL/MOL
REMARK 923 INTER-LIGAND FREE ENERGY PREDICTED BY IDOCK:   -3.80 KCAL/MOL
REMARK 924 INTRA-LIGAND FREE ENERGY PREDICTED BY IDOCK:   -0.56 KCAL/MOL
REMARK 927      BINDING AFFINITY PREDICTED BY RF-SCORE:    0.00 PKD
ROOT
HETATM    1  C   UNL     1     -10.381   5.900  70.744  1.00  0.00    -0.292 C  
HETATM    2  C   UNL     1     -10.981   5.950  69.348  1.00  0.00    -0.421 C  
ENDROOT
BRANCH   2   3
HETATM    3  C   UNL     1     -10.050   6.654  68.357  1.00  0.00    -0.163 C  
BRANCH   3   4
HETATM    4  C   UNL     1      -9.719   8.084  68.786  1.00  0.00    -0.156 C  
BRANCH   4   5
HETATM    5  N   UNL     1     -10.389   9.084  67.977  1.00  0.00    -0.216 N  
HETATM    6  H   UNL     1     -11.324   9.396  68.237  1.00  0.00     0.000 HD 
BRANCH   5   7
HETATM    7  C   UNL     1      -9.786   9.614  66.870  1.00  0.00    -0.200 C  
HETATM    8  O   UNL     1      -9.418   8.938  65.922  1.00  0.00    -0.237 OA 
BRANCH   7   9
HETATM    9  N   UNL     1      -9.660  10.990  66.925  1.00  0.00    -0.180 N  
HETATM   10  H   UNL     1     -10.370  11.553  66.455  1.00  0.00     0.000 HD 
BRANCH   9  11
HETATM   11  S   UNL     1      -8.427  11.789  67.706  1.00  0.00    -0.156 S  
HETATM   12  O   UNL     1      -7.194  11.643  66.967  1.00  0.00    -0.135 OA 
HETATM   13  O   UNL     1      -8.513  11.358  69.088  1.00  0.00    -0.008 OA 
BRANCH  11  14
HETATM   14  C   UNL     1      -8.951  13.485  67.645  1.00  0.00    -0.200 A  
HETATM   15  C   UNL     1     -10.300  13.785  67.441  1.00  0.00    -0.252 A  
HETATM   16  C   UNL     1     -10.704  15.118  67.341  1.00  0.00    -0.286 A  
HETATM   17  C   UNL     1      -9.766  16.153  67.448  1.00  0.00    -0.233 A  
HETATM   18  C   UNL     1      -8.424  15.839  67.711  1.00  0.00    -0.162 A  
HETATM   19  C   UNL     1     -10.177  17.586  67.276  1.00  0.00    -0.335 C  
HETATM   20  C   UNL     1      -8.016  14.509  67.818  1.00  0.00    -0.168 A  
ENDBRANCH  11  14
ENDBRANCH   9  11
ENDBRANCH   7   9
ENDBRANCH   5   7
ENDBRANCH   4   5
ENDBRANCH   3   4
ENDBRANCH   2   3
TORSDOF 7
ENDMDL
MODEL      275
REMARK 921   NORMALIZED FREE ENERGY PREDICTED BY IDOCK:   -2.63 KCAL/MOL
REMARK 922        TOTAL FREE ENERGY PREDICTED BY IDOCK:   -4.33 KCAL/MOL
REMARK 923 INTER-LIGAND FREE ENERGY PREDICTED BY IDOCK:   -3.58 KCAL/MOL
REMARK 924 INTRA-LIGAND FREE ENERGY PREDICTED BY IDOCK:   -0.75 KCAL/MOL
REMARK 927      BINDING AFFINITY PREDICTED BY RF-SCORE:    0.00 PKD
ROOT
HETATM    1  C   UNL     1     -11.212   5.857  72.806  1.00  0.00    -0.317 C  
HETATM    2  C   UNL     1     -12.117   6.658  71.884  1.00  0.00    -0.385 C  
ENDROOT
BRANCH   2   3
HETATM    3  C   UNL     1     -11.343   7.243  70.700  1.00  0.00    -0.311 C  
BRANCH   3   4
HETATM    4  C   UNL     1      -9.994   7.829  71.119  1.00  0.00    -0.176 C  
BRANCH   4   5
HETATM    5  N   UNL     1      -9.326   8.531  70.040  1.00  0.00    -0.161 N  
HETATM    6  H   UNL     1      -9.190   8.062  69.144  1.00  0.00     0.000 HD 
BRANCH   5   7
HETATM    7  C   UNL     1      -8.875   9.811  70.204  1.00  0.00    -0.188 C  
HETATM    8  O   UNL     1      -7.754  10.077  70.609  1.00  0.00    -0.268 OA 
BRANCH   7   9
HETATM    9  N   UNL     1      -9.807  10.767  69.844  1.00  0.00    -0.347 N  
HETATM   10  H   UNL     1     -10.141  11.404  70.568  1.00  0.00     0.000 HD 
BRANCH   9  11
HETATM   11  S   UNL     1     -10.418  10.949  68.306  1.00  0.00    -0.193 S  
HETATM   12  O   UNL     1     -11.005  12.260  68.157  1.00  0.00    -0.208 OA 
HETATM   13  O   UNL     1     -11.209   9.756  68.071  1.00  0.00    -0.174 OA 
BRANCH  11  14
HETATM   14  C   UNL     1      -8.968  10.834  67.286  1.00  0.00    -0.140 A  
HETATM   15  C   UNL     1      -8.846   9.783  66.374  1.00  0.00    -0.163 A  
HETATM   16  C   UNL     1      -7.684   9.663  65.610  1.00  0.00    -0.107 A  
HETATM   17  C   UNL     1      -6.644  10.591  65.749  1.00  0.00    -0.123 A  
HETATM   18  C   UNL     1      -6.804  11.674  66.627  1.00  0.00    -0.032 A  
HETATM   19  C   UNL     1      -5.364  10.435  64.983  1.00  0.00    -0.133 C  
HETATM   20  C   UNL     1      -7.966  11.802  67.390  1.00  0.00    -0.155 A  
ENDBRANCH  11  14
ENDBRANCH   9  11
ENDBRANCH   7   9
ENDBRANCH   5   7
ENDBRANCH   4   5
ENDBRANCH   3   4
ENDBRANCH   2   3
TORSDOF 7
ENDMDL
MODEL      276
REMARK 921   NORMALIZED FREE ENERGY PREDICTED BY IDOCK:   -2.61 KCAL/MOL
REMARK 922        TOTAL FREE ENERGY PREDICTED BY IDOCK:   -4.30 KCAL/MOL
REMARK 923 INTER-LIGAND FREE ENERGY PREDICTED BY IDOCK:   -2.96 KCAL/MOL
REMARK 924 INTRA-LIGAND FREE ENERGY PREDICTED BY IDOCK:   -1.34 KCAL/MOL
REMARK 927      BINDING AFFINITY PREDICTED BY RF-SCORE:    0.00 PKD
ROOT
HETATM    1  C   UNL     1      -9.773   6.040  70.573  1.00  0.00    -0.210 C  
HETATM    2  C   UNL     1      -8.324   6.467  70.393  1.00  0.00    -0.127 C  
ENDROOT
BRANCH   2   3
HETATM    3  C   UNL     1      -8.213   7.950  70.032  1.00  0.00    -0.119 C  
BRANCH   3   4
HETATM    4  C   UNL     1      -9.577   8.640  69.978  1.00  0.00    -0.170 C  
BRANCH   4   5
HETATM    5  N   UNL     1      -9.474  10.080  69.848  1.00  0.00    -0.343 N  
HETATM    6  H   UNL     1      -9.802  10.678  70.607  1.00  0.00     0.000 HD 
BRANCH   5   7
HETATM    7  C   UNL     1      -8.945  10.652  68.725  1.00  0.00    -0.172 C  
HETATM    8  O   UNL     1      -7.906  11.293  68.728  1.00  0.00    -0.135 OA 
BRANCH   7   9
HETATM    9  N   UNL     1      -9.692  10.410  67.586  1.00  0.00    -0.166 N  
HETATM   10  H   UNL     1     -10.703  10.528  67.645  1.00  0.00     0.000 HD 
BRANCH   9  11
HETATM   11  S   UNL     1      -9.048   9.938  66.125  1.00  0.00    -0.166 S  
HETATM   12  O   UNL     1      -7.824  10.661  65.865  1.00  0.00    -0.151 OA 
HETATM   13  O   UNL     1     -10.153   9.999  65.188  1.00  0.00    -0.325 OA 
BRANCH  11  14
HETATM   14  C   UNL     1      -8.672   8.222  66.392  1.00  0.00    -0.142 A  
HETATM   15  C   UNL     1      -9.710   7.314  66.615  1.00  0.00    -0.249 A  
HETATM   16  C   UNL     1      -9.412   5.976  66.877  1.00  0.00    -0.146 A  
HETATM   17  C   UNL     1      -8.081   5.539  66.913  1.00  0.00    -0.101 A  
HETATM   18  C   UNL     1      -7.052   6.450  66.631  1.00  0.00    -0.069 A  
HETATM   19  C   UNL     1      -7.745   4.118  67.259  1.00  0.00    -0.088 C  
HETATM   20  C   UNL     1      -7.345   7.788  66.363  1.00  0.00    -0.079 A  
ENDBRANCH  11  14
ENDBRANCH   9  11
ENDBRANCH   7   9
ENDBRANCH   5   7
ENDBRANCH   4   5
ENDBRANCH   3   4
ENDBRANCH   2   3
TORSDOF 7
ENDMDL
MODEL      277
REMARK 921   NORMALIZED FREE ENERGY PREDICTED BY IDOCK:   -2.60 KCAL/MOL
REMARK 922        TOTAL FREE ENERGY PREDICTED BY IDOCK:   -4.28 KCAL/MOL
REMARK 923 INTER-LIGAND FREE ENERGY PREDICTED BY IDOCK:   -3.89 KCAL/MOL
REMARK 924 INTRA-LIGAND FREE ENERGY PREDICTED BY IDOCK:   -0.40 KCAL/MOL
REMARK 927      BINDING AFFINITY PREDICTED BY RF-SCORE:    0.00 PKD
ROOT
HETATM    1  C   UNL     1      -6.078   5.060  68.612  1.00  0.00    -0.030 C  
HETATM    2  C   UNL     1      -5.992   5.545  70.051  1.00  0.00    -0.021 C  
ENDROOT
BRANCH   2   3
HETATM    3  C   UNL     1      -6.455   6.998  70.186  1.00  0.00    -0.039 C  
BRANCH   3   4
HETATM    4  C   UNL     1      -7.877   7.106  70.738  1.00  0.00    -0.095 C  
BRANCH   4   5
HETATM    5  N   UNL     1      -8.841   6.352  69.961  1.00  0.00    -0.142 N  
HETATM    6  H   UNL     1      -8.557   5.475  69.522  1.00  0.00     0.000 HD 
BRANCH   5   7
HETATM    7  C   UNL     1     -10.125   6.796  69.806  1.00  0.00    -0.183 C  
HETATM    8  O   UNL     1     -11.078   6.045  69.671  1.00  0.00    -0.369 OA 
BRANCH   7   9
HETATM    9  N   UNL     1     -10.234   8.173  69.842  1.00  0.00    -0.200 N  
HETATM   10  H   UNL     1     -10.383   8.616  70.749  1.00  0.00     0.000 HD 
BRANCH   9  11
HETATM   11  S   UNL     1     -10.137   9.157  68.502  1.00  0.00    -0.197 S  
HETATM   12  O   UNL     1     -10.983   8.646  67.449  1.00  0.00    -0.114 OA 
HETATM   13  O   UNL     1      -8.717   9.353  68.279  1.00  0.00    -0.124 OA 
BRANCH  11  14
HETATM   14  C   UNL     1     -10.799  10.697  69.092  1.00  0.00    -0.237 A  
HETATM   15  C   UNL     1     -11.716  10.696  70.146  1.00  0.00    -0.417 A  
HETATM   16  C   UNL     1     -12.276  11.902  70.575  1.00  0.00    -0.426 A  
HETATM   17  C   UNL     1     -11.920  13.108  69.958  1.00  0.00    -0.391 A  
HETATM   18  C   UNL     1     -10.955  13.100  68.940  1.00  0.00    -0.270 A  
HETATM   19  C   UNL     1     -12.565  14.401  70.365  1.00  0.00    -0.405 C  
HETATM   20  C   UNL     1     -10.388  11.899  68.511  1.00  0.00    -0.228 A  
ENDBRANCH  11  14
ENDBRANCH   9  11
ENDBRANCH   7   9
ENDBRANCH   5   7
ENDBRANCH   4   5
ENDBRANCH   3   4
ENDBRANCH   2   3
TORSDOF 7
ENDMDL
MODEL      278
REMARK 921   NORMALIZED FREE ENERGY PREDICTED BY IDOCK:   -2.58 KCAL/MOL
REMARK 922        TOTAL FREE ENERGY PREDICTED BY IDOCK:   -4.26 KCAL/MOL
REMARK 923 INTER-LIGAND FREE ENERGY PREDICTED BY IDOCK:   -3.66 KCAL/MOL
REMARK 924 INTRA-LIGAND FREE ENERGY PREDICTED BY IDOCK:   -0.59 KCAL/MOL
REMARK 927      BINDING AFFINITY PREDICTED BY RF-SCORE:    0.00 PKD
ROOT
HETATM    1  C   UNL     1     -11.861  11.568  68.313  1.00  0.00    -0.327 C  
HETATM    2  C   UNL     1     -10.922  12.110  67.247  1.00  0.00    -0.308 C  
ENDROOT
BRANCH   2   3
HETATM    3  C   UNL     1     -10.533  11.031  66.234  1.00  0.00    -0.310 C  
BRANCH   3   4
HETATM    4  C   UNL     1      -9.027  10.996  65.972  1.00  0.00    -0.197 C  
BRANCH   4   5
HETATM    5  N   UNL     1      -8.300  10.227  66.963  1.00  0.00    -0.125 N  
HETATM    6  H   UNL     1      -7.582  10.683  67.526  1.00  0.00     0.000 HD 
BRANCH   5   7
HETATM    7  C   UNL     1      -8.562   8.899  67.157  1.00  0.00    -0.110 C  
HETATM    8  O   UNL     1      -8.334   8.045  66.314  1.00  0.00    -0.109 OA 
BRANCH   7   9
HETATM    9  N   UNL     1      -9.086   8.622  68.406  1.00  0.00    -0.138 N  
HETATM   10  H   UNL     1     -10.063   8.335  68.460  1.00  0.00     0.000 HD 
BRANCH   9  11
HETATM   11  S   UNL     1      -8.226   8.727  69.828  1.00  0.00    -0.122 S  
HETATM   12  O   UNL     1      -8.359  10.051  70.391  1.00  0.00    -0.131 OA 
HETATM   13  O   UNL     1      -6.917   8.185  69.519  1.00  0.00    -0.048 OA 
BRANCH  11  14
HETATM   14  C   UNL     1      -9.052   7.556  70.878  1.00  0.00    -0.153 A  
HETATM   15  C   UNL     1      -9.342   6.278  70.394  1.00  0.00    -0.171 A  
HETATM   16  C   UNL     1     -10.037   5.376  71.202  1.00  0.00    -0.276 A  
HETATM   17  C   UNL     1     -10.441   5.743  72.492  1.00  0.00    -0.246 A  
HETATM   18  C   UNL     1     -10.094   7.009  72.985  1.00  0.00    -0.242 A  
HETATM   19  C   UNL     1     -11.247   4.806  73.343  1.00  0.00    -0.425 C  
HETATM   20  C   UNL     1      -9.394   7.914  72.185  1.00  0.00    -0.225 A  
ENDBRANCH  11  14
ENDBRANCH   9  11
ENDBRANCH   7   9
ENDBRANCH   5   7
ENDBRANCH   4   5
ENDBRANCH   3   4
ENDBRANCH   2   3
TORSDOF 7
ENDMDL
MODEL      279
REMARK 921   NORMALIZED FREE ENERGY PREDICTED BY IDOCK:   -2.57 KCAL/MOL
REMARK 922        TOTAL FREE ENERGY PREDICTED BY IDOCK:   -4.25 KCAL/MOL
REMARK 923 INTER-LIGAND FREE ENERGY PREDICTED BY IDOCK:   -3.83 KCAL/MOL
REMARK 924 INTRA-LIGAND FREE ENERGY PREDICTED BY IDOCK:   -0.41 KCAL/MOL
REMARK 927      BINDING AFFINITY PREDICTED BY RF-SCORE:    0.00 PKD
ROOT
HETATM    1  C   UNL     1     -12.525  13.964  70.568  1.00  0.00    -0.422 C  
HETATM    2  C   UNL     1     -12.533  12.523  71.054  1.00  0.00    -0.353 C  
ENDROOT
BRANCH   2   3
HETATM    3  C   UNL     1     -12.395  11.534  69.894  1.00  0.00    -0.247 C  
BRANCH   3   4
HETATM    4  C   UNL     1     -11.796  10.198  70.336  1.00  0.00    -0.288 C  
BRANCH   4   5
HETATM    5  N   UNL     1     -10.349  10.232  70.423  1.00  0.00    -0.422 N  
HETATM    6  H   UNL     1      -9.870  11.131  70.472  1.00  0.00     0.000 HD 
BRANCH   5   7
HETATM    7  C   UNL     1      -9.617   9.078  70.441  1.00  0.00    -0.208 C  
HETATM    8  O   UNL     1      -8.580   8.935  69.812  1.00  0.00    -0.123 OA 
BRANCH   7   9
HETATM    9  N   UNL     1     -10.155   8.103  71.261  1.00  0.00    -0.191 N  
HETATM   10  H   UNL     1     -10.195   8.290  72.263  1.00  0.00     0.000 HD 
BRANCH   9  11
HETATM   11  S   UNL     1     -10.744   6.642  70.719  1.00  0.00    -0.250 S  
HETATM   12  O   UNL     1     -10.689   6.589  69.276  1.00  0.00    -0.228 OA 
HETATM   13  O   UNL     1     -12.002   6.460  71.417  1.00  0.00    -0.325 OA 
BRANCH  11  14
HETATM   14  C   UNL     1      -9.588   5.474  71.394  1.00  0.00    -0.154 A  
HETATM   15  C   UNL     1     -10.018   4.551  72.351  1.00  0.00    -0.229 A  
HETATM   16  C   UNL     1      -9.099   3.668  72.920  1.00  0.00    -0.117 A  
HETATM   17  C   UNL     1      -7.753   3.699  72.534  1.00  0.00    -0.067 A  
HETATM   18  C   UNL     1      -7.347   4.591  71.532  1.00  0.00    -0.064 A  
HETATM   19  C   UNL     1      -6.743   2.800  73.187  1.00  0.00    -0.026 C  
HETATM   20  C   UNL     1      -8.262   5.473  70.955  1.00  0.00    -0.120 A  
ENDBRANCH  11  14
ENDBRANCH   9  11
ENDBRANCH   7   9
ENDBRANCH   5   7
ENDBRANCH   4   5
ENDBRANCH   3   4
ENDBRANCH   2   3
TORSDOF 7
ENDMDL
MODEL      280
REMARK 921   NORMALIZED FREE ENERGY PREDICTED BY IDOCK:   -2.53 KCAL/MOL
REMARK 922        TOTAL FREE ENERGY PREDICTED BY IDOCK:   -4.20 KCAL/MOL
REMARK 923 INTER-LIGAND FREE ENERGY PREDICTED BY IDOCK:   -3.70 KCAL/MOL
REMARK 924 INTRA-LIGAND FREE ENERGY PREDICTED BY IDOCK:   -0.50 KCAL/MOL
REMARK 927      BINDING AFFINITY PREDICTED BY RF-SCORE:    0.00 PKD
ROOT
HETATM    1  C   UNL     1     -11.263  10.128  68.993  1.00  0.00    -0.223 C  
HETATM    2  C   UNL     1     -10.103   9.145  68.968  1.00  0.00    -0.199 C  
ENDROOT
BRANCH   2   3
HETATM    3  C   UNL     1      -9.354   9.187  67.634  1.00  0.00    -0.154 C  
BRANCH   3   4
HETATM    4  C   UNL     1      -7.933   9.733  67.781  1.00  0.00    -0.101 C  
BRANCH   4   5
HETATM    5  N   UNL     1      -7.879  11.181  67.735  1.00  0.00    -0.111 N  
HETATM    6  H   UNL     1      -8.745  11.719  67.796  1.00  0.00     0.000 HD 
BRANCH   5   7
HETATM    7  C   UNL     1      -6.688  11.839  67.609  1.00  0.00    -0.091 C  
HETATM    8  O   UNL     1      -5.622  11.365  67.971  1.00  0.00    -0.043 OA 
BRANCH   7   9
HETATM    9  N   UNL     1      -6.810  13.080  67.010  1.00  0.00    -0.274 N  
HETATM   10  H   UNL     1      -6.331  13.230  66.122  1.00  0.00     0.000 HD 
BRANCH   9  11
HETATM   11  S   UNL     1      -7.687  14.345  67.644  1.00  0.00    -0.197 S  
HETATM   12  O   UNL     1      -7.088  15.603  67.265  1.00  0.00    -0.195 OA 
HETATM   13  O   UNL     1      -7.878  14.009  69.042  1.00  0.00    -0.089 OA 
BRANCH  11  14
HETATM   14  C   UNL     1      -9.262  14.178  66.838  1.00  0.00    -0.257 A  
HETATM   15  C   UNL     1      -9.629  15.089  65.844  1.00  0.00    -0.356 A  
HETATM   16  C   UNL     1     -10.888  14.989  65.248  1.00  0.00    -0.399 A  
HETATM   17  C   UNL     1     -11.780  13.982  65.638  1.00  0.00    -0.356 A  
HETATM   18  C   UNL     1     -11.376  13.041  66.596  1.00  0.00    -0.366 A  
HETATM   19  C   UNL     1     -13.160  13.906  65.053  1.00  0.00    -0.042 C  
HETATM   20  C   UNL     1     -10.117  13.131  67.191  1.00  0.00    -0.242 A  
ENDBRANCH  11  14
ENDBRANCH   9  11
ENDBRANCH   7   9
ENDBRANCH   5   7
ENDBRANCH   4   5
ENDBRANCH   3   4
ENDBRANCH   2   3
TORSDOF 7
ENDMDL
MODEL      281
REMARK 921   NORMALIZED FREE ENERGY PREDICTED BY IDOCK:   -2.51 KCAL/MOL
REMARK 922        TOTAL FREE ENERGY PREDICTED BY IDOCK:   -4.16 KCAL/MOL
REMARK 923 INTER-LIGAND FREE ENERGY PREDICTED BY IDOCK:   -3.70 KCAL/MOL
REMARK 924 INTRA-LIGAND FREE ENERGY PREDICTED BY IDOCK:   -0.46 KCAL/MOL
REMARK 927      BINDING AFFINITY PREDICTED BY RF-SCORE:    0.00 PKD
ROOT
HETATM    1  C   UNL     1      -9.908   6.662  69.045  1.00  0.00    -0.149 C  
HETATM    2  C   UNL     1     -10.945   6.711  67.935  1.00  0.00    -0.342 C  
ENDROOT
BRANCH   2   3
HETATM    3  C   UNL     1     -10.483   7.587  66.767  1.00  0.00    -0.319 C  
BRANCH   3   4
HETATM    4  C   UNL     1     -10.379   9.063  67.154  1.00  0.00    -0.272 C  
BRANCH   4   5
HETATM    5  N   UNL     1     -10.382   9.947  66.004  1.00  0.00    -0.187 N  
HETATM    6  H   UNL     1     -11.267  10.190  65.559  1.00  0.00     0.000 HD 
BRANCH   5   7
HETATM    7  C   UNL     1      -9.216  10.460  65.507  1.00  0.00    -0.184 C  
HETATM    8  O   UNL     1      -8.249   9.770  65.227  1.00  0.00    -0.126 OA 
BRANCH   7   9
HETATM    9  N   UNL     1      -9.255  11.831  65.332  1.00  0.00    -0.417 N  
HETATM   10  H   UNL     1      -8.959  12.205  64.431  1.00  0.00     0.000 HD 
BRANCH   9  11
HETATM   11  S   UNL     1      -9.754  12.912  66.497  1.00  0.00    -0.259 S  
HETATM   12  O   UNL     1     -10.954  12.429  67.139  1.00  0.00    -0.243 OA 
HETATM   13  O   UNL     1      -9.736  14.206  65.843  1.00  0.00    -0.292 OA 
BRANCH  11  14
HETATM   14  C   UNL     1      -8.413  12.886  67.662  1.00  0.00    -0.183 A  
HETATM   15  C   UNL     1      -8.105  11.702  68.335  1.00  0.00    -0.153 A  
HETATM   16  C   UNL     1      -7.085  11.695  69.289  1.00  0.00    -0.055 A  
HETATM   17  C   UNL     1      -6.369  12.866  69.570  1.00  0.00    -0.103 A  
HETATM   18  C   UNL     1      -6.650  14.033  68.846  1.00  0.00    -0.101 A  
HETATM   19  C   UNL     1      -5.317  12.887  70.640  1.00  0.00    -0.154 C  
HETATM   20  C   UNL     1      -7.665  14.044  67.887  1.00  0.00    -0.161 A  
ENDBRANCH  11  14
ENDBRANCH   9  11
ENDBRANCH   7   9
ENDBRANCH   5   7
ENDBRANCH   4   5
ENDBRANCH   3   4
ENDBRANCH   2   3
TORSDOF 7
ENDMDL
MODEL      282
REMARK 921   NORMALIZED FREE ENERGY PREDICTED BY IDOCK:   -2.44 KCAL/MOL
REMARK 922        TOTAL FREE ENERGY PREDICTED BY IDOCK:   -4.06 KCAL/MOL
REMARK 923 INTER-LIGAND FREE ENERGY PREDICTED BY IDOCK:   -3.48 KCAL/MOL
REMARK 924 INTRA-LIGAND FREE ENERGY PREDICTED BY IDOCK:   -0.58 KCAL/MOL
REMARK 927      BINDING AFFINITY PREDICTED BY RF-SCORE:    0.00 PKD
ROOT
HETATM    1  C   UNL     1      -9.114   2.850  70.915  1.00  0.00    -0.184 C  
HETATM    2  C   UNL     1     -10.346   3.579  71.426  1.00  0.00     0.293 C  
ENDROOT
BRANCH   2   3
HETATM    3  C   UNL     1     -10.076   5.072  71.633  1.00  0.00    -0.260 C  
BRANCH   3   4
HETATM    4  C   UNL     1     -11.304   5.932  71.334  1.00  0.00    -0.178 C  
BRANCH   4   5
HETATM    5  N   UNL     1     -11.085   6.866  70.247  1.00  0.00    -0.279 N  
HETATM    6  H   UNL     1     -11.044   6.521  69.288  1.00  0.00     0.000 HD 
BRANCH   5   7
HETATM    7  C   UNL     1     -10.931   8.204  70.486  1.00  0.00    -0.243 C  
HETATM    8  O   UNL     1     -11.804   8.897  70.984  1.00  0.00    -0.283 OA 
BRANCH   7   9
HETATM    9  N   UNL     1      -9.684   8.682  70.129  1.00  0.00    -0.169 N  
HETATM   10  H   UNL     1      -9.069   9.012  70.873  1.00  0.00     0.000 HD 
BRANCH   9  11
HETATM   11  S   UNL     1      -9.119   8.754  68.565  1.00  0.00    -0.137 S  
HETATM   12  O   UNL     1      -9.709   7.698  67.775  1.00  0.00    -0.141 OA 
HETATM   13  O   UNL     1      -7.678   8.866  68.688  1.00  0.00    -0.094 OA 
BRANCH  11  14
HETATM   14  C   UNL     1      -9.726  10.323  67.995  1.00  0.00    -0.149 A  
HETATM   15  C   UNL     1      -9.117  11.501  68.436  1.00  0.00    -0.185 A  
HETATM   16  C   UNL     1      -9.627  12.736  68.030  1.00  0.00    -0.217 A  
HETATM   17  C   UNL     1     -10.741  12.799  67.181  1.00  0.00    -0.264 A  
HETATM   18  C   UNL     1     -11.306  11.609  66.701  1.00  0.00    -0.338 A  
HETATM   19  C   UNL     1     -11.339  14.119  66.792  1.00  0.00    -0.353 C  
HETATM   20  C   UNL     1     -10.797  10.372  67.099  1.00  0.00    -0.301 A  
ENDBRANCH  11  14
ENDBRANCH   9  11
ENDBRANCH   7   9
ENDBRANCH   5   7
ENDBRANCH   4   5
ENDBRANCH   3   4
ENDBRANCH   2   3
TORSDOF 7
ENDMDL
MODEL      283
REMARK 921   NORMALIZED FREE ENERGY PREDICTED BY IDOCK:   -2.43 KCAL/MOL
REMARK 922        TOTAL FREE ENERGY PREDICTED BY IDOCK:   -4.05 KCAL/MOL
REMARK 923 INTER-LIGAND FREE ENERGY PREDICTED BY IDOCK:   -3.54 KCAL/MOL
REMARK 924 INTRA-LIGAND FREE ENERGY PREDICTED BY IDOCK:   -0.51 KCAL/MOL
REMARK 927      BINDING AFFINITY PREDICTED BY RF-SCORE:    0.00 PKD
ROOT
HETATM    1  C   UNL     1     -11.420   6.349  69.929  1.00  0.00    -0.483 C  
HETATM    2  C   UNL     1     -11.319   6.144  71.433  1.00  0.00    -0.336 C  
ENDROOT
BRANCH   2   3
HETATM    3  C   UNL     1     -11.258   7.477  72.182  1.00  0.00    -0.313 C  
BRANCH   3   4
HETATM    4  C   UNL     1     -11.774   8.643  71.337  1.00  0.00    -0.297 C  
BRANCH   4   5
HETATM    5  N   UNL     1     -10.793   9.698  71.175  1.00  0.00    -0.353 N  
HETATM    6  H   UNL     1     -10.983  10.624  71.557  1.00  0.00     0.000 HD 
BRANCH   5   7
HETATM    7  C   UNL     1      -9.616   9.471  70.517  1.00  0.00    -0.251 C  
HETATM    8  O   UNL     1      -8.551   9.310  71.091  1.00  0.00    -0.281 OA 
BRANCH   7   9
HETATM    9  N   UNL     1      -9.761   9.419  69.143  1.00  0.00    -0.160 N  
HETATM   10  H   UNL     1     -10.707   9.412  68.763  1.00  0.00     0.000 HD 
BRANCH   9  11
HETATM   11  S   UNL     1      -8.491   9.368  68.067  1.00  0.00    -0.120 S  
HETATM   12  O   UNL     1      -7.300   9.909  68.679  1.00  0.00    -0.072 OA 
HETATM   13  O   UNL     1      -9.013   9.937  66.839  1.00  0.00    -0.137 OA 
BRANCH  11  14
HETATM   14  C   UNL     1      -8.272   7.626  67.794  1.00  0.00    -0.119 A  
HETATM   15  C   UNL     1      -8.940   7.003  66.736  1.00  0.00    -0.145 A  
HETATM   16  C   UNL     1      -8.810   5.625  66.553  1.00  0.00    -0.123 A  
HETATM   17  C   UNL     1      -8.011   4.867  67.420  1.00  0.00    -0.095 A  
HETATM   18  C   UNL     1      -7.302   5.514  68.442  1.00  0.00    -0.076 A  
HETATM   19  C   UNL     1      -7.917   3.376  67.274  1.00  0.00    -0.078 C  
HETATM   20  C   UNL     1      -7.424   6.892  68.626  1.00  0.00    -0.099 A  
ENDBRANCH  11  14
ENDBRANCH   9  11
ENDBRANCH   7   9
ENDBRANCH   5   7
ENDBRANCH   4   5
ENDBRANCH   3   4
ENDBRANCH   2   3
TORSDOF 7
ENDMDL
MODEL      284
REMARK 921   NORMALIZED FREE ENERGY PREDICTED BY IDOCK:   -2.40 KCAL/MOL
REMARK 922        TOTAL FREE ENERGY PREDICTED BY IDOCK:   -4.01 KCAL/MOL
REMARK 923 INTER-LIGAND FREE ENERGY PREDICTED BY IDOCK:   -3.75 KCAL/MOL
REMARK 924 INTRA-LIGAND FREE ENERGY PREDICTED BY IDOCK:   -0.26 KCAL/MOL
REMARK 927      BINDING AFFINITY PREDICTED BY RF-SCORE:    0.00 PKD
ROOT
HETATM    1  C   UNL     1      -9.345   6.797  70.004  1.00  0.00    -0.158 C  
HETATM    2  C   UNL     1      -8.729   7.463  71.224  1.00  0.00    -0.126 C  
ENDROOT
BRANCH   2   3
HETATM    3  C   UNL     1      -9.173   8.922  71.357  1.00  0.00    -0.328 C  
BRANCH   3   4
HETATM    4  C   UNL     1      -8.301   9.872  70.536  1.00  0.00     0.200 C  
BRANCH   4   5
HETATM    5  N   UNL     1      -9.075  10.738  69.668  1.00  0.00    -0.369 N  
HETATM    6  H   UNL     1      -9.705  11.428  70.078  1.00  0.00     0.000 HD 
BRANCH   5   7
HETATM    7  C   UNL     1      -8.974  10.646  68.307  1.00  0.00    -0.143 C  
HETATM    8  O   UNL     1      -7.921  10.428  67.730  1.00  0.00    -0.101 OA 
BRANCH   7   9
HETATM    9  N   UNL     1     -10.186  10.801  67.659  1.00  0.00    -0.182 N  
HETATM   10  H   UNL     1     -10.378  10.199  66.858  1.00  0.00     0.000 HD 
BRANCH   9  11
HETATM   11  S   UNL     1     -11.351  11.905  68.099  1.00  0.00    -0.315 S  
HETATM   12  O   UNL     1     -11.987  11.492  69.329  1.00  0.00    -0.323 OA 
HETATM   13  O   UNL     1     -12.136  12.124  66.900  1.00  0.00    -0.600 OA 
BRANCH  11  14
HETATM   14  C   UNL     1     -10.408  13.382  68.394  1.00  0.00    -0.251 A  
HETATM   15  C   UNL     1     -10.708  14.186  69.496  1.00  0.00    -0.051 A  
HETATM   16  C   UNL     1     -10.002  15.373  69.698  1.00  0.00    -0.270 A  
HETATM   17  C   UNL     1      -8.993  15.759  68.805  1.00  0.00    -0.214 A  
HETATM   18  C   UNL     1      -8.664  14.914  67.736  1.00  0.00    -0.168 A  
HETATM   19  C   UNL     1      -8.273  17.064  68.974  1.00  0.00    -0.130 C  
HETATM   20  C   UNL     1      -9.362  13.723  67.532  1.00  0.00    -0.222 A  
ENDBRANCH  11  14
ENDBRANCH   9  11
ENDBRANCH   7   9
ENDBRANCH   5   7
ENDBRANCH   4   5
ENDBRANCH   3   4
ENDBRANCH   2   3
TORSDOF 7
ENDMDL
MODEL      285
REMARK 921   NORMALIZED FREE ENERGY PREDICTED BY IDOCK:   -2.39 KCAL/MOL
REMARK 922        TOTAL FREE ENERGY PREDICTED BY IDOCK:   -3.99 KCAL/MOL
REMARK 923 INTER-LIGAND FREE ENERGY PREDICTED BY IDOCK:   -3.29 KCAL/MOL
REMARK 924 INTRA-LIGAND FREE ENERGY PREDICTED BY IDOCK:   -0.70 KCAL/MOL
REMARK 927      BINDING AFFINITY PREDICTED BY RF-SCORE:    0.00 PKD
ROOT
HETATM    1  C   UNL     1      -9.751   4.221  67.329  1.00  0.00    -0.216 C  
HETATM    2  C   UNL     1      -8.913   3.435  68.325  1.00  0.00    -0.184 C  
ENDROOT
BRANCH   2   3
HETATM    3  C   UNL     1      -7.602   4.154  68.653  1.00  0.00    -0.059 C  
BRANCH   3   4
HETATM    4  C   UNL     1      -7.280   5.262  67.649  1.00  0.00    -0.071 C  
BRANCH   4   5
HETATM    5  N   UNL     1      -7.068   6.549  68.282  1.00  0.00    -0.080 N  
HETATM    6  H   UNL     1      -6.977   6.601  69.297  1.00  0.00     0.000 HD 
BRANCH   5   7
HETATM    7  C   UNL     1      -6.987   7.695  67.540  1.00  0.00    -0.081 C  
HETATM    8  O   UNL     1      -5.960   8.345  67.426  1.00  0.00    -0.045 OA 
BRANCH   7   9
HETATM    9  N   UNL     1      -8.177   8.025  66.917  1.00  0.00    -0.114 N  
HETATM   10  H   UNL     1      -8.460   7.473  66.107  1.00  0.00     0.000 HD 
BRANCH   9  11
HETATM   11  S   UNL     1      -9.176   9.265  67.401  1.00  0.00    -0.127 S  
HETATM   12  O   UNL     1     -10.264   9.421  66.462  1.00  0.00    -0.258 OA 
HETATM   13  O   UNL     1      -8.289  10.374  67.693  1.00  0.00    -0.114 OA 
BRANCH  11  14
HETATM   14  C   UNL     1      -9.817   8.677  68.950  1.00  0.00    -0.179 A  
HETATM   15  C   UNL     1     -10.488   7.452  68.999  1.00  0.00    -0.217 A  
HETATM   16  C   UNL     1     -11.037   7.014  70.206  1.00  0.00    -0.323 A  
HETATM   17  C   UNL     1     -10.916   7.793  71.365  1.00  0.00    -0.264 A  
HETATM   18  C   UNL     1     -10.191   8.992  71.313  1.00  0.00    -0.384 A  
HETATM   19  C   UNL     1     -11.560   7.365  72.651  1.00  0.00    -0.295 C  
HETATM   20  C   UNL     1      -9.635   9.432  70.111  1.00  0.00    -0.275 A  
ENDBRANCH  11  14
ENDBRANCH   9  11
ENDBRANCH   7   9
ENDBRANCH   5   7
ENDBRANCH   4   5
ENDBRANCH   3   4
ENDBRANCH   2   3
TORSDOF 7
ENDMDL
MODEL      286
REMARK 921   NORMALIZED FREE ENERGY PREDICTED BY IDOCK:   -2.38 KCAL/MOL
REMARK 922        TOTAL FREE ENERGY PREDICTED BY IDOCK:   -3.98 KCAL/MOL
REMARK 923 INTER-LIGAND FREE ENERGY PREDICTED BY IDOCK:   -3.32 KCAL/MOL
REMARK 924 INTRA-LIGAND FREE ENERGY PREDICTED BY IDOCK:   -0.66 KCAL/MOL
REMARK 927      BINDING AFFINITY PREDICTED BY RF-SCORE:    0.00 PKD
ROOT
HETATM    1  C   UNL     1      -7.976   2.443  71.915  1.00  0.00    -0.052 C  
HETATM    2  C   UNL     1      -8.824   3.248  72.888  1.00  0.00    -0.094 C  
ENDROOT
BRANCH   2   3
HETATM    3  C   UNL     1      -9.132   4.646  72.346  1.00  0.00    -0.142 C  
BRANCH   3   4
HETATM    4  C   UNL     1      -8.103   5.110  71.314  1.00  0.00    -0.113 C  
BRANCH   4   5
HETATM    5  N   UNL     1      -7.127   6.028  71.866  1.00  0.00    -0.084 N  
HETATM    6  H   UNL     1      -6.425   5.681  72.521  1.00  0.00     0.000 HD 
BRANCH   5   7
HETATM    7  C   UNL     1      -7.130   7.352  71.524  1.00  0.00    -0.066 C  
HETATM    8  O   UNL     1      -7.118   8.254  72.347  1.00  0.00    -0.090 OA 
BRANCH   7   9
HETATM    9  N   UNL     1      -7.124   7.562  70.158  1.00  0.00    -0.059 N  
HETATM   10  H   UNL     1      -6.482   7.006  69.592  1.00  0.00     0.000 HD 
BRANCH   9  11
HETATM   11  S   UNL     1      -8.096   8.663  69.374  1.00  0.00    -0.113 S  
HETATM   12  O   UNL     1      -8.072   8.421  67.949  1.00  0.00    -0.119 OA 
HETATM   13  O   UNL     1      -7.712   9.955  69.909  1.00  0.00    -0.137 OA 
BRANCH  11  14
HETATM   14  C   UNL     1      -9.713   8.286  70.006  1.00  0.00    -0.176 A  
HETATM   15  C   UNL     1     -10.321   9.158  70.914  1.00  0.00    -0.349 A  
HETATM   16  C   UNL     1     -11.568   8.836  71.451  1.00  0.00    -0.366 A  
HETATM   17  C   UNL     1     -12.215   7.648  71.082  1.00  0.00    -0.310 A  
HETATM   18  C   UNL     1     -11.619   6.811  70.127  1.00  0.00    -0.397 A  
HETATM   19  C   UNL     1     -13.524   7.259  71.703  1.00  0.00    -0.428 C  
HETATM   20  C   UNL     1     -10.374   7.131  69.582  1.00  0.00    -0.224 A  
ENDBRANCH  11  14
ENDBRANCH   9  11
ENDBRANCH   7   9
ENDBRANCH   5   7
ENDBRANCH   4   5
ENDBRANCH   3   4
ENDBRANCH   2   3
TORSDOF 7
ENDMDL
MODEL      287
REMARK 921   NORMALIZED FREE ENERGY PREDICTED BY IDOCK:   -2.31 KCAL/MOL
REMARK 922        TOTAL FREE ENERGY PREDICTED BY IDOCK:   -3.88 KCAL/MOL
REMARK 923 INTER-LIGAND FREE ENERGY PREDICTED BY IDOCK:   -3.64 KCAL/MOL
REMARK 924 INTRA-LIGAND FREE ENERGY PREDICTED BY IDOCK:   -0.24 KCAL/MOL
REMARK 927      BINDING AFFINITY PREDICTED BY RF-SCORE:    0.00 PKD
ROOT
HETATM    1  C   UNL     1      -6.945   6.631  66.724  1.00  0.00    -0.067 C  
HETATM    2  C   UNL     1      -7.809   7.871  66.557  1.00  0.00    -0.098 C  
ENDROOT
BRANCH   2   3
HETATM    3  C   UNL     1      -7.265   8.795  65.465  1.00  0.00    -0.084 C  
BRANCH   3   4
HETATM    4  C   UNL     1      -7.602  10.264  65.725  1.00  0.00    -0.143 C  
BRANCH   4   5
HETATM    5  N   UNL     1      -7.351  10.664  67.097  1.00  0.00    -0.095 N  
HETATM    6  H   UNL     1      -6.619  10.195  67.631  1.00  0.00     0.000 HD 
BRANCH   5   7
HETATM    7  C   UNL     1      -8.081  11.659  67.686  1.00  0.00    -0.140 C  
HETATM    8  O   UNL     1      -8.860  11.460  68.605  1.00  0.00    -0.164 OA 
BRANCH   7   9
HETATM    9  N   UNL     1      -7.828  12.909  67.153  1.00  0.00    -0.353 N  
HETATM   10  H   UNL     1      -8.161  13.101  66.208  1.00  0.00     0.000 HD 
BRANCH   9  11
HETATM   11  S   UNL     1      -7.014  14.122  67.952  1.00  0.00    -0.180 S  
HETATM   12  O   UNL     1      -5.691  14.283  67.394  1.00  0.00    -0.344 OA 
HETATM   13  O   UNL     1      -7.190  13.831  69.361  1.00  0.00    -0.025 OA 
BRANCH  11  14
HETATM   14  C   UNL     1      -7.986  15.563  67.582  1.00  0.00    -0.151 A  
HETATM   15  C   UNL     1      -9.157  15.810  68.302  1.00  0.00    -0.187 A  
HETATM   16  C   UNL     1      -9.948  16.913  67.977  1.00  0.00    -0.279 A  
HETATM   17  C   UNL     1      -9.573  17.773  66.937  1.00  0.00    -0.288 A  
HETATM   18  C   UNL     1      -8.366  17.545  66.260  1.00  0.00    -0.259 A  
HETATM   19  C   UNL     1     -10.449  18.923  66.534  1.00  0.00    -0.500 C  
HETATM   20  C   UNL     1      -7.568  16.447  66.585  1.00  0.00    -0.288 A  
ENDBRANCH  11  14
ENDBRANCH   9  11
ENDBRANCH   7   9
ENDBRANCH   5   7
ENDBRANCH   4   5
ENDBRANCH   3   4
ENDBRANCH   2   3
TORSDOF 7
ENDMDL
MODEL      288
REMARK 921   NORMALIZED FREE ENERGY PREDICTED BY IDOCK:   -2.30 KCAL/MOL
REMARK 922        TOTAL FREE ENERGY PREDICTED BY IDOCK:   -3.87 KCAL/MOL
REMARK 923 INTER-LIGAND FREE ENERGY PREDICTED BY IDOCK:   -4.00 KCAL/MOL
REMARK 924 INTRA-LIGAND FREE ENERGY PREDICTED BY IDOCK:    0.13 KCAL/MOL
REMARK 927      BINDING AFFINITY PREDICTED BY RF-SCORE:    0.00 PKD
ROOT
HETATM    1  C   UNL     1      -9.536   2.298  71.292  1.00  0.00    -0.221 C  
HETATM    2  C   UNL     1      -9.686   3.697  71.869  1.00  0.00    -0.236 C  
ENDROOT
BRANCH   2   3
HETATM    3  C   UNL     1     -10.266   4.673  70.842  1.00  0.00    -0.213 C  
BRANCH   3   4
HETATM    4  C   UNL     1      -9.473   4.681  69.535  1.00  0.00    -0.166 C  
BRANCH   4   5
HETATM    5  N   UNL     1      -9.353   6.005  68.957  1.00  0.00    -0.124 N  
HETATM    6  H   UNL     1      -9.462   6.126  67.950  1.00  0.00     0.000 HD 
BRANCH   5   7
HETATM    7  C   UNL     1      -9.095   7.096  69.740  1.00  0.00    -0.141 C  
HETATM    8  O   UNL     1      -8.219   7.114  70.591  1.00  0.00    -0.115 OA 
BRANCH   7   9
HETATM    9  N   UNL     1      -9.909   8.176  69.455  1.00  0.00    -0.178 N  
HETATM   10  H   UNL     1     -10.713   8.021  68.846  1.00  0.00     0.000 HD 
BRANCH   9  11
HETATM   11  S   UNL     1      -9.664   9.716  70.041  1.00  0.00    -0.249 S  
HETATM   12  O   UNL     1      -8.306   9.855  70.515  1.00  0.00    -0.182 OA 
HETATM   13  O   UNL     1     -10.785   9.966  70.927  1.00  0.00    -0.311 OA 
BRANCH  11  14
HETATM   14  C   UNL     1      -9.890  10.729  68.599  1.00  0.00    -0.184 A  
HETATM   15  C   UNL     1      -8.778  11.303  67.977  1.00  0.00    -0.144 A  
HETATM   16  C   UNL     1      -8.960  12.142  66.876  1.00  0.00    -0.201 A  
HETATM   17  C   UNL     1     -10.248  12.407  66.391  1.00  0.00    -0.253 A  
HETATM   18  C   UNL     1     -11.349  11.778  66.989  1.00  0.00    -0.387 A  
HETATM   19  C   UNL     1     -10.461  13.359  65.251  1.00  0.00    -0.334 C  
HETATM   20  C   UNL     1     -11.173  10.934  68.087  1.00  0.00    -0.363 A  
ENDBRANCH  11  14
ENDBRANCH   9  11
ENDBRANCH   7   9
ENDBRANCH   5   7
ENDBRANCH   4   5
ENDBRANCH   3   4
ENDBRANCH   2   3
TORSDOF 7
ENDMDL
MODEL      289
REMARK 921   NORMALIZED FREE ENERGY PREDICTED BY IDOCK:   -2.29 KCAL/MOL
REMARK 922        TOTAL FREE ENERGY PREDICTED BY IDOCK:   -3.86 KCAL/MOL
REMARK 923 INTER-LIGAND FREE ENERGY PREDICTED BY IDOCK:   -3.48 KCAL/MOL
REMARK 924 INTRA-LIGAND FREE ENERGY PREDICTED BY IDOCK:   -0.38 KCAL/MOL
REMARK 927      BINDING AFFINITY PREDICTED BY RF-SCORE:    0.00 PKD
ROOT
HETATM    1  C   UNL     1      -7.007   4.448  69.988  1.00  0.00    -0.041 C  
HETATM    2  C   UNL     1      -6.075   4.583  68.793  1.00  0.00    -0.030 C  
ENDROOT
BRANCH   2   3
HETATM    3  C   UNL     1      -6.849   4.845  67.499  1.00  0.00    -0.060 C  
BRANCH   3   4
HETATM    4  C   UNL     1      -8.304   5.237  67.761  1.00  0.00    -0.098 C  
BRANCH   4   5
HETATM    5  N   UNL     1      -8.678   6.479  67.113  1.00  0.00    -0.111 N  
HETATM    6  H   UNL     1      -7.988   6.983  66.556  1.00  0.00     0.000 HD 
BRANCH   5   7
HETATM    7  C   UNL     1      -9.941   6.987  67.237  1.00  0.00    -0.181 C  
HETATM    8  O   UNL     1     -10.906   6.527  66.645  1.00  0.00    -0.275 OA 
BRANCH   7   9
HETATM    9  N   UNL     1     -10.017   8.052  68.115  1.00  0.00    -0.178 N  
HETATM   10  H   UNL     1     -10.765   8.046  68.809  1.00  0.00     0.000 HD 
BRANCH   9  11
HETATM   11  S   UNL     1      -8.969   9.345  68.113  1.00  0.00    -0.127 S  
HETATM   12  O   UNL     1      -7.638   8.905  67.761  1.00  0.00    -0.092 OA 
HETATM   13  O   UNL     1      -9.212  10.030  69.368  1.00  0.00    -0.191 OA 
BRANCH  11  14
HETATM   14  C   UNL     1      -9.610  10.374  66.814  1.00  0.00    -0.171 A  
HETATM   15  C   UNL     1      -9.729   9.860  65.520  1.00  0.00    -0.370 A  
HETATM   16  C   UNL     1     -10.183  10.685  64.489  1.00  0.00    -0.399 A  
HETATM   17  C   UNL     1     -10.523  12.020  64.745  1.00  0.00    -0.335 A  
HETATM   18  C   UNL     1     -10.452  12.506  66.059  1.00  0.00    -0.282 A  
HETATM   19  C   UNL     1     -10.948  12.934  63.634  1.00  0.00    -0.321 C  
HETATM   20  C   UNL     1     -10.004  11.685  67.095  1.00  0.00    -0.219 A  
ENDBRANCH  11  14
ENDBRANCH   9  11
ENDBRANCH   7   9
ENDBRANCH   5   7
ENDBRANCH   4   5
ENDBRANCH   3   4
ENDBRANCH   2   3
TORSDOF 7
ENDMDL
MODEL      290
REMARK 921   NORMALIZED FREE ENERGY PREDICTED BY IDOCK:   -2.24 KCAL/MOL
REMARK 922        TOTAL FREE ENERGY PREDICTED BY IDOCK:   -3.78 KCAL/MOL
REMARK 923 INTER-LIGAND FREE ENERGY PREDICTED BY IDOCK:   -3.51 KCAL/MOL
REMARK 924 INTRA-LIGAND FREE ENERGY PREDICTED BY IDOCK:   -0.26 KCAL/MOL
REMARK 927      BINDING AFFINITY PREDICTED BY RF-SCORE:    0.00 PKD
ROOT
HETATM    1  C   UNL     1      -6.342   4.962  63.178  1.00  0.00    -0.026 C  
HETATM    2  C   UNL     1      -7.305   4.116  63.996  1.00  0.00    -0.055 C  
ENDROOT
BRANCH   2   3
HETATM    3  C   UNL     1      -8.757   4.562  63.799  1.00  0.00    -0.139 C  
BRANCH   3   4
HETATM    4  C   UNL     1      -9.738   3.724  64.619  1.00  0.00    -0.183 C  
BRANCH   4   5
HETATM    5  N   UNL     1     -10.791   4.520  65.221  1.00  0.00    -0.755 N  
HETATM    6  H   UNL     1     -11.720   4.526  64.799  1.00  0.00     0.000 HD 
BRANCH   5   7
HETATM    7  C   UNL     1     -10.558   5.263  66.344  1.00  0.00    -0.276 C  
HETATM    8  O   UNL     1     -10.926   6.422  66.466  1.00  0.00    -0.216 OA 
BRANCH   7   9
HETATM    9  N   UNL     1      -9.889   4.564  67.332  1.00  0.00    -0.177 N  
HETATM   10  H   UNL     1     -10.272   3.664  67.622  1.00  0.00     0.000 HD 
BRANCH   9  11
HETATM   11  S   UNL     1      -8.500   5.095  68.079  1.00  0.00    -0.099 S  
HETATM   12  O   UNL     1      -7.772   5.983  67.202  1.00  0.00    -0.098 OA 
HETATM   13  O   UNL     1      -7.871   3.897  68.603  1.00  0.00    -0.067 OA 
BRANCH  11  14
HETATM   14  C   UNL     1      -9.121   6.017  69.465  1.00  0.00    -0.137 A  
HETATM   15  C   UNL     1      -8.791   5.620  70.763  1.00  0.00    -0.146 A  
HETATM   16  C   UNL     1      -9.322   6.313  71.853  1.00  0.00    -0.153 A  
HETATM   17  C   UNL     1     -10.178   7.403  71.652  1.00  0.00    -0.205 A  
HETATM   18  C   UNL     1     -10.455   7.825  70.343  1.00  0.00    -0.221 A  
HETATM   19  C   UNL     1     -10.808   8.113  72.814  1.00  0.00    -0.390 C  
HETATM   20  C   UNL     1      -9.923   7.140  69.250  1.00  0.00    -0.168 A  
ENDBRANCH  11  14
ENDBRANCH   9  11
ENDBRANCH   7   9
ENDBRANCH   5   7
ENDBRANCH   4   5
ENDBRANCH   3   4
ENDBRANCH   2   3
TORSDOF 7
ENDMDL
MODEL      291
REMARK 921   NORMALIZED FREE ENERGY PREDICTED BY IDOCK:   -2.23 KCAL/MOL
REMARK 922        TOTAL FREE ENERGY PREDICTED BY IDOCK:   -3.76 KCAL/MOL
REMARK 923 INTER-LIGAND FREE ENERGY PREDICTED BY IDOCK:   -3.27 KCAL/MOL
REMARK 924 INTRA-LIGAND FREE ENERGY PREDICTED BY IDOCK:   -0.49 KCAL/MOL
REMARK 927      BINDING AFFINITY PREDICTED BY RF-SCORE:    0.00 PKD
ROOT
HETATM    1  C   UNL     1     -11.134   6.110  69.340  1.00  0.00    -0.479 C  
HETATM    2  C   UNL     1     -11.176   5.985  70.854  1.00  0.00    -0.335 C  
ENDROOT
BRANCH   2   3
HETATM    3  C   UNL     1     -11.086   7.352  71.538  1.00  0.00    -0.266 C  
BRANCH   3   4
HETATM    4  C   UNL     1     -11.318   8.506  70.562  1.00  0.00    -0.217 C  
BRANCH   4   5
HETATM    5  N   UNL     1     -10.281   9.517  70.629  1.00  0.00    -0.285 N  
HETATM    6  H   UNL     1     -10.542  10.500  70.710  1.00  0.00     0.000 HD 
BRANCH   5   7
HETATM    7  C   UNL     1      -8.958   9.175  70.585  1.00  0.00    -0.244 C  
HETATM    8  O   UNL     1      -8.209   9.283  71.543  1.00  0.00    -0.327 OA 
BRANCH   7   9
HETATM    9  N   UNL     1      -8.565   8.674  69.358  1.00  0.00    -0.126 N  
HETATM   10  H   UNL     1      -8.982   9.082  68.521  1.00  0.00     0.000 HD 
BRANCH   9  11
HETATM   11  S   UNL     1      -7.456   7.449  69.156  1.00  0.00    -0.101 S  
HETATM   12  O   UNL     1      -7.735   6.371  70.076  1.00  0.00    -0.097 OA 
HETATM   13  O   UNL     1      -6.163   8.106  69.159  1.00  0.00    -0.037 OA 
BRANCH  11  14
HETATM   14  C   UNL     1      -7.768   6.900  67.496  1.00  0.00    -0.111 A  
HETATM   15  C   UNL     1      -8.829   6.026  67.245  1.00  0.00    -0.107 A  
HETATM   16  C   UNL     1      -9.043   5.554  65.948  1.00  0.00    -0.163 A  
HETATM   17  C   UNL     1      -8.203   5.954  64.900  1.00  0.00    -0.135 A  
HETATM   18  C   UNL     1      -7.178   6.875  65.156  1.00  0.00    -0.074 A  
HETATM   19  C   UNL     1      -8.382   5.400  63.517  1.00  0.00    -0.097 C  
HETATM   20  C   UNL     1      -6.963   7.356  66.449  1.00  0.00    -0.069 A  
ENDBRANCH  11  14
ENDBRANCH   9  11
ENDBRANCH   7   9
ENDBRANCH   5   7
ENDBRANCH   4   5
ENDBRANCH   3   4
ENDBRANCH   2   3
TORSDOF 7
ENDMDL
MODEL      292
REMARK 921   NORMALIZED FREE ENERGY PREDICTED BY IDOCK:   -2.22 KCAL/MOL
REMARK 922        TOTAL FREE ENERGY PREDICTED BY IDOCK:   -3.75 KCAL/MOL
REMARK 923 INTER-LIGAND FREE ENERGY PREDICTED BY IDOCK:   -3.21 KCAL/MOL
REMARK 924 INTRA-LIGAND FREE ENERGY PREDICTED BY IDOCK:   -0.54 KCAL/MOL
REMARK 927      BINDING AFFINITY PREDICTED BY RF-SCORE:    0.00 PKD
ROOT
HETATM    1  C   UNL     1      -8.992   4.999  67.413  1.00  0.00    -0.111 C  
HETATM    2  C   UNL     1      -8.418   3.771  68.102  1.00  0.00    -0.107 C  
ENDROOT
BRANCH   2   3
HETATM    3  C   UNL     1      -7.409   4.152  69.189  1.00  0.00    -0.054 C  
BRANCH   3   4
HETATM    4  C   UNL     1      -6.792   5.531  68.951  1.00  0.00    -0.055 C  
BRANCH   4   5
HETATM    5  N   UNL     1      -6.053   6.022  70.098  1.00  0.00    -0.025 N  
HETATM    6  H   UNL     1      -5.045   6.162  70.024  1.00  0.00     0.000 HD 
BRANCH   5   7
HETATM    7  C   UNL     1      -6.685   6.300  71.278  1.00  0.00    -0.058 C  
HETATM    8  O   UNL     1      -6.202   6.043  72.370  1.00  0.00    -0.043 OA 
BRANCH   7   9
HETATM    9  N   UNL     1      -7.909   6.920  71.109  1.00  0.00    -0.099 N  
HETATM   10  H   UNL     1      -8.744   6.334  71.103  1.00  0.00     0.000 HD 
BRANCH   9  11
HETATM   11  S   UNL     1      -8.110   8.561  70.912  1.00  0.00    -0.141 S  
HETATM   12  O   UNL     1      -7.713   8.953  69.579  1.00  0.00    -0.083 OA 
HETATM   13  O   UNL     1      -7.484   9.161  72.074  1.00  0.00    -0.336 OA 
BRANCH  11  14
HETATM   14  C   UNL     1      -9.866   8.770  71.087  1.00  0.00    -0.244 A  
HETATM   15  C   UNL     1     -10.449  10.002  70.783  1.00  0.00    -0.135 A  
HETATM   16  C   UNL     1     -11.821  10.182  70.971  1.00  0.00    -0.475 A  
HETATM   17  C   UNL     1     -12.614   9.135  71.458  1.00  0.00    -0.413 A  
HETATM   18  C   UNL     1     -12.024   7.886  71.705  1.00  0.00    -0.337 A  
HETATM   19  C   UNL     1     -14.076   9.336  71.727  1.00  0.00    -0.255 C  
HETATM   20  C   UNL     1     -10.655   7.699  71.514  1.00  0.00    -0.239 A  
ENDBRANCH  11  14
ENDBRANCH   9  11
ENDBRANCH   7   9
ENDBRANCH   5   7
ENDBRANCH   4   5
ENDBRANCH   3   4
ENDBRANCH   2   3
TORSDOF 7
ENDMDL
MODEL      293
REMARK 921   NORMALIZED FREE ENERGY PREDICTED BY IDOCK:   -2.11 KCAL/MOL
REMARK 922        TOTAL FREE ENERGY PREDICTED BY IDOCK:   -3.60 KCAL/MOL
REMARK 923 INTER-LIGAND FREE ENERGY PREDICTED BY IDOCK:   -3.39 KCAL/MOL
REMARK 924 INTRA-LIGAND FREE ENERGY PREDICTED BY IDOCK:   -0.21 KCAL/MOL
REMARK 927      BINDING AFFINITY PREDICTED BY RF-SCORE:    0.00 PKD
ROOT
HETATM    1  C   UNL     1     -11.781  13.336  68.953  1.00  0.00    -0.369 C  
HETATM    2  C   UNL     1     -10.865  13.325  67.739  1.00  0.00    -0.268 C  
ENDROOT
BRANCH   2   3
HETATM    3  C   UNL     1     -10.335  11.920  67.442  1.00  0.00    -0.228 C  
BRANCH   3   4
HETATM    4  C   UNL     1     -10.979  11.307  66.197  1.00  0.00    -0.191 C  
BRANCH   4   5
HETATM    5  N   UNL     1     -10.062  10.476  65.442  1.00  0.00    -0.288 N  
HETATM    6  H   UNL     1      -9.750  10.782  64.520  1.00  0.00     0.000 HD 
BRANCH   5   7
HETATM    7  C   UNL     1      -9.609   9.288  65.944  1.00  0.00    -0.275 C  
HETATM    8  O   UNL     1      -8.586   8.746  65.557  1.00  0.00    -0.154 OA 
BRANCH   7   9
HETATM    9  N   UNL     1     -10.413   8.778  66.947  1.00  0.00    -0.278 N  
HETATM   10  H   UNL     1     -11.401   8.632  66.739  1.00  0.00     0.000 HD 
BRANCH   9  11
HETATM   11  S   UNL     1      -9.874   8.387  68.473  1.00  0.00    -0.178 S  
HETATM   12  O   UNL     1     -10.957   8.492  69.424  1.00  0.00    -0.147 OA 
HETATM   13  O   UNL     1      -8.658   9.155  68.653  1.00  0.00    -0.126 OA 
BRANCH  11  14
HETATM   14  C   UNL     1      -9.405   6.682  68.303  1.00  0.00    -0.119 A  
HETATM   15  C   UNL     1     -10.302   5.771  67.740  1.00  0.00    -0.266 A  
HETATM   16  C   UNL     1      -9.953   4.421  67.654  1.00  0.00    -0.111 A  
HETATM   17  C   UNL     1      -8.710   3.979  68.125  1.00  0.00    -0.120 A  
HETATM   18  C   UNL     1      -7.797   4.913  68.635  1.00  0.00    -0.077 A  
HETATM   19  C   UNL     1      -8.351   2.522  68.100  1.00  0.00    -0.088 C  
HETATM   20  C   UNL     1      -8.138   6.264  68.718  1.00  0.00    -0.109 A  
ENDBRANCH  11  14
ENDBRANCH   9  11
ENDBRANCH   7   9
ENDBRANCH   5   7
ENDBRANCH   4   5
ENDBRANCH   3   4
ENDBRANCH   2   3
TORSDOF 7
ENDMDL
MODEL      294
REMARK 921   NORMALIZED FREE ENERGY PREDICTED BY IDOCK:   -2.04 KCAL/MOL
REMARK 922        TOTAL FREE ENERGY PREDICTED BY IDOCK:   -3.50 KCAL/MOL
REMARK 923 INTER-LIGAND FREE ENERGY PREDICTED BY IDOCK:   -3.04 KCAL/MOL
REMARK 924 INTRA-LIGAND FREE ENERGY PREDICTED BY IDOCK:   -0.45 KCAL/MOL
REMARK 927      BINDING AFFINITY PREDICTED BY RF-SCORE:    0.00 PKD
ROOT
HETATM    1  C   UNL     1     -11.841  13.379  68.953  1.00  0.00    -0.373 C  
HETATM    2  C   UNL     1     -10.956  13.411  67.717  1.00  0.00    -0.281 C  
ENDROOT
BRANCH   2   3
HETATM    3  C   UNL     1     -10.362  12.034  67.412  1.00  0.00    -0.226 C  
BRANCH   3   4
HETATM    4  C   UNL     1     -10.988  11.391  66.174  1.00  0.00    -0.236 C  
BRANCH   4   5
HETATM    5  N   UNL     1     -10.045  10.591  65.417  1.00  0.00    -0.288 N  
HETATM    6  H   UNL     1      -9.786  10.879  64.472  1.00  0.00     0.000 HD 
BRANCH   5   7
HETATM    7  C   UNL     1      -9.495   9.458  65.948  1.00  0.00    -0.251 C  
HETATM    8  O   UNL     1     -10.151   8.610  66.533  1.00  0.00    -0.273 OA 
BRANCH   7   9
HETATM    9  N   UNL     1      -8.133   9.360  65.734  1.00  0.00    -0.113 N  
HETATM   10  H   UNL     1      -7.783   9.547  64.794  1.00  0.00     0.000 HD 
BRANCH   9  11
HETATM   11  S   UNL     1      -7.025   8.956  66.909  1.00  0.00    -0.078 S  
HETATM   12  O   UNL     1      -5.777   8.560  66.300  1.00  0.00    -0.042 OA 
HETATM   13  O   UNL     1      -7.731   8.054  67.799  1.00  0.00    -0.106 OA 
BRANCH  11  14
HETATM   14  C   UNL     1      -6.795  10.487  67.780  1.00  0.00    -0.073 A  
HETATM   15  C   UNL     1      -6.815  11.693  67.075  1.00  0.00    -0.144 A  
HETATM   16  C   UNL     1      -6.581  12.892  67.751  1.00  0.00    -0.140 A  
HETATM   17  C   UNL     1      -6.332  12.893  69.130  1.00  0.00    -0.105 A  
HETATM   18  C   UNL     1      -6.371  11.681  69.834  1.00  0.00    -0.124 A  
HETATM   19  C   UNL     1      -6.014  14.167  69.855  1.00  0.00    -0.133 C  
HETATM   20  C   UNL     1      -6.610  10.480  69.165  1.00  0.00    -0.057 A  
ENDBRANCH  11  14
ENDBRANCH   9  11
ENDBRANCH   7   9
ENDBRANCH   5   7
ENDBRANCH   4   5
ENDBRANCH   3   4
ENDBRANCH   2   3
TORSDOF 7
ENDMDL
MODEL      295
REMARK 921   NORMALIZED FREE ENERGY PREDICTED BY IDOCK:   -2.04 KCAL/MOL
REMARK 922        TOTAL FREE ENERGY PREDICTED BY IDOCK:   -3.49 KCAL/MOL
REMARK 923 INTER-LIGAND FREE ENERGY PREDICTED BY IDOCK:   -2.48 KCAL/MOL
REMARK 924 INTRA-LIGAND FREE ENERGY PREDICTED BY IDOCK:   -1.01 KCAL/MOL
REMARK 927      BINDING AFFINITY PREDICTED BY RF-SCORE:    0.00 PKD
ROOT
HETATM    1  C   UNL     1      -6.168   5.314  68.803  1.00  0.00    -0.030 C  
HETATM    2  C   UNL     1      -6.111   5.721  70.268  1.00  0.00    -0.026 C  
ENDROOT
BRANCH   2   3
HETATM    3  C   UNL     1      -5.440   7.084  70.450  1.00  0.00    -0.023 C  
BRANCH   3   4
HETATM    4  C   UNL     1      -6.308   8.058  71.248  1.00  0.00    -0.035 C  
BRANCH   4   5
HETATM    5  N   UNL     1      -7.322   7.388  72.040  1.00  0.00    -0.071 N  
HETATM    6  H   UNL     1      -7.126   6.468  72.433  1.00  0.00     0.000 HD 
BRANCH   5   7
HETATM    7  C   UNL     1      -8.537   7.971  72.269  1.00  0.00    -0.157 C  
HETATM    8  O   UNL     1      -9.072   7.991  73.366  1.00  0.00    -0.258 OA 
BRANCH   7   9
HETATM    9  N   UNL     1      -9.084   8.553  71.140  1.00  0.00    -0.172 N  
HETATM   10  H   UNL     1      -8.635   9.391  70.770  1.00  0.00     0.000 HD 
BRANCH   9  11
HETATM   11  S   UNL     1     -10.427   7.975  70.343  1.00  0.00    -0.222 S  
HETATM   12  O   UNL     1     -11.408   9.026  70.198  1.00  0.00    -0.222 OA 
HETATM   13  O   UNL     1     -10.766   6.739  71.022  1.00  0.00    -0.223 OA 
BRANCH  11  14
HETATM   14  C   UNL     1      -9.786   7.545  68.744  1.00  0.00    -0.151 A  
HETATM   15  C   UNL     1      -8.592   8.119  68.300  1.00  0.00    -0.130 A  
HETATM   16  C   UNL     1      -8.115   7.821  67.022  1.00  0.00    -0.117 A  
HETATM   17  C   UNL     1      -8.824   6.948  66.186  1.00  0.00    -0.163 A  
HETATM   18  C   UNL     1      -9.990   6.335  66.666  1.00  0.00    -0.207 A  
HETATM   19  C   UNL     1      -8.357   6.672  64.787  1.00  0.00    -0.010 C  
HETATM   20  C   UNL     1     -10.469   6.624  67.945  1.00  0.00    -0.267 A  
ENDBRANCH  11  14
ENDBRANCH   9  11
ENDBRANCH   7   9
ENDBRANCH   5   7
ENDBRANCH   4   5
ENDBRANCH   3   4
ENDBRANCH   2   3
TORSDOF 7
ENDMDL
MODEL      296
REMARK 921   NORMALIZED FREE ENERGY PREDICTED BY IDOCK:   -2.02 KCAL/MOL
REMARK 922        TOTAL FREE ENERGY PREDICTED BY IDOCK:   -3.48 KCAL/MOL
REMARK 923 INTER-LIGAND FREE ENERGY PREDICTED BY IDOCK:   -3.29 KCAL/MOL
REMARK 924 INTRA-LIGAND FREE ENERGY PREDICTED BY IDOCK:   -0.19 KCAL/MOL
REMARK 927      BINDING AFFINITY PREDICTED BY RF-SCORE:    0.00 PKD
ROOT
HETATM    1  C   UNL     1     -10.194  19.450  65.965  1.00  0.00    -0.540 C  
HETATM    2  C   UNL     1      -9.361  18.829  67.076  1.00  0.00    -0.313 C  
ENDROOT
BRANCH   2   3
HETATM    3  C   UNL     1      -9.869  17.435  67.452  1.00  0.00    -0.281 C  
BRANCH   3   4
HETATM    4  C   UNL     1      -9.145  16.327  66.687  1.00  0.00    -0.248 C  
BRANCH   4   5
HETATM    5  N   UNL     1      -8.428  15.417  67.559  1.00  0.00    -0.164 N  
HETATM    6  H   UNL     1      -7.433  15.253  67.406  1.00  0.00     0.000 HD 
BRANCH   5   7
HETATM    7  C   UNL     1      -9.065  14.774  68.585  1.00  0.00    -0.186 C  
HETATM    8  O   UNL     1      -9.812  15.342  69.366  1.00  0.00    -0.236 OA 
BRANCH   7   9
HETATM    9  N   UNL     1      -8.795  13.419  68.630  1.00  0.00    -0.366 N  
HETATM   10  H   UNL     1      -9.539  12.795  68.942  1.00  0.00     0.000 HD 
BRANCH   9  11
HETATM   11  S   UNL     1      -7.335  12.739  68.209  1.00  0.00    -0.128 S  
HETATM   12  O   UNL     1      -6.249  13.596  68.625  1.00  0.00    -0.079 OA 
HETATM   13  O   UNL     1      -7.483  12.359  66.817  1.00  0.00    -0.005 OA 
BRANCH  11  14
HETATM   14  C   UNL     1      -7.303  11.243  69.166  1.00  0.00    -0.104 A  
HETATM   15  C   UNL     1      -6.285  11.044  70.103  1.00  0.00    -0.146 A  
HETATM   16  C   UNL     1      -6.230   9.846  70.819  1.00  0.00    -0.093 A  
HETATM   17  C   UNL     1      -7.189   8.847  70.605  1.00  0.00    -0.075 A  
HETATM   18  C   UNL     1      -8.237   9.084  69.704  1.00  0.00    -0.116 A  
HETATM   19  C   UNL     1      -7.102   7.530  71.319  1.00  0.00    -0.058 C  
HETATM   20  C   UNL     1      -8.301  10.281  68.990  1.00  0.00    -0.148 A  
ENDBRANCH  11  14
ENDBRANCH   9  11
ENDBRANCH   7   9
ENDBRANCH   5   7
ENDBRANCH   4   5
ENDBRANCH   3   4
ENDBRANCH   2   3
TORSDOF 7
ENDMDL
MODEL      297
REMARK 921   NORMALIZED FREE ENERGY PREDICTED BY IDOCK:   -2.00 KCAL/MOL
REMARK 922        TOTAL FREE ENERGY PREDICTED BY IDOCK:   -3.44 KCAL/MOL
REMARK 923 INTER-LIGAND FREE ENERGY PREDICTED BY IDOCK:   -2.95 KCAL/MOL
REMARK 924 INTRA-LIGAND FREE ENERGY PREDICTED BY IDOCK:   -0.49 KCAL/MOL
REMARK 927      BINDING AFFINITY PREDICTED BY RF-SCORE:    0.00 PKD
ROOT
HETATM    1  C   UNL     1     -11.849  13.383  68.950  1.00  0.00    -0.373 C  
HETATM    2  C   UNL     1     -10.991  13.424  67.695  1.00  0.00    -0.277 C  
ENDROOT
BRANCH   2   3
HETATM    3  C   UNL     1     -10.443  12.039  67.339  1.00  0.00    -0.239 C  
BRANCH   3   4
HETATM    4  C   UNL     1     -11.110  11.453  66.094  1.00  0.00    -0.198 C  
BRANCH   4   5
HETATM    5  N   UNL     1     -10.207  10.639  65.303  1.00  0.00    -0.290 N  
HETATM    6  H   UNL     1      -9.938  10.949  64.369  1.00  0.00     0.000 HD 
BRANCH   5   7
HETATM    7  C   UNL     1      -9.711   9.461  65.789  1.00  0.00    -0.284 C  
HETATM    8  O   UNL     1     -10.405   8.622  66.341  1.00  0.00    -0.262 OA 
BRANCH   7   9
HETATM    9  N   UNL     1      -8.354   9.310  65.571  1.00  0.00    -0.127 N  
HETATM   10  H   UNL     1      -7.714   9.845  66.158  1.00  0.00     0.000 HD 
BRANCH   9  11
HETATM   11  S   UNL     1      -7.696   8.312  64.412  1.00  0.00    -0.131 S  
HETATM   12  O   UNL     1      -6.313   8.662  64.182  1.00  0.00    -0.071 OA 
HETATM   13  O   UNL     1      -8.650   8.321  63.320  1.00  0.00    -0.026 OA 
BRANCH  11  14
HETATM   14  C   UNL     1      -7.777   6.710  65.175  1.00  0.00    -0.101 A  
HETATM   15  C   UNL     1      -7.565   6.588  66.551  1.00  0.00    -0.090 A  
HETATM   16  C   UNL     1      -7.577   5.323  67.142  1.00  0.00    -0.092 A  
HETATM   17  C   UNL     1      -7.804   4.179  66.365  1.00  0.00    -0.094 A  
HETATM   18  C   UNL     1      -8.072   4.322  64.996  1.00  0.00    -0.098 A  
HETATM   19  C   UNL     1      -7.753   2.810  66.977  1.00  0.00    -0.071 C  
HETATM   20  C   UNL     1      -8.067   5.584  64.401  1.00  0.00    -0.124 A  
ENDBRANCH  11  14
ENDBRANCH   9  11
ENDBRANCH   7   9
ENDBRANCH   5   7
ENDBRANCH   4   5
ENDBRANCH   3   4
ENDBRANCH   2   3
TORSDOF 7
ENDMDL
MODEL      298
REMARK 921   NORMALIZED FREE ENERGY PREDICTED BY IDOCK:   -1.95 KCAL/MOL
REMARK 922        TOTAL FREE ENERGY PREDICTED BY IDOCK:   -3.37 KCAL/MOL
REMARK 923 INTER-LIGAND FREE ENERGY PREDICTED BY IDOCK:   -2.52 KCAL/MOL
REMARK 924 INTRA-LIGAND FREE ENERGY PREDICTED BY IDOCK:   -0.85 KCAL/MOL
REMARK 927      BINDING AFFINITY PREDICTED BY RF-SCORE:    0.00 PKD
ROOT
HETATM    1  C   UNL     1      -6.741   3.434  69.558  1.00  0.00    -0.034 C  
HETATM    2  C   UNL     1      -5.736   3.681  68.444  1.00  0.00    -0.022 C  
ENDROOT
BRANCH   2   3
HETATM    3  C   UNL     1      -6.423   3.825  67.084  1.00  0.00    -0.037 C  
BRANCH   3   4
HETATM    4  C   UNL     1      -7.948   3.800  67.197  1.00  0.00    -0.091 C  
BRANCH   4   5
HETATM    5  N   UNL     1      -8.573   4.980  66.631  1.00  0.00    -0.110 N  
HETATM    6  H   UNL     1      -7.990   5.713  66.228  1.00  0.00     0.000 HD 
BRANCH   5   7
HETATM    7  C   UNL     1      -9.933   5.125  66.629  1.00  0.00    -0.210 C  
HETATM    8  O   UNL     1     -10.678   4.418  65.968  1.00  0.00    -0.149 OA 
BRANCH   7   9
HETATM    9  N   UNL     1     -10.375   6.132  67.467  1.00  0.00    -0.179 N  
HETATM   10  H   UNL     1     -10.681   7.007  67.040  1.00  0.00     0.000 HD 
BRANCH   9  11
HETATM   11  S   UNL     1     -10.441   6.011  69.126  1.00  0.00    -0.290 S  
HETATM   12  O   UNL     1     -10.073   4.678  69.542  1.00  0.00    -0.222 OA 
HETATM   13  O   UNL     1     -11.728   6.570  69.494  1.00  0.00    -0.329 OA 
BRANCH  11  14
HETATM   14  C   UNL     1      -9.193   7.158  69.657  1.00  0.00    -0.146 A  
HETATM   15  C   UNL     1      -7.867   6.971  69.257  1.00  0.00    -0.114 A  
HETATM   16  C   UNL     1      -6.878   7.842  69.718  1.00  0.00    -0.042 A  
HETATM   17  C   UNL     1      -7.207   8.902  70.572  1.00  0.00    -0.071 A  
HETATM   18  C   UNL     1      -8.550   9.112  70.919  1.00  0.00    -0.259 A  
HETATM   19  C   UNL     1      -6.144   9.804  71.127  1.00  0.00    -0.038 C  
HETATM   20  C   UNL     1      -9.544   8.248  70.458  1.00  0.00    -0.180 A  
ENDBRANCH  11  14
ENDBRANCH   9  11
ENDBRANCH   7   9
ENDBRANCH   5   7
ENDBRANCH   4   5
ENDBRANCH   3   4
ENDBRANCH   2   3
TORSDOF 7
ENDMDL
MODEL      299
REMARK 921   NORMALIZED FREE ENERGY PREDICTED BY IDOCK:   -1.94 KCAL/MOL
REMARK 922        TOTAL FREE ENERGY PREDICTED BY IDOCK:   -3.36 KCAL/MOL
REMARK 923 INTER-LIGAND FREE ENERGY PREDICTED BY IDOCK:   -2.53 KCAL/MOL
REMARK 924 INTRA-LIGAND FREE ENERGY PREDICTED BY IDOCK:   -0.83 KCAL/MOL
REMARK 927      BINDING AFFINITY PREDICTED BY RF-SCORE:    0.00 PKD
ROOT
HETATM    1  C   UNL     1     -10.279   4.785  67.525  1.00  0.00    -0.115 C  
HETATM    2  C   UNL     1      -9.084   4.012  68.060  1.00  0.00    -0.179 C  
ENDROOT
BRANCH   2   3
HETATM    3  C   UNL     1      -7.864   4.916  68.251  1.00  0.00    -0.082 C  
BRANCH   3   4
HETATM    4  C   UNL     1      -8.158   6.373  67.890  1.00  0.00    -0.115 C  
BRANCH   4   5
HETATM    5  N   UNL     1      -7.956   7.280  69.003  1.00  0.00    -0.118 N  
HETATM    6  H   UNL     1      -7.154   7.147  69.620  1.00  0.00     0.000 HD 
BRANCH   5   7
HETATM    7  C   UNL     1      -8.822   8.311  69.239  1.00  0.00    -0.143 C  
HETATM    8  O   UNL     1      -8.815   9.349  68.595  1.00  0.00    -0.130 OA 
BRANCH   7   9
HETATM    9  N   UNL     1      -9.716   8.049  70.260  1.00  0.00    -0.175 N  
HETATM   10  H   UNL     1     -10.681   7.838  70.006  1.00  0.00     0.000 HD 
BRANCH   9  11
HETATM   11  S   UNL     1      -9.322   8.056  71.878  1.00  0.00    -0.186 S  
HETATM   12  O   UNL     1     -10.521   8.108  72.681  1.00  0.00    -0.301 OA 
HETATM   13  O   UNL     1      -8.298   9.075  72.013  1.00  0.00    -0.366 OA 
BRANCH  11  14
HETATM   14  C   UNL     1      -8.533   6.479  72.100  1.00  0.00    -0.113 A  
HETATM   15  C   UNL     1      -9.273   5.306  71.927  1.00  0.00    -0.156 A  
HETATM   16  C   UNL     1      -8.667   4.069  72.154  1.00  0.00    -0.121 A  
HETATM   17  C   UNL     1      -7.325   3.997  72.548  1.00  0.00    -0.067 A  
HETATM   18  C   UNL     1      -6.579   5.180  72.662  1.00  0.00    -0.060 A  
HETATM   19  C   UNL     1      -6.682   2.677  72.858  1.00  0.00    -0.022 C  
HETATM   20  C   UNL     1      -7.178   6.420  72.431  1.00  0.00    -0.083 A  
ENDBRANCH  11  14
ENDBRANCH   9  11
ENDBRANCH   7   9
ENDBRANCH   5   7
ENDBRANCH   4   5
ENDBRANCH   3   4
ENDBRANCH   2   3
TORSDOF 7
ENDMDL
MODEL      300
REMARK 921   NORMALIZED FREE ENERGY PREDICTED BY IDOCK:   -1.94 KCAL/MOL
REMARK 922        TOTAL FREE ENERGY PREDICTED BY IDOCK:   -3.35 KCAL/MOL
REMARK 923 INTER-LIGAND FREE ENERGY PREDICTED BY IDOCK:   -2.92 KCAL/MOL
REMARK 924 INTRA-LIGAND FREE ENERGY PREDICTED BY IDOCK:   -0.44 KCAL/MOL
REMARK 927      BINDING AFFINITY PREDICTED BY RF-SCORE:    0.00 PKD
ROOT
HETATM    1  C   UNL     1      -6.576   2.395  70.389  1.00  0.00    -0.032 C  
HETATM    2  C   UNL     1      -7.616   2.788  71.426  1.00  0.00    -0.040 C  
ENDROOT
BRANCH   2   3
HETATM    3  C   UNL     1      -8.819   3.484  70.784  1.00  0.00    -0.139 C  
BRANCH   3   4
HETATM    4  C   UNL     1      -8.534   3.934  69.350  1.00  0.00    -0.064 C  
BRANCH   4   5
HETATM    5  N   UNL     1      -8.660   5.367  69.174  1.00  0.00    -0.102 N  
HETATM    6  H   UNL     1      -7.859   5.970  69.365  1.00  0.00     0.000 HD 
BRANCH   5   7
HETATM    7  C   UNL     1      -9.835   5.926  68.756  1.00  0.00    -0.140 C  
HETATM    8  O   UNL     1     -10.795   6.090  69.492  1.00  0.00    -0.297 OA 
BRANCH   7   9
HETATM    9  N   UNL     1      -9.816   6.305  67.426  1.00  0.00    -0.124 N  
HETATM   10  H   UNL     1     -10.517   5.900  66.805  1.00  0.00     0.000 HD 
BRANCH   9  11
HETATM   11  S   UNL     1      -8.726   7.379  66.772  1.00  0.00    -0.139 S  
HETATM   12  O   UNL     1      -8.737   7.283  65.331  1.00  0.00    -0.089 OA 
HETATM   13  O   UNL     1      -7.498   7.171  67.516  1.00  0.00    -0.096 OA 
BRANCH  11  14
HETATM   14  C   UNL     1      -9.381   8.957  67.261  1.00  0.00    -0.140 A  
HETATM   15  C   UNL     1      -9.372   9.321  68.609  1.00  0.00    -0.139 A  
HETATM   16  C   UNL     1      -9.935  10.538  68.999  1.00  0.00    -0.223 A  
HETATM   17  C   UNL     1     -10.502  11.395  68.047  1.00  0.00    -0.215 A  
HETATM   18  C   UNL     1     -10.453  11.042  66.691  1.00  0.00    -0.307 A  
HETATM   19  C   UNL     1     -11.169  12.674  68.462  1.00  0.00    -0.315 C  
HETATM   20  C   UNL     1      -9.887   9.830  66.294  1.00  0.00    -0.315 A  
ENDBRANCH  11  14
ENDBRANCH   9  11
ENDBRANCH   7   9
ENDBRANCH   5   7
ENDBRANCH   4   5
ENDBRANCH   3   4
ENDBRANCH   2   3
TORSDOF 7
ENDMDL
MODEL      301
REMARK 921   NORMALIZED FREE ENERGY PREDICTED BY IDOCK:   -1.88 KCAL/MOL
REMARK 922        TOTAL FREE ENERGY PREDICTED BY IDOCK:   -3.27 KCAL/MOL
REMARK 923 INTER-LIGAND FREE ENERGY PREDICTED BY IDOCK:   -2.72 KCAL/MOL
REMARK 924 INTRA-LIGAND FREE ENERGY PREDICTED BY IDOCK:   -0.55 KCAL/MOL
REMARK 927      BINDING AFFINITY PREDICTED BY RF-SCORE:    0.00 PKD
ROOT
HETATM    1  C   UNL     1      -9.792   3.927  66.830  1.00  0.00    -0.106 C  
HETATM    2  C   UNL     1      -9.235   2.862  67.761  1.00  0.00    -0.250 C  
ENDROOT
BRANCH   2   3
HETATM    3  C   UNL     1      -7.906   3.295  68.384  1.00  0.00    -0.059 C  
BRANCH   3   4
HETATM    4  C   UNL     1      -7.231   4.417  67.594  1.00  0.00    -0.068 C  
BRANCH   4   5
HETATM    5  N   UNL     1      -7.079   5.636  68.366  1.00  0.00    -0.068 N  
HETATM    6  H   UNL     1      -7.203   5.608  69.378  1.00  0.00     0.000 HD 
BRANCH   5   7
HETATM    7  C   UNL     1      -6.772   6.821  67.758  1.00  0.00    -0.068 C  
HETATM    8  O   UNL     1      -5.730   7.425  67.961  1.00  0.00    -0.025 OA 
BRANCH   7   9
HETATM    9  N   UNL     1      -7.748   7.252  66.878  1.00  0.00    -0.107 N  
HETATM   10  H   UNL     1      -7.506   7.309  65.889  1.00  0.00     0.000 HD 
BRANCH   9  11
HETATM   11  S   UNL     1      -9.292   7.683  67.327  1.00  0.00    -0.151 S  
HETATM   12  O   UNL     1      -9.465   7.497  68.750  1.00  0.00    -0.148 OA 
HETATM   13  O   UNL     1     -10.162   7.008  66.384  1.00  0.00    -0.098 OA 
BRANCH  11  14
HETATM   14  C   UNL     1      -9.345   9.419  66.951  1.00  0.00    -0.147 A  
HETATM   15  C   UNL     1      -8.776  10.336  67.838  1.00  0.00    -0.122 A  
HETATM   16  C   UNL     1      -8.864  11.703  67.568  1.00  0.00    -0.158 A  
HETATM   17  C   UNL     1      -9.514  12.158  66.413  1.00  0.00    -0.238 A  
HETATM   18  C   UNL     1     -10.030  11.224  65.504  1.00  0.00    -0.293 A  
HETATM   19  C   UNL     1      -9.673  13.626  66.147  1.00  0.00    -0.269 C  
HETATM   20  C   UNL     1      -9.940   9.856  65.765  1.00  0.00    -0.347 A  
ENDBRANCH  11  14
ENDBRANCH   9  11
ENDBRANCH   7   9
ENDBRANCH   5   7
ENDBRANCH   4   5
ENDBRANCH   3   4
ENDBRANCH   2   3
TORSDOF 7
ENDMDL
MODEL      302
REMARK 921   NORMALIZED FREE ENERGY PREDICTED BY IDOCK:   -1.86 KCAL/MOL
REMARK 922        TOTAL FREE ENERGY PREDICTED BY IDOCK:   -3.25 KCAL/MOL
REMARK 923 INTER-LIGAND FREE ENERGY PREDICTED BY IDOCK:   -2.38 KCAL/MOL
REMARK 924 INTRA-LIGAND FREE ENERGY PREDICTED BY IDOCK:   -0.87 KCAL/MOL
REMARK 927      BINDING AFFINITY PREDICTED BY RF-SCORE:    0.00 PKD
ROOT
HETATM    1  C   UNL     1      -6.213   5.154  68.622  1.00  0.00    -0.031 C  
HETATM    2  C   UNL     1      -6.358   5.836  69.973  1.00  0.00    -0.031 C  
ENDROOT
BRANCH   2   3
HETATM    3  C   UNL     1      -6.599   7.340  69.825  1.00  0.00    -0.040 C  
BRANCH   3   4
HETATM    4  C   UNL     1      -7.944   7.774  70.409  1.00  0.00    -0.095 C  
BRANCH   4   5
HETATM    5  N   UNL     1      -9.059   7.013  69.880  1.00  0.00    -0.142 N  
HETATM    6  H   UNL     1      -8.934   6.024  69.663  1.00  0.00     0.000 HD 
BRANCH   5   7
HETATM    7  C   UNL     1     -10.276   7.599  69.668  1.00  0.00    -0.204 C  
HETATM    8  O   UNL     1     -11.336   7.029  69.873  1.00  0.00    -0.266 OA 
BRANCH   7   9
HETATM    9  N   UNL     1     -10.182   8.905  69.223  1.00  0.00    -0.204 N  
HETATM   10  H   UNL     1     -10.194   9.649  69.921  1.00  0.00     0.000 HD 
BRANCH   9  11
HETATM   11  S   UNL     1     -10.050   9.343  67.622  1.00  0.00    -0.226 S  
HETATM   12  O   UNL     1     -11.185  10.147  67.232  1.00  0.00    -0.218 OA 
HETATM   13  O   UNL     1      -9.740   8.113  66.919  1.00  0.00    -0.186 OA 
BRANCH  11  14
HETATM   14  C   UNL     1      -8.585  10.348  67.605  1.00  0.00    -0.118 A  
HETATM   15  C   UNL     1      -8.220  11.057  68.752  1.00  0.00    -0.146 A  
HETATM   16  C   UNL     1      -7.098  11.888  68.722  1.00  0.00    -0.111 A  
HETATM   17  C   UNL     1      -6.336  12.010  67.553  1.00  0.00    -0.118 A  
HETATM   18  C   UNL     1      -6.681  11.248  66.427  1.00  0.00    -0.065 A  
HETATM   19  C   UNL     1      -5.168  12.950  67.489  1.00  0.00    -0.046 C  
HETATM   20  C   UNL     1      -7.798  10.411  66.453  1.00  0.00    -0.128 A  
ENDBRANCH  11  14
ENDBRANCH   9  11
ENDBRANCH   7   9
ENDBRANCH   5   7
ENDBRANCH   4   5
ENDBRANCH   3   4
ENDBRANCH   2   3
TORSDOF 7
ENDMDL
MODEL      303
REMARK 921   NORMALIZED FREE ENERGY PREDICTED BY IDOCK:   -1.72 KCAL/MOL
REMARK 922        TOTAL FREE ENERGY PREDICTED BY IDOCK:   -3.04 KCAL/MOL
REMARK 923 INTER-LIGAND FREE ENERGY PREDICTED BY IDOCK:   -2.50 KCAL/MOL
REMARK 924 INTRA-LIGAND FREE ENERGY PREDICTED BY IDOCK:   -0.55 KCAL/MOL
REMARK 927      BINDING AFFINITY PREDICTED BY RF-SCORE:    0.00 PKD
ROOT
HETATM    1  C   UNL     1     -11.854  13.377  68.954  1.00  0.00    -0.373 C  
HETATM    2  C   UNL     1     -10.973  13.306  67.717  1.00  0.00    -0.278 C  
ENDROOT
BRANCH   2   3
HETATM    3  C   UNL     1     -10.442  11.890  67.481  1.00  0.00    -0.233 C  
BRANCH   3   4
HETATM    4  C   UNL     1      -8.915  11.846  67.409  1.00  0.00    -0.173 C  
BRANCH   4   5
HETATM    5  N   UNL     1      -8.356  10.657  68.024  1.00  0.00    -0.116 N  
HETATM    6  H   UNL     1      -7.780  10.748  68.861  1.00  0.00     0.000 HD 
BRANCH   5   7
HETATM    7  C   UNL     1      -8.590   9.416  67.500  1.00  0.00    -0.122 C  
HETATM    8  O   UNL     1      -8.485   9.164  66.310  1.00  0.00    -0.119 OA 
BRANCH   7   9
HETATM    9  N   UNL     1      -8.932   8.477  68.455  1.00  0.00    -0.139 N  
HETATM   10  H   UNL     1      -9.886   8.490  68.816  1.00  0.00     0.000 HD 
BRANCH   9  11
HETATM   11  S   UNL     1      -7.890   7.325  69.053  1.00  0.00    -0.119 S  
HETATM   12  O   UNL     1      -8.397   6.795  70.298  1.00  0.00    -0.130 OA 
HETATM   13  O   UNL     1      -6.576   7.937  68.993  1.00  0.00    -0.042 OA 
BRANCH  11  14
HETATM   14  C   UNL     1      -7.942   6.057  67.810  1.00  0.00    -0.105 A  
HETATM   15  C   UNL     1      -9.149   5.771  67.166  1.00  0.00    -0.112 A  
HETATM   16  C   UNL     1      -9.202   4.739  66.227  1.00  0.00    -0.141 A  
HETATM   17  C   UNL     1      -8.054   3.994  65.925  1.00  0.00    -0.101 A  
HETATM   18  C   UNL     1      -6.838   4.330  66.537  1.00  0.00    -0.055 A  
HETATM   19  C   UNL     1      -8.114   2.840  64.968  1.00  0.00    -0.083 C  
HETATM   20  C   UNL     1      -6.777   5.364  67.473  1.00  0.00    -0.055 A  
ENDBRANCH  11  14
ENDBRANCH   9  11
ENDBRANCH   7   9
ENDBRANCH   5   7
ENDBRANCH   4   5
ENDBRANCH   3   4
ENDBRANCH   2   3
TORSDOF 7
ENDMDL
MODEL      304
REMARK 921   NORMALIZED FREE ENERGY PREDICTED BY IDOCK:   -1.39 KCAL/MOL
REMARK 922        TOTAL FREE ENERGY PREDICTED BY IDOCK:   -2.58 KCAL/MOL
REMARK 923 INTER-LIGAND FREE ENERGY PREDICTED BY IDOCK:   -2.60 KCAL/MOL
REMARK 924 INTRA-LIGAND FREE ENERGY PREDICTED BY IDOCK:    0.02 KCAL/MOL
REMARK 927      BINDING AFFINITY PREDICTED BY RF-SCORE:    0.00 PKD
ROOT
HETATM    1  C   UNL     1      -9.706  15.061  70.301  1.00  0.00     0.393 C  
HETATM    2  C   UNL     1     -10.872  15.711  69.571  1.00  0.00    -0.271 C  
ENDROOT
BRANCH   2   3
HETATM    3  C   UNL     1     -10.391  16.684  68.492  1.00  0.00    -0.303 C  
BRANCH   3   4
HETATM    4  C   UNL     1     -11.174  16.537  67.186  1.00  0.00     0.195 C  
BRANCH   4   5
HETATM    5  N   UNL     1     -10.388  15.937  66.124  1.00  0.00    -0.312 N  
HETATM    6  H   UNL     1     -10.762  15.913  65.175  1.00  0.00     0.000 HD 
BRANCH   5   7
HETATM    7  C   UNL     1      -9.155  15.403  66.375  1.00  0.00    -0.314 C  
HETATM    8  O   UNL     1      -8.325  15.946  67.087  1.00  0.00    -0.171 OA 
BRANCH   7   9
HETATM    9  N   UNL     1      -8.955  14.181  65.760  1.00  0.00    -0.139 N  
HETATM   10  H   UNL     1      -8.115  14.065  65.193  1.00  0.00     0.000 HD 
BRANCH   9  11
HETATM   11  S   UNL     1      -9.994  12.886  65.886  1.00  0.00    -0.243 S  
HETATM   12  O   UNL     1     -10.412  12.456  64.572  1.00  0.00    -0.293 OA 
HETATM   13  O   UNL     1     -10.974  13.284  66.879  1.00  0.00    -0.277 OA 
BRANCH  11  14
HETATM   14  C   UNL     1      -8.975  11.629  66.619  1.00  0.00    -0.189 A  
HETATM   15  C   UNL     1      -8.731  10.443  65.922  1.00  0.00    -0.170 A  
HETATM   16  C   UNL     1      -7.974   9.434  66.519  1.00  0.00    -0.108 A  
HETATM   17  C   UNL     1      -7.455   9.606  67.809  1.00  0.00    -0.087 A  
HETATM   18  C   UNL     1      -7.660  10.823  68.475  1.00  0.00    -0.104 A  
HETATM   19  C   UNL     1      -6.697   8.503  68.488  1.00  0.00    -0.060 C  
HETATM   20  C   UNL     1      -8.411  11.838  67.880  1.00  0.00    -0.149 A  
ENDBRANCH  11  14
ENDBRANCH   9  11
ENDBRANCH   7   9
ENDBRANCH   5   7
ENDBRANCH   4   5
ENDBRANCH   3   4
ENDBRANCH   2   3
TORSDOF 7
ENDMDL
MODEL      305
REMARK 921   NORMALIZED FREE ENERGY PREDICTED BY IDOCK:   -1.30 KCAL/MOL
REMARK 922        TOTAL FREE ENERGY PREDICTED BY IDOCK:   -2.46 KCAL/MOL
REMARK 923 INTER-LIGAND FREE ENERGY PREDICTED BY IDOCK:   -3.15 KCAL/MOL
REMARK 924 INTRA-LIGAND FREE ENERGY PREDICTED BY IDOCK:    0.69 KCAL/MOL
REMARK 927      BINDING AFFINITY PREDICTED BY RF-SCORE:    0.00 PKD
ROOT
HETATM    1  C   UNL     1      -6.215   5.492  67.644  1.00  0.00    -0.034 C  
HETATM    2  C   UNL     1      -5.996   6.312  68.906  1.00  0.00    -0.021 C  
ENDROOT
BRANCH   2   3
HETATM    3  C   UNL     1      -6.279   7.798  68.671  1.00  0.00    -0.036 C  
BRANCH   3   4
HETATM    4  C   UNL     1      -7.762   8.075  68.423  1.00  0.00    -0.117 C  
BRANCH   4   5
HETATM    5  N   UNL     1      -8.350   7.168  67.457  1.00  0.00    -0.116 N  
HETATM    6  H   UNL     1      -7.940   6.244  67.321  1.00  0.00     0.000 HD 
BRANCH   5   7
HETATM    7  C   UNL     1      -9.445   7.532  66.724  1.00  0.00    -0.179 C  
HETATM    8  O   UNL     1     -10.179   6.724  66.175  1.00  0.00     0.104 OA 
BRANCH   7   9
HETATM    9  N   UNL     1      -9.649   8.899  66.688  1.00  0.00    -0.198 N  
HETATM   10  H   UNL     1     -10.345   9.294  67.320  1.00  0.00     0.000 HD 
BRANCH   9  11
HETATM   11  S   UNL     1      -8.832   9.942  65.680  1.00  0.00    -0.169 S  
HETATM   12  O   UNL     1      -8.666   9.344  64.375  1.00  0.00    -0.188 OA 
HETATM   13  O   UNL     1      -7.679  10.380  66.443  1.00  0.00    -0.114 OA 
BRANCH  11  14
HETATM   14  C   UNL     1      -9.942  11.324  65.555  1.00  0.00    -0.247 A  
HETATM   15  C   UNL     1      -9.814  12.395  66.443  1.00  0.00    -0.249 A  
HETATM   16  C   UNL     1     -10.719  13.456  66.379  1.00  0.00    -0.289 A  
HETATM   17  C   UNL     1     -11.749  13.455  65.429  1.00  0.00    -0.354 A  
HETATM   18  C   UNL     1     -11.830  12.401  64.507  1.00  0.00    -0.452 A  
HETATM   19  C   UNL     1     -12.767  14.557  65.394  1.00  0.00    -0.190 C  
HETATM   20  C   UNL     1     -10.925  11.340  64.563  1.00  0.00    -0.301 A  
ENDBRANCH  11  14
ENDBRANCH   9  11
ENDBRANCH   7   9
ENDBRANCH   5   7
ENDBRANCH   4   5
ENDBRANCH   3   4
ENDBRANCH   2   3
TORSDOF 7
ENDMDL
MODEL      306
REMARK 921   NORMALIZED FREE ENERGY PREDICTED BY IDOCK:   -1.27 KCAL/MOL
REMARK 922        TOTAL FREE ENERGY PREDICTED BY IDOCK:   -2.41 KCAL/MOL
REMARK 923 INTER-LIGAND FREE ENERGY PREDICTED BY IDOCK:   -2.94 KCAL/MOL
REMARK 924 INTRA-LIGAND FREE ENERGY PREDICTED BY IDOCK:    0.53 KCAL/MOL
REMARK 927      BINDING AFFINITY PREDICTED BY RF-SCORE:    0.00 PKD
ROOT
HETATM    1  C   UNL     1     -10.004  10.224  69.412  1.00  0.00    -0.254 C  
HETATM    2  C   UNL     1     -10.874   9.586  68.340  1.00  0.00    -0.183 C  
ENDROOT
BRANCH   2   3
HETATM    3  C   UNL     1     -10.075   9.283  67.070  1.00  0.00    -0.313 C  
BRANCH   3   4
HETATM    4  C   UNL     1      -8.594   9.036  67.360  1.00  0.00    -0.115 C  
BRANCH   4   5
HETATM    5  N   UNL     1      -8.381   8.185  68.515  1.00  0.00    -0.125 N  
HETATM    6  H   UNL     1      -8.610   8.535  69.445  1.00  0.00     0.000 HD 
BRANCH   5   7
HETATM    7  C   UNL     1      -7.878   6.922  68.377  1.00  0.00    -0.121 C  
HETATM    8  O   UNL     1      -6.685   6.668  68.440  1.00  0.00    -0.059 OA 
BRANCH   7   9
HETATM    9  N   UNL     1      -8.856   5.963  68.184  1.00  0.00    -0.111 N  
HETATM   10  H   UNL     1      -9.724   6.252  67.733  1.00  0.00     0.000 HD 
BRANCH   9  11
HETATM   11  S   UNL     1      -8.710   4.369  68.640  1.00  0.00    -0.099 S  
HETATM   12  O   UNL     1      -7.339   3.935  68.496  1.00  0.00    -0.054 OA 
HETATM   13  O   UNL     1      -9.780   3.678  67.946  1.00  0.00    -0.159 OA 
BRANCH  11  14
HETATM   14  C   UNL     1      -9.135   4.409  70.365  1.00  0.00    -0.106 A  
HETATM   15  C   UNL     1      -8.403   3.643  71.275  1.00  0.00    -0.085 A  
HETATM   16  C   UNL     1      -8.770   3.634  72.622  1.00  0.00    -0.102 A  
HETATM   17  C   UNL     1      -9.864   4.390  73.065  1.00  0.00    -0.180 A  
HETATM   18  C   UNL     1     -10.554   5.198  72.150  1.00  0.00    -0.273 A  
HETATM   19  C   UNL     1     -10.309   4.336  74.497  1.00  0.00    -0.291 C  
HETATM   20  C   UNL     1     -10.188   5.216  70.803  1.00  0.00    -0.308 A  
ENDBRANCH  11  14
ENDBRANCH   9  11
ENDBRANCH   7   9
ENDBRANCH   5   7
ENDBRANCH   4   5
ENDBRANCH   3   4
ENDBRANCH   2   3
TORSDOF 7
ENDMDL
MODEL      307
REMARK 921   NORMALIZED FREE ENERGY PREDICTED BY IDOCK:    1.67 KCAL/MOL
REMARK 922        TOTAL FREE ENERGY PREDICTED BY IDOCK:    1.72 KCAL/MOL
REMARK 923 INTER-LIGAND FREE ENERGY PREDICTED BY IDOCK:    0.17 KCAL/MOL
REMARK 924 INTRA-LIGAND FREE ENERGY PREDICTED BY IDOCK:    1.55 KCAL/MOL
REMARK 927      BINDING AFFINITY PREDICTED BY RF-SCORE:    0.00 PKD
ROOT
HETATM    1  C   UNL     1      -7.505  13.206  69.683  1.00  0.00     0.732 C  
HETATM    2  C   UNL     1      -8.801  13.036  68.906  1.00  0.00     0.316 C  
ENDROOT
BRANCH   2   3
HETATM    3  C   UNL     1     -10.027  13.228  69.802  1.00  0.00     1.505 C  
BRANCH   3   4
HETATM    4  C   UNL     1     -10.428  14.698  69.933  1.00  0.00     0.074 C  
BRANCH   4   5
HETATM    5  N   UNL     1     -11.164  15.185  68.783  1.00  0.00    -0.268 N  
HETATM    6  H   UNL     1     -12.163  15.377  68.870  1.00  0.00     0.000 HD 
BRANCH   5   7
HETATM    7  C   UNL     1     -10.543  15.392  67.583  1.00  0.00    -0.280 C  
HETATM    8  O   UNL     1     -10.506  16.479  67.029  1.00  0.00    -0.304 OA 
BRANCH   7   9
HETATM    9  N   UNL     1      -9.943  14.253  67.077  1.00  0.00    -0.254 N  
HETATM   10  H   UNL     1      -9.171  13.846  67.605  1.00  0.00     0.000 HD 
BRANCH   9  11
HETATM   11  S   UNL     1     -10.398  13.504  65.661  1.00  0.00    -0.301 S  
HETATM   12  O   UNL     1      -9.914  14.253  64.525  1.00  0.00    -0.178 OA 
HETATM   13  O   UNL     1     -11.814  13.231  65.817  1.00  0.00    -0.349 OA 
BRANCH  11  14
HETATM   14  C   UNL     1      -9.545  11.947  65.745  1.00  0.00    -0.224 A  
HETATM   15  C   UNL     1      -8.150  11.926  65.818  1.00  0.00     0.684 A  
HETATM   16  C   UNL     1      -7.478  10.703  65.831  1.00  0.00    -0.131 A  
HETATM   17  C   UNL     1      -8.193   9.499  65.775  1.00  0.00    -0.116 A  
HETATM   18  C   UNL     1      -9.595   9.535  65.760  1.00  0.00    -0.337 A  
HETATM   19  C   UNL     1      -7.479   8.181  65.720  1.00  0.00    -0.080 C  
HETATM   20  C   UNL     1     -10.273  10.755  65.753  1.00  0.00    -0.319 A  
ENDBRANCH  11  14
ENDBRANCH   9  11
ENDBRANCH   7   9
ENDBRANCH   5   7
ENDBRANCH   4   5
ENDBRANCH   3   4
ENDBRANCH   2   3
TORSDOF 7
ENDMDL
MODEL      308
REMARK 921   NORMALIZED FREE ENERGY PREDICTED BY IDOCK:   12.08 KCAL/MOL
REMARK 922        TOTAL FREE ENERGY PREDICTED BY IDOCK:   16.40 KCAL/MOL
REMARK 923 INTER-LIGAND FREE ENERGY PREDICTED BY IDOCK:   14.39 KCAL/MOL
REMARK 924 INTRA-LIGAND FREE ENERGY PREDICTED BY IDOCK:    2.01 KCAL/MOL
REMARK 927      BINDING AFFINITY PREDICTED BY RF-SCORE:    0.00 PKD
ROOT
HETATM    1  C   UNL     1      -9.644  15.840  71.015  1.00  0.00     2.103 C  
HETATM    2  C   UNL     1     -10.348  16.540  69.863  1.00  0.00    -0.083 C  
ENDROOT
BRANCH   2   3
HETATM    3  C   UNL     1      -9.474  17.634  69.247  1.00  0.00     0.110 C  
BRANCH   3   4
HETATM    4  C   UNL     1     -10.188  18.985  69.187  1.00  0.00    -0.050 C  
BRANCH   4   5
HETATM    5  N   UNL     1     -11.559  18.877  68.726  1.00  0.00     1.880 N  
HETATM    6  H   UNL     1     -12.315  19.229  69.313  1.00  0.00     0.000 HD 
BRANCH   5   7
HETATM    7  C   UNL     1     -11.854  18.310  67.518  1.00  0.00     2.191 C  
HETATM    8  O   UNL     1     -12.786  17.539  67.352  1.00  0.00     4.386 OA 
BRANCH   7   9
HETATM    9  N   UNL     1     -11.007  18.717  66.503  1.00  0.00    -0.033 N  
HETATM   10  H   UNL     1     -10.756  19.704  66.459  1.00  0.00     0.000 HD 
BRANCH   9  11
HETATM   11  S   UNL     1     -10.370  17.700  65.349  1.00  0.00     0.397 S  
HETATM   12  O   UNL     1      -9.696  18.469  64.328  1.00  0.00     4.968 OA 
HETATM   13  O   UNL     1     -11.452  16.799  65.000  1.00  0.00    -0.061 OA 
BRANCH  11  14
HETATM   14  C   UNL     1      -9.172  16.761  66.264  1.00  0.00    -0.279 A  
HETATM   15  C   UNL     1      -9.176  15.366  66.181  1.00  0.00    -0.362 A  
HETATM   16  C   UNL     1      -8.269  14.626  66.941  1.00  0.00    -0.110 A  
HETATM   17  C   UNL     1      -7.353  15.273  67.781  1.00  0.00    -0.181 A  
HETATM   18  C   UNL     1      -7.322  16.675  67.812  1.00  0.00    -0.163 A  
HETATM   19  C   UNL     1      -6.419  14.487  68.653  1.00  0.00    -0.086 C  
HETATM   20  C   UNL     1      -8.223  17.420  67.050  1.00  0.00    -0.240 A  
ENDBRANCH  11  14
ENDBRANCH   9  11
ENDBRANCH   7   9
ENDBRANCH   5   7
ENDBRANCH   4   5
ENDBRANCH   3   4
ENDBRANCH   2   3
TORSDOF 7
ENDMDL
