MODEL        1
REMARK 921   NORMALIZED FREE ENERGY PREDICTED BY IDOCK:   -6.39 KCAL/MOL
REMARK 922        TOTAL FREE ENERGY PREDICTED BY IDOCK:   -7.75 KCAL/MOL
REMARK 923 INTER-LIGAND FREE ENERGY PREDICTED BY IDOCK:   -7.13 KCAL/MOL
REMARK 924 INTRA-LIGAND FREE ENERGY PREDICTED BY IDOCK:   -0.62 KCAL/MOL
REMARK 927      BINDING AFFINITY PREDICTED BY RF-SCORE:    0.00 PKD
ROOT
HETATM    1  C   UNL     1     -12.283  11.693  70.405  1.00  0.00    -0.434 C  
HETATM    2  C   UNL     1     -12.202  13.123  69.946  1.00  0.00    -0.293 A  
HETATM    3  C   UNL     1     -12.354  14.202  70.841  1.00  0.00    -0.368 A  
HETATM    4 CL   UNL     1     -12.893  13.976  72.470  1.00  0.00    -0.424 Cl 
HETATM    5  C   UNL     1     -12.117  15.519  70.437  1.00  0.00    -0.426 A  
HETATM    6  C   UNL     1     -11.700  15.785  69.143  1.00  0.00    -0.398 A  
HETATM    7  C   UNL     1     -11.634  14.740  68.228  1.00  0.00    -0.348 A  
HETATM    8  C   UNL     1     -11.983  13.423  68.586  1.00  0.00    -0.327 A  
ENDROOT
BRANCH   8   9
HETATM    9  N   UNL     1     -12.157  12.425  67.575  1.00  0.00    -0.472 NA 
HETATM   10  H   UNL     1     -13.050  11.932  67.540  1.00  0.00     0.000 HD 
BRANCH   9  11
HETATM   11  C   UNL     1     -11.166  12.076  66.615  1.00  0.00    -0.327 A  
HETATM   12  C   UNL     1      -9.876  11.702  67.042  1.00  0.00    -0.211 A  
HETATM   13  C   UNL     1      -8.938  11.167  66.159  1.00  0.00    -0.205 A  
HETATM   14  C   UNL     1      -9.262  11.024  64.813  1.00  0.00    -0.198 A  
HETATM   15  C   UNL     1     -10.481  11.506  64.345  1.00  0.00    -0.380 A  
HETATM   16  C   UNL     1     -11.409  12.075  65.232  1.00  0.00    -0.366 A  
HETATM   17  C   UNL     1     -12.620  12.686  64.643  1.00  0.00    -0.440 C  
HETATM   18  O   UNL     1     -13.222  12.210  63.698  1.00  0.00    -0.770 OA 
HETATM   19  O   UNL     1     -12.942  13.860  65.225  1.00  0.00    -0.747 OA 
ENDBRANCH   9  11
ENDBRANCH   8   9
TORSDOF 2
ENDMDL
MODEL        2
REMARK 921   NORMALIZED FREE ENERGY PREDICTED BY IDOCK:   -6.26 KCAL/MOL
REMARK 922        TOTAL FREE ENERGY PREDICTED BY IDOCK:   -7.61 KCAL/MOL
REMARK 923 INTER-LIGAND FREE ENERGY PREDICTED BY IDOCK:   -7.01 KCAL/MOL
REMARK 924 INTRA-LIGAND FREE ENERGY PREDICTED BY IDOCK:   -0.60 KCAL/MOL
REMARK 927      BINDING AFFINITY PREDICTED BY RF-SCORE:    0.00 PKD
ROOT
HETATM    1  C   UNL     1     -12.343  13.597  70.162  1.00  0.00    -0.372 C  
HETATM    2  C   UNL     1     -11.763  14.747  69.384  1.00  0.00    -0.358 A  
HETATM    3  C   UNL     1     -11.286  15.911  70.021  1.00  0.00    -0.353 A  
HETATM    4 CL   UNL     1     -11.559  16.217  71.702  1.00  0.00    -0.504 Cl 
HETATM    5  C   UNL     1     -10.604  16.902  69.307  1.00  0.00    -0.325 A  
HETATM    6  C   UNL     1     -10.362  16.739  67.953  1.00  0.00    -0.319 A  
HETATM    7  C   UNL     1     -10.905  15.639  67.298  1.00  0.00    -0.298 A  
HETATM    8  C   UNL     1     -11.695  14.692  67.978  1.00  0.00    -0.342 A  
ENDROOT
BRANCH   8   9
HETATM    9  N   UNL     1     -12.450  13.725  67.241  1.00  0.00    -0.396 NA 
HETATM   10  H   UNL     1     -13.366  13.458  67.604  1.00  0.00     0.000 HD 
BRANCH   9  11
HETATM   11  C   UNL     1     -12.006  13.111  66.036  1.00  0.00    -0.433 A  
HETATM   12  C   UNL     1     -12.408  13.634  64.791  1.00  0.00    -0.429 A  
HETATM   13  C   UNL     1     -11.846  13.192  63.594  1.00  0.00    -0.549 A  
HETATM   14  C   UNL     1     -10.886  12.185  63.615  1.00  0.00    -0.523 A  
HETATM   15  C   UNL     1     -10.568  11.562  64.818  1.00  0.00    -0.362 A  
HETATM   16  C   UNL     1     -11.162  11.988  66.018  1.00  0.00    -0.385 A  
HETATM   17  C   UNL     1     -10.879  11.193  67.232  1.00  0.00    -0.274 C  
HETATM   18  O   UNL     1      -9.789  10.713  67.483  1.00  0.00    -0.164 OA 
HETATM   19  O   UNL     1     -11.977  11.002  67.993  1.00  0.00    -0.623 OA 
ENDBRANCH   9  11
ENDBRANCH   8   9
TORSDOF 2
ENDMDL
MODEL        3
REMARK 921   NORMALIZED FREE ENERGY PREDICTED BY IDOCK:   -6.20 KCAL/MOL
REMARK 922        TOTAL FREE ENERGY PREDICTED BY IDOCK:   -7.54 KCAL/MOL
REMARK 923 INTER-LIGAND FREE ENERGY PREDICTED BY IDOCK:   -6.96 KCAL/MOL
REMARK 924 INTRA-LIGAND FREE ENERGY PREDICTED BY IDOCK:   -0.58 KCAL/MOL
REMARK 927      BINDING AFFINITY PREDICTED BY RF-SCORE:    0.00 PKD
ROOT
HETATM    1  C   UNL     1     -11.334  11.519  67.616  1.00  0.00    -0.358 C  
HETATM    2  C   UNL     1     -11.495  12.152  66.260  1.00  0.00    -0.433 A  
HETATM    3  C   UNL     1     -10.984  11.550  65.092  1.00  0.00    -0.234 A  
HETATM    4 CL   UNL     1      -9.922  10.185  65.151  1.00  0.00    -0.395 Cl 
HETATM    5  C   UNL     1     -11.277  12.061  63.824  1.00  0.00    -0.516 A  
HETATM    6  C   UNL     1     -12.105  13.164  63.694  1.00  0.00    -0.583 A  
HETATM    7  C   UNL     1     -12.542  13.818  64.841  1.00  0.00    -0.380 A  
HETATM    8  C   UNL     1     -12.159  13.388  66.127  1.00  0.00    -0.429 A  
ENDROOT
BRANCH   8   9
HETATM    9  N   UNL     1     -12.402  14.221  67.265  1.00  0.00    -0.592 NA 
HETATM   10  H   UNL     1     -13.287  14.106  67.759  1.00  0.00     0.000 HD 
BRANCH   9  11
HETATM   11  C   UNL     1     -11.489  15.200  67.751  1.00  0.00    -0.318 A  
HETATM   12  C   UNL     1     -10.474  15.693  66.908  1.00  0.00    -0.307 A  
HETATM   13  C   UNL     1      -9.687  16.786  67.272  1.00  0.00    -0.250 A  
HETATM   14  C   UNL     1      -9.877  17.390  68.510  1.00  0.00    -0.320 A  
HETATM   15  C   UNL     1     -10.783  16.841  69.411  1.00  0.00    -0.300 A  
HETATM   16  C   UNL     1     -11.551  15.720  69.054  1.00  0.00    -0.406 A  
HETATM   17  C   UNL     1     -12.391  15.112  70.108  1.00  0.00    -0.341 C  
HETATM   18  O   UNL     1     -13.004  15.758  70.937  1.00  0.00    -0.468 OA 
HETATM   19  O   UNL     1     -12.346  13.762  70.091  1.00  0.00    -0.335 OA 
ENDBRANCH   9  11
ENDBRANCH   8   9
TORSDOF 2
ENDMDL
MODEL        4
REMARK 921   NORMALIZED FREE ENERGY PREDICTED BY IDOCK:   -6.20 KCAL/MOL
REMARK 922        TOTAL FREE ENERGY PREDICTED BY IDOCK:   -7.54 KCAL/MOL
REMARK 923 INTER-LIGAND FREE ENERGY PREDICTED BY IDOCK:   -6.94 KCAL/MOL
REMARK 924 INTRA-LIGAND FREE ENERGY PREDICTED BY IDOCK:   -0.60 KCAL/MOL
REMARK 927      BINDING AFFINITY PREDICTED BY RF-SCORE:    0.00 PKD
ROOT
HETATM    1  C   UNL     1     -12.179  14.873  69.964  1.00  0.00    -0.381 C  
HETATM    2  C   UNL     1     -12.225  13.393  70.229  1.00  0.00    -0.405 A  
HETATM    3  C   UNL     1     -12.855  12.861  71.373  1.00  0.00    -0.283 A  
HETATM    4 CL   UNL     1     -13.393  13.864  72.677  1.00  0.00    -0.636 Cl 
HETATM    5  C   UNL     1     -13.033  11.483  71.528  1.00  0.00    -0.485 A  
HETATM    6  C   UNL     1     -12.612  10.611  70.536  1.00  0.00    -0.433 A  
HETATM    7  C   UNL     1     -11.912  11.118  69.447  1.00  0.00    -0.420 A  
HETATM    8  C   UNL     1     -11.618  12.491  69.332  1.00  0.00    -0.305 A  
ENDROOT
BRANCH   8   9
HETATM    9  N   UNL     1     -10.682  12.946  68.350  1.00  0.00    -0.248 NA 
HETATM   10  H   UNL     1     -10.089  13.740  68.589  1.00  0.00     0.000 HD 
BRANCH   9  11
HETATM   11  C   UNL     1     -10.526  12.362  67.061  1.00  0.00    -0.220 A  
HETATM   12  C   UNL     1      -9.561  11.356  66.859  1.00  0.00    -0.203 A  
HETATM   13  C   UNL     1      -9.506  10.622  65.674  1.00  0.00    -0.257 A  
HETATM   14  C   UNL     1     -10.400  10.904  64.646  1.00  0.00    -0.407 A  
HETATM   15  C   UNL     1     -11.276  11.978  64.772  1.00  0.00    -0.373 A  
HETATM   16  C   UNL     1     -11.305  12.737  65.954  1.00  0.00    -0.363 A  
HETATM   17  C   UNL     1     -12.162  13.941  65.963  1.00  0.00    -0.462 C  
HETATM   18  O   UNL     1     -13.259  13.990  65.439  1.00  0.00    -0.761 OA 
HETATM   19  O   UNL     1     -11.565  14.996  66.557  1.00  0.00    -0.302 OA 
ENDBRANCH   9  11
ENDBRANCH   8   9
TORSDOF 2
ENDMDL
MODEL        5
REMARK 921   NORMALIZED FREE ENERGY PREDICTED BY IDOCK:   -6.15 KCAL/MOL
REMARK 922        TOTAL FREE ENERGY PREDICTED BY IDOCK:   -7.48 KCAL/MOL
REMARK 923 INTER-LIGAND FREE ENERGY PREDICTED BY IDOCK:   -6.93 KCAL/MOL
REMARK 924 INTRA-LIGAND FREE ENERGY PREDICTED BY IDOCK:   -0.55 KCAL/MOL
REMARK 927      BINDING AFFINITY PREDICTED BY RF-SCORE:    0.00 PKD
ROOT
HETATM    1  C   UNL     1     -11.667  12.448  69.423  1.00  0.00    -0.384 C  
HETATM    2  C   UNL     1     -12.433  13.351  70.350  1.00  0.00    -0.322 A  
HETATM    3  C   UNL     1     -12.985  12.881  71.559  1.00  0.00    -0.294 A  
HETATM    4 CL   UNL     1     -13.049  11.196  71.947  1.00  0.00    -0.583 Cl 
HETATM    5  C   UNL     1     -13.553  13.759  72.488  1.00  0.00    -0.680 A  
HETATM    6  C   UNL     1     -13.558  15.123  72.242  1.00  0.00    -0.566 A  
HETATM    7  C   UNL     1     -13.096  15.588  71.015  1.00  0.00    -0.551 A  
HETATM    8  C   UNL     1     -12.630  14.707  70.020  1.00  0.00    -0.230 A  
ENDROOT
BRANCH   8   9
HETATM    9  N   UNL     1     -12.411  15.180  68.687  1.00  0.00    -0.579 NA 
HETATM   10  H   UNL     1     -13.187  15.124  68.028  1.00  0.00     0.000 HD 
BRANCH   9  11
HETATM   11  C   UNL     1     -11.179  15.723  68.223  1.00  0.00    -0.356 A  
HETATM   12  C   UNL     1     -10.658  16.890  68.815  1.00  0.00    -0.355 A  
HETATM   13  C   UNL     1      -9.370  17.344  68.530  1.00  0.00    -0.281 A  
HETATM   14  C   UNL     1      -8.583  16.653  67.616  1.00  0.00    -0.207 A  
HETATM   15  C   UNL     1      -9.121  15.573  66.922  1.00  0.00    -0.264 A  
HETATM   16  C   UNL     1     -10.431  15.140  67.186  1.00  0.00    -0.280 A  
HETATM   17  C   UNL     1     -10.980  14.077  66.318  1.00  0.00    -0.300 C  
HETATM   18  O   UNL     1     -10.328  13.131  65.918  1.00  0.00    -0.279 OA 
HETATM   19  O   UNL     1     -12.262  14.309  65.963  1.00  0.00    -0.421 OA 
ENDBRANCH   9  11
ENDBRANCH   8   9
TORSDOF 2
ENDMDL
MODEL        6
REMARK 921   NORMALIZED FREE ENERGY PREDICTED BY IDOCK:   -6.14 KCAL/MOL
REMARK 922        TOTAL FREE ENERGY PREDICTED BY IDOCK:   -7.48 KCAL/MOL
REMARK 923 INTER-LIGAND FREE ENERGY PREDICTED BY IDOCK:   -6.96 KCAL/MOL
REMARK 924 INTRA-LIGAND FREE ENERGY PREDICTED BY IDOCK:   -0.52 KCAL/MOL
REMARK 927      BINDING AFFINITY PREDICTED BY RF-SCORE:    0.00 PKD
ROOT
HETATM    1  C   UNL     1     -11.348  16.286  68.370  1.00  0.00    -0.312 C  
HETATM    2  C   UNL     1     -11.467  14.882  68.899  1.00  0.00    -0.320 A  
HETATM    3  C   UNL     1     -11.959  14.614  70.193  1.00  0.00    -0.313 A  
HETATM    4 CL   UNL     1     -12.219  15.869  71.356  1.00  0.00    -0.485 Cl 
HETATM    5  C   UNL     1     -12.216  13.306  70.615  1.00  0.00    -0.417 A  
HETATM    6  C   UNL     1     -12.015  12.244  69.748  1.00  0.00    -0.365 A  
HETATM    7  C   UNL     1     -11.447  12.489  68.503  1.00  0.00    -0.346 A  
HETATM    8  C   UNL     1     -11.070  13.787  68.106  1.00  0.00    -0.259 A  
ENDROOT
BRANCH   8   9
HETATM    9  N   UNL     1     -10.258  13.976  66.943  1.00  0.00    -0.257 NA 
HETATM   10  H   UNL     1      -9.560  14.719  66.964  1.00  0.00     0.000 HD 
BRANCH   9  11
HETATM   11  C   UNL     1     -10.363  13.193  65.757  1.00  0.00    -0.289 A  
HETATM   12  C   UNL     1      -9.685  11.962  65.667  1.00  0.00    -0.248 A  
HETATM   13  C   UNL     1      -9.913  11.076  64.614  1.00  0.00    -0.357 A  
HETATM   14  C   UNL     1     -10.806  11.420  63.605  1.00  0.00    -0.459 A  
HETATM   15  C   UNL     1     -11.389  12.684  63.604  1.00  0.00    -0.544 A  
HETATM   16  C   UNL     1     -11.130  13.587  64.649  1.00  0.00    -0.383 A  
HETATM   17  C   UNL     1     -11.675  14.954  64.511  1.00  0.00    -0.382 C  
HETATM   18  O   UNL     1     -12.773  15.197  64.045  1.00  0.00    -0.746 OA 
HETATM   19  O   UNL     1     -10.795  15.903  64.894  1.00  0.00    -0.474 OA 
ENDBRANCH   9  11
ENDBRANCH   8   9
TORSDOF 2
ENDMDL
MODEL        7
REMARK 921   NORMALIZED FREE ENERGY PREDICTED BY IDOCK:   -6.13 KCAL/MOL
REMARK 922        TOTAL FREE ENERGY PREDICTED BY IDOCK:   -7.46 KCAL/MOL
REMARK 923 INTER-LIGAND FREE ENERGY PREDICTED BY IDOCK:   -6.77 KCAL/MOL
REMARK 924 INTRA-LIGAND FREE ENERGY PREDICTED BY IDOCK:   -0.70 KCAL/MOL
REMARK 927      BINDING AFFINITY PREDICTED BY RF-SCORE:    0.00 PKD
ROOT
HETATM    1  C   UNL     1     -12.750   8.237  72.079  1.00  0.00    -0.376 C  
HETATM    2  C   UNL     1     -11.346   8.642  71.721  1.00  0.00    -0.393 A  
HETATM    3  C   UNL     1     -10.227   8.145  72.419  1.00  0.00    -0.298 A  
HETATM    4 CL   UNL     1     -10.386   7.243  73.888  1.00  0.00    -0.360 Cl 
HETATM    5  C   UNL     1      -8.925   8.399  71.979  1.00  0.00    -0.290 A  
HETATM    6  C   UNL     1      -8.713   9.130  70.821  1.00  0.00    -0.285 A  
HETATM    7  C   UNL     1      -9.805   9.700  70.174  1.00  0.00    -0.310 A  
HETATM    8  C   UNL     1     -11.116   9.554  70.671  1.00  0.00    -0.300 A  
ENDROOT
BRANCH   8   9
HETATM    9  N   UNL     1     -12.177  10.356  70.145  1.00  0.00    -0.439 NA 
HETATM   10  H   UNL     1     -12.753   9.957  69.403  1.00  0.00     0.000 HD 
BRANCH   9  11
HETATM   11  C   UNL     1     -12.481  11.674  70.589  1.00  0.00    -0.295 A  
HETATM   12  C   UNL     1     -13.259  11.862  71.749  1.00  0.00    -0.426 A  
HETATM   13  C   UNL     1     -13.416  13.121  72.329  1.00  0.00    -0.665 A  
HETATM   14  C   UNL     1     -12.822  14.231  71.737  1.00  0.00    -0.426 A  
HETATM   15  C   UNL     1     -12.159  14.090  70.522  1.00  0.00    -0.424 A  
HETATM   16  C   UNL     1     -12.032  12.826  69.923  1.00  0.00    -0.368 A  
HETATM   17  C   UNL     1     -11.435  12.775  68.572  1.00  0.00    -0.309 C  
HETATM   18  O   UNL     1     -10.499  13.470  68.222  1.00  0.00    -0.239 OA 
HETATM   19  O   UNL     1     -12.086  11.924  67.751  1.00  0.00    -0.564 OA 
ENDBRANCH   9  11
ENDBRANCH   8   9
TORSDOF 2
ENDMDL
MODEL        8
REMARK 921   NORMALIZED FREE ENERGY PREDICTED BY IDOCK:   -6.10 KCAL/MOL
REMARK 922        TOTAL FREE ENERGY PREDICTED BY IDOCK:   -7.43 KCAL/MOL
REMARK 923 INTER-LIGAND FREE ENERGY PREDICTED BY IDOCK:   -6.83 KCAL/MOL
REMARK 924 INTRA-LIGAND FREE ENERGY PREDICTED BY IDOCK:   -0.61 KCAL/MOL
REMARK 927      BINDING AFFINITY PREDICTED BY RF-SCORE:    0.00 PKD
ROOT
HETATM    1  C   UNL     1     -11.007  15.854  70.069  1.00  0.00    -0.361 C  
HETATM    2  C   UNL     1     -11.772  14.806  70.832  1.00  0.00    -0.360 A  
HETATM    3  C   UNL     1     -12.340  15.072  72.095  1.00  0.00    -0.355 A  
HETATM    4 CL   UNL     1     -11.991  16.521  72.974  1.00  0.00    -0.582 Cl 
HETATM    5  C   UNL     1     -13.182  14.148  72.720  1.00  0.00    -0.604 A  
HETATM    6  C   UNL     1     -13.496  12.954  72.089  1.00  0.00    -0.619 A  
HETATM    7  C   UNL     1     -12.872  12.644  70.886  1.00  0.00    -0.178 A  
HETATM    8  C   UNL     1     -11.929  13.511  70.299  1.00  0.00    -0.316 A  
ENDROOT
BRANCH   8   9
HETATM    9  N   UNL     1     -11.116  13.058  69.212  1.00  0.00    -0.421 NA 
HETATM   10  H   UNL     1     -10.152  12.794  69.415  1.00  0.00     0.000 HD 
BRANCH   9  11
HETATM   11  C   UNL     1     -11.565  12.953  67.865  1.00  0.00    -0.345 A  
HETATM   12  C   UNL     1     -12.286  14.013  67.280  1.00  0.00    -0.325 A  
HETATM   13  C   UNL     1     -12.573  14.038  65.916  1.00  0.00    -0.484 A  
HETATM   14  C   UNL     1     -12.173  12.979  65.107  1.00  0.00    -0.507 A  
HETATM   15  C   UNL     1     -11.576  11.862  65.683  1.00  0.00    -0.275 A  
HETATM   16  C   UNL     1     -11.318  11.826  67.064  1.00  0.00    -0.387 A  
HETATM   17  C   UNL     1     -10.807  10.556  67.623  1.00  0.00    -0.300 C  
HETATM   18  O   UNL     1      -9.997   9.848  67.055  1.00  0.00    -0.180 OA 
HETATM   19  O   UNL     1     -11.389  10.238  68.799  1.00  0.00    -0.230 OA 
ENDBRANCH   9  11
ENDBRANCH   8   9
TORSDOF 2
ENDMDL
MODEL        9
REMARK 921   NORMALIZED FREE ENERGY PREDICTED BY IDOCK:   -6.08 KCAL/MOL
REMARK 922        TOTAL FREE ENERGY PREDICTED BY IDOCK:   -7.41 KCAL/MOL
REMARK 923 INTER-LIGAND FREE ENERGY PREDICTED BY IDOCK:   -6.93 KCAL/MOL
REMARK 924 INTRA-LIGAND FREE ENERGY PREDICTED BY IDOCK:   -0.49 KCAL/MOL
REMARK 927      BINDING AFFINITY PREDICTED BY RF-SCORE:    0.00 PKD
ROOT
HETATM    1  C   UNL     1     -10.771  10.428  67.234  1.00  0.00    -0.331 C  
HETATM    2  C   UNL     1     -11.236  11.786  66.783  1.00  0.00    -0.388 A  
HETATM    3  C   UNL     1     -11.403  12.101  65.419  1.00  0.00    -0.338 A  
HETATM    4 CL   UNL     1     -10.848  11.053  64.159  1.00  0.00    -0.367 Cl 
HETATM    5  C   UNL     1     -11.987  13.307  65.019  1.00  0.00    -0.407 A  
HETATM    6  C   UNL     1     -12.440  14.209  65.969  1.00  0.00    -0.454 A  
HETATM    7  C   UNL     1     -12.201  13.948  67.314  1.00  0.00    -0.324 A  
HETATM    8  C   UNL     1     -11.507  12.795  67.730  1.00  0.00    -0.326 A  
ENDROOT
BRANCH   8   9
HETATM    9  N   UNL     1     -11.049  12.680  69.080  1.00  0.00    -0.387 NA 
HETATM   10  H   UNL     1     -10.116  12.298  69.236  1.00  0.00     0.000 HD 
BRANCH   9  11
HETATM   11  C   UNL     1     -11.810  13.065  70.220  1.00  0.00    -0.217 A  
HETATM   12  C   UNL     1     -11.872  14.421  70.598  1.00  0.00    -0.361 A  
HETATM   13  C   UNL     1     -12.756  14.867  71.581  1.00  0.00    -0.401 A  
HETATM   14  C   UNL     1     -13.578  13.955  72.234  1.00  0.00    -0.642 A  
HETATM   15  C   UNL     1     -13.442  12.595  71.971  1.00  0.00    -0.516 A  
HETATM   16  C   UNL     1     -12.527  12.146  71.004  1.00  0.00    -0.369 A  
HETATM   17  C   UNL     1     -12.343  10.685  70.876  1.00  0.00    -0.401 C  
HETATM   18  O   UNL     1     -13.253   9.882  70.956  1.00  0.00    -0.373 OA 
HETATM   19  O   UNL     1     -11.046  10.339  70.729  1.00  0.00    -0.326 OA 
ENDBRANCH   9  11
ENDBRANCH   8   9
TORSDOF 2
ENDMDL
MODEL       10
REMARK 921   NORMALIZED FREE ENERGY PREDICTED BY IDOCK:   -6.05 KCAL/MOL
REMARK 922        TOTAL FREE ENERGY PREDICTED BY IDOCK:   -7.38 KCAL/MOL
REMARK 923 INTER-LIGAND FREE ENERGY PREDICTED BY IDOCK:   -6.84 KCAL/MOL
REMARK 924 INTRA-LIGAND FREE ENERGY PREDICTED BY IDOCK:   -0.53 KCAL/MOL
REMARK 927      BINDING AFFINITY PREDICTED BY RF-SCORE:    0.00 PKD
ROOT
HETATM    1  C   UNL     1     -12.273  15.705  70.033  1.00  0.00    -0.351 C  
HETATM    2  C   UNL     1     -12.422  14.341  70.649  1.00  0.00    -0.428 A  
HETATM    3  C   UNL     1     -13.170  14.134  71.826  1.00  0.00    -0.373 A  
HETATM    4 CL   UNL     1     -13.756  15.449  72.787  1.00  0.00    -0.604 Cl 
HETATM    5  C   UNL     1     -13.437  12.846  72.300  1.00  0.00    -0.631 A  
HETATM    6  C   UNL     1     -12.986  11.740  71.597  1.00  0.00    -0.467 A  
HETATM    7  C   UNL     1     -12.173  11.933  70.485  1.00  0.00    -0.426 A  
HETATM    8  C   UNL     1     -11.796  13.223  70.063  1.00  0.00    -0.295 A  
ENDROOT
BRANCH   8   9
HETATM    9  N   UNL     1     -10.760  13.386  69.089  1.00  0.00    -0.428 NA 
HETATM   10  H   UNL     1      -9.794  13.391  69.416  1.00  0.00     0.000 HD 
BRANCH   9  11
HETATM   11  C   UNL     1     -10.991  13.541  67.692  1.00  0.00    -0.263 A  
HETATM   12  C   UNL     1     -11.655  12.528  66.973  1.00  0.00    -0.437 A  
HETATM   13  C   UNL     1     -12.075  12.719  65.657  1.00  0.00    -0.514 A  
HETATM   14  C   UNL     1     -11.808  13.925  65.017  1.00  0.00    -0.383 A  
HETATM   15  C   UNL     1     -11.040  14.891  65.661  1.00  0.00    -0.348 A  
HETATM   16  C   UNL     1     -10.590  14.681  66.975  1.00  0.00    -0.280 A  
HETATM   17  C   UNL     1      -9.669  15.688  67.543  1.00  0.00    -0.222 C  
HETATM   18  O   UNL     1      -9.782  16.885  67.354  1.00  0.00    -0.240 OA 
HETATM   19  O   UNL     1      -8.655  15.129  68.236  1.00  0.00    -0.156 OA 
ENDBRANCH   9  11
ENDBRANCH   8   9
TORSDOF 2
ENDMDL
MODEL       11
REMARK 921   NORMALIZED FREE ENERGY PREDICTED BY IDOCK:   -5.99 KCAL/MOL
REMARK 922        TOTAL FREE ENERGY PREDICTED BY IDOCK:   -7.31 KCAL/MOL
REMARK 923 INTER-LIGAND FREE ENERGY PREDICTED BY IDOCK:   -6.61 KCAL/MOL
REMARK 924 INTRA-LIGAND FREE ENERGY PREDICTED BY IDOCK:   -0.70 KCAL/MOL
REMARK 927      BINDING AFFINITY PREDICTED BY RF-SCORE:    0.00 PKD
ROOT
HETATM    1  C   UNL     1     -11.847  11.896  69.988  1.00  0.00    -0.407 C  
HETATM    2  C   UNL     1     -11.811  13.396  70.099  1.00  0.00    -0.342 A  
HETATM    3  C   UNL     1     -12.595  14.091  71.043  1.00  0.00    -0.366 A  
HETATM    4 CL   UNL     1     -13.836  13.309  71.961  1.00  0.00    -0.504 Cl 
HETATM    5  C   UNL     1     -12.436  15.465  71.248  1.00  0.00    -0.460 A  
HETATM    6  C   UNL     1     -11.475  16.167  70.537  1.00  0.00    -0.363 A  
HETATM    7  C   UNL     1     -10.758  15.510  69.543  1.00  0.00    -0.272 A  
HETATM    8  C   UNL     1     -10.990  14.153  69.240  1.00  0.00    -0.220 A  
ENDROOT
BRANCH   8   9
HETATM    9  N   UNL     1     -10.435  13.577  68.054  1.00  0.00    -0.236 NA 
HETATM   10  H   UNL     1      -9.591  13.012  68.148  1.00  0.00     0.000 HD 
BRANCH   9  11
HETATM   11  C   UNL     1     -10.984  13.742  66.751  1.00  0.00    -0.304 A  
HETATM   12  C   UNL     1     -11.953  12.836  66.277  1.00  0.00    -0.460 A  
HETATM   13  C   UNL     1     -12.657  13.068  65.096  1.00  0.00    -0.530 A  
HETATM   14  C   UNL     1     -12.381  14.203  64.341  1.00  0.00    -0.410 A  
HETATM   15  C   UNL     1     -11.339  15.045  64.720  1.00  0.00    -0.409 A  
HETATM   16  C   UNL     1     -10.609  14.789  65.892  1.00  0.00    -0.322 A  
HETATM   17  C   UNL     1      -9.434  15.646  66.157  1.00  0.00    -0.341 C  
HETATM   18  O   UNL     1      -9.409  16.842  65.933  1.00  0.00    -0.476 OA 
HETATM   19  O   UNL     1      -8.374  14.944  66.610  1.00  0.00    -0.188 OA 
ENDBRANCH   9  11
ENDBRANCH   8   9
TORSDOF 2
ENDMDL
MODEL       12
REMARK 921   NORMALIZED FREE ENERGY PREDICTED BY IDOCK:   -5.95 KCAL/MOL
REMARK 922        TOTAL FREE ENERGY PREDICTED BY IDOCK:   -7.27 KCAL/MOL
REMARK 923 INTER-LIGAND FREE ENERGY PREDICTED BY IDOCK:   -6.60 KCAL/MOL
REMARK 924 INTRA-LIGAND FREE ENERGY PREDICTED BY IDOCK:   -0.67 KCAL/MOL
REMARK 927      BINDING AFFINITY PREDICTED BY RF-SCORE:    0.00 PKD
ROOT
HETATM    1  C   UNL     1     -12.278  11.063  69.870  1.00  0.00    -0.408 C  
HETATM    2  C   UNL     1     -11.216  10.648  68.889  1.00  0.00    -0.333 A  
HETATM    3  C   UNL     1     -10.143   9.813  69.263  1.00  0.00    -0.198 A  
HETATM    4 CL   UNL     1      -9.821   9.414  70.916  1.00  0.00    -0.352 Cl 
HETATM    5  C   UNL     1      -9.255   9.303  68.311  1.00  0.00    -0.134 A  
HETATM    6  C   UNL     1      -9.433   9.592  66.968  1.00  0.00    -0.197 A  
HETATM    7  C   UNL     1     -10.434  10.484  66.598  1.00  0.00    -0.290 A  
HETATM    8  C   UNL     1     -11.263  11.101  67.555  1.00  0.00    -0.301 A  
ENDROOT
BRANCH   8   9
HETATM    9  N   UNL     1     -12.099  12.200  67.180  1.00  0.00    -0.532 NA 
HETATM   10  H   UNL     1     -13.110  12.067  67.224  1.00  0.00     0.000 HD 
BRANCH   9  11
HETATM   11  C   UNL     1     -11.613  13.466  66.747  1.00  0.00    -0.365 A  
HETATM   12  C   UNL     1     -11.256  14.443  67.697  1.00  0.00    -0.328 A  
HETATM   13  C   UNL     1     -10.595  15.615  67.330  1.00  0.00    -0.301 A  
HETATM   14  C   UNL     1     -10.305  15.851  65.991  1.00  0.00    -0.363 A  
HETATM   15  C   UNL     1     -10.761  14.964  65.021  1.00  0.00    -0.451 A  
HETATM   16  C   UNL     1     -11.457  13.801  65.392  1.00  0.00    -0.318 A  
HETATM   17  C   UNL     1     -12.027  12.978  64.304  1.00  0.00    -0.402 C  
HETATM   18  O   UNL     1     -11.461  12.775  63.246  1.00  0.00    -0.476 OA 
HETATM   19  O   UNL     1     -13.270  12.536  64.588  1.00  0.00    -0.848 OA 
ENDBRANCH   9  11
ENDBRANCH   8   9
TORSDOF 2
ENDMDL
MODEL       13
REMARK 921   NORMALIZED FREE ENERGY PREDICTED BY IDOCK:   -5.91 KCAL/MOL
REMARK 922        TOTAL FREE ENERGY PREDICTED BY IDOCK:   -7.22 KCAL/MOL
REMARK 923 INTER-LIGAND FREE ENERGY PREDICTED BY IDOCK:   -6.66 KCAL/MOL
REMARK 924 INTRA-LIGAND FREE ENERGY PREDICTED BY IDOCK:   -0.56 KCAL/MOL
REMARK 927      BINDING AFFINITY PREDICTED BY RF-SCORE:    0.00 PKD
ROOT
HETATM    1  C   UNL     1     -10.298  10.232  66.535  1.00  0.00    -0.276 C  
HETATM    2  C   UNL     1     -10.858  10.378  67.923  1.00  0.00    -0.331 A  
HETATM    3  C   UNL     1     -10.596   9.432  68.935  1.00  0.00    -0.208 A  
HETATM    4 CL   UNL     1      -9.835   7.914  68.599  1.00  0.00    -0.169 Cl 
HETATM    5  C   UNL     1     -10.984   9.658  70.259  1.00  0.00    -0.337 A  
HETATM    6  C   UNL     1     -11.616  10.841  70.605  1.00  0.00    -0.388 A  
HETATM    7  C   UNL     1     -11.957  11.742  69.602  1.00  0.00    -0.378 A  
HETATM    8  C   UNL     1     -11.681  11.476  68.246  1.00  0.00    -0.301 A  
ENDROOT
BRANCH   8   9
HETATM    9  N   UNL     1     -12.268  12.283  67.221  1.00  0.00    -0.396 NA 
HETATM   10  H   UNL     1     -13.163  11.985  66.834  1.00  0.00     0.000 HD 
BRANCH   9  11
HETATM   11  C   UNL     1     -11.683  13.475  66.707  1.00  0.00    -0.391 A  
HETATM   12  C   UNL     1     -11.337  14.523  67.583  1.00  0.00    -0.354 A  
HETATM   13  C   UNL     1     -10.589  15.619  67.154  1.00  0.00    -0.308 A  
HETATM   14  C   UNL     1     -10.196  15.707  65.823  1.00  0.00    -0.391 A  
HETATM   15  C   UNL     1     -10.636  14.751  64.911  1.00  0.00    -0.431 A  
HETATM   16  C   UNL     1     -11.418  13.666  65.340  1.00  0.00    -0.322 A  
HETATM   17  C   UNL     1     -11.959  12.769  64.298  1.00  0.00    -0.405 C  
HETATM   18  O   UNL     1     -11.336  12.435  63.308  1.00  0.00    -0.437 OA 
HETATM   19  O   UNL     1     -13.242  12.418  64.532  1.00  0.00    -0.834 OA 
ENDBRANCH   9  11
ENDBRANCH   8   9
TORSDOF 2
ENDMDL
MODEL       14
REMARK 921   NORMALIZED FREE ENERGY PREDICTED BY IDOCK:   -5.90 KCAL/MOL
REMARK 922        TOTAL FREE ENERGY PREDICTED BY IDOCK:   -7.21 KCAL/MOL
REMARK 923 INTER-LIGAND FREE ENERGY PREDICTED BY IDOCK:   -6.66 KCAL/MOL
REMARK 924 INTRA-LIGAND FREE ENERGY PREDICTED BY IDOCK:   -0.55 KCAL/MOL
REMARK 927      BINDING AFFINITY PREDICTED BY RF-SCORE:    0.00 PKD
ROOT
HETATM    1  C   UNL     1     -13.249  12.511  72.131  1.00  0.00    -0.508 C  
HETATM    2  C   UNL     1     -12.652  13.001  70.839  1.00  0.00    -0.364 A  
HETATM    3  C   UNL     1     -12.609  14.372  70.512  1.00  0.00    -0.353 A  
HETATM    4 CL   UNL     1     -13.458  15.564  71.435  1.00  0.00    -0.583 Cl 
HETATM    5  C   UNL     1     -11.911  14.829  69.390  1.00  0.00    -0.339 A  
HETATM    6  C   UNL     1     -11.221  13.933  68.589  1.00  0.00    -0.298 A  
HETATM    7  C   UNL     1     -11.330  12.572  68.851  1.00  0.00    -0.346 A  
HETATM    8  C   UNL     1     -12.126  12.085  69.907  1.00  0.00    -0.263 A  
ENDROOT
BRANCH   8   9
HETATM    9  N   UNL     1     -12.428  10.689  69.994  1.00  0.00    -0.478 NA 
HETATM   10  H   UNL     1     -13.220  10.338  69.455  1.00  0.00     0.000 HD 
BRANCH   9  11
HETATM   11  C   UNL     1     -11.696   9.759  70.785  1.00  0.00    -0.328 A  
HETATM   12  C   UNL     1     -10.316   9.583  70.564  1.00  0.00    -0.350 A  
HETATM   13  C   UNL     1      -9.524   8.835  71.436  1.00  0.00    -0.330 A  
HETATM   14  C   UNL     1     -10.107   8.216  72.537  1.00  0.00    -0.370 A  
HETATM   15  C   UNL     1     -11.488   8.267  72.703  1.00  0.00    -0.423 A  
HETATM   16  C   UNL     1     -12.286   8.993  71.804  1.00  0.00    -0.438 A  
HETATM   17  C   UNL     1     -13.752   8.890  71.966  1.00  0.00    -0.459 C  
HETATM   18  O   UNL     1     -14.309   8.860  73.047  1.00  0.00    -0.464 OA 
HETATM   19  O   UNL     1     -14.395   8.765  70.786  1.00  0.00     0.034 OA 
ENDBRANCH   9  11
ENDBRANCH   8   9
TORSDOF 2
ENDMDL
MODEL       15
REMARK 921   NORMALIZED FREE ENERGY PREDICTED BY IDOCK:   -5.83 KCAL/MOL
REMARK 922        TOTAL FREE ENERGY PREDICTED BY IDOCK:   -7.13 KCAL/MOL
REMARK 923 INTER-LIGAND FREE ENERGY PREDICTED BY IDOCK:   -6.59 KCAL/MOL
REMARK 924 INTRA-LIGAND FREE ENERGY PREDICTED BY IDOCK:   -0.53 KCAL/MOL
REMARK 927      BINDING AFFINITY PREDICTED BY RF-SCORE:    0.00 PKD
ROOT
HETATM    1  C   UNL     1     -10.430  16.325  66.215  1.00  0.00    -0.314 C  
HETATM    2  C   UNL     1     -10.713  15.669  67.539  1.00  0.00    -0.303 A  
HETATM    3  C   UNL     1     -10.147  16.143  68.740  1.00  0.00    -0.237 A  
HETATM    4 CL   UNL     1      -8.896  17.338  68.759  1.00  0.00    -0.264 Cl 
HETATM    5  C   UNL     1     -10.542  15.631  69.980  1.00  0.00    -0.342 A  
HETATM    6  C   UNL     1     -11.526  14.657  70.048  1.00  0.00    -0.313 A  
HETATM    7  C   UNL     1     -12.027  14.121  68.867  1.00  0.00    -0.376 A  
HETATM    8  C   UNL     1     -11.554  14.540  67.608  1.00  0.00    -0.378 A  
ENDROOT
BRANCH   8   9
HETATM    9  N   UNL     1     -11.890  13.799  66.431  1.00  0.00    -0.381 NA 
HETATM   10  H   UNL     1     -12.803  13.964  66.007  1.00  0.00     0.000 HD 
BRANCH   9  11
HETATM   11  C   UNL     1     -11.032  12.845  65.814  1.00  0.00    -0.278 A  
HETATM   12  C   UNL     1      -9.823  12.479  66.439  1.00  0.00    -0.260 A  
HETATM   13  C   UNL     1      -9.052  11.413  65.975  1.00  0.00    -0.218 A  
HETATM   14  C   UNL     1      -9.460  10.707  64.848  1.00  0.00    -0.293 A  
HETATM   15  C   UNL     1     -10.579  11.131  64.138  1.00  0.00    -0.436 A  
HETATM   16  C   UNL     1     -11.335  12.226  64.589  1.00  0.00    -0.375 A  
HETATM   17  C   UNL     1     -12.427  12.700  63.713  1.00  0.00    -0.420 C  
HETATM   18  O   UNL     1     -13.154  11.957  63.081  1.00  0.00    -0.605 OA 
HETATM   19  O   UNL     1     -12.483  14.047  63.641  1.00  0.00    -0.803 OA 
ENDBRANCH   9  11
ENDBRANCH   8   9
TORSDOF 2
ENDMDL
MODEL       16
REMARK 921   NORMALIZED FREE ENERGY PREDICTED BY IDOCK:   -5.82 KCAL/MOL
REMARK 922        TOTAL FREE ENERGY PREDICTED BY IDOCK:   -7.12 KCAL/MOL
REMARK 923 INTER-LIGAND FREE ENERGY PREDICTED BY IDOCK:   -6.93 KCAL/MOL
REMARK 924 INTRA-LIGAND FREE ENERGY PREDICTED BY IDOCK:   -0.18 KCAL/MOL
REMARK 927      BINDING AFFINITY PREDICTED BY RF-SCORE:    0.00 PKD
ROOT
HETATM    1  C   UNL     1     -10.227  19.034  68.110  1.00  0.00    -0.472 C  
HETATM    2  C   UNL     1      -9.254  17.923  68.397  1.00  0.00    -0.289 A  
HETATM    3  C   UNL     1      -7.885  18.173  68.626  1.00  0.00    -0.295 A  
HETATM    4 CL   UNL     1      -7.174  19.725  68.345  1.00  0.00    -0.346 Cl 
HETATM    5  C   UNL     1      -7.023  17.157  69.051  1.00  0.00    -0.235 A  
HETATM    6  C   UNL     1      -7.513  15.881  69.281  1.00  0.00    -0.219 A  
HETATM    7  C   UNL     1      -8.840  15.603  68.974  1.00  0.00    -0.243 A  
HETATM    8  C   UNL     1      -9.694  16.584  68.432  1.00  0.00    -0.236 A  
ENDROOT
BRANCH   8   9
HETATM    9  N   UNL     1     -10.963  16.211  67.886  1.00  0.00    -0.334 NA 
HETATM   10  H   UNL     1     -11.750  16.841  68.037  1.00  0.00     0.000 HD 
BRANCH   9  11
HETATM   11  C   UNL     1     -11.197  15.017  67.147  1.00  0.00    -0.336 A  
HETATM   12  C   UNL     1     -11.309  13.785  67.821  1.00  0.00    -0.331 A  
HETATM   13  C   UNL     1     -11.730  12.627  67.166  1.00  0.00    -0.438 A  
HETATM   14  C   UNL     1     -12.018  12.672  65.805  1.00  0.00    -0.503 A  
HETATM   15  C   UNL     1     -11.791  13.845  65.092  1.00  0.00    -0.370 A  
HETATM   16  C   UNL     1     -11.334  14.999  65.749  1.00  0.00    -0.279 A  
HETATM   17  C   UNL     1     -10.987  16.164  64.907  1.00  0.00    -0.349 C  
HETATM   18  O   UNL     1     -11.623  16.498  63.925  1.00  0.00    -1.175 OA 
HETATM   19  O   UNL     1      -9.850  16.772  65.308  1.00  0.00    -0.485 OA 
ENDBRANCH   9  11
ENDBRANCH   8   9
TORSDOF 2
ENDMDL
MODEL       17
REMARK 921   NORMALIZED FREE ENERGY PREDICTED BY IDOCK:   -5.79 KCAL/MOL
REMARK 922        TOTAL FREE ENERGY PREDICTED BY IDOCK:   -7.09 KCAL/MOL
REMARK 923 INTER-LIGAND FREE ENERGY PREDICTED BY IDOCK:   -6.60 KCAL/MOL
REMARK 924 INTRA-LIGAND FREE ENERGY PREDICTED BY IDOCK:   -0.49 KCAL/MOL
REMARK 927      BINDING AFFINITY PREDICTED BY RF-SCORE:    0.00 PKD
ROOT
HETATM    1  C   UNL     1     -10.428  10.912  69.433  1.00  0.00    -0.205 C  
HETATM    2  C   UNL     1     -11.391  10.255  70.385  1.00  0.00    -0.410 A  
HETATM    3  C   UNL     1     -11.283   8.892  70.730  1.00  0.00    -0.272 A  
HETATM    4 CL   UNL     1     -10.209   7.816  69.903  1.00  0.00    -0.208 Cl 
HETATM    5  C   UNL     1     -12.079   8.333  71.734  1.00  0.00    -0.364 A  
HETATM    6  C   UNL     1     -12.978   9.125  72.431  1.00  0.00    -0.468 A  
HETATM    7  C   UNL     1     -13.155  10.448  72.039  1.00  0.00    -0.521 A  
HETATM    8  C   UNL     1     -12.447  10.996  70.951  1.00  0.00    -0.410 A  
ENDROOT
BRANCH   8   9
HETATM    9  N   UNL     1     -12.833  12.262  70.408  1.00  0.00     0.141 NA 
HETATM   10  H   UNL     1     -13.234  12.277  69.470  1.00  0.00     0.000 HD 
BRANCH   9  11
HETATM   11  C   UNL     1     -12.693  13.504  71.092  1.00  0.00    -0.344 A  
HETATM   12  C   UNL     1     -13.435  13.748  72.264  1.00  0.00    -0.638 A  
HETATM   13  C   UNL     1     -13.187  14.859  73.070  1.00  0.00    -0.596 A  
HETATM   14  C   UNL     1     -12.207  15.773  72.700  1.00  0.00    -0.573 A  
HETATM   15  C   UNL     1     -11.551  15.624  71.481  1.00  0.00    -0.507 A  
HETATM   16  C   UNL     1     -11.828  14.521  70.656  1.00  0.00    -0.367 A  
HETATM   17  C   UNL     1     -11.194  14.501  69.320  1.00  0.00    -0.281 C  
HETATM   18  O   UNL     1     -10.054  14.871  69.111  1.00  0.00    -0.229 OA 
HETATM   19  O   UNL     1     -12.041  14.092  68.352  1.00  0.00    -0.354 OA 
ENDBRANCH   9  11
ENDBRANCH   8   9
TORSDOF 2
ENDMDL
MODEL       18
REMARK 921   NORMALIZED FREE ENERGY PREDICTED BY IDOCK:   -5.78 KCAL/MOL
REMARK 922        TOTAL FREE ENERGY PREDICTED BY IDOCK:   -7.08 KCAL/MOL
REMARK 923 INTER-LIGAND FREE ENERGY PREDICTED BY IDOCK:   -6.51 KCAL/MOL
REMARK 924 INTRA-LIGAND FREE ENERGY PREDICTED BY IDOCK:   -0.56 KCAL/MOL
REMARK 927      BINDING AFFINITY PREDICTED BY RF-SCORE:    0.00 PKD
ROOT
HETATM    1  C   UNL     1     -10.034  14.654  68.042  1.00  0.00    -0.220 C  
HETATM    2  C   UNL     1     -10.714  14.543  66.705  1.00  0.00    -0.291 A  
HETATM    3  C   UNL     1     -11.560  13.461  66.388  1.00  0.00    -0.346 A  
HETATM    4 CL   UNL     1     -11.680  12.061  67.398  1.00  0.00    -0.386 Cl 
HETATM    5  C   UNL     1     -12.313  13.449  65.209  1.00  0.00    -0.513 A  
HETATM    6  C   UNL     1     -12.257  14.526  64.339  1.00  0.00    -0.480 A  
HETATM    7  C   UNL     1     -11.361  15.557  64.597  1.00  0.00    -0.363 A  
HETATM    8  C   UNL     1     -10.508  15.529  65.719  1.00  0.00    -0.361 A  
ENDROOT
BRANCH   8   9
HETATM    9  N   UNL     1      -9.425  16.458  65.821  1.00  0.00    -0.499 NA 
HETATM   10  H   UNL     1      -8.535  16.203  65.391  1.00  0.00     0.000 HD 
BRANCH   9  11
HETATM   11  C   UNL     1      -9.508  17.715  66.484  1.00  0.00    -0.283 A  
HETATM   12  C   UNL     1     -10.478  18.656  66.086  1.00  0.00    -0.473 A  
HETATM   13  C   UNL     1     -10.725  19.811  66.828  1.00  0.00    -0.526 A  
HETATM   14  C   UNL     1      -9.978  20.068  67.973  1.00  0.00    -0.550 A  
HETATM   15  C   UNL     1      -8.928  19.221  68.313  1.00  0.00    -0.381 A  
HETATM   16  C   UNL     1      -8.660  18.076  67.544  1.00  0.00    -0.244 A  
HETATM   17  C   UNL     1      -7.449  17.300  67.886  1.00  0.00    -0.182 C  
HETATM   18  O   UNL     1      -7.077  17.102  69.027  1.00  0.00    -0.226 OA 
HETATM   19  O   UNL     1      -6.767  16.897  66.793  1.00  0.00    -0.191 OA 
ENDBRANCH   9  11
ENDBRANCH   8   9
TORSDOF 2
ENDMDL
MODEL       19
REMARK 921   NORMALIZED FREE ENERGY PREDICTED BY IDOCK:   -5.78 KCAL/MOL
REMARK 922        TOTAL FREE ENERGY PREDICTED BY IDOCK:   -7.07 KCAL/MOL
REMARK 923 INTER-LIGAND FREE ENERGY PREDICTED BY IDOCK:   -6.46 KCAL/MOL
REMARK 924 INTRA-LIGAND FREE ENERGY PREDICTED BY IDOCK:   -0.62 KCAL/MOL
REMARK 927      BINDING AFFINITY PREDICTED BY RF-SCORE:    0.00 PKD
ROOT
HETATM    1  C   UNL     1      -9.508  10.381  66.489  1.00  0.00    -0.204 C  
HETATM    2  C   UNL     1     -10.450  11.282  65.738  1.00  0.00    -0.310 A  
HETATM    3  C   UNL     1     -10.638  11.167  64.346  1.00  0.00    -0.343 A  
HETATM    4 CL   UNL     1      -9.624  10.169  63.360  1.00  0.00    -0.312 Cl 
HETATM    5  C   UNL     1     -11.631  11.896  63.685  1.00  0.00    -0.559 A  
HETATM    6  C   UNL     1     -12.473  12.732  64.401  1.00  0.00    -0.476 A  
HETATM    7  C   UNL     1     -12.240  12.920  65.759  1.00  0.00    -0.498 A  
HETATM    8  C   UNL     1     -11.169  12.285  66.419  1.00  0.00    -0.324 A  
ENDROOT
BRANCH   8   9
HETATM    9  N   UNL     1     -10.795  12.693  67.738  1.00  0.00    -0.216 NA 
HETATM   10  H   UNL     1      -9.914  13.196  67.850  1.00  0.00     0.000 HD 
BRANCH   9  11
HETATM   11  C   UNL     1     -11.572  12.442  68.905  1.00  0.00    -0.316 A  
HETATM   12  C   UNL     1     -11.990  11.130  69.200  1.00  0.00    -0.413 A  
HETATM   13  C   UNL     1     -12.579  10.807  70.423  1.00  0.00    -0.395 A  
HETATM   14  C   UNL     1     -12.794  11.804  71.369  1.00  0.00    -0.440 A  
HETATM   15  C   UNL     1     -12.509  13.128  71.050  1.00  0.00    -0.406 A  
HETATM   16  C   UNL     1     -11.947  13.454  69.804  1.00  0.00    -0.396 A  
HETATM   17  C   UNL     1     -11.797  14.890  69.485  1.00  0.00    -0.325 C  
HETATM   18  O   UNL     1     -11.459  15.728  70.299  1.00  0.00    -0.300 OA 
HETATM   19  O   UNL     1     -12.143  15.175  68.211  1.00  0.00    -0.226 OA 
ENDBRANCH   9  11
ENDBRANCH   8   9
TORSDOF 2
ENDMDL
MODEL       20
REMARK 921   NORMALIZED FREE ENERGY PREDICTED BY IDOCK:   -5.76 KCAL/MOL
REMARK 922        TOTAL FREE ENERGY PREDICTED BY IDOCK:   -7.06 KCAL/MOL
REMARK 923 INTER-LIGAND FREE ENERGY PREDICTED BY IDOCK:   -6.38 KCAL/MOL
REMARK 924 INTRA-LIGAND FREE ENERGY PREDICTED BY IDOCK:   -0.68 KCAL/MOL
REMARK 927      BINDING AFFINITY PREDICTED BY RF-SCORE:    0.00 PKD
ROOT
HETATM    1  C   UNL     1     -12.643  13.784  65.671  1.00  0.00    -0.551 C  
HETATM    2  C   UNL     1     -11.662  12.704  66.040  1.00  0.00    -0.470 A  
HETATM    3  C   UNL     1     -10.980  11.952  65.062  1.00  0.00    -0.312 A  
HETATM    4 CL   UNL     1     -11.400  12.030  63.385  1.00  0.00    -0.495 Cl 
HETATM    5  C   UNL     1      -9.956  11.067  65.411  1.00  0.00    -0.313 A  
HETATM    6  C   UNL     1      -9.573  10.934  66.736  1.00  0.00    -0.210 A  
HETATM    7  C   UNL     1     -10.297  11.603  67.717  1.00  0.00    -0.202 A  
HETATM    8  C   UNL     1     -11.408  12.407  67.394  1.00  0.00    -0.321 A  
ENDROOT
BRANCH   8   9
HETATM    9  N   UNL     1     -12.285  12.867  68.427  1.00  0.00    -0.095 NA 
HETATM   10  H   UNL     1     -13.231  12.487  68.454  1.00  0.00     0.000 HD 
BRANCH   9  11
HETATM   11  C   UNL     1     -11.923  13.823  69.418  1.00  0.00    -0.347 A  
HETATM   12  C   UNL     1     -11.250  15.003  69.044  1.00  0.00    -0.279 A  
HETATM   13  C   UNL     1     -11.052  16.050  69.944  1.00  0.00    -0.352 A  
HETATM   14  C   UNL     1     -11.495  15.924  71.256  1.00  0.00    -0.489 A  
HETATM   15  C   UNL     1     -12.045  14.719  71.683  1.00  0.00    -0.414 A  
HETATM   16  C   UNL     1     -12.213  13.655  70.782  1.00  0.00    -0.424 A  
HETATM   17  C   UNL     1     -12.677  12.366  71.338  1.00  0.00    -0.243 C  
HETATM   18  O   UNL     1     -13.516  12.273  72.214  1.00  0.00    -0.520 OA 
HETATM   19  O   UNL     1     -12.017  11.310  70.815  1.00  0.00    -0.339 OA 
ENDBRANCH   9  11
ENDBRANCH   8   9
TORSDOF 2
ENDMDL
MODEL       21
REMARK 921   NORMALIZED FREE ENERGY PREDICTED BY IDOCK:   -5.75 KCAL/MOL
REMARK 922        TOTAL FREE ENERGY PREDICTED BY IDOCK:   -7.04 KCAL/MOL
REMARK 923 INTER-LIGAND FREE ENERGY PREDICTED BY IDOCK:   -6.45 KCAL/MOL
REMARK 924 INTRA-LIGAND FREE ENERGY PREDICTED BY IDOCK:   -0.59 KCAL/MOL
REMARK 927      BINDING AFFINITY PREDICTED BY RF-SCORE:    0.00 PKD
ROOT
HETATM    1  C   UNL     1      -8.844  14.244  68.425  1.00  0.00    -0.187 C  
HETATM    2  C   UNL     1     -10.100  14.123  67.606  1.00  0.00    -0.236 A  
HETATM    3  C   UNL     1     -10.330  14.928  66.472  1.00  0.00    -0.293 A  
HETATM    4 CL   UNL     1      -9.320  16.279  66.084  1.00  0.00    -0.351 Cl 
HETATM    5  C   UNL     1     -11.420  14.698  65.627  1.00  0.00    -0.340 A  
HETATM    6  C   UNL     1     -12.286  13.647  65.881  1.00  0.00    -0.502 A  
HETATM    7  C   UNL     1     -12.120  12.902  67.044  1.00  0.00    -0.296 A  
HETATM    8  C   UNL     1     -11.098  13.195  67.968  1.00  0.00    -0.263 A  
ENDROOT
BRANCH   8   9
HETATM    9  N   UNL     1     -11.109  12.593  69.266  1.00  0.00    -0.421 NA 
HETATM   10  H   UNL     1     -10.520  11.774  69.416  1.00  0.00     0.000 HD 
BRANCH   9  11
HETATM   11  C   UNL     1     -11.888  13.063  70.361  1.00  0.00    -0.165 A  
HETATM   12  C   UNL     1     -11.940  14.442  70.645  1.00  0.00    -0.393 A  
HETATM   13  C   UNL     1     -12.838  14.965  71.576  1.00  0.00    -0.411 A  
HETATM   14  C   UNL     1     -13.686  14.109  72.272  1.00  0.00    -0.623 A  
HETATM   15  C   UNL     1     -13.563  12.733  72.103  1.00  0.00    -0.547 A  
HETATM   16  C   UNL     1     -12.634  12.208  71.189  1.00  0.00    -0.360 A  
HETATM   17  C   UNL     1     -12.467  10.740  71.163  1.00  0.00    -0.414 C  
HETATM   18  O   UNL     1     -13.390   9.955  71.277  1.00  0.00    -0.383 OA 
HETATM   19  O   UNL     1     -11.173  10.368  71.067  1.00  0.00    -0.266 OA 
ENDBRANCH   9  11
ENDBRANCH   8   9
TORSDOF 2
ENDMDL
MODEL       22
REMARK 921   NORMALIZED FREE ENERGY PREDICTED BY IDOCK:   -5.75 KCAL/MOL
REMARK 922        TOTAL FREE ENERGY PREDICTED BY IDOCK:   -7.04 KCAL/MOL
REMARK 923 INTER-LIGAND FREE ENERGY PREDICTED BY IDOCK:   -6.67 KCAL/MOL
REMARK 924 INTRA-LIGAND FREE ENERGY PREDICTED BY IDOCK:   -0.37 KCAL/MOL
REMARK 927      BINDING AFFINITY PREDICTED BY RF-SCORE:    0.00 PKD
ROOT
HETATM    1  C   UNL     1      -8.476  14.855  68.908  1.00  0.00    -0.174 C  
HETATM    2  C   UNL     1      -9.643  14.825  67.959  1.00  0.00    -0.209 A  
HETATM    3  C   UNL     1      -9.565  15.382  66.666  1.00  0.00    -0.256 A  
HETATM    4 CL   UNL     1      -8.227  16.357  66.164  1.00  0.00    -0.337 Cl 
HETATM    5  C   UNL     1     -10.596  15.207  65.737  1.00  0.00    -0.364 A  
HETATM    6  C   UNL     1     -11.711  14.454  66.070  1.00  0.00    -0.378 A  
HETATM    7  C   UNL     1     -11.838  13.976  67.370  1.00  0.00    -0.445 A  
HETATM    8  C   UNL     1     -10.865  14.243  68.353  1.00  0.00    -0.253 A  
ENDROOT
BRANCH   8   9
HETATM    9  N   UNL     1     -11.141  13.969  69.730  1.00  0.00    -0.452 NA 
HETATM   10  H   UNL     1     -10.844  14.658  70.421  1.00  0.00     0.000 HD 
BRANCH   9  11
HETATM   11  C   UNL     1     -11.801  12.798  70.197  1.00  0.00    -0.251 A  
HETATM   12  C   UNL     1     -11.549  11.556  69.580  1.00  0.00    -0.403 A  
HETATM   13  C   UNL     1     -12.016  10.360  70.124  1.00  0.00    -0.357 A  
HETATM   14  C   UNL     1     -12.781  10.384  71.286  1.00  0.00    -0.536 A  
HETATM   15  C   UNL     1     -13.152  11.605  71.840  1.00  0.00    -0.490 A  
HETATM   16  C   UNL     1     -12.707  12.809  71.270  1.00  0.00    -0.364 A  
HETATM   17  C   UNL     1     -13.251  14.064  71.831  1.00  0.00    -0.395 C  
HETATM   18  O   UNL     1     -13.447  14.241  73.019  1.00  0.00    -0.644 OA 
HETATM   19  O   UNL     1     -13.570  14.962  70.875  1.00  0.00    -0.357 OA 
ENDBRANCH   9  11
ENDBRANCH   8   9
TORSDOF 2
ENDMDL
MODEL       23
REMARK 921   NORMALIZED FREE ENERGY PREDICTED BY IDOCK:   -5.74 KCAL/MOL
REMARK 922        TOTAL FREE ENERGY PREDICTED BY IDOCK:   -7.03 KCAL/MOL
REMARK 923 INTER-LIGAND FREE ENERGY PREDICTED BY IDOCK:   -6.38 KCAL/MOL
REMARK 924 INTRA-LIGAND FREE ENERGY PREDICTED BY IDOCK:   -0.65 KCAL/MOL
REMARK 927      BINDING AFFINITY PREDICTED BY RF-SCORE:    0.00 PKD
ROOT
HETATM    1  C   UNL     1     -12.190  15.426  69.837  1.00  0.00    -0.363 C  
HETATM    2  C   UNL     1     -12.459  14.158  70.601  1.00  0.00    -0.432 A  
HETATM    3  C   UNL     1     -13.283  14.138  71.745  1.00  0.00    -0.373 A  
HETATM    4 CL   UNL     1     -13.835  15.591  72.505  1.00  0.00    -0.645 Cl 
HETATM    5  C   UNL     1     -13.656  12.934  72.350  1.00  0.00    -0.577 A  
HETATM    6  C   UNL     1     -13.239  11.727  71.812  1.00  0.00    -0.434 A  
HETATM    7  C   UNL     1     -12.355  11.738  70.738  1.00  0.00    -0.433 A  
HETATM    8  C   UNL     1     -11.874  12.943  70.190  1.00  0.00    -0.245 A  
ENDROOT
BRANCH   8   9
HETATM    9  N   UNL     1     -10.778  12.927  69.271  1.00  0.00    -0.445 NA 
HETATM   10  H   UNL     1      -9.872  13.260  69.602  1.00  0.00     0.000 HD 
BRANCH   9  11
HETATM   11  C   UNL     1     -10.869  12.478  67.923  1.00  0.00    -0.222 A  
HETATM   12  C   UNL     1     -11.902  12.955  67.092  1.00  0.00    -0.424 A  
HETATM   13  C   UNL     1     -11.917  12.699  65.721  1.00  0.00    -0.503 A  
HETATM   14  C   UNL     1     -10.910  11.925  65.154  1.00  0.00    -0.350 A  
HETATM   15  C   UNL     1      -9.952  11.335  65.973  1.00  0.00    -0.273 A  
HETATM   16  C   UNL     1      -9.960  11.569  67.358  1.00  0.00    -0.209 A  
HETATM   17  C   UNL     1      -8.997  10.803  68.178  1.00  0.00    -0.140 C  
HETATM   18  O   UNL     1      -7.857  10.562  67.827  1.00  0.00    -0.103 OA 
HETATM   19  O   UNL     1      -9.544  10.344  69.324  1.00  0.00    -0.207 OA 
ENDBRANCH   9  11
ENDBRANCH   8   9
TORSDOF 2
ENDMDL
MODEL       24
REMARK 921   NORMALIZED FREE ENERGY PREDICTED BY IDOCK:   -5.72 KCAL/MOL
REMARK 922        TOTAL FREE ENERGY PREDICTED BY IDOCK:   -7.01 KCAL/MOL
REMARK 923 INTER-LIGAND FREE ENERGY PREDICTED BY IDOCK:   -6.41 KCAL/MOL
REMARK 924 INTRA-LIGAND FREE ENERGY PREDICTED BY IDOCK:   -0.60 KCAL/MOL
REMARK 927      BINDING AFFINITY PREDICTED BY RF-SCORE:    0.00 PKD
ROOT
HETATM    1  C   UNL     1     -12.532  13.987  65.650  1.00  0.00    -0.531 C  
HETATM    2  C   UNL     1     -11.499  12.897  65.563  1.00  0.00    -0.361 A  
HETATM    3  C   UNL     1     -11.462  11.993  64.481  1.00  0.00    -0.319 A  
HETATM    4 CL   UNL     1     -12.737  11.901  63.315  1.00  0.00    -0.609 Cl 
HETATM    5  C   UNL     1     -10.406  11.089  64.327  1.00  0.00    -0.430 A  
HETATM    6  C   UNL     1      -9.355  11.087  65.230  1.00  0.00    -0.245 A  
HETATM    7  C   UNL     1      -9.425  11.912  66.348  1.00  0.00    -0.238 A  
HETATM    8  C   UNL     1     -10.539  12.743  66.582  1.00  0.00    -0.256 A  
ENDROOT
BRANCH   8   9
HETATM    9  N   UNL     1     -10.706  13.378  67.854  1.00  0.00    -0.242 NA 
HETATM   10  H   UNL     1     -10.245  14.275  68.003  1.00  0.00     0.000 HD 
BRANCH   9  11
HETATM   11  C   UNL     1     -11.474  12.837  68.924  1.00  0.00    -0.305 A  
HETATM   12  C   UNL     1     -11.818  11.471  68.921  1.00  0.00    -0.406 A  
HETATM   13  C   UNL     1     -12.394  10.858  70.034  1.00  0.00    -0.385 A  
HETATM   14  C   UNL     1     -12.671  11.613  71.170  1.00  0.00    -0.426 A  
HETATM   15  C   UNL     1     -12.460  12.988  71.150  1.00  0.00    -0.364 A  
HETATM   16  C   UNL     1     -11.911  13.607  70.014  1.00  0.00    -0.413 A  
HETATM   17  C   UNL     1     -11.842  15.084  70.016  1.00  0.00    -0.319 C  
HETATM   18  O   UNL     1     -11.557  15.743  70.998  1.00  0.00    -0.341 OA 
HETATM   19  O   UNL     1     -12.197  15.620  68.829  1.00  0.00    -0.218 OA 
ENDBRANCH   9  11
ENDBRANCH   8   9
TORSDOF 2
ENDMDL
MODEL       25
REMARK 921   NORMALIZED FREE ENERGY PREDICTED BY IDOCK:   -5.71 KCAL/MOL
REMARK 922        TOTAL FREE ENERGY PREDICTED BY IDOCK:   -6.99 KCAL/MOL
REMARK 923 INTER-LIGAND FREE ENERGY PREDICTED BY IDOCK:   -6.45 KCAL/MOL
REMARK 924 INTRA-LIGAND FREE ENERGY PREDICTED BY IDOCK:   -0.54 KCAL/MOL
REMARK 927      BINDING AFFINITY PREDICTED BY RF-SCORE:    0.00 PKD
ROOT
HETATM    1  C   UNL     1      -9.195   9.938  69.852  1.00  0.00    -0.245 C  
HETATM    2  C   UNL     1      -9.853   9.008  70.836  1.00  0.00    -0.330 A  
HETATM    3  C   UNL     1      -9.152   7.941  71.434  1.00  0.00    -0.136 A  
HETATM    4 CL   UNL     1      -7.577   7.461  70.900  1.00  0.00    -0.082 Cl 
HETATM    5  C   UNL     1      -9.721   7.185  72.463  1.00  0.00    -0.180 A  
HETATM    6  C   UNL     1     -10.987   7.494  72.934  1.00  0.00    -0.434 A  
HETATM    7  C   UNL     1     -11.721   8.487  72.293  1.00  0.00    -0.443 A  
HETATM    8  C   UNL     1     -11.210   9.178  71.177  1.00  0.00    -0.325 A  
ENDROOT
BRANCH   8   9
HETATM    9  N   UNL     1     -12.072   9.999  70.384  1.00  0.00    -0.418 NA 
HETATM   10  H   UNL     1     -12.475   9.590  69.540  1.00  0.00     0.000 HD 
BRANCH   9  11
HETATM   11  C   UNL     1     -12.404  11.348  70.694  1.00  0.00    -0.373 A  
HETATM   12  C   UNL     1     -13.136  11.640  71.862  1.00  0.00    -0.490 A  
HETATM   13  C   UNL     1     -13.314  12.949  72.307  1.00  0.00    -0.597 A  
HETATM   14  C   UNL     1     -12.786  14.005  71.570  1.00  0.00    -0.440 A  
HETATM   15  C   UNL     1     -12.172  13.751  70.348  1.00  0.00    -0.433 A  
HETATM   16  C   UNL     1     -12.025  12.432  69.886  1.00  0.00    -0.369 A  
HETATM   17  C   UNL     1     -11.486  12.250  68.521  1.00  0.00    -0.303 C  
HETATM   18  O   UNL     1     -10.592  12.931  68.055  1.00  0.00    -0.216 OA 
HETATM   19  O   UNL     1     -12.142  11.293  67.830  1.00  0.00    -0.634 OA 
ENDBRANCH   9  11
ENDBRANCH   8   9
TORSDOF 2
ENDMDL
MODEL       26
REMARK 921   NORMALIZED FREE ENERGY PREDICTED BY IDOCK:   -5.70 KCAL/MOL
REMARK 922        TOTAL FREE ENERGY PREDICTED BY IDOCK:   -6.98 KCAL/MOL
REMARK 923 INTER-LIGAND FREE ENERGY PREDICTED BY IDOCK:   -6.60 KCAL/MOL
REMARK 924 INTRA-LIGAND FREE ENERGY PREDICTED BY IDOCK:   -0.38 KCAL/MOL
REMARK 927      BINDING AFFINITY PREDICTED BY RF-SCORE:    0.00 PKD
ROOT
HETATM    1  C   UNL     1     -12.475  11.625  70.793  1.00  0.00    -0.425 C  
HETATM    2  C   UNL     1     -12.293  13.101  70.563  1.00  0.00    -0.380 A  
HETATM    3  C   UNL     1     -12.973  14.063  71.337  1.00  0.00    -0.353 A  
HETATM    4 CL   UNL     1     -14.249  13.635  72.425  1.00  0.00    -0.583 Cl 
HETATM    5  C   UNL     1     -12.676  15.425  71.226  1.00  0.00    -0.501 A  
HETATM    6  C   UNL     1     -11.680  15.851  70.362  1.00  0.00    -0.371 A  
HETATM    7  C   UNL     1     -11.065  14.921  69.531  1.00  0.00    -0.301 A  
HETATM    8  C   UNL     1     -11.435  13.561  69.544  1.00  0.00    -0.255 A  
ENDROOT
BRANCH   8   9
HETATM    9  N   UNL     1     -10.981  12.683  68.510  1.00  0.00    -0.249 NA 
HETATM   10  H   UNL     1     -10.290  11.974  68.757  1.00  0.00     0.000 HD 
BRANCH   9  11
HETATM   11  C   UNL     1     -11.430  12.735  67.160  1.00  0.00    -0.337 A  
HETATM   12  C   UNL     1     -12.285  13.775  66.744  1.00  0.00    -0.440 A  
HETATM   13  C   UNL     1     -12.590  13.978  65.398  1.00  0.00    -0.529 A  
HETATM   14  C   UNL     1     -12.070  13.118  64.437  1.00  0.00    -0.471 A  
HETATM   15  C   UNL     1     -11.330  12.008  64.834  1.00  0.00    -0.366 A  
HETATM   16  C   UNL     1     -11.053  11.788  66.194  1.00  0.00    -0.358 A  
HETATM   17  C   UNL     1     -10.380  10.521  66.550  1.00  0.00    -0.233 C  
HETATM   18  O   UNL     1      -9.495  10.018  65.884  1.00  0.00    -0.176 OA 
HETATM   19  O   UNL     1     -10.903   9.951  67.656  1.00  0.00    -0.274 OA 
ENDBRANCH   9  11
ENDBRANCH   8   9
TORSDOF 2
ENDMDL
MODEL       27
REMARK 921   NORMALIZED FREE ENERGY PREDICTED BY IDOCK:   -5.69 KCAL/MOL
REMARK 922        TOTAL FREE ENERGY PREDICTED BY IDOCK:   -6.97 KCAL/MOL
REMARK 923 INTER-LIGAND FREE ENERGY PREDICTED BY IDOCK:   -6.43 KCAL/MOL
REMARK 924 INTRA-LIGAND FREE ENERGY PREDICTED BY IDOCK:   -0.55 KCAL/MOL
REMARK 927      BINDING AFFINITY PREDICTED BY RF-SCORE:    0.00 PKD
ROOT
HETATM    1  C   UNL     1     -10.437   9.845  67.007  1.00  0.00    -0.296 C  
HETATM    2  C   UNL     1     -10.952  11.258  66.968  1.00  0.00    -0.352 A  
HETATM    3  C   UNL     1     -11.217  11.920  65.752  1.00  0.00    -0.312 A  
HETATM    4 CL   UNL     1     -10.736  11.265  64.224  1.00  0.00    -0.416 Cl 
HETATM    5  C   UNL     1     -11.845  13.169  65.728  1.00  0.00    -0.442 A  
HETATM    6  C   UNL     1     -12.244  13.770  66.911  1.00  0.00    -0.408 A  
HETATM    7  C   UNL     1     -11.909  13.168  68.119  1.00  0.00    -0.386 A  
HETATM    8  C   UNL     1     -11.171  11.968  68.166  1.00  0.00    -0.260 A  
ENDROOT
BRANCH   8   9
HETATM    9  N   UNL     1     -10.619  11.512  69.404  1.00  0.00    -0.436 NA 
HETATM   10  H   UNL     1      -9.629  11.687  69.577  1.00  0.00     0.000 HD 
BRANCH   9  11
HETATM   11  C   UNL     1     -11.361  10.830  70.410  1.00  0.00    -0.255 A  
HETATM   12  C   UNL     1     -12.464  11.461  71.017  1.00  0.00    -0.486 A  
HETATM   13  C   UNL     1     -13.334  10.766  71.858  1.00  0.00    -0.445 A  
HETATM   14  C   UNL     1     -13.096   9.424  72.137  1.00  0.00    -0.526 A  
HETATM   15  C   UNL     1     -11.942   8.815  71.654  1.00  0.00    -0.399 A  
HETATM   16  C   UNL     1     -11.051   9.528  70.835  1.00  0.00    -0.406 A  
HETATM   17  C   UNL     1      -9.783   8.859  70.473  1.00  0.00    -0.203 C  
HETATM   18  O   UNL     1      -9.700   7.675  70.205  1.00  0.00    -0.178 OA 
HETATM   19  O   UNL     1      -8.722   9.691  70.539  1.00  0.00    -0.218 OA 
ENDBRANCH   9  11
ENDBRANCH   8   9
TORSDOF 2
ENDMDL
MODEL       28
REMARK 921   NORMALIZED FREE ENERGY PREDICTED BY IDOCK:   -5.65 KCAL/MOL
REMARK 922        TOTAL FREE ENERGY PREDICTED BY IDOCK:   -6.94 KCAL/MOL
REMARK 923 INTER-LIGAND FREE ENERGY PREDICTED BY IDOCK:   -6.26 KCAL/MOL
REMARK 924 INTRA-LIGAND FREE ENERGY PREDICTED BY IDOCK:   -0.67 KCAL/MOL
REMARK 927      BINDING AFFINITY PREDICTED BY RF-SCORE:    0.00 PKD
ROOT
HETATM    1  C   UNL     1      -9.753   9.468  69.645  1.00  0.00    -0.215 C  
HETATM    2  C   UNL     1     -10.975  10.165  70.177  1.00  0.00    -0.376 A  
HETATM    3  C   UNL     1     -11.942   9.488  70.949  1.00  0.00    -0.295 A  
HETATM    4 CL   UNL     1     -11.935   7.766  71.126  1.00  0.00    -0.314 Cl 
HETATM    5  C   UNL     1     -12.987  10.177  71.572  1.00  0.00    -0.547 A  
HETATM    6  C   UNL     1     -13.073  11.555  71.462  1.00  0.00    -0.429 A  
HETATM    7  C   UNL     1     -12.178  12.223  70.632  1.00  0.00    -0.378 A  
HETATM    8  C   UNL     1     -11.192  11.530  69.902  1.00  0.00    -0.104 A  
ENDROOT
BRANCH   8   9
HETATM    9  N   UNL     1     -10.463  12.198  68.867  1.00  0.00    -0.385 NA 
HETATM   10  H   UNL     1      -9.466  12.357  69.014  1.00  0.00     0.000 HD 
BRANCH   9  11
HETATM   11  C   UNL     1     -11.039  12.655  67.648  1.00  0.00    -0.263 A  
HETATM   12  C   UNL     1     -11.177  11.769  66.561  1.00  0.00    -0.380 A  
HETATM   13  C   UNL     1     -11.908  12.113  65.424  1.00  0.00    -0.357 A  
HETATM   14  C   UNL     1     -12.492  13.373  65.336  1.00  0.00    -0.543 A  
HETATM   15  C   UNL     1     -12.261  14.310  66.338  1.00  0.00    -0.426 A  
HETATM   16  C   UNL     1     -11.496  13.971  67.466  1.00  0.00    -0.369 A  
HETATM   17  C   UNL     1     -11.181  15.055  68.421  1.00  0.00    -0.293 C  
HETATM   18  O   UNL     1     -11.969  15.929  68.730  1.00  0.00    -0.368 OA 
HETATM   19  O   UNL     1      -9.904  15.006  68.856  1.00  0.00    -0.219 OA 
ENDBRANCH   9  11
ENDBRANCH   8   9
TORSDOF 2
ENDMDL
MODEL       29
REMARK 921   NORMALIZED FREE ENERGY PREDICTED BY IDOCK:   -5.62 KCAL/MOL
REMARK 922        TOTAL FREE ENERGY PREDICTED BY IDOCK:   -6.90 KCAL/MOL
REMARK 923 INTER-LIGAND FREE ENERGY PREDICTED BY IDOCK:   -6.34 KCAL/MOL
REMARK 924 INTRA-LIGAND FREE ENERGY PREDICTED BY IDOCK:   -0.55 KCAL/MOL
REMARK 927      BINDING AFFINITY PREDICTED BY RF-SCORE:    0.00 PKD
ROOT
HETATM    1  C   UNL     1      -7.719  16.323  66.795  1.00  0.00    -0.295 C  
HETATM    2  C   UNL     1      -8.553  17.575  66.762  1.00  0.00    -0.276 A  
HETATM    3  C   UNL     1      -7.991  18.849  66.987  1.00  0.00    -0.252 A  
HETATM    4 CL   UNL     1      -6.372  19.051  67.565  1.00  0.00    -0.195 Cl 
HETATM    5  C   UNL     1      -8.738  20.015  66.796  1.00  0.00    -0.408 A  
HETATM    6  C   UNL     1     -10.048  19.936  66.352  1.00  0.00    -0.615 A  
HETATM    7  C   UNL     1     -10.639  18.685  66.213  1.00  0.00    -0.396 A  
HETATM    8  C   UNL     1      -9.938  17.501  66.516  1.00  0.00    -0.321 A  
ENDROOT
BRANCH   8   9
HETATM    9  N   UNL     1     -10.639  16.257  66.616  1.00  0.00    -0.287 NA 
HETATM   10  H   UNL     1     -10.883  15.777  65.750  1.00  0.00     0.000 HD 
BRANCH   9  11
HETATM   11  C   UNL     1     -11.018  15.648  67.846  1.00  0.00    -0.319 A  
HETATM   12  C   UNL     1     -10.956  16.387  69.044  1.00  0.00    -0.325 A  
HETATM   13  C   UNL     1     -11.499  15.900  70.233  1.00  0.00    -0.376 A  
HETATM   14  C   UNL     1     -12.089  14.640  70.256  1.00  0.00    -0.380 A  
HETATM   15  C   UNL     1     -12.046  13.840  69.119  1.00  0.00    -0.374 A  
HETATM   16  C   UNL     1     -11.468  14.320  67.932  1.00  0.00    -0.341 A  
HETATM   17  C   UNL     1     -11.338  13.367  66.809  1.00  0.00    -0.325 C  
HETATM   18  O   UNL     1     -12.186  12.541  66.526  1.00  0.00    -0.569 OA 
HETATM   19  O   UNL     1     -10.149  13.470  66.179  1.00  0.00    -0.290 OA 
ENDBRANCH   9  11
ENDBRANCH   8   9
TORSDOF 2
ENDMDL
MODEL       30
REMARK 921   NORMALIZED FREE ENERGY PREDICTED BY IDOCK:   -5.61 KCAL/MOL
REMARK 922        TOTAL FREE ENERGY PREDICTED BY IDOCK:   -6.88 KCAL/MOL
REMARK 923 INTER-LIGAND FREE ENERGY PREDICTED BY IDOCK:   -6.29 KCAL/MOL
REMARK 924 INTRA-LIGAND FREE ENERGY PREDICTED BY IDOCK:   -0.59 KCAL/MOL
REMARK 927      BINDING AFFINITY PREDICTED BY RF-SCORE:    0.00 PKD
ROOT
HETATM    1  C   UNL     1     -11.997  12.391  66.007  1.00  0.00    -0.419 C  
HETATM    2  C   UNL     1     -10.942  11.382  66.371  1.00  0.00    -0.315 A  
HETATM    3  C   UNL     1      -9.924  11.012  65.469  1.00  0.00    -0.256 A  
HETATM    4 CL   UNL     1      -9.952  11.486  63.805  1.00  0.00    -0.343 Cl 
HETATM    5  C   UNL     1      -8.859  10.198  65.870  1.00  0.00    -0.167 A  
HETATM    6  C   UNL     1      -8.775   9.761  67.182  1.00  0.00    -0.137 A  
HETATM    7  C   UNL     1      -9.818  10.047  68.056  1.00  0.00    -0.164 A  
HETATM    8  C   UNL     1     -10.956  10.764  67.638  1.00  0.00    -0.306 A  
ENDROOT
BRANCH   8   9
HETATM    9  N   UNL     1     -12.118  10.818  68.471  1.00  0.00    -0.826 NA 
HETATM   10  H   UNL     1     -12.905  10.213  68.231  1.00  0.00     0.000 HD 
BRANCH   9  11
HETATM   11  C   UNL     1     -12.249  11.660  69.611  1.00  0.00    -0.206 A  
HETATM   12  C   UNL     1     -11.906  13.023  69.520  1.00  0.00    -0.385 A  
HETATM   13  C   UNL     1     -12.200  13.923  70.544  1.00  0.00    -0.443 A  
HETATM   14  C   UNL     1     -12.818  13.467  71.705  1.00  0.00    -0.419 A  
HETATM   15  C   UNL     1     -13.048  12.105  71.872  1.00  0.00    -0.475 A  
HETATM   16  C   UNL     1     -12.719  11.198  70.851  1.00  0.00    -0.438 A  
HETATM   17  C   UNL     1     -12.866   9.758  71.154  1.00  0.00    -0.345 C  
HETATM   18  O   UNL     1     -13.784   9.298  71.806  1.00  0.00    -0.389 OA 
HETATM   19  O   UNL     1     -11.836   9.023  70.684  1.00  0.00    -0.255 OA 
ENDBRANCH   9  11
ENDBRANCH   8   9
TORSDOF 2
ENDMDL
MODEL       31
REMARK 921   NORMALIZED FREE ENERGY PREDICTED BY IDOCK:   -5.61 KCAL/MOL
REMARK 922        TOTAL FREE ENERGY PREDICTED BY IDOCK:   -6.88 KCAL/MOL
REMARK 923 INTER-LIGAND FREE ENERGY PREDICTED BY IDOCK:   -6.38 KCAL/MOL
REMARK 924 INTRA-LIGAND FREE ENERGY PREDICTED BY IDOCK:   -0.50 KCAL/MOL
REMARK 927      BINDING AFFINITY PREDICTED BY RF-SCORE:    0.00 PKD
ROOT
HETATM    1  C   UNL     1      -9.198  10.963  68.543  1.00  0.00    -0.181 C  
HETATM    2  C   UNL     1     -10.292  10.470  69.451  1.00  0.00    -0.258 A  
HETATM    3  C   UNL     1     -10.064   9.466  70.413  1.00  0.00    -0.255 A  
HETATM    4 CL   UNL     1      -8.597   8.549  70.456  1.00  0.00    -0.139 Cl 
HETATM    5  C   UNL     1     -11.040   9.129  71.357  1.00  0.00    -0.415 A  
HETATM    6  C   UNL     1     -12.249   9.805  71.377  1.00  0.00    -0.486 A  
HETATM    7  C   UNL     1     -12.519  10.735  70.378  1.00  0.00    -0.430 A  
HETATM    8  C   UNL     1     -11.594  11.000  69.348  1.00  0.00    -0.312 A  
ENDROOT
BRANCH   8   9
HETATM    9  N   UNL     1     -11.994  11.756  68.201  1.00  0.00    -0.557 NA 
HETATM   10  H   UNL     1     -12.419  11.251  67.423  1.00  0.00     0.000 HD 
BRANCH   9  11
HETATM   11  C   UNL     1     -11.837  13.165  68.075  1.00  0.00    -0.358 A  
HETATM   12  C   UNL     1     -12.087  14.001  69.181  1.00  0.00    -0.375 A  
HETATM   13  C   UNL     1     -11.759  15.357  69.163  1.00  0.00    -0.364 A  
HETATM   14  C   UNL     1     -11.202  15.916  68.018  1.00  0.00    -0.319 A  
HETATM   15  C   UNL     1     -11.066  15.141  66.870  1.00  0.00    -0.314 A  
HETATM   16  C   UNL     1     -11.429  13.783  66.882  1.00  0.00    -0.368 A  
HETATM   17  C   UNL     1     -11.384  13.061  65.593  1.00  0.00    -0.301 C  
HETATM   18  O   UNL     1     -10.514  13.227  64.758  1.00  0.00    -0.348 OA 
HETATM   19  O   UNL     1     -12.449  12.250  65.417  1.00  0.00    -0.596 OA 
ENDBRANCH   9  11
ENDBRANCH   8   9
TORSDOF 2
ENDMDL
MODEL       32
REMARK 921   NORMALIZED FREE ENERGY PREDICTED BY IDOCK:   -5.60 KCAL/MOL
REMARK 922        TOTAL FREE ENERGY PREDICTED BY IDOCK:   -6.87 KCAL/MOL
REMARK 923 INTER-LIGAND FREE ENERGY PREDICTED BY IDOCK:   -6.63 KCAL/MOL
REMARK 924 INTRA-LIGAND FREE ENERGY PREDICTED BY IDOCK:   -0.23 KCAL/MOL
REMARK 927      BINDING AFFINITY PREDICTED BY RF-SCORE:    0.00 PKD
ROOT
HETATM    1  C   UNL     1     -11.111  10.010  69.587  1.00  0.00    -0.300 C  
HETATM    2  C   UNL     1     -11.467  11.470  69.650  1.00  0.00    -0.373 A  
HETATM    3  C   UNL     1     -12.281  11.995  70.674  1.00  0.00    -0.316 A  
HETATM    4 CL   UNL     1     -13.137  10.976  71.781  1.00  0.00    -0.585 Cl 
HETATM    5  C   UNL     1     -12.473  13.373  70.816  1.00  0.00    -0.418 A  
HETATM    6  C   UNL     1     -11.837  14.254  69.957  1.00  0.00    -0.378 A  
HETATM    7  C   UNL     1     -11.104  13.746  68.890  1.00  0.00    -0.300 A  
HETATM    8  C   UNL     1     -10.998  12.360  68.662  1.00  0.00    -0.247 A  
ENDROOT
BRANCH   8   9
HETATM    9  N   UNL     1     -10.466  11.873  67.426  1.00  0.00    -0.213 NA 
HETATM   10  H   UNL     1      -9.600  11.336  67.459  1.00  0.00     0.000 HD 
BRANCH   9  11
HETATM   11  C   UNL     1     -11.067  12.092  66.154  1.00  0.00    -0.312 A  
HETATM   12  C   UNL     1     -12.042  13.097  66.001  1.00  0.00    -0.495 A  
HETATM   13  C   UNL     1     -12.512  13.477  64.744  1.00  0.00    -0.402 A  
HETATM   14  C   UNL     1     -12.037  12.832  63.607  1.00  0.00    -0.624 A  
HETATM   15  C   UNL     1     -11.172  11.750  63.741  1.00  0.00    -0.518 A  
HETATM   16  C   UNL     1     -10.727  11.348  65.012  1.00  0.00    -0.340 A  
HETATM   17  C   UNL     1      -9.921  10.111  65.085  1.00  0.00    -0.309 C  
HETATM   18  O   UNL     1      -9.079   9.806  64.261  1.00  0.00    -0.233 OA 
HETATM   19  O   UNL     1     -10.270   9.328  66.128  1.00  0.00    -0.273 OA 
ENDBRANCH   9  11
ENDBRANCH   8   9
TORSDOF 2
ENDMDL
MODEL       33
REMARK 921   NORMALIZED FREE ENERGY PREDICTED BY IDOCK:   -5.58 KCAL/MOL
REMARK 922        TOTAL FREE ENERGY PREDICTED BY IDOCK:   -6.86 KCAL/MOL
REMARK 923 INTER-LIGAND FREE ENERGY PREDICTED BY IDOCK:   -6.16 KCAL/MOL
REMARK 924 INTRA-LIGAND FREE ENERGY PREDICTED BY IDOCK:   -0.69 KCAL/MOL
REMARK 927      BINDING AFFINITY PREDICTED BY RF-SCORE:    0.00 PKD
ROOT
HETATM    1  C   UNL     1     -11.355  13.478  68.513  1.00  0.00    -0.327 C  
HETATM    2  C   UNL     1     -11.853  13.659  69.921  1.00  0.00    -0.389 A  
HETATM    3  C   UNL     1     -11.659  14.862  70.631  1.00  0.00    -0.291 A  
HETATM    4 CL   UNL     1     -10.622  16.117  70.045  1.00  0.00    -0.294 Cl 
HETATM    5  C   UNL     1     -12.263  15.078  71.873  1.00  0.00    -0.427 A  
HETATM    6  C   UNL     1     -13.093  14.112  72.419  1.00  0.00    -0.525 A  
HETATM    7  C   UNL     1     -13.221  12.888  71.771  1.00  0.00    -0.479 A  
HETATM    8  C   UNL     1     -12.525  12.608  70.579  1.00  0.00    -0.193 A  
ENDROOT
BRANCH   8   9
HETATM    9  N   UNL     1     -12.467  11.269  70.078  1.00  0.00    -0.223 NA 
HETATM   10  H   UNL     1     -13.059  11.033  69.281  1.00  0.00     0.000 HD 
BRANCH   9  11
HETATM   11  C   UNL     1     -11.638  10.246  70.620  1.00  0.00    -0.347 A  
HETATM   12  C   UNL     1     -10.324  10.081  70.141  1.00  0.00    -0.321 A  
HETATM   13  C   UNL     1      -9.416   9.230  70.772  1.00  0.00    -0.336 A  
HETATM   14  C   UNL     1      -9.818   8.495  71.883  1.00  0.00    -0.358 A  
HETATM   15  C   UNL     1     -11.147   8.543  72.295  1.00  0.00    -0.430 A  
HETATM   16  C   UNL     1     -12.066   9.376  71.636  1.00  0.00    -0.462 A  
HETATM   17  C   UNL     1     -13.484   9.272  72.042  1.00  0.00    -0.451 C  
HETATM   18  O   UNL     1     -13.845   9.125  73.195  1.00  0.00    -0.268 OA 
HETATM   19  O   UNL     1     -14.326   9.290  70.987  1.00  0.00    -0.044 OA 
ENDBRANCH   9  11
ENDBRANCH   8   9
TORSDOF 2
ENDMDL
MODEL       34
REMARK 921   NORMALIZED FREE ENERGY PREDICTED BY IDOCK:   -5.58 KCAL/MOL
REMARK 922        TOTAL FREE ENERGY PREDICTED BY IDOCK:   -6.85 KCAL/MOL
REMARK 923 INTER-LIGAND FREE ENERGY PREDICTED BY IDOCK:   -6.35 KCAL/MOL
REMARK 924 INTRA-LIGAND FREE ENERGY PREDICTED BY IDOCK:   -0.50 KCAL/MOL
REMARK 927      BINDING AFFINITY PREDICTED BY RF-SCORE:    0.00 PKD
ROOT
HETATM    1  C   UNL     1     -10.039  12.091  64.250  1.00  0.00    -0.319 C  
HETATM    2  C   UNL     1     -10.272  11.065  65.325  1.00  0.00    -0.344 A  
HETATM    3  C   UNL     1      -9.701   9.777  65.261  1.00  0.00    -0.300 A  
HETATM    4 CL   UNL     1      -8.910   9.192  63.837  1.00  0.00    -0.166 Cl 
HETATM    5  C   UNL     1      -9.789   8.889  66.337  1.00  0.00    -0.353 A  
HETATM    6  C   UNL     1     -10.423   9.276  67.507  1.00  0.00    -0.338 A  
HETATM    7  C   UNL     1     -11.066  10.509  67.549  1.00  0.00    -0.358 A  
HETATM    8  C   UNL     1     -11.089  11.367  66.432  1.00  0.00    -0.240 A  
ENDROOT
BRANCH   8   9
HETATM    9  N   UNL     1     -11.967  12.497  66.413  1.00  0.00    -0.577 NA 
HETATM   10  H   UNL     1     -12.789  12.452  65.811  1.00  0.00     0.000 HD 
BRANCH   9  11
HETATM   11  C   UNL     1     -11.766  13.681  67.179  1.00  0.00    -0.383 A  
HETATM   12  C   UNL     1     -11.953  13.654  68.575  1.00  0.00    -0.396 A  
HETATM   13  C   UNL     1     -11.581  14.727  69.385  1.00  0.00    -0.342 A  
HETATM   14  C   UNL     1     -11.040  15.871  68.807  1.00  0.00    -0.328 A  
HETATM   15  C   UNL     1     -10.966  15.972  67.421  1.00  0.00    -0.237 A  
HETATM   16  C   UNL     1     -11.374  14.902  66.607  1.00  0.00    -0.326 A  
HETATM   17  C   UNL     1     -11.393  15.133  65.147  1.00  0.00    -0.357 C  
HETATM   18  O   UNL     1     -10.545  15.774  64.556  1.00  0.00    -0.406 OA 
HETATM   19  O   UNL     1     -12.490  14.613  64.556  1.00  0.00    -0.579 OA 
ENDBRANCH   9  11
ENDBRANCH   8   9
TORSDOF 2
ENDMDL
MODEL       35
REMARK 921   NORMALIZED FREE ENERGY PREDICTED BY IDOCK:   -5.58 KCAL/MOL
REMARK 922        TOTAL FREE ENERGY PREDICTED BY IDOCK:   -6.85 KCAL/MOL
REMARK 923 INTER-LIGAND FREE ENERGY PREDICTED BY IDOCK:   -6.28 KCAL/MOL
REMARK 924 INTRA-LIGAND FREE ENERGY PREDICTED BY IDOCK:   -0.57 KCAL/MOL
REMARK 927      BINDING AFFINITY PREDICTED BY RF-SCORE:    0.00 PKD
ROOT
HETATM    1  C   UNL     1     -11.060  13.758  66.472  1.00  0.00    -0.309 C  
HETATM    2  C   UNL     1     -11.297  12.676  67.490  1.00  0.00    -0.361 A  
HETATM    3  C   UNL     1     -10.968  11.329  67.234  1.00  0.00    -0.286 A  
HETATM    4 CL   UNL     1     -10.513  10.777  65.658  1.00  0.00    -0.287 Cl 
HETATM    5  C   UNL     1     -11.041  10.360  68.239  1.00  0.00    -0.338 A  
HETATM    6  C   UNL     1     -11.415  10.719  69.524  1.00  0.00    -0.365 A  
HETATM    7  C   UNL     1     -11.826  12.025  69.767  1.00  0.00    -0.401 A  
HETATM    8  C   UNL     1     -11.873  12.986  68.738  1.00  0.00    -0.317 A  
ENDROOT
BRANCH   8   9
HETATM    9  N   UNL     1     -12.540  14.235  68.951  1.00  0.00    -0.438 NA 
HETATM   10  H   UNL     1     -13.101  14.612  68.187  1.00  0.00     0.000 HD 
BRANCH   9  11
HETATM   11  C   UNL     1     -12.470  14.984  70.160  1.00  0.00    -0.311 A  
HETATM   12  C   UNL     1     -13.450  14.803  71.156  1.00  0.00    -0.450 A  
HETATM   13  C   UNL     1     -13.315  15.364  72.426  1.00  0.00    -0.557 A  
HETATM   14  C   UNL     1     -12.206  16.150  72.718  1.00  0.00    -0.628 A  
HETATM   15  C   UNL     1     -11.291  16.450  71.713  1.00  0.00    -0.055 A  
HETATM   16  C   UNL     1     -11.448  15.911  70.425  1.00  0.00    -0.393 A  
HETATM   17  C   UNL     1     -10.516  16.380  69.377  1.00  0.00    -0.309 C  
HETATM   18  O   UNL     1      -9.334  16.589  69.573  1.00  0.00    -0.114 OA 
HETATM   19  O   UNL     1     -11.137  16.616  68.202  1.00  0.00    -0.361 OA 
ENDBRANCH   9  11
ENDBRANCH   8   9
TORSDOF 2
ENDMDL
MODEL       36
REMARK 921   NORMALIZED FREE ENERGY PREDICTED BY IDOCK:   -5.51 KCAL/MOL
REMARK 922        TOTAL FREE ENERGY PREDICTED BY IDOCK:   -6.78 KCAL/MOL
REMARK 923 INTER-LIGAND FREE ENERGY PREDICTED BY IDOCK:   -6.26 KCAL/MOL
REMARK 924 INTRA-LIGAND FREE ENERGY PREDICTED BY IDOCK:   -0.52 KCAL/MOL
REMARK 927      BINDING AFFINITY PREDICTED BY RF-SCORE:    0.00 PKD
ROOT
HETATM    1  C   UNL     1     -11.254  10.126  69.440  1.00  0.00    -0.265 C  
HETATM    2  C   UNL     1     -11.820  11.489  69.732  1.00  0.00    -0.429 A  
HETATM    3  C   UNL     1     -12.505  11.769  70.932  1.00  0.00    -0.318 A  
HETATM    4 CL   UNL     1     -12.970  10.522  72.038  1.00  0.00    -0.547 Cl 
HETATM    5  C   UNL     1     -12.884  13.073  71.265  1.00  0.00    -0.370 A  
HETATM    6  C   UNL     1     -12.565  14.126  70.422  1.00  0.00    -0.397 A  
HETATM    7  C   UNL     1     -11.969  13.851  69.195  1.00  0.00    -0.404 A  
HETATM    8  C   UNL     1     -11.688  12.531  68.792  1.00  0.00    -0.327 A  
ENDROOT
BRANCH   8   9
HETATM    9  N   UNL     1     -11.322  12.257  67.436  1.00  0.00    -0.303 NA 
HETATM   10  H   UNL     1     -11.096  11.293  67.188  1.00  0.00     0.000 HD 
BRANCH   9  11
HETATM   11  C   UNL     1     -11.252  13.242  66.410  1.00  0.00    -0.302 A  
HETATM   12  C   UNL     1     -12.314  13.380  65.495  1.00  0.00    -0.528 A  
HETATM   13  C   UNL     1     -12.379  14.451  64.604  1.00  0.00    -0.435 A  
HETATM   14  C   UNL     1     -11.357  15.395  64.586  1.00  0.00    -0.361 A  
HETATM   15  C   UNL     1     -10.235  15.209  65.388  1.00  0.00    -0.402 A  
HETATM   16  C   UNL     1     -10.158  14.111  66.261  1.00  0.00    -0.308 A  
HETATM   17  C   UNL     1      -8.882  13.906  66.979  1.00  0.00    -0.218 C  
HETATM   18  O   UNL     1      -8.213  14.815  67.434  1.00  0.00    -0.168 OA 
HETATM   19  O   UNL     1      -8.511  12.609  67.014  1.00  0.00    -0.182 OA 
ENDBRANCH   9  11
ENDBRANCH   8   9
TORSDOF 2
ENDMDL
MODEL       37
REMARK 921   NORMALIZED FREE ENERGY PREDICTED BY IDOCK:   -5.49 KCAL/MOL
REMARK 922        TOTAL FREE ENERGY PREDICTED BY IDOCK:   -6.75 KCAL/MOL
REMARK 923 INTER-LIGAND FREE ENERGY PREDICTED BY IDOCK:   -6.16 KCAL/MOL
REMARK 924 INTRA-LIGAND FREE ENERGY PREDICTED BY IDOCK:   -0.59 KCAL/MOL
REMARK 927      BINDING AFFINITY PREDICTED BY RF-SCORE:    0.00 PKD
ROOT
HETATM    1  C   UNL     1     -11.498  14.732  64.781  1.00  0.00    -0.410 C  
HETATM    2  C   UNL     1     -10.875  13.430  65.206  1.00  0.00    -0.318 A  
HETATM    3  C   UNL     1     -11.164  12.217  64.549  1.00  0.00    -0.331 A  
HETATM    4 CL   UNL     1     -12.437  12.083  63.384  1.00  0.00    -0.688 Cl 
HETATM    5  C   UNL     1     -10.461  11.045  64.846  1.00  0.00    -0.371 A  
HETATM    6  C   UNL     1      -9.440  11.065  65.782  1.00  0.00    -0.242 A  
HETATM    7  C   UNL     1      -9.206  12.234  66.499  1.00  0.00    -0.219 A  
HETATM    8  C   UNL     1      -9.984  13.391  66.297  1.00  0.00    -0.296 A  
ENDROOT
BRANCH   8   9
HETATM    9  N   UNL     1      -9.898  14.484  67.218  1.00  0.00    -0.233 NA 
HETATM   10  H   UNL     1      -9.185  15.193  67.050  1.00  0.00     0.000 HD 
BRANCH   9  11
HETATM   11  C   UNL     1     -10.744  14.643  68.352  1.00  0.00    -0.241 A  
HETATM   12  C   UNL     1     -11.434  13.532  68.876  1.00  0.00    -0.348 A  
HETATM   13  C   UNL     1     -12.112  13.598  70.093  1.00  0.00    -0.431 A  
HETATM   14  C   UNL     1     -12.143  14.796  70.800  1.00  0.00    -0.374 A  
HETATM   15  C   UNL     1     -11.580  15.939  70.241  1.00  0.00    -0.365 A  
HETATM   16  C   UNL     1     -10.927  15.877  68.999  1.00  0.00    -0.277 A  
HETATM   17  C   UNL     1     -10.474  17.154  68.408  1.00  0.00    -0.376 C  
HETATM   18  O   UNL     1      -9.993  18.063  69.058  1.00  0.00    -0.357 OA 
HETATM   19  O   UNL     1     -10.717  17.224  67.082  1.00  0.00    -0.288 OA 
ENDBRANCH   9  11
ENDBRANCH   8   9
TORSDOF 2
ENDMDL
MODEL       38
REMARK 921   NORMALIZED FREE ENERGY PREDICTED BY IDOCK:   -5.48 KCAL/MOL
REMARK 922        TOTAL FREE ENERGY PREDICTED BY IDOCK:   -6.74 KCAL/MOL
REMARK 923 INTER-LIGAND FREE ENERGY PREDICTED BY IDOCK:   -6.49 KCAL/MOL
REMARK 924 INTRA-LIGAND FREE ENERGY PREDICTED BY IDOCK:   -0.25 KCAL/MOL
REMARK 927      BINDING AFFINITY PREDICTED BY RF-SCORE:    0.00 PKD
ROOT
HETATM    1  C   UNL     1     -11.935  12.535  65.683  1.00  0.00    -0.492 C  
HETATM    2  C   UNL     1     -11.682  13.371  66.908  1.00  0.00    -0.434 A  
HETATM    3  C   UNL     1     -11.259  14.713  66.819  1.00  0.00    -0.344 A  
HETATM    4 CL   UNL     1     -10.754  15.420  65.322  1.00  0.00    -0.407 Cl 
HETATM    5  C   UNL     1     -11.183  15.527  67.953  1.00  0.00    -0.325 A  
HETATM    6  C   UNL     1     -11.553  15.029  69.192  1.00  0.00    -0.333 A  
HETATM    7  C   UNL     1     -11.886  13.683  69.305  1.00  0.00    -0.395 A  
HETATM    8  C   UNL     1     -11.853  12.819  68.193  1.00  0.00    -0.324 A  
ENDROOT
BRANCH   8   9
HETATM    9  N   UNL     1     -11.943  11.403  68.381  1.00  0.00    -0.590 NA 
HETATM   10  H   UNL     1     -12.092  10.822  67.556  1.00  0.00     0.000 HD 
BRANCH   9  11
HETATM   11  C   UNL     1     -11.839  10.754  69.644  1.00  0.00    -0.320 A  
HETATM   12  C   UNL     1     -12.908  10.823  70.559  1.00  0.00    -0.335 A  
HETATM   13  C   UNL     1     -12.932  10.046  71.718  1.00  0.00    -0.560 A  
HETATM   14  C   UNL     1     -11.863   9.203  72.004  1.00  0.00    -0.407 A  
HETATM   15  C   UNL     1     -10.739   9.215  71.183  1.00  0.00    -0.380 A  
HETATM   16  C   UNL     1     -10.704  10.024  70.035  1.00  0.00    -0.348 A  
HETATM   17  C   UNL     1      -9.429  10.086  69.290  1.00  0.00    -0.217 C  
HETATM   18  O   UNL     1      -8.706   9.123  69.113  1.00  0.00    -0.132 OA 
HETATM   19  O   UNL     1      -9.125  11.338  68.889  1.00  0.00    -0.149 OA 
ENDBRANCH   9  11
ENDBRANCH   8   9
TORSDOF 2
ENDMDL
MODEL       39
REMARK 921   NORMALIZED FREE ENERGY PREDICTED BY IDOCK:   -5.46 KCAL/MOL
REMARK 922        TOTAL FREE ENERGY PREDICTED BY IDOCK:   -6.72 KCAL/MOL
REMARK 923 INTER-LIGAND FREE ENERGY PREDICTED BY IDOCK:   -6.39 KCAL/MOL
REMARK 924 INTRA-LIGAND FREE ENERGY PREDICTED BY IDOCK:   -0.33 KCAL/MOL
REMARK 927      BINDING AFFINITY PREDICTED BY RF-SCORE:    0.00 PKD
ROOT
HETATM    1  C   UNL     1     -12.291  15.811  71.095  1.00  0.00    -0.480 C  
HETATM    2  C   UNL     1     -11.863  15.162  69.807  1.00  0.00    -0.364 A  
HETATM    3  C   UNL     1     -12.098  13.796  69.548  1.00  0.00    -0.334 A  
HETATM    4 CL   UNL     1     -12.656  12.710  70.775  1.00  0.00    -0.352 Cl 
HETATM    5  C   UNL     1     -11.844  13.241  68.290  1.00  0.00    -0.389 A  
HETATM    6  C   UNL     1     -11.377  14.041  67.259  1.00  0.00    -0.350 A  
HETATM    7  C   UNL     1     -11.059  15.368  67.527  1.00  0.00    -0.315 A  
HETATM    8  C   UNL     1     -11.196  15.913  68.819  1.00  0.00    -0.359 A  
ENDROOT
BRANCH   8   9
HETATM    9  N   UNL     1     -10.622  17.188  69.125  1.00  0.00    -0.308 NA 
HETATM   10  H   UNL     1     -10.620  17.488  70.100  1.00  0.00     0.000 HD 
BRANCH   9  11
HETATM   11  C   UNL     1     -10.054  18.064  68.158  1.00  0.00    -0.372 A  
HETATM   12  C   UNL     1     -10.888  18.733  67.240  1.00  0.00    -0.408 A  
HETATM   13  C   UNL     1     -10.402  19.743  66.410  1.00  0.00    -0.619 A  
HETATM   14  C   UNL     1      -9.054  20.084  66.457  1.00  0.00    -0.452 A  
HETATM   15  C   UNL     1      -8.186  19.350  67.259  1.00  0.00    -0.311 A  
HETATM   16  C   UNL     1      -8.674  18.311  68.069  1.00  0.00    -0.287 A  
HETATM   17  C   UNL     1      -7.677  17.491  68.789  1.00  0.00    -0.252 C  
HETATM   18  O   UNL     1      -6.672  17.948  69.301  1.00  0.00    -0.255 OA 
HETATM   19  O   UNL     1      -7.970  16.173  68.755  1.00  0.00    -0.188 OA 
ENDBRANCH   9  11
ENDBRANCH   8   9
TORSDOF 2
ENDMDL
MODEL       40
REMARK 921   NORMALIZED FREE ENERGY PREDICTED BY IDOCK:   -5.40 KCAL/MOL
REMARK 922        TOTAL FREE ENERGY PREDICTED BY IDOCK:   -6.65 KCAL/MOL
REMARK 923 INTER-LIGAND FREE ENERGY PREDICTED BY IDOCK:   -5.97 KCAL/MOL
REMARK 924 INTRA-LIGAND FREE ENERGY PREDICTED BY IDOCK:   -0.68 KCAL/MOL
REMARK 927      BINDING AFFINITY PREDICTED BY RF-SCORE:    0.00 PKD
ROOT
HETATM    1  C   UNL     1     -10.991  15.491  64.514  1.00  0.00    -0.226 C  
HETATM    2  C   UNL     1     -10.287  14.832  65.668  1.00  0.00    -0.369 A  
HETATM    3  C   UNL     1     -10.772  13.646  66.257  1.00  0.00    -0.285 A  
HETATM    4 CL   UNL     1     -12.334  13.004  65.877  1.00  0.00    -0.483 Cl 
HETATM    5  C   UNL     1     -10.028  12.955  67.218  1.00  0.00    -0.224 A  
HETATM    6  C   UNL     1      -8.776  13.416  67.591  1.00  0.00    -0.198 A  
HETATM    7  C   UNL     1      -8.325  14.630  67.083  1.00  0.00    -0.236 A  
HETATM    8  C   UNL     1      -9.114  15.400  66.204  1.00  0.00    -0.304 A  
ENDROOT
BRANCH   8   9
HETATM    9  N   UNL     1      -8.746  16.750  65.906  1.00  0.00    -0.512 NA 
HETATM   10  H   UNL     1      -8.146  16.914  65.098  1.00  0.00     0.000 HD 
BRANCH   9  11
HETATM   11  C   UNL     1      -9.164  17.881  66.664  1.00  0.00    -0.278 A  
HETATM   12  C   UNL     1     -10.362  18.545  66.333  1.00  0.00    -0.456 A  
HETATM   13  C   UNL     1     -10.909  19.526  67.160  1.00  0.00    -0.555 A  
HETATM   14  C   UNL     1     -10.247  19.889  68.328  1.00  0.00    -0.562 A  
HETATM   15  C   UNL     1      -8.999  19.341  68.611  1.00  0.00    -0.419 A  
HETATM   16  C   UNL     1      -8.436  18.378  67.757  1.00  0.00    -0.270 A  
HETATM   17  C   UNL     1      -7.053  17.943  68.049  1.00  0.00    -0.215 C  
HETATM   18  O   UNL     1      -6.626  17.766  69.175  1.00  0.00    -0.234 OA 
HETATM   19  O   UNL     1      -6.301  17.829  66.934  1.00  0.00    -0.145 OA 
ENDBRANCH   9  11
ENDBRANCH   8   9
TORSDOF 2
ENDMDL
MODEL       41
REMARK 921   NORMALIZED FREE ENERGY PREDICTED BY IDOCK:   -5.39 KCAL/MOL
REMARK 922        TOTAL FREE ENERGY PREDICTED BY IDOCK:   -6.64 KCAL/MOL
REMARK 923 INTER-LIGAND FREE ENERGY PREDICTED BY IDOCK:   -6.12 KCAL/MOL
REMARK 924 INTRA-LIGAND FREE ENERGY PREDICTED BY IDOCK:   -0.52 KCAL/MOL
REMARK 927      BINDING AFFINITY PREDICTED BY RF-SCORE:    0.00 PKD
ROOT
HETATM    1  C   UNL     1     -10.331  19.949  68.122  1.00  0.00    -0.533 C  
HETATM    2  C   UNL     1      -9.140  19.032  68.186  1.00  0.00    -0.364 A  
HETATM    3  C   UNL     1      -7.829  19.498  67.956  1.00  0.00    -0.305 A  
HETATM    4 CL   UNL     1      -7.512  21.082  67.336  1.00  0.00    -0.358 Cl 
HETATM    5  C   UNL     1      -6.718  18.678  68.175  1.00  0.00    -0.235 A  
HETATM    6  C   UNL     1      -6.890  17.388  68.653  1.00  0.00    -0.217 A  
HETATM    7  C   UNL     1      -8.180  16.890  68.799  1.00  0.00    -0.244 A  
HETATM    8  C   UNL     1      -9.311  17.662  68.469  1.00  0.00    -0.291 A  
ENDROOT
BRANCH   8   9
HETATM    9  N   UNL     1     -10.600  17.047  68.379  1.00  0.00    -0.361 NA 
HETATM   10  H   UNL     1     -11.240  17.386  67.662  1.00  0.00     0.000 HD 
BRANCH   9  11
HETATM   11  C   UNL     1     -11.045  15.992  69.226  1.00  0.00    -0.331 A  
HETATM   12  C   UNL     1     -11.074  16.178  70.622  1.00  0.00    -0.318 A  
HETATM   13  C   UNL     1     -11.682  15.253  71.471  1.00  0.00    -0.450 A  
HETATM   14  C   UNL     1     -12.249  14.099  70.940  1.00  0.00    -0.434 A  
HETATM   15  C   UNL     1     -12.119  13.831  69.581  1.00  0.00    -0.392 A  
HETATM   16  C   UNL     1     -11.476  14.749  68.734  1.00  0.00    -0.324 A  
HETATM   17  C   UNL     1     -11.256  14.335  67.331  1.00  0.00    -0.316 C  
HETATM   18  O   UNL     1     -12.068  13.705  66.681  1.00  0.00    -0.404 OA 
HETATM   19  O   UNL     1     -10.031  14.675  66.878  1.00  0.00    -0.245 OA 
ENDBRANCH   9  11
ENDBRANCH   8   9
TORSDOF 2
ENDMDL
MODEL       42
REMARK 921   NORMALIZED FREE ENERGY PREDICTED BY IDOCK:   -5.39 KCAL/MOL
REMARK 922        TOTAL FREE ENERGY PREDICTED BY IDOCK:   -6.64 KCAL/MOL
REMARK 923 INTER-LIGAND FREE ENERGY PREDICTED BY IDOCK:   -6.17 KCAL/MOL
REMARK 924 INTRA-LIGAND FREE ENERGY PREDICTED BY IDOCK:   -0.46 KCAL/MOL
REMARK 927      BINDING AFFINITY PREDICTED BY RF-SCORE:    0.00 PKD
ROOT
HETATM    1  C   UNL     1     -10.789  16.630  69.466  1.00  0.00    -0.285 C  
HETATM    2  C   UNL     1      -9.825  16.946  68.355  1.00  0.00    -0.266 A  
HETATM    3  C   UNL     1      -9.352  18.256  68.131  1.00  0.00    -0.296 A  
HETATM    4 CL   UNL     1     -10.030  19.629  68.937  1.00  0.00    -0.541 Cl 
HETATM    5  C   UNL     1      -8.337  18.512  67.204  1.00  0.00    -0.253 A  
HETATM    6  C   UNL     1      -7.756  17.468  66.503  1.00  0.00    -0.310 A  
HETATM    7  C   UNL     1      -8.273  16.186  66.652  1.00  0.00    -0.321 A  
HETATM    8  C   UNL     1      -9.375  15.927  67.492  1.00  0.00    -0.217 A  
ENDROOT
BRANCH   8   9
HETATM    9  N   UNL     1     -10.047  14.666  67.427  1.00  0.00    -0.232 NA 
HETATM   10  H   UNL     1      -9.885  14.000  68.182  1.00  0.00     0.000 HD 
BRANCH   9  11
HETATM   11  C   UNL     1     -10.928  14.281  66.377  1.00  0.00    -0.311 A  
HETATM   12  C   UNL     1     -11.159  15.156  65.297  1.00  0.00    -0.389 A  
HETATM   13  C   UNL     1     -11.852  14.747  64.158  1.00  0.00    -0.235 A  
HETATM   14  C   UNL     1     -12.362  13.454  64.089  1.00  0.00    -0.395 A  
HETATM   15  C   UNL     1     -12.259  12.614  65.194  1.00  0.00    -0.539 A  
HETATM   16  C   UNL     1     -11.590  13.042  66.352  1.00  0.00    -0.413 A  
HETATM   17  C   UNL     1     -11.639  12.149  67.530  1.00  0.00    -0.343 C  
HETATM   18  O   UNL     1     -11.563  10.937  67.458  1.00  0.00    -0.526 OA 
HETATM   19  O   UNL     1     -11.844  12.823  68.681  1.00  0.00    -0.304 OA 
ENDBRANCH   9  11
ENDBRANCH   8   9
TORSDOF 2
ENDMDL
MODEL       43
REMARK 921   NORMALIZED FREE ENERGY PREDICTED BY IDOCK:   -5.35 KCAL/MOL
REMARK 922        TOTAL FREE ENERGY PREDICTED BY IDOCK:   -6.59 KCAL/MOL
REMARK 923 INTER-LIGAND FREE ENERGY PREDICTED BY IDOCK:   -6.13 KCAL/MOL
REMARK 924 INTRA-LIGAND FREE ENERGY PREDICTED BY IDOCK:   -0.46 KCAL/MOL
REMARK 927      BINDING AFFINITY PREDICTED BY RF-SCORE:    0.00 PKD
ROOT
HETATM    1  C   UNL     1     -12.103  13.900  69.911  1.00  0.00    -0.406 C  
HETATM    2  C   UNL     1     -12.188  12.487  70.419  1.00  0.00    -0.368 A  
HETATM    3  C   UNL     1     -13.050  12.127  71.475  1.00  0.00    -0.257 A  
HETATM    4 CL   UNL     1     -13.877  13.310  72.431  1.00  0.00    -0.680 Cl 
HETATM    5  C   UNL     1     -13.242  10.789  71.832  1.00  0.00    -0.524 A  
HETATM    6  C   UNL     1     -12.601   9.783  71.127  1.00  0.00    -0.438 A  
HETATM    7  C   UNL     1     -11.681  10.130  70.143  1.00  0.00    -0.330 A  
HETATM    8  C   UNL     1     -11.386  11.477  69.851  1.00  0.00    -0.186 A  
ENDROOT
BRANCH   8   9
HETATM    9  N   UNL     1     -10.261  11.804  69.030  1.00  0.00    -0.408 NA 
HETATM   10  H   UNL     1      -9.635  12.543  69.351  1.00  0.00     0.000 HD 
BRANCH   9  11
HETATM   11  C   UNL     1      -9.958  11.165  67.794  1.00  0.00    -0.175 A  
HETATM   12  C   UNL     1      -9.001  10.133  67.753  1.00  0.00    -0.129 A  
HETATM   13  C   UNL     1      -8.815   9.351  66.613  1.00  0.00    -0.151 A  
HETATM   14  C   UNL     1      -9.566   9.609  65.471  1.00  0.00    -0.351 A  
HETATM   15  C   UNL     1     -10.424  10.704  65.445  1.00  0.00    -0.254 A  
HETATM   16  C   UNL     1     -10.583  11.510  66.584  1.00  0.00    -0.294 A  
HETATM   17  C   UNL     1     -11.405  12.730  66.440  1.00  0.00    -0.323 C  
HETATM   18  O   UNL     1     -12.426  12.780  65.779  1.00  0.00    -0.579 OA 
HETATM   19  O   UNL     1     -10.862  13.797  67.064  1.00  0.00    -0.281 OA 
ENDBRANCH   9  11
ENDBRANCH   8   9
TORSDOF 2
ENDMDL
MODEL       44
REMARK 921   NORMALIZED FREE ENERGY PREDICTED BY IDOCK:   -5.31 KCAL/MOL
REMARK 922        TOTAL FREE ENERGY PREDICTED BY IDOCK:   -6.55 KCAL/MOL
REMARK 923 INTER-LIGAND FREE ENERGY PREDICTED BY IDOCK:   -6.12 KCAL/MOL
REMARK 924 INTRA-LIGAND FREE ENERGY PREDICTED BY IDOCK:   -0.43 KCAL/MOL
REMARK 927      BINDING AFFINITY PREDICTED BY RF-SCORE:    0.00 PKD
ROOT
HETATM    1  C   UNL     1      -7.214  15.909  67.385  1.00  0.00    -0.227 C  
HETATM    2  C   UNL     1      -8.221  16.938  67.822  1.00  0.00    -0.195 A  
HETATM    3  C   UNL     1      -7.830  18.204  68.303  1.00  0.00    -0.293 A  
HETATM    4 CL   UNL     1      -6.181  18.580  68.668  1.00  0.00    -0.208 Cl 
HETATM    5  C   UNL     1      -8.771  19.207  68.554  1.00  0.00    -0.401 A  
HETATM    6  C   UNL     1     -10.115  18.977  68.305  1.00  0.00    -0.466 A  
HETATM    7  C   UNL     1     -10.521  17.705  67.916  1.00  0.00    -0.392 A  
HETATM    8  C   UNL     1      -9.600  16.649  67.773  1.00  0.00    -0.236 A  
ENDROOT
BRANCH   8   9
HETATM    9  N   UNL     1     -10.066  15.304  67.630  1.00  0.00    -0.234 NA 
HETATM   10  H   UNL     1      -9.749  14.614  68.311  1.00  0.00     0.000 HD 
BRANCH   9  11
HETATM   11  C   UNL     1     -10.943  14.866  66.597  1.00  0.00    -0.325 A  
HETATM   12  C   UNL     1     -10.982  15.555  65.369  1.00  0.00    -0.365 A  
HETATM   13  C   UNL     1     -11.674  15.051  64.268  1.00  0.00    -0.245 A  
HETATM   14  C   UNL     1     -12.375  13.855  64.383  1.00  0.00    -0.400 A  
HETATM   15  C   UNL     1     -12.459  13.224  65.620  1.00  0.00    -0.510 A  
HETATM   16  C   UNL     1     -11.789  13.753  66.736  1.00  0.00    -0.454 A  
HETATM   17  C   UNL     1     -12.034  13.105  68.042  1.00  0.00    -0.304 C  
HETATM   18  O   UNL     1     -12.146  11.902  68.186  1.00  0.00    -0.516 OA 
HETATM   19  O   UNL     1     -12.188  13.999  69.041  1.00  0.00    -0.346 OA 
ENDBRANCH   9  11
ENDBRANCH   8   9
TORSDOF 2
ENDMDL
MODEL       45
REMARK 921   NORMALIZED FREE ENERGY PREDICTED BY IDOCK:   -5.28 KCAL/MOL
REMARK 922        TOTAL FREE ENERGY PREDICTED BY IDOCK:   -6.52 KCAL/MOL
REMARK 923 INTER-LIGAND FREE ENERGY PREDICTED BY IDOCK:   -5.91 KCAL/MOL
REMARK 924 INTRA-LIGAND FREE ENERGY PREDICTED BY IDOCK:   -0.61 KCAL/MOL
REMARK 927      BINDING AFFINITY PREDICTED BY RF-SCORE:    0.00 PKD
ROOT
HETATM    1  C   UNL     1     -12.064  15.617  70.439  1.00  0.00    -0.425 C  
HETATM    2  C   UNL     1     -11.786  14.876  69.159  1.00  0.00    -0.340 A  
HETATM    3  C   UNL     1     -11.912  13.474  69.069  1.00  0.00    -0.335 A  
HETATM    4 CL   UNL     1     -12.141  12.479  70.466  1.00  0.00    -0.428 Cl 
HETATM    5  C   UNL     1     -11.810  12.814  67.840  1.00  0.00    -0.392 A  
HETATM    6  C   UNL     1     -11.608  13.539  66.677  1.00  0.00    -0.396 A  
HETATM    7  C   UNL     1     -11.395  14.911  66.765  1.00  0.00    -0.328 A  
HETATM    8  C   UNL     1     -11.375  15.576  68.007  1.00  0.00    -0.330 A  
ENDROOT
BRANCH   8   9
HETATM    9  N   UNL     1     -10.899  16.922  68.094  1.00  0.00    -0.370 NA 
HETATM   10  H   UNL     1     -11.589  17.665  68.204  1.00  0.00     0.000 HD 
BRANCH   9  11
HETATM   11  C   UNL     1      -9.525  17.292  68.035  1.00  0.00    -0.271 A  
HETATM   12  C   UNL     1      -8.571  16.568  68.777  1.00  0.00    -0.262 A  
HETATM   13  C   UNL     1      -7.202  16.766  68.600  1.00  0.00    -0.207 A  
HETATM   14  C   UNL     1      -6.755  17.722  67.693  1.00  0.00    -0.192 A  
HETATM   15  C   UNL     1      -7.677  18.538  67.045  1.00  0.00    -0.235 A  
HETATM   16  C   UNL     1      -9.055  18.359  67.252  1.00  0.00    -0.268 A  
HETATM   17  C   UNL     1      -9.965  19.347  66.635  1.00  0.00    -0.390 C  
HETATM   18  O   UNL     1      -9.794  19.821  65.528  1.00  0.00    -0.322 OA 
HETATM   19  O   UNL     1     -10.966  19.715  67.463  1.00  0.00    -0.419 OA 
ENDBRANCH   9  11
ENDBRANCH   8   9
TORSDOF 2
ENDMDL
MODEL       46
REMARK 921   NORMALIZED FREE ENERGY PREDICTED BY IDOCK:   -5.28 KCAL/MOL
REMARK 922        TOTAL FREE ENERGY PREDICTED BY IDOCK:   -6.51 KCAL/MOL
REMARK 923 INTER-LIGAND FREE ENERGY PREDICTED BY IDOCK:   -6.00 KCAL/MOL
REMARK 924 INTRA-LIGAND FREE ENERGY PREDICTED BY IDOCK:   -0.52 KCAL/MOL
REMARK 927      BINDING AFFINITY PREDICTED BY RF-SCORE:    0.00 PKD
ROOT
HETATM    1  C   UNL     1      -8.994  11.083  66.481  1.00  0.00    -0.181 C  
HETATM    2  C   UNL     1     -10.055  11.767  65.663  1.00  0.00    -0.278 A  
HETATM    3  C   UNL     1     -10.417  11.308  64.380  1.00  0.00    -0.345 A  
HETATM    4 CL   UNL     1      -9.506  10.096  63.546  1.00  0.00    -0.332 Cl 
HETATM    5  C   UNL     1     -11.511  11.849  63.698  1.00  0.00    -0.551 A  
HETATM    6  C   UNL     1     -12.281  12.837  64.291  1.00  0.00    -0.499 A  
HETATM    7  C   UNL     1     -11.880  13.359  65.517  1.00  0.00    -0.394 A  
HETATM    8  C   UNL     1     -10.712  12.909  66.164  1.00  0.00    -0.272 A  
ENDROOT
BRANCH   8   9
HETATM    9  N   UNL     1     -10.185  13.633  67.279  1.00  0.00    -0.244 NA 
HETATM   10  H   UNL     1      -9.172  13.736  67.345  1.00  0.00     0.000 HD 
BRANCH   9  11
HETATM   11  C   UNL     1     -10.982  14.218  68.304  1.00  0.00    -0.247 A  
HETATM   12  C   UNL     1     -11.821  13.404  69.091  1.00  0.00    -0.383 A  
HETATM   13  C   UNL     1     -12.465  13.898  70.226  1.00  0.00    -0.380 A  
HETATM   14  C   UNL     1     -12.309  15.234  70.580  1.00  0.00    -0.434 A  
HETATM   15  C   UNL     1     -11.591  16.087  69.747  1.00  0.00    -0.297 A  
HETATM   16  C   UNL     1     -10.972  15.594  68.587  1.00  0.00    -0.294 A  
HETATM   17  C   UNL     1     -10.344  16.581  67.683  1.00  0.00    -0.291 C  
HETATM   18  O   UNL     1      -9.725  17.553  68.074  1.00  0.00    -0.268 OA 
HETATM   19  O   UNL     1     -10.591  16.322  66.382  1.00  0.00    -0.306 OA 
ENDBRANCH   9  11
ENDBRANCH   8   9
TORSDOF 2
ENDMDL
MODEL       47
REMARK 921   NORMALIZED FREE ENERGY PREDICTED BY IDOCK:   -5.26 KCAL/MOL
REMARK 922        TOTAL FREE ENERGY PREDICTED BY IDOCK:   -6.50 KCAL/MOL
REMARK 923 INTER-LIGAND FREE ENERGY PREDICTED BY IDOCK:   -5.99 KCAL/MOL
REMARK 924 INTRA-LIGAND FREE ENERGY PREDICTED BY IDOCK:   -0.51 KCAL/MOL
REMARK 927      BINDING AFFINITY PREDICTED BY RF-SCORE:    0.00 PKD
ROOT
HETATM    1  C   UNL     1     -10.937  15.387  64.919  1.00  0.00    -0.453 C  
HETATM    2  C   UNL     1     -11.169  14.643  66.207  1.00  0.00    -0.340 A  
HETATM    3  C   UNL     1     -11.771  13.368  66.232  1.00  0.00    -0.366 A  
HETATM    4 CL   UNL     1     -12.517  12.676  64.832  1.00  0.00    -0.566 Cl 
HETATM    5  C   UNL     1     -11.835  12.619  67.410  1.00  0.00    -0.393 A  
HETATM    6  C   UNL     1     -11.277  13.112  68.579  1.00  0.00    -0.307 A  
HETATM    7  C   UNL     1     -10.760  14.403  68.586  1.00  0.00    -0.258 A  
HETATM    8  C   UNL     1     -10.795  15.219  67.438  1.00  0.00    -0.304 A  
ENDROOT
BRANCH   8   9
HETATM    9  N   UNL     1     -10.501  16.615  67.539  1.00  0.00    -0.312 NA 
HETATM   10  H   UNL     1     -11.253  17.241  67.830  1.00  0.00     0.000 HD 
BRANCH   9  11
HETATM   11  C   UNL     1      -9.228  17.188  67.260  1.00  0.00    -0.230 A  
HETATM   12  C   UNL     1      -8.054  16.515  67.650  1.00  0.00    -0.177 A  
HETATM   13  C   UNL     1      -6.793  16.936  67.228  1.00  0.00    -0.198 A  
HETATM   14  C   UNL     1      -6.677  18.068  66.428  1.00  0.00    -0.261 A  
HETATM   15  C   UNL     1      -7.809  18.823  66.137  1.00  0.00    -0.263 A  
HETATM   16  C   UNL     1      -9.073  18.415  66.592  1.00  0.00    -0.301 A  
HETATM   17  C   UNL     1     -10.206  19.336  66.360  1.00  0.00    -0.449 C  
HETATM   18  O   UNL     1     -10.347  19.985  65.340  1.00  0.00    -0.322 OA 
HETATM   19  O   UNL     1     -11.025  19.429  67.429  1.00  0.00    -0.490 OA 
ENDBRANCH   9  11
ENDBRANCH   8   9
TORSDOF 2
ENDMDL
MODEL       48
REMARK 921   NORMALIZED FREE ENERGY PREDICTED BY IDOCK:   -5.25 KCAL/MOL
REMARK 922        TOTAL FREE ENERGY PREDICTED BY IDOCK:   -6.49 KCAL/MOL
REMARK 923 INTER-LIGAND FREE ENERGY PREDICTED BY IDOCK:   -6.03 KCAL/MOL
REMARK 924 INTRA-LIGAND FREE ENERGY PREDICTED BY IDOCK:   -0.46 KCAL/MOL
REMARK 927      BINDING AFFINITY PREDICTED BY RF-SCORE:    0.00 PKD
ROOT
HETATM    1  C   UNL     1     -11.112  16.324  64.878  1.00  0.00    -0.301 C  
HETATM    2  C   UNL     1     -10.210  16.570  66.057  1.00  0.00    -0.372 A  
HETATM    3  C   UNL     1     -10.038  17.857  66.606  1.00  0.00    -0.362 A  
HETATM    4 CL   UNL     1     -10.639  19.279  65.824  1.00  0.00    -0.529 Cl 
HETATM    5  C   UNL     1      -9.328  18.049  67.795  1.00  0.00    -0.263 A  
HETATM    6  C   UNL     1      -8.799  16.962  68.473  1.00  0.00    -0.251 A  
HETATM    7  C   UNL     1      -8.886  15.700  67.895  1.00  0.00    -0.171 A  
HETATM    8  C   UNL     1      -9.494  15.505  66.639  1.00  0.00    -0.259 A  
ENDROOT
BRANCH   8   9
HETATM    9  N   UNL     1      -9.340  14.258  65.953  1.00  0.00    -0.524 NA 
HETATM   10  H   UNL     1      -8.927  14.275  65.021  1.00  0.00     0.000 HD 
BRANCH   9  11
HETATM   11  C   UNL     1      -9.729  12.997  66.487  1.00  0.00    -0.266 A  
HETATM   12  C   UNL     1      -8.890  12.335  67.406  1.00  0.00    -0.185 A  
HETATM   13  C   UNL     1      -9.315  11.202  68.100  1.00  0.00    -0.176 A  
HETATM   14  C   UNL     1     -10.584  10.684  67.864  1.00  0.00    -0.266 A  
HETATM   15  C   UNL     1     -11.380  11.242  66.868  1.00  0.00    -0.231 A  
HETATM   16  C   UNL     1     -10.935  12.363  66.147  1.00  0.00    -0.321 A  
HETATM   17  C   UNL     1     -11.774  12.816  65.017  1.00  0.00    -0.354 C  
HETATM   18  O   UNL     1     -12.991  12.824  65.042  1.00  0.00    -0.811 OA 
HETATM   19  O   UNL     1     -11.043  13.153  63.933  1.00  0.00    -0.388 OA 
ENDBRANCH   9  11
ENDBRANCH   8   9
TORSDOF 2
ENDMDL
MODEL       49
REMARK 921   NORMALIZED FREE ENERGY PREDICTED BY IDOCK:   -5.19 KCAL/MOL
REMARK 922        TOTAL FREE ENERGY PREDICTED BY IDOCK:   -6.41 KCAL/MOL
REMARK 923 INTER-LIGAND FREE ENERGY PREDICTED BY IDOCK:   -5.73 KCAL/MOL
REMARK 924 INTRA-LIGAND FREE ENERGY PREDICTED BY IDOCK:   -0.68 KCAL/MOL
REMARK 927      BINDING AFFINITY PREDICTED BY RF-SCORE:    0.00 PKD
ROOT
HETATM    1  C   UNL     1      -8.931   8.669  71.729  1.00  0.00    -0.307 C  
HETATM    2  C   UNL     1     -10.360   9.074  71.493  1.00  0.00    -0.412 A  
HETATM    3  C   UNL     1     -11.435   8.408  72.116  1.00  0.00    -0.372 A  
HETATM    4 CL   UNL     1     -11.219   6.927  72.985  1.00  0.00    -0.257 Cl 
HETATM    5  C   UNL     1     -12.744   8.891  72.019  1.00  0.00    -0.456 A  
HETATM    6  C   UNL     1     -13.002  10.062  71.324  1.00  0.00    -0.495 A  
HETATM    7  C   UNL     1     -11.965  10.679  70.633  1.00  0.00    -0.466 A  
HETATM    8  C   UNL     1     -10.663  10.139  70.621  1.00  0.00    -0.173 A  
ENDROOT
BRANCH   8   9
HETATM    9  N   UNL     1      -9.687  10.639  69.702  1.00  0.00    -0.433 NA 
HETATM   10  H   UNL     1      -9.088  11.404  70.012  1.00  0.00     0.000 HD 
BRANCH   9  11
HETATM   11  C   UNL     1      -9.498  10.138  68.383  1.00  0.00    -0.143 A  
HETATM   12  C   UNL     1      -8.613   9.064  68.159  1.00  0.00    -0.130 A  
HETATM   13  C   UNL     1      -8.545   8.416  66.926  1.00  0.00    -0.129 A  
HETATM   14  C   UNL     1      -9.342   8.853  65.873  1.00  0.00    -0.301 A  
HETATM   15  C   UNL     1     -10.127   9.991  66.031  1.00  0.00    -0.318 A  
HETATM   16  C   UNL     1     -10.168  10.661  67.264  1.00  0.00    -0.250 A  
HETATM   17  C   UNL     1     -10.916  11.936  67.317  1.00  0.00    -0.268 C  
HETATM   18  O   UNL     1     -11.967  12.123  66.734  1.00  0.00    -0.606 OA 
HETATM   19  O   UNL     1     -10.269  12.886  68.025  1.00  0.00    -0.217 OA 
ENDBRANCH   9  11
ENDBRANCH   8   9
TORSDOF 2
ENDMDL
MODEL       50
REMARK 921   NORMALIZED FREE ENERGY PREDICTED BY IDOCK:   -5.19 KCAL/MOL
REMARK 922        TOTAL FREE ENERGY PREDICTED BY IDOCK:   -6.41 KCAL/MOL
REMARK 923 INTER-LIGAND FREE ENERGY PREDICTED BY IDOCK:   -5.83 KCAL/MOL
REMARK 924 INTRA-LIGAND FREE ENERGY PREDICTED BY IDOCK:   -0.59 KCAL/MOL
REMARK 927      BINDING AFFINITY PREDICTED BY RF-SCORE:    0.00 PKD
ROOT
HETATM    1  C   UNL     1     -10.502  14.955  69.061  1.00  0.00    -0.247 C  
HETATM    2  C   UNL     1     -10.568  15.870  67.868  1.00  0.00    -0.300 A  
HETATM    3  C   UNL     1     -10.352  17.258  67.982  1.00  0.00    -0.353 A  
HETATM    4 CL   UNL     1     -10.252  18.050  69.517  1.00  0.00     0.029 Cl 
HETATM    5  C   UNL     1     -10.256  18.073  66.850  1.00  0.00    -0.366 A  
HETATM    6  C   UNL     1     -10.345  17.517  65.584  1.00  0.00    -0.145 A  
HETATM    7  C   UNL     1     -10.645  16.165  65.461  1.00  0.00    -0.394 A  
HETATM    8  C   UNL     1     -10.864  15.352  66.591  1.00  0.00    -0.302 A  
ENDROOT
BRANCH   8   9
HETATM    9  N   UNL     1     -11.422  14.044  66.438  1.00  0.00    -0.339 NA 
HETATM   10  H   UNL     1     -12.368  13.886  66.785  1.00  0.00     0.000 HD 
BRANCH   9  11
HETATM   11  C   UNL     1     -10.743  12.949  65.832  1.00  0.00    -0.271 A  
HETATM   12  C   UNL     1      -9.480  12.552  66.315  1.00  0.00    -0.210 A  
HETATM   13  C   UNL     1      -8.870  11.373  65.887  1.00  0.00    -0.149 A  
HETATM   14  C   UNL     1      -9.500  10.577  64.936  1.00  0.00    -0.304 A  
HETATM   15  C   UNL     1     -10.684  11.012  64.350  1.00  0.00    -0.340 A  
HETATM   16  C   UNL     1     -11.279  12.218  64.759  1.00  0.00    -0.364 A  
HETATM   17  C   UNL     1     -12.460  12.681  63.999  1.00  0.00    -0.399 C  
HETATM   18  O   UNL     1     -13.328  11.936  63.585  1.00  0.00    -0.620 OA 
HETATM   19  O   UNL     1     -12.430  14.009  63.758  1.00  0.00    -0.753 OA 
ENDBRANCH   9  11
ENDBRANCH   8   9
TORSDOF 2
ENDMDL
MODEL       51
REMARK 921   NORMALIZED FREE ENERGY PREDICTED BY IDOCK:   -5.17 KCAL/MOL
REMARK 922        TOTAL FREE ENERGY PREDICTED BY IDOCK:   -6.40 KCAL/MOL
REMARK 923 INTER-LIGAND FREE ENERGY PREDICTED BY IDOCK:   -5.78 KCAL/MOL
REMARK 924 INTRA-LIGAND FREE ENERGY PREDICTED BY IDOCK:   -0.62 KCAL/MOL
REMARK 927      BINDING AFFINITY PREDICTED BY RF-SCORE:    0.00 PKD
ROOT
HETATM    1  C   UNL     1     -11.638  12.585  69.441  1.00  0.00    -0.368 C  
HETATM    2  C   UNL     1     -11.943  13.817  70.250  1.00  0.00    -0.397 A  
HETATM    3  C   UNL     1     -12.712  13.760  71.430  1.00  0.00    -0.367 A  
HETATM    4 CL   UNL     1     -13.573  12.334  71.899  1.00  0.00    -0.319 Cl 
HETATM    5  C   UNL     1     -12.854  14.877  72.259  1.00  0.00    -0.414 A  
HETATM    6  C   UNL     1     -12.211  16.063  71.942  1.00  0.00    -0.560 A  
HETATM    7  C   UNL     1     -11.523  16.156  70.737  1.00  0.00    -0.408 A  
HETATM    8  C   UNL     1     -11.470  15.077  69.833  1.00  0.00    -0.289 A  
ENDROOT
BRANCH   8   9
HETATM    9  N   UNL     1     -10.987  15.278  68.501  1.00  0.00    -0.254 NA 
HETATM   10  H   UNL     1     -11.672  15.322  67.747  1.00  0.00     0.000 HD 
BRANCH   9  11
HETATM   11  C   UNL     1      -9.612  15.422  68.161  1.00  0.00    -0.203 A  
HETATM   12  C   UNL     1      -8.667  14.501  68.654  1.00  0.00    -0.172 A  
HETATM   13  C   UNL     1      -7.350  14.485  68.194  1.00  0.00    -0.129 A  
HETATM   14  C   UNL     1      -6.940  15.418  67.247  1.00  0.00    -0.180 A  
HETATM   15  C   UNL     1      -7.819  16.418  66.841  1.00  0.00    -0.273 A  
HETATM   16  C   UNL     1      -9.134  16.452  67.333  1.00  0.00    -0.206 A  
HETATM   17  C   UNL     1      -9.965  17.617  66.963  1.00  0.00    -0.320 C  
HETATM   18  O   UNL     1      -9.945  18.135  65.862  1.00  0.00    -0.540 OA 
HETATM   19  O   UNL     1     -10.694  18.083  68.000  1.00  0.00    -0.376 OA 
ENDBRANCH   9  11
ENDBRANCH   8   9
TORSDOF 2
ENDMDL
MODEL       52
REMARK 921   NORMALIZED FREE ENERGY PREDICTED BY IDOCK:   -5.16 KCAL/MOL
REMARK 922        TOTAL FREE ENERGY PREDICTED BY IDOCK:   -6.38 KCAL/MOL
REMARK 923 INTER-LIGAND FREE ENERGY PREDICTED BY IDOCK:   -5.79 KCAL/MOL
REMARK 924 INTRA-LIGAND FREE ENERGY PREDICTED BY IDOCK:   -0.59 KCAL/MOL
REMARK 927      BINDING AFFINITY PREDICTED BY RF-SCORE:    0.00 PKD
ROOT
HETATM    1  C   UNL     1      -8.982  11.391  65.728  1.00  0.00    -0.159 C  
HETATM    2  C   UNL     1     -10.235  12.104  65.299  1.00  0.00    -0.304 A  
HETATM    3  C   UNL     1     -10.768  11.956  64.002  1.00  0.00    -0.375 A  
HETATM    4 CL   UNL     1      -9.898  11.159  62.735  1.00  0.00    -0.290 Cl 
HETATM    5  C   UNL     1     -12.015  12.492  63.664  1.00  0.00    -0.621 A  
HETATM    6  C   UNL     1     -12.765  13.161  64.618  1.00  0.00    -0.326 A  
HETATM    7  C   UNL     1     -12.211  13.389  65.873  1.00  0.00    -0.502 A  
HETATM    8  C   UNL     1     -10.908  12.960  66.193  1.00  0.00    -0.279 A  
ENDROOT
BRANCH   8   9
HETATM    9  N   UNL     1     -10.270  13.430  67.385  1.00  0.00    -0.235 NA 
HETATM   10  H   UNL     1      -9.262  13.586  67.355  1.00  0.00     0.000 HD 
BRANCH   9  11
HETATM   11  C   UNL     1     -10.949  13.692  68.608  1.00  0.00    -0.267 A  
HETATM   12  C   UNL     1     -11.186  15.021  69.009  1.00  0.00    -0.279 A  
HETATM   13  C   UNL     1     -12.014  15.324  70.090  1.00  0.00    -0.373 A  
HETATM   14  C   UNL     1     -12.599  14.294  70.819  1.00  0.00    -0.427 A  
HETATM   15  C   UNL     1     -12.277  12.973  70.523  1.00  0.00    -0.392 A  
HETATM   16  C   UNL     1     -11.417  12.673  69.454  1.00  0.00    -0.330 A  
HETATM   17  C   UNL     1     -11.015  11.260  69.286  1.00  0.00    -0.243 C  
HETATM   18  O   UNL     1     -11.770  10.321  69.457  1.00  0.00    -0.207 OA 
HETATM   19  O   UNL     1      -9.705  11.127  68.990  1.00  0.00    -0.181 OA 
ENDBRANCH   9  11
ENDBRANCH   8   9
TORSDOF 2
ENDMDL
MODEL       53
REMARK 921   NORMALIZED FREE ENERGY PREDICTED BY IDOCK:   -5.13 KCAL/MOL
REMARK 922        TOTAL FREE ENERGY PREDICTED BY IDOCK:   -6.34 KCAL/MOL
REMARK 923 INTER-LIGAND FREE ENERGY PREDICTED BY IDOCK:   -5.84 KCAL/MOL
REMARK 924 INTRA-LIGAND FREE ENERGY PREDICTED BY IDOCK:   -0.50 KCAL/MOL
REMARK 927      BINDING AFFINITY PREDICTED BY RF-SCORE:    0.00 PKD
ROOT
HETATM    1  C   UNL     1     -10.713  14.347  69.237  1.00  0.00    -0.225 C  
HETATM    2  C   UNL     1     -10.794  15.091  67.932  1.00  0.00    -0.280 A  
HETATM    3  C   UNL     1     -10.514  16.470  67.844  1.00  0.00    -0.313 A  
HETATM    4 CL   UNL     1     -10.308  17.459  69.249  1.00  0.00    -0.297 Cl 
HETATM    5  C   UNL     1     -10.434  17.117  66.606  1.00  0.00    -0.259 A  
HETATM    6  C   UNL     1     -10.605  16.398  65.434  1.00  0.00    -0.338 A  
HETATM    7  C   UNL     1     -10.969  15.058  65.513  1.00  0.00    -0.364 A  
HETATM    8  C   UNL     1     -11.171  14.419  66.752  1.00  0.00    -0.337 A  
ENDROOT
BRANCH   8   9
HETATM    9  N   UNL     1     -11.792  13.131  66.805  1.00  0.00    -0.379 NA 
HETATM   10  H   UNL     1     -12.730  13.070  67.202  1.00  0.00     0.000 HD 
BRANCH   9  11
HETATM   11  C   UNL     1     -11.187  11.930  66.338  1.00  0.00    -0.331 A  
HETATM   12  C   UNL     1     -10.942  11.756  64.962  1.00  0.00    -0.357 A  
HETATM   13  C   UNL     1     -10.179  10.691  64.482  1.00  0.00    -0.399 A  
HETATM   14  C   UNL     1      -9.669   9.753  65.374  1.00  0.00    -0.383 A  
HETATM   15  C   UNL     1     -10.005   9.831  66.722  1.00  0.00    -0.278 A  
HETATM   16  C   UNL     1     -10.802  10.887  67.196  1.00  0.00    -0.337 A  
HETATM   17  C   UNL     1     -11.228  10.829  68.611  1.00  0.00    -0.274 C  
HETATM   18  O   UNL     1     -10.510  10.444  69.515  1.00  0.00    -0.223 OA 
HETATM   19  O   UNL     1     -12.519  11.186  68.776  1.00  0.00    -0.468 OA 
ENDBRANCH   9  11
ENDBRANCH   8   9
TORSDOF 2
ENDMDL
MODEL       54
REMARK 921   NORMALIZED FREE ENERGY PREDICTED BY IDOCK:   -5.12 KCAL/MOL
REMARK 922        TOTAL FREE ENERGY PREDICTED BY IDOCK:   -6.34 KCAL/MOL
REMARK 923 INTER-LIGAND FREE ENERGY PREDICTED BY IDOCK:   -5.85 KCAL/MOL
REMARK 924 INTRA-LIGAND FREE ENERGY PREDICTED BY IDOCK:   -0.49 KCAL/MOL
REMARK 927      BINDING AFFINITY PREDICTED BY RF-SCORE:    0.00 PKD
ROOT
HETATM    1  C   UNL     1     -12.010  13.641  69.871  1.00  0.00    -0.415 C  
HETATM    2  C   UNL     1     -12.023  12.226  70.383  1.00  0.00    -0.349 A  
HETATM    3  C   UNL     1     -12.859  11.827  71.445  1.00  0.00    -0.335 A  
HETATM    4 CL   UNL     1     -13.736  12.970  72.404  1.00  0.00    -0.658 Cl 
HETATM    5  C   UNL     1     -12.983  10.482  71.806  1.00  0.00    -0.582 A  
HETATM    6  C   UNL     1     -12.298   9.507  71.099  1.00  0.00    -0.410 A  
HETATM    7  C   UNL     1     -11.403   9.897  70.108  1.00  0.00    -0.335 A  
HETATM    8  C   UNL     1     -11.176  11.255  69.811  1.00  0.00    -0.220 A  
ENDROOT
BRANCH   8   9
HETATM    9  N   UNL     1     -10.074  11.635  68.982  1.00  0.00    -0.403 NA 
HETATM   10  H   UNL     1      -9.156  11.719  69.419  1.00  0.00     0.000 HD 
BRANCH   9  11
HETATM   11  C   UNL     1     -10.176  11.905  67.588  1.00  0.00    -0.201 A  
HETATM   12  C   UNL     1     -10.589  10.888  66.704  1.00  0.00    -0.305 A  
HETATM   13  C   UNL     1     -10.891  11.156  65.369  1.00  0.00    -0.212 A  
HETATM   14  C   UNL     1     -10.752  12.450  64.878  1.00  0.00    -0.328 A  
HETATM   15  C   UNL     1     -10.222  13.443  65.696  1.00  0.00    -0.300 A  
HETATM   16  C   UNL     1      -9.887  13.162  67.031  1.00  0.00    -0.244 A  
HETATM   17  C   UNL     1      -9.206  14.227  67.796  1.00  0.00    -0.194 C  
HETATM   18  O   UNL     1      -9.487  15.408  67.703  1.00  0.00    -0.203 OA 
HETATM   19  O   UNL     1      -8.194  13.753  68.554  1.00  0.00    -0.150 OA 
ENDBRANCH   9  11
ENDBRANCH   8   9
TORSDOF 2
ENDMDL
MODEL       55
REMARK 921   NORMALIZED FREE ENERGY PREDICTED BY IDOCK:   -5.11 KCAL/MOL
REMARK 922        TOTAL FREE ENERGY PREDICTED BY IDOCK:   -6.33 KCAL/MOL
REMARK 923 INTER-LIGAND FREE ENERGY PREDICTED BY IDOCK:   -5.70 KCAL/MOL
REMARK 924 INTRA-LIGAND FREE ENERGY PREDICTED BY IDOCK:   -0.63 KCAL/MOL
REMARK 927      BINDING AFFINITY PREDICTED BY RF-SCORE:    0.00 PKD
ROOT
HETATM    1  C   UNL     1     -10.234  17.353  65.775  1.00  0.00    -0.204 C  
HETATM    2  C   UNL     1     -10.401  16.630  67.084  1.00  0.00    -0.300 A  
HETATM    3  C   UNL     1     -10.580  17.323  68.299  1.00  0.00    -0.383 A  
HETATM    4 CL   UNL     1     -10.365  19.036  68.421  1.00  0.00    -0.421 Cl 
HETATM    5  C   UNL     1     -10.895  16.646  69.481  1.00  0.00    -0.285 A  
HETATM    6  C   UNL     1     -11.065  15.271  69.470  1.00  0.00    -0.286 A  
HETATM    7  C   UNL     1     -10.805  14.569  68.298  1.00  0.00    -0.247 A  
HETATM    8  C   UNL     1     -10.370  15.222  67.128  1.00  0.00    -0.265 A  
ENDROOT
BRANCH   8   9
HETATM    9  N   UNL     1      -9.863  14.462  66.027  1.00  0.00    -0.313 NA 
HETATM   10  H   UNL     1      -8.866  14.530  65.819  1.00  0.00     0.000 HD 
BRANCH   9  11
HETATM   11  C   UNL     1     -10.658  13.616  65.203  1.00  0.00    -0.361 A  
HETATM   12  C   UNL     1     -11.826  14.122  64.599  1.00  0.00    -0.443 A  
HETATM   13  C   UNL     1     -12.525  13.397  63.634  1.00  0.00    -0.316 A  
HETATM   14  C   UNL     1     -12.086  12.127  63.275  1.00  0.00    -0.512 A  
HETATM   15  C   UNL     1     -11.012  11.554  63.950  1.00  0.00    -0.474 A  
HETATM   16  C   UNL     1     -10.332  12.275  64.945  1.00  0.00    -0.319 A  
HETATM   17  C   UNL     1      -9.292  11.554  65.710  1.00  0.00    -0.221 C  
HETATM   18  O   UNL     1      -8.523  10.754  65.211  1.00  0.00    -0.171 OA 
HETATM   19  O   UNL     1      -9.336  11.832  67.030  1.00  0.00    -0.177 OA 
ENDBRANCH   9  11
ENDBRANCH   8   9
TORSDOF 2
ENDMDL
MODEL       56
REMARK 921   NORMALIZED FREE ENERGY PREDICTED BY IDOCK:   -5.10 KCAL/MOL
REMARK 922        TOTAL FREE ENERGY PREDICTED BY IDOCK:   -6.32 KCAL/MOL
REMARK 923 INTER-LIGAND FREE ENERGY PREDICTED BY IDOCK:   -5.99 KCAL/MOL
REMARK 924 INTRA-LIGAND FREE ENERGY PREDICTED BY IDOCK:   -0.33 KCAL/MOL
REMARK 927      BINDING AFFINITY PREDICTED BY RF-SCORE:    0.00 PKD
ROOT
HETATM    1  C   UNL     1      -9.489   9.392  67.999  1.00  0.00    -0.148 C  
HETATM    2  C   UNL     1      -9.944  10.660  67.329  1.00  0.00    -0.224 A  
HETATM    3  C   UNL     1      -9.111  11.374  66.444  1.00  0.00    -0.193 A  
HETATM    4 CL   UNL     1      -7.432  11.001  66.258  1.00  0.00    -0.133 Cl 
HETATM    5  C   UNL     1      -9.597  12.457  65.705  1.00  0.00    -0.120 A  
HETATM    6  C   UNL     1     -10.927  12.831  65.812  1.00  0.00    -0.306 A  
HETATM    7  C   UNL     1     -11.734  12.191  66.747  1.00  0.00    -0.377 A  
HETATM    8  C   UNL     1     -11.230  11.177  67.585  1.00  0.00    -0.297 A  
ENDROOT
BRANCH   8   9
HETATM    9  N   UNL     1     -11.998  10.721  68.703  1.00  0.00    -0.756 NA 
HETATM   10  H   UNL     1     -12.369   9.772  68.671  1.00  0.00     0.000 HD 
BRANCH   9  11
HETATM   11  C   UNL     1     -12.278  11.507  69.857  1.00  0.00    -0.258 A  
HETATM   12  C   UNL     1     -11.997  12.888  69.851  1.00  0.00    -0.377 A  
HETATM   13  C   UNL     1     -12.432  13.729  70.875  1.00  0.00    -0.451 A  
HETATM   14  C   UNL     1     -13.133  13.196  71.952  1.00  0.00    -0.482 A  
HETATM   15  C   UNL     1     -13.310  11.819  72.045  1.00  0.00    -0.417 A  
HETATM   16  C   UNL     1     -12.841  10.972  71.027  1.00  0.00    -0.442 A  
HETATM   17  C   UNL     1     -12.944   9.515  71.259  1.00  0.00    -0.328 C  
HETATM   18  O   UNL     1     -13.896   8.986  71.801  1.00  0.00    -0.397 OA 
HETATM   19  O   UNL     1     -11.838   8.849  70.864  1.00  0.00    -0.282 OA 
ENDBRANCH   9  11
ENDBRANCH   8   9
TORSDOF 2
ENDMDL
MODEL       57
REMARK 921   NORMALIZED FREE ENERGY PREDICTED BY IDOCK:   -5.10 KCAL/MOL
REMARK 922        TOTAL FREE ENERGY PREDICTED BY IDOCK:   -6.31 KCAL/MOL
REMARK 923 INTER-LIGAND FREE ENERGY PREDICTED BY IDOCK:   -5.67 KCAL/MOL
REMARK 924 INTRA-LIGAND FREE ENERGY PREDICTED BY IDOCK:   -0.64 KCAL/MOL
REMARK 927      BINDING AFFINITY PREDICTED BY RF-SCORE:    0.00 PKD
ROOT
HETATM    1  C   UNL     1     -10.864   9.903  70.610  1.00  0.00    -0.400 C  
HETATM    2  C   UNL     1     -12.013   9.126  71.194  1.00  0.00    -0.374 A  
HETATM    3  C   UNL     1     -13.159   9.767  71.709  1.00  0.00    -0.431 A  
HETATM    4 CL   UNL     1     -13.227  11.480  71.943  1.00  0.00    -0.561 Cl 
HETATM    5  C   UNL     1     -14.285   9.036  72.099  1.00  0.00    -0.409 A  
HETATM    6  C   UNL     1     -14.302   7.658  71.961  1.00  0.00    -0.455 A  
HETATM    7  C   UNL     1     -13.146   7.009  71.538  1.00  0.00    -0.395 A  
HETATM    8  C   UNL     1     -11.963   7.719  71.254  1.00  0.00    -0.302 A  
ENDROOT
BRANCH   8   9
HETATM    9  N   UNL     1     -10.729   7.017  71.078  1.00  0.00    -0.230 NA 
HETATM   10  H   UNL     1      -9.969   7.218  71.728  1.00  0.00     0.000 HD 
BRANCH   9  11
HETATM   11  C   UNL     1     -10.492   6.058  70.052  1.00  0.00    -0.250 A  
HETATM   12  C   UNL     1     -10.923   6.316  68.736  1.00  0.00    -0.424 A  
HETATM   13  C   UNL     1     -10.543   5.503  67.668  1.00  0.00    -0.239 A  
HETATM   14  C   UNL     1      -9.746   4.387  67.902  1.00  0.00    -0.186 A  
HETATM   15  C   UNL     1      -9.415   4.039  69.208  1.00  0.00    -0.260 A  
HETATM   16  C   UNL     1      -9.828   4.842  70.284  1.00  0.00    -0.313 A  
HETATM   17  C   UNL     1      -9.556   4.338  71.647  1.00  0.00    -0.161 C  
HETATM   18  O   UNL     1      -8.531   3.761  71.959  1.00  0.00    -0.087 OA 
HETATM   19  O   UNL     1     -10.597   4.527  72.486  1.00  0.00    -0.196 OA 
ENDBRANCH   9  11
ENDBRANCH   8   9
TORSDOF 2
ENDMDL
MODEL       58
REMARK 921   NORMALIZED FREE ENERGY PREDICTED BY IDOCK:   -5.09 KCAL/MOL
REMARK 922        TOTAL FREE ENERGY PREDICTED BY IDOCK:   -6.30 KCAL/MOL
REMARK 923 INTER-LIGAND FREE ENERGY PREDICTED BY IDOCK:   -5.73 KCAL/MOL
REMARK 924 INTRA-LIGAND FREE ENERGY PREDICTED BY IDOCK:   -0.57 KCAL/MOL
REMARK 927      BINDING AFFINITY PREDICTED BY RF-SCORE:    0.00 PKD
ROOT
HETATM    1  C   UNL     1      -8.594  13.598  68.064  1.00  0.00    -0.175 C  
HETATM    2  C   UNL     1      -9.200  14.965  68.230  1.00  0.00    -0.187 A  
HETATM    3  C   UNL     1      -8.483  16.031  68.813  1.00  0.00    -0.228 A  
HETATM    4 CL   UNL     1      -6.964  15.791  69.607  1.00  0.00    -0.185 Cl 
HETATM    5  C   UNL     1      -8.993  17.333  68.816  1.00  0.00    -0.231 A  
HETATM    6  C   UNL     1     -10.212  17.603  68.216  1.00  0.00    -0.374 A  
HETATM    7  C   UNL     1     -10.967  16.547  67.718  1.00  0.00    -0.252 A  
HETATM    8  C   UNL     1     -10.523  15.213  67.813  1.00  0.00    -0.247 A  
ENDROOT
BRANCH   8   9
HETATM    9  N   UNL     1     -11.421  14.135  67.535  1.00  0.00    -0.321 NA 
HETATM   10  H   UNL     1     -11.954  13.746  68.312  1.00  0.00     0.000 HD 
BRANCH   9  11
HETATM   11  C   UNL     1     -11.619  13.570  66.243  1.00  0.00    -0.345 A  
HETATM   12  C   UNL     1     -12.038  14.388  65.175  1.00  0.00    -0.395 A  
HETATM   13  C   UNL     1     -12.055  13.924  63.860  1.00  0.00    -0.387 A  
HETATM   14  C   UNL     1     -11.682  12.612  63.587  1.00  0.00    -0.597 A  
HETATM   15  C   UNL     1     -11.389  11.748  64.638  1.00  0.00    -0.320 A  
HETATM   16  C   UNL     1     -11.406  12.209  65.964  1.00  0.00    -0.410 A  
HETATM   17  C   UNL     1     -11.218  11.205  67.032  1.00  0.00    -0.219 C  
HETATM   18  O   UNL     1     -10.438  10.274  66.951  1.00  0.00    -0.231 OA 
HETATM   19  O   UNL     1     -12.055  11.395  68.074  1.00  0.00    -0.629 OA 
ENDBRANCH   9  11
ENDBRANCH   8   9
TORSDOF 2
ENDMDL
MODEL       59
REMARK 921   NORMALIZED FREE ENERGY PREDICTED BY IDOCK:   -5.07 KCAL/MOL
REMARK 922        TOTAL FREE ENERGY PREDICTED BY IDOCK:   -6.28 KCAL/MOL
REMARK 923 INTER-LIGAND FREE ENERGY PREDICTED BY IDOCK:   -5.79 KCAL/MOL
REMARK 924 INTRA-LIGAND FREE ENERGY PREDICTED BY IDOCK:   -0.49 KCAL/MOL
REMARK 927      BINDING AFFINITY PREDICTED BY RF-SCORE:    0.00 PKD
ROOT
HETATM    1  C   UNL     1     -13.292  12.360  72.094  1.00  0.00    -0.508 C  
HETATM    2  C   UNL     1     -12.732  13.305  71.067  1.00  0.00    -0.374 A  
HETATM    3  C   UNL     1     -12.779  14.704  71.238  1.00  0.00    -0.332 A  
HETATM    4 CL   UNL     1     -13.702  15.445  72.501  1.00  0.00    -0.603 Cl 
HETATM    5  C   UNL     1     -12.115  15.566  70.360  1.00  0.00    -0.426 A  
HETATM    6  C   UNL     1     -11.369  15.050  69.312  1.00  0.00    -0.311 A  
HETATM    7  C   UNL     1     -11.388  13.679  69.081  1.00  0.00    -0.335 A  
HETATM    8  C   UNL     1     -12.149  12.806  69.885  1.00  0.00    -0.259 A  
ENDROOT
BRANCH   8   9
HETATM    9  N   UNL     1     -12.359  11.452  69.474  1.00  0.00    -0.209 NA 
HETATM   10  H   UNL     1     -13.306  11.076  69.537  1.00  0.00     0.000 HD 
BRANCH   9  11
HETATM   11  C   UNL     1     -11.334  10.595  68.984  1.00  0.00    -0.277 A  
HETATM   12  C   UNL     1     -10.916  10.695  67.642  1.00  0.00    -0.370 A  
HETATM   13  C   UNL     1      -9.790  10.019  67.173  1.00  0.00    -0.231 A  
HETATM   14  C   UNL     1      -9.072   9.197  68.034  1.00  0.00    -0.136 A  
HETATM   15  C   UNL     1      -9.539   8.979  69.327  1.00  0.00    -0.162 A  
HETATM   16  C   UNL     1     -10.693   9.636  69.786  1.00  0.00    -0.269 A  
HETATM   17  C   UNL     1     -11.203   9.253  71.119  1.00  0.00    -0.343 C  
HETATM   18  O   UNL     1     -10.484   9.013  72.071  1.00  0.00    -0.346 OA 
HETATM   19  O   UNL     1     -12.547   9.133  71.144  1.00  0.00    -0.301 OA 
ENDBRANCH   9  11
ENDBRANCH   8   9
TORSDOF 2
ENDMDL
MODEL       60
REMARK 921   NORMALIZED FREE ENERGY PREDICTED BY IDOCK:   -5.07 KCAL/MOL
REMARK 922        TOTAL FREE ENERGY PREDICTED BY IDOCK:   -6.28 KCAL/MOL
REMARK 923 INTER-LIGAND FREE ENERGY PREDICTED BY IDOCK:   -5.71 KCAL/MOL
REMARK 924 INTRA-LIGAND FREE ENERGY PREDICTED BY IDOCK:   -0.56 KCAL/MOL
REMARK 927      BINDING AFFINITY PREDICTED BY RF-SCORE:    0.00 PKD
ROOT
HETATM    1  C   UNL     1     -12.044  11.480  70.390  1.00  0.00    -0.471 C  
HETATM    2  C   UNL     1     -11.317  10.281  69.845  1.00  0.00    -0.354 A  
HETATM    3  C   UNL     1     -11.349   9.032  70.498  1.00  0.00    -0.243 A  
HETATM    4 CL   UNL     1     -12.004   8.842  72.089  1.00  0.00    -0.436 Cl 
HETATM    5  C   UNL     1     -10.808   7.888  69.904  1.00  0.00    -0.221 A  
HETATM    6  C   UNL     1     -10.248   7.961  68.638  1.00  0.00    -0.223 A  
HETATM    7  C   UNL     1     -10.131   9.203  68.023  1.00  0.00    -0.238 A  
HETATM    8  C   UNL     1     -10.563  10.384  68.659  1.00  0.00    -0.209 A  
ENDROOT
BRANCH   8   9
HETATM    9  N   UNL     1     -10.198  11.661  68.126  1.00  0.00    -0.190 NA 
HETATM   10  H   UNL     1      -9.365  12.114  68.503  1.00  0.00     0.000 HD 
BRANCH   9  11
HETATM   11  C   UNL     1     -10.923  12.340  67.106  1.00  0.00    -0.262 A  
HETATM   12  C   UNL     1     -11.118  11.724  65.854  1.00  0.00    -0.355 A  
HETATM   13  C   UNL     1     -11.981  12.262  64.900  1.00  0.00    -0.420 A  
HETATM   14  C   UNL     1     -12.646  13.455  65.166  1.00  0.00    -0.495 A  
HETATM   15  C   UNL     1     -12.370  14.148  66.341  1.00  0.00    -0.431 A  
HETATM   16  C   UNL     1     -11.474  13.620  67.285  1.00  0.00    -0.370 A  
HETATM   17  C   UNL     1     -11.129  14.474  68.441  1.00  0.00    -0.256 C  
HETATM   18  O   UNL     1     -11.932  15.184  69.017  1.00  0.00    -0.309 OA 
HETATM   19  O   UNL     1      -9.813  14.431  68.741  1.00  0.00    -0.232 OA 
ENDBRANCH   9  11
ENDBRANCH   8   9
TORSDOF 2
ENDMDL
MODEL       61
REMARK 921   NORMALIZED FREE ENERGY PREDICTED BY IDOCK:   -5.05 KCAL/MOL
REMARK 922        TOTAL FREE ENERGY PREDICTED BY IDOCK:   -6.26 KCAL/MOL
REMARK 923 INTER-LIGAND FREE ENERGY PREDICTED BY IDOCK:   -5.73 KCAL/MOL
REMARK 924 INTRA-LIGAND FREE ENERGY PREDICTED BY IDOCK:   -0.53 KCAL/MOL
REMARK 927      BINDING AFFINITY PREDICTED BY RF-SCORE:    0.00 PKD
ROOT
HETATM    1  C   UNL     1     -10.253  11.206  63.407  1.00  0.00    -0.435 C  
HETATM    2  C   UNL     1      -9.353  10.763  64.528  1.00  0.00    -0.273 A  
HETATM    3  C   UNL     1      -8.452   9.689  64.379  1.00  0.00    -0.181 A  
HETATM    4 CL   UNL     1      -8.491   8.641  63.003  1.00  0.00    -0.155 Cl 
HETATM    5  C   UNL     1      -7.510   9.389  65.368  1.00  0.00    -0.099 A  
HETATM    6  C   UNL     1      -7.428  10.170  66.510  1.00  0.00    -0.109 A  
HETATM    7  C   UNL     1      -8.368  11.176  66.707  1.00  0.00    -0.152 A  
HETATM    8  C   UNL     1      -9.399  11.415  65.777  1.00  0.00    -0.228 A  
ENDROOT
BRANCH   8   9
HETATM    9  N   UNL     1     -10.494  12.269  66.122  1.00  0.00    -0.235 NA 
HETATM   10  H   UNL     1     -11.352  11.831  66.457  1.00  0.00     0.000 HD 
BRANCH   9  11
HETATM   11  C   UNL     1     -10.464  13.689  66.027  1.00  0.00    -0.300 A  
HETATM   12  C   UNL     1      -9.608  14.430  66.865  1.00  0.00    -0.263 A  
HETATM   13  C   UNL     1      -9.400  15.797  66.675  1.00  0.00    -0.284 A  
HETATM   14  C   UNL     1     -10.075  16.461  65.656  1.00  0.00    -0.314 A  
HETATM   15  C   UNL     1     -11.023  15.778  64.900  1.00  0.00    -0.443 A  
HETATM   16  C   UNL     1     -11.255  14.410  65.117  1.00  0.00    -0.359 A  
HETATM   17  C   UNL     1     -12.368  13.786  64.371  1.00  0.00    -0.344 C  
HETATM   18  O   UNL     1     -12.634  14.049  63.213  1.00  0.00    -0.801 OA 
HETATM   19  O   UNL     1     -13.096  12.946  65.137  1.00  0.00    -0.753 OA 
ENDBRANCH   9  11
ENDBRANCH   8   9
TORSDOF 2
ENDMDL
MODEL       62
REMARK 921   NORMALIZED FREE ENERGY PREDICTED BY IDOCK:   -5.04 KCAL/MOL
REMARK 922        TOTAL FREE ENERGY PREDICTED BY IDOCK:   -6.25 KCAL/MOL
REMARK 923 INTER-LIGAND FREE ENERGY PREDICTED BY IDOCK:   -6.16 KCAL/MOL
REMARK 924 INTRA-LIGAND FREE ENERGY PREDICTED BY IDOCK:   -0.09 KCAL/MOL
REMARK 927      BINDING AFFINITY PREDICTED BY RF-SCORE:    0.00 PKD
ROOT
HETATM    1  C   UNL     1     -11.781  14.265  67.434  1.00  0.00    -0.422 C  
HETATM    2  C   UNL     1     -11.759  14.526  68.916  1.00  0.00    -0.354 A  
HETATM    3  C   UNL     1     -11.364  15.772  69.446  1.00  0.00    -0.348 A  
HETATM    4 CL   UNL     1     -10.636  16.999  68.467  1.00  0.00    -0.359 Cl 
HETATM    5  C   UNL     1     -11.500  16.057  70.808  1.00  0.00    -0.444 A  
HETATM    6  C   UNL     1     -12.057  15.118  71.662  1.00  0.00    -0.424 A  
HETATM    7  C   UNL     1     -12.369  13.857  71.167  1.00  0.00    -0.440 A  
HETATM    8  C   UNL     1     -12.127  13.512  69.822  1.00  0.00    -0.318 A  
ENDROOT
BRANCH   8   9
HETATM    9  N   UNL     1     -12.209  12.146  69.405  1.00  0.00    -0.153 NA 
HETATM   10  H   UNL     1     -12.422  11.958  68.425  1.00  0.00     0.000 HD 
BRANCH   9  11
HETATM   11  C   UNL     1     -12.013  11.031  70.269  1.00  0.00    -0.365 A  
HETATM   12  C   UNL     1     -12.813  10.884  71.419  1.00  0.00    -0.554 A  
HETATM   13  C   UNL     1     -12.792   9.717  72.182  1.00  0.00    -0.460 A  
HETATM   14  C   UNL     1     -11.938   8.677  71.827  1.00  0.00    -0.402 A  
HETATM   15  C   UNL     1     -11.045   8.850  70.774  1.00  0.00    -0.312 A  
HETATM   16  C   UNL     1     -11.046  10.040  70.029  1.00  0.00    -0.350 A  
HETATM   17  C   UNL     1      -9.982  10.204  69.015  1.00  0.00    -0.208 C  
HETATM   18  O   UNL     1      -9.581   9.300  68.308  1.00  0.00    -0.144 OA 
HETATM   19  O   UNL     1      -9.459  11.449  69.012  1.00  0.00    -0.104 OA 
ENDBRANCH   9  11
ENDBRANCH   8   9
TORSDOF 2
ENDMDL
MODEL       63
REMARK 921   NORMALIZED FREE ENERGY PREDICTED BY IDOCK:   -5.03 KCAL/MOL
REMARK 922        TOTAL FREE ENERGY PREDICTED BY IDOCK:   -6.24 KCAL/MOL
REMARK 923 INTER-LIGAND FREE ENERGY PREDICTED BY IDOCK:   -5.53 KCAL/MOL
REMARK 924 INTRA-LIGAND FREE ENERGY PREDICTED BY IDOCK:   -0.71 KCAL/MOL
REMARK 927      BINDING AFFINITY PREDICTED BY RF-SCORE:    0.00 PKD
ROOT
HETATM    1  C   UNL     1     -11.046  14.170  67.429  1.00  0.00    -0.318 C  
HETATM    2  C   UNL     1     -10.844  12.837  66.762  1.00  0.00    -0.289 A  
HETATM    3  C   UNL     1     -11.316  12.578  65.459  1.00  0.00    -0.331 A  
HETATM    4 CL   UNL     1     -12.374  13.668  64.631  1.00  0.00    -0.423 Cl 
HETATM    5  C   UNL     1     -10.985  11.397  64.788  1.00  0.00    -0.303 A  
HETATM    6  C   UNL     1     -10.157  10.464  65.392  1.00  0.00    -0.354 A  
HETATM    7  C   UNL     1      -9.758  10.668  66.709  1.00  0.00    -0.222 A  
HETATM    8  C   UNL     1     -10.181  11.795  67.441  1.00  0.00    -0.199 A  
ENDROOT
BRANCH   8   9
HETATM    9  N   UNL     1      -9.977  11.850  68.856  1.00  0.00    -0.409 NA 
HETATM   10  H   UNL     1      -9.165  12.362  69.201  1.00  0.00     0.000 HD 
BRANCH   9  11
HETATM   11  C   UNL     1     -10.833  11.236  69.813  1.00  0.00    -0.026 A  
HETATM   12  C   UNL     1     -11.927  11.952  70.338  1.00  0.00    -0.400 A  
HETATM   13  C   UNL     1     -12.900  11.332  71.122  1.00  0.00    -0.452 A  
HETATM   14  C   UNL     1     -12.780   9.981  71.428  1.00  0.00    -0.518 A  
HETATM   15  C   UNL     1     -11.643   9.284  71.031  1.00  0.00    -0.380 A  
HETATM   16  C   UNL     1     -10.648   9.921  70.269  1.00  0.00    -0.359 A  
HETATM   17  C   UNL     1      -9.411   9.158  70.001  1.00  0.00    -0.199 C  
HETATM   18  O   UNL     1      -9.395   7.968  69.748  1.00  0.00    -0.158 OA 
HETATM   19  O   UNL     1      -8.299   9.913  70.133  1.00  0.00    -0.192 OA 
ENDBRANCH   9  11
ENDBRANCH   8   9
TORSDOF 2
ENDMDL
MODEL       64
REMARK 921   NORMALIZED FREE ENERGY PREDICTED BY IDOCK:   -5.02 KCAL/MOL
REMARK 922        TOTAL FREE ENERGY PREDICTED BY IDOCK:   -6.23 KCAL/MOL
REMARK 923 INTER-LIGAND FREE ENERGY PREDICTED BY IDOCK:   -5.59 KCAL/MOL
REMARK 924 INTRA-LIGAND FREE ENERGY PREDICTED BY IDOCK:   -0.64 KCAL/MOL
REMARK 927      BINDING AFFINITY PREDICTED BY RF-SCORE:    0.00 PKD
ROOT
HETATM    1  C   UNL     1      -8.489   9.850  69.526  1.00  0.00    -0.184 C  
HETATM    2  C   UNL     1      -9.929  10.167  69.822  1.00  0.00    -0.258 A  
HETATM    3  C   UNL     1     -10.627   9.542  70.875  1.00  0.00    -0.325 A  
HETATM    4 CL   UNL     1      -9.974   8.191  71.738  1.00  0.00    -0.244 Cl 
HETATM    5  C   UNL     1     -11.910   9.958  71.244  1.00  0.00    -0.479 A  
HETATM    6  C   UNL     1     -12.511  11.021  70.588  1.00  0.00    -0.465 A  
HETATM    7  C   UNL     1     -11.869  11.586  69.492  1.00  0.00    -0.419 A  
HETATM    8  C   UNL     1     -10.629  11.101  69.032  1.00  0.00    -0.218 A  
ENDROOT
BRANCH   8   9
HETATM    9  N   UNL     1     -10.120  11.519  67.761  1.00  0.00    -0.179 NA 
HETATM   10  H   UNL     1      -9.901  10.797  67.075  1.00  0.00     0.000 HD 
BRANCH   9  11
HETATM   11  C   UNL     1      -9.899  12.876  67.394  1.00  0.00    -0.207 A  
HETATM   12  C   UNL     1      -9.207  13.737  68.270  1.00  0.00    -0.204 A  
HETATM   13  C   UNL     1      -8.797  15.010  67.874  1.00  0.00    -0.171 A  
HETATM   14  C   UNL     1      -9.102  15.465  66.595  1.00  0.00    -0.310 A  
HETATM   15  C   UNL     1      -9.896  14.686  65.759  1.00  0.00    -0.359 A  
HETATM   16  C   UNL     1     -10.335  13.418  66.174  1.00  0.00    -0.295 A  
HETATM   17  C   UNL     1     -11.283  12.708  65.289  1.00  0.00    -0.300 C  
HETATM   18  O   UNL     1     -11.207  12.718  64.075  1.00  0.00    -0.362 OA 
HETATM   19  O   UNL     1     -12.279  12.107  65.974  1.00  0.00    -0.609 OA 
ENDBRANCH   9  11
ENDBRANCH   8   9
TORSDOF 2
ENDMDL
MODEL       65
REMARK 921   NORMALIZED FREE ENERGY PREDICTED BY IDOCK:   -5.01 KCAL/MOL
REMARK 922        TOTAL FREE ENERGY PREDICTED BY IDOCK:   -6.22 KCAL/MOL
REMARK 923 INTER-LIGAND FREE ENERGY PREDICTED BY IDOCK:   -5.54 KCAL/MOL
REMARK 924 INTRA-LIGAND FREE ENERGY PREDICTED BY IDOCK:   -0.67 KCAL/MOL
REMARK 927      BINDING AFFINITY PREDICTED BY RF-SCORE:    0.00 PKD
ROOT
HETATM    1  C   UNL     1     -10.094  12.329  68.417  1.00  0.00    -0.215 C  
HETATM    2  C   UNL     1     -10.056  10.902  67.941  1.00  0.00    -0.199 A  
HETATM    3  C   UNL     1     -10.252  10.564  66.587  1.00  0.00    -0.233 A  
HETATM    4 CL   UNL     1     -10.800  11.719  65.421  1.00  0.00    -0.339 Cl 
HETATM    5  C   UNL     1     -10.055   9.257  66.129  1.00  0.00    -0.304 A  
HETATM    6  C   UNL     1      -9.634   8.270  67.005  1.00  0.00    -0.249 A  
HETATM    7  C   UNL     1      -9.523   8.572  68.358  1.00  0.00    -0.141 A  
HETATM    8  C   UNL     1      -9.832   9.853  68.856  1.00  0.00    -0.176 A  
ENDROOT
BRANCH   8   9
HETATM    9  N   UNL     1      -9.963  10.064  70.265  1.00  0.00    -0.395 NA 
HETATM   10  H   UNL     1      -9.180  10.495  70.757  1.00  0.00     0.000 HD 
BRANCH   9  11
HETATM   11  C   UNL     1     -11.114   9.713  71.025  1.00  0.00    -0.368 A  
HETATM   12  C   UNL     1     -12.295  10.471  70.902  1.00  0.00    -0.490 A  
HETATM   13  C   UNL     1     -13.498  10.051  71.471  1.00  0.00    -0.375 A  
HETATM   14  C   UNL     1     -13.536   8.872  72.209  1.00  0.00    -0.513 A  
HETATM   15  C   UNL     1     -12.357   8.175  72.453  1.00  0.00    -0.345 A  
HETATM   16  C   UNL     1     -11.142   8.619  71.906  1.00  0.00    -0.416 A  
HETATM   17  C   UNL     1      -9.914   7.906  72.319  1.00  0.00    -0.219 C  
HETATM   18  O   UNL     1      -9.856   6.701  72.475  1.00  0.00    -0.165 OA 
HETATM   19  O   UNL     1      -8.888   8.746  72.569  1.00  0.00    -0.402 OA 
ENDBRANCH   9  11
ENDBRANCH   8   9
TORSDOF 2
ENDMDL
MODEL       66
REMARK 921   NORMALIZED FREE ENERGY PREDICTED BY IDOCK:   -5.01 KCAL/MOL
REMARK 922        TOTAL FREE ENERGY PREDICTED BY IDOCK:   -6.21 KCAL/MOL
REMARK 923 INTER-LIGAND FREE ENERGY PREDICTED BY IDOCK:   -5.66 KCAL/MOL
REMARK 924 INTRA-LIGAND FREE ENERGY PREDICTED BY IDOCK:   -0.56 KCAL/MOL
REMARK 927      BINDING AFFINITY PREDICTED BY RF-SCORE:    0.00 PKD
ROOT
HETATM    1  C   UNL     1     -11.285  10.580  68.125  1.00  0.00    -0.357 C  
HETATM    2  C   UNL     1      -9.853  10.517  67.669  1.00  0.00    -0.192 A  
HETATM    3  C   UNL     1      -8.832   9.999  68.493  1.00  0.00    -0.120 A  
HETATM    4 CL   UNL     1      -9.094   9.638  70.165  1.00  0.00    -0.270 Cl 
HETATM    5  C   UNL     1      -7.538   9.795  68.004  1.00  0.00    -0.082 A  
HETATM    6  C   UNL     1      -7.243  10.078  66.680  1.00  0.00    -0.099 A  
HETATM    7  C   UNL     1      -8.217  10.671  65.884  1.00  0.00    -0.159 A  
HETATM    8  C   UNL     1      -9.490  10.993  66.393  1.00  0.00    -0.193 A  
ENDROOT
BRANCH   8   9
HETATM    9  N   UNL     1     -10.374  11.830  65.641  1.00  0.00    -0.243 NA 
HETATM   10  H   UNL     1     -11.040  11.378  65.015  1.00  0.00     0.000 HD 
BRANCH   9  11
HETATM   11  C   UNL     1     -10.384  13.252  65.711  1.00  0.00    -0.288 A  
HETATM   12  C   UNL     1      -9.530  13.917  66.612  1.00  0.00    -0.296 A  
HETATM   13  C   UNL     1      -9.362  15.301  66.577  1.00  0.00    -0.309 A  
HETATM   14  C   UNL     1     -10.077  16.059  65.655  1.00  0.00    -0.384 A  
HETATM   15  C   UNL     1     -11.022  15.440  64.843  1.00  0.00    -0.453 A  
HETATM   16  C   UNL     1     -11.213  14.050  64.904  1.00  0.00    -0.362 A  
HETATM   17  C   UNL     1     -12.325  13.484  64.112  1.00  0.00    -0.328 C  
HETATM   18  O   UNL     1     -12.622  13.871  62.997  1.00  0.00    -0.694 OA 
HETATM   19  O   UNL     1     -13.014  12.540  64.788  1.00  0.00    -0.827 OA 
ENDBRANCH   9  11
ENDBRANCH   8   9
TORSDOF 2
ENDMDL
MODEL       67
REMARK 921   NORMALIZED FREE ENERGY PREDICTED BY IDOCK:   -4.97 KCAL/MOL
REMARK 922        TOTAL FREE ENERGY PREDICTED BY IDOCK:   -6.17 KCAL/MOL
REMARK 923 INTER-LIGAND FREE ENERGY PREDICTED BY IDOCK:   -5.87 KCAL/MOL
REMARK 924 INTRA-LIGAND FREE ENERGY PREDICTED BY IDOCK:   -0.30 KCAL/MOL
REMARK 927      BINDING AFFINITY PREDICTED BY RF-SCORE:    0.00 PKD
ROOT
HETATM    1  C   UNL     1     -11.423  15.712  64.395  1.00  0.00    -0.266 C  
HETATM    2  C   UNL     1     -10.579  15.085  65.471  1.00  0.00    -0.380 A  
HETATM    3  C   UNL     1     -10.828  13.781  65.946  1.00  0.00    -0.283 A  
HETATM    4 CL   UNL     1     -12.259  12.905  65.523  1.00  0.00    -0.509 Cl 
HETATM    5  C   UNL     1      -9.944  13.149  66.827  1.00  0.00    -0.250 A  
HETATM    6  C   UNL     1      -8.785  13.792  67.229  1.00  0.00    -0.226 A  
HETATM    7  C   UNL     1      -8.574  15.110  66.837  1.00  0.00    -0.289 A  
HETATM    8  C   UNL     1      -9.512  15.803  66.047  1.00  0.00    -0.357 A  
ENDROOT
BRANCH   8   9
HETATM    9  N   UNL     1      -9.401  17.220  65.878  1.00  0.00    -0.524 NA 
HETATM   10  H   UNL     1     -10.106  17.689  65.309  1.00  0.00     0.000 HD 
BRANCH   9  11
HETATM   11  C   UNL     1      -8.370  18.017  66.452  1.00  0.00    -0.246 A  
HETATM   12  C   UNL     1      -7.054  17.926  65.956  1.00  0.00    -0.340 A  
HETATM   13  C   UNL     1      -6.060  18.821  66.350  1.00  0.00    -0.187 A  
HETATM   14  C   UNL     1      -6.355  19.813  67.279  1.00  0.00    -0.209 A  
HETATM   15  C   UNL     1      -7.610  19.842  67.879  1.00  0.00    -0.336 A  
HETATM   16  C   UNL     1      -8.599  18.917  67.505  1.00  0.00    -0.296 A  
HETATM   17  C   UNL     1      -9.858  18.923  68.280  1.00  0.00    -0.374 C  
HETATM   18  O   UNL     1     -10.400  19.938  68.675  1.00  0.00    -0.446 OA 
HETATM   19  O   UNL     1     -10.299  17.678  68.558  1.00  0.00    -0.351 OA 
ENDBRANCH   9  11
ENDBRANCH   8   9
TORSDOF 2
ENDMDL
MODEL       68
REMARK 921   NORMALIZED FREE ENERGY PREDICTED BY IDOCK:   -4.96 KCAL/MOL
REMARK 922        TOTAL FREE ENERGY PREDICTED BY IDOCK:   -6.16 KCAL/MOL
REMARK 923 INTER-LIGAND FREE ENERGY PREDICTED BY IDOCK:   -5.51 KCAL/MOL
REMARK 924 INTRA-LIGAND FREE ENERGY PREDICTED BY IDOCK:   -0.66 KCAL/MOL
REMARK 927      BINDING AFFINITY PREDICTED BY RF-SCORE:    0.00 PKD
ROOT
HETATM    1  C   UNL     1     -12.106  12.132  65.606  1.00  0.00    -0.180 C  
HETATM    2  C   UNL     1     -11.797  12.996  66.799  1.00  0.00    -0.451 A  
HETATM    3  C   UNL     1     -11.318  14.314  66.659  1.00  0.00    -0.349 A  
HETATM    4 CL   UNL     1     -10.807  14.949  65.132  1.00  0.00    -0.395 Cl 
HETATM    5  C   UNL     1     -11.188  15.161  67.764  1.00  0.00    -0.327 A  
HETATM    6  C   UNL     1     -11.558  14.720  69.024  1.00  0.00    -0.324 A  
HETATM    7  C   UNL     1     -11.948  13.395  69.188  1.00  0.00    -0.363 A  
HETATM    8  C   UNL     1     -11.971  12.494  68.105  1.00  0.00    -0.219 A  
ENDROOT
BRANCH   8   9
HETATM    9  N   UNL     1     -12.119  11.090  68.341  1.00  0.00    -0.786 NA 
HETATM   10  H   UNL     1     -12.906  10.614  67.900  1.00  0.00     0.000 HD 
BRANCH   9  11
HETATM   11  C   UNL     1     -11.241  10.317  69.151  1.00  0.00    -0.215 A  
HETATM   12  C   UNL     1     -10.028   9.841  68.615  1.00  0.00    -0.181 A  
HETATM   13  C   UNL     1      -9.052   9.252  69.420  1.00  0.00    -0.152 A  
HETATM   14  C   UNL     1      -9.286   9.095  70.782  1.00  0.00    -0.325 A  
HETATM   15  C   UNL     1     -10.527   9.438  71.311  1.00  0.00    -0.385 A  
HETATM   16  C   UNL     1     -11.519   9.999  70.491  1.00  0.00    -0.407 A  
HETATM   17  C   UNL     1     -12.853  10.211  71.092  1.00  0.00    -0.399 C  
HETATM   18  O   UNL     1     -13.024  10.598  72.233  1.00  0.00    -0.353 OA 
HETATM   19  O   UNL     1     -13.857   9.864  70.258  1.00  0.00     0.304 OA 
ENDBRANCH   9  11
ENDBRANCH   8   9
TORSDOF 2
ENDMDL
MODEL       69
REMARK 921   NORMALIZED FREE ENERGY PREDICTED BY IDOCK:   -4.96 KCAL/MOL
REMARK 922        TOTAL FREE ENERGY PREDICTED BY IDOCK:   -6.16 KCAL/MOL
REMARK 923 INTER-LIGAND FREE ENERGY PREDICTED BY IDOCK:   -5.74 KCAL/MOL
REMARK 924 INTRA-LIGAND FREE ENERGY PREDICTED BY IDOCK:   -0.42 KCAL/MOL
REMARK 927      BINDING AFFINITY PREDICTED BY RF-SCORE:    0.00 PKD
ROOT
HETATM    1  C   UNL     1     -10.516  19.165  66.903  1.00  0.00    -0.527 C  
HETATM    2  C   UNL     1      -9.312  18.301  66.646  1.00  0.00    -0.304 A  
HETATM    3  C   UNL     1      -8.000  18.814  66.713  1.00  0.00    -0.255 A  
HETATM    4 CL   UNL     1      -7.681  20.510  66.840  1.00  0.00    -0.343 Cl 
HETATM    5  C   UNL     1      -6.887  17.972  66.632  1.00  0.00    -0.239 A  
HETATM    6  C   UNL     1      -7.058  16.603  66.510  1.00  0.00    -0.212 A  
HETATM    7  C   UNL     1      -8.344  16.095  66.355  1.00  0.00    -0.357 A  
HETATM    8  C   UNL     1      -9.470  16.941  66.314  1.00  0.00    -0.271 A  
ENDROOT
BRANCH   8   9
HETATM    9  N   UNL     1     -10.738  16.427  65.895  1.00  0.00    -0.263 NA 
HETATM   10  H   UNL     1     -11.441  17.095  65.577  1.00  0.00     0.000 HD 
BRANCH   9  11
HETATM   11  C   UNL     1     -11.083  15.046  65.893  1.00  0.00    -0.334 A  
HETATM   12  C   UNL     1     -11.334  14.386  64.674  1.00  0.00    -0.373 A  
HETATM   13  C   UNL     1     -11.480  13.000  64.608  1.00  0.00    -0.374 A  
HETATM   14  C   UNL     1     -11.411  12.244  65.774  1.00  0.00    -0.417 A  
HETATM   15  C   UNL     1     -11.294  12.884  67.004  1.00  0.00    -0.355 A  
HETATM   16  C   UNL     1     -11.181  14.283  67.069  1.00  0.00    -0.332 A  
HETATM   17  C   UNL     1     -11.197  14.901  68.412  1.00  0.00    -0.292 C  
HETATM   18  O   UNL     1     -10.644  14.417  69.382  1.00  0.00    -0.212 OA 
HETATM   19  O   UNL     1     -11.950  16.021  68.457  1.00  0.00    -0.273 OA 
ENDBRANCH   9  11
ENDBRANCH   8   9
TORSDOF 2
ENDMDL
MODEL       70
REMARK 921   NORMALIZED FREE ENERGY PREDICTED BY IDOCK:   -4.92 KCAL/MOL
REMARK 922        TOTAL FREE ENERGY PREDICTED BY IDOCK:   -6.11 KCAL/MOL
REMARK 923 INTER-LIGAND FREE ENERGY PREDICTED BY IDOCK:   -5.87 KCAL/MOL
REMARK 924 INTRA-LIGAND FREE ENERGY PREDICTED BY IDOCK:   -0.24 KCAL/MOL
REMARK 927      BINDING AFFINITY PREDICTED BY RF-SCORE:    0.00 PKD
ROOT
HETATM    1  C   UNL     1     -12.272  12.256  70.520  1.00  0.00    -0.387 C  
HETATM    2  C   UNL     1     -11.568  11.534  69.404  1.00  0.00    -0.388 A  
HETATM    3  C   UNL     1     -10.911  10.303  69.612  1.00  0.00    -0.270 A  
HETATM    4 CL   UNL     1     -10.643   9.660  71.196  1.00  0.00    -0.379 Cl 
HETATM    5  C   UNL     1     -10.401   9.563  68.542  1.00  0.00    -0.234 A  
HETATM    6  C   UNL     1     -10.558  10.020  67.243  1.00  0.00    -0.319 A  
HETATM    7  C   UNL     1     -11.125  11.273  67.033  1.00  0.00    -0.356 A  
HETATM    8  C   UNL     1     -11.537  12.085  68.108  1.00  0.00    -0.340 A  
ENDROOT
BRANCH   8   9
HETATM    9  N   UNL     1     -11.869  13.459  67.883  1.00  0.00    -0.357 NA 
HETATM   10  H   UNL     1     -12.313  13.972  68.645  1.00  0.00     0.000 HD 
BRANCH   9  11
HETATM   11  C   UNL     1     -11.621  14.155  66.666  1.00  0.00    -0.384 A  
HETATM   12  C   UNL     1     -12.381  13.855  65.518  1.00  0.00    -0.506 A  
HETATM   13  C   UNL     1     -12.310  14.639  64.367  1.00  0.00    -0.420 A  
HETATM   14  C   UNL     1     -11.446  15.729  64.328  1.00  0.00    -0.203 A  
HETATM   15  C   UNL     1     -10.591  15.967  65.400  1.00  0.00    -0.428 A  
HETATM   16  C   UNL     1     -10.642  15.154  66.545  1.00  0.00    -0.304 A  
HETATM   17  C   UNL     1      -9.614  15.384  67.583  1.00  0.00    -0.210 C  
HETATM   18  O   UNL     1      -9.217  16.488  67.904  1.00  0.00    -0.208 OA 
HETATM   19  O   UNL     1      -9.119  14.232  68.084  1.00  0.00    -0.180 OA 
ENDBRANCH   9  11
ENDBRANCH   8   9
TORSDOF 2
ENDMDL
MODEL       71
REMARK 921   NORMALIZED FREE ENERGY PREDICTED BY IDOCK:   -4.92 KCAL/MOL
REMARK 922        TOTAL FREE ENERGY PREDICTED BY IDOCK:   -6.11 KCAL/MOL
REMARK 923 INTER-LIGAND FREE ENERGY PREDICTED BY IDOCK:   -5.79 KCAL/MOL
REMARK 924 INTRA-LIGAND FREE ENERGY PREDICTED BY IDOCK:   -0.32 KCAL/MOL
REMARK 927      BINDING AFFINITY PREDICTED BY RF-SCORE:    0.00 PKD
ROOT
HETATM    1  C   UNL     1     -11.485  11.908  68.135  1.00  0.00    -0.384 C  
HETATM    2  C   UNL     1     -11.984  11.940  69.553  1.00  0.00    -0.355 A  
HETATM    3  C   UNL     1     -12.137  13.150  70.261  1.00  0.00    -0.328 A  
HETATM    4 CL   UNL     1     -11.527  14.652  69.657  1.00  0.00    -0.308 Cl 
HETATM    5  C   UNL     1     -12.752  13.184  71.517  1.00  0.00    -0.366 A  
HETATM    6  C   UNL     1     -13.250  12.019  72.078  1.00  0.00    -0.481 A  
HETATM    7  C   UNL     1     -13.027  10.809  71.430  1.00  0.00    -0.535 A  
HETATM    8  C   UNL     1     -12.304  10.741  70.222  1.00  0.00    -0.341 A  
ENDROOT
BRANCH   8   9
HETATM    9  N   UNL     1     -11.866   9.476  69.717  1.00  0.00    -0.427 NA 
HETATM   10  H   UNL     1     -12.267   9.150  68.837  1.00  0.00     0.000 HD 
BRANCH   9  11
HETATM   11  C   UNL     1     -10.909   8.644  70.363  1.00  0.00    -0.227 A  
HETATM   12  C   UNL     1     -10.371   9.027  71.607  1.00  0.00    -0.420 A  
HETATM   13  C   UNL     1      -9.586   8.158  72.365  1.00  0.00    -0.335 A  
HETATM   14  C   UNL     1      -9.293   6.889  71.874  1.00  0.00    -0.145 A  
HETATM   15  C   UNL     1      -9.704   6.536  70.593  1.00  0.00    -0.194 A  
HETATM   16  C   UNL     1     -10.466   7.427  69.819  1.00  0.00    -0.235 A  
HETATM   17  C   UNL     1     -10.749   7.037  68.421  1.00  0.00    -0.179 C  
HETATM   18  O   UNL     1     -11.012   5.899  68.080  1.00  0.00    -0.274 OA 
HETATM   19  O   UNL     1     -10.617   8.068  67.560  1.00  0.00    -0.259 OA 
ENDBRANCH   9  11
ENDBRANCH   8   9
TORSDOF 2
ENDMDL
MODEL       72
REMARK 921   NORMALIZED FREE ENERGY PREDICTED BY IDOCK:   -4.91 KCAL/MOL
REMARK 922        TOTAL FREE ENERGY PREDICTED BY IDOCK:   -6.11 KCAL/MOL
REMARK 923 INTER-LIGAND FREE ENERGY PREDICTED BY IDOCK:   -5.52 KCAL/MOL
REMARK 924 INTRA-LIGAND FREE ENERGY PREDICTED BY IDOCK:   -0.59 KCAL/MOL
REMARK 927      BINDING AFFINITY PREDICTED BY RF-SCORE:    0.00 PKD
ROOT
HETATM    1  C   UNL     1      -9.930   8.570  69.932  1.00  0.00    -0.189 C  
HETATM    2  C   UNL     1     -11.021   9.517  70.351  1.00  0.00    -0.333 A  
HETATM    3  C   UNL     1     -12.021   9.140  71.271  1.00  0.00    -0.325 A  
HETATM    4 CL   UNL     1     -12.223   7.502  71.790  1.00  0.00    -0.327 Cl 
HETATM    5  C   UNL     1     -12.932  10.074  71.775  1.00  0.00    -0.560 A  
HETATM    6  C   UNL     1     -12.848  11.403  71.393  1.00  0.00    -0.502 A  
HETATM    7  C   UNL     1     -11.924  11.768  70.420  1.00  0.00    -0.422 A  
HETATM    8  C   UNL     1     -11.078  10.819  69.814  1.00  0.00    -0.281 A  
ENDROOT
BRANCH   8   9
HETATM    9  N   UNL     1     -10.329  11.167  68.645  1.00  0.00    -0.195 NA 
HETATM   10  H   UNL     1      -9.476  10.642  68.452  1.00  0.00     0.000 HD 
BRANCH   9  11
HETATM   11  C   UNL     1     -10.698  12.197  67.734  1.00  0.00    -0.209 A  
HETATM   12  C   UNL     1     -11.748  11.983  66.820  1.00  0.00    -0.339 A  
HETATM   13  C   UNL     1     -12.272  13.022  66.049  1.00  0.00    -0.463 A  
HETATM   14  C   UNL     1     -11.729  14.298  66.155  1.00  0.00    -0.397 A  
HETATM   15  C   UNL     1     -10.609  14.506  66.953  1.00  0.00    -0.279 A  
HETATM   16  C   UNL     1     -10.063  13.450  67.702  1.00  0.00    -0.229 A  
HETATM   17  C   UNL     1      -8.797  13.713  68.418  1.00  0.00    -0.152 C  
HETATM   18  O   UNL     1      -8.548  14.762  68.982  1.00  0.00    -0.177 OA 
HETATM   19  O   UNL     1      -7.925  12.687  68.319  1.00  0.00    -0.142 OA 
ENDBRANCH   9  11
ENDBRANCH   8   9
TORSDOF 2
ENDMDL
MODEL       73
REMARK 921   NORMALIZED FREE ENERGY PREDICTED BY IDOCK:   -4.90 KCAL/MOL
REMARK 922        TOTAL FREE ENERGY PREDICTED BY IDOCK:   -6.10 KCAL/MOL
REMARK 923 INTER-LIGAND FREE ENERGY PREDICTED BY IDOCK:   -5.46 KCAL/MOL
REMARK 924 INTRA-LIGAND FREE ENERGY PREDICTED BY IDOCK:   -0.64 KCAL/MOL
REMARK 927      BINDING AFFINITY PREDICTED BY RF-SCORE:    0.00 PKD
ROOT
HETATM    1  C   UNL     1     -13.343  15.358  70.500  1.00  0.00    -0.173 C  
HETATM    2  C   UNL     1     -12.658  14.107  70.023  1.00  0.00    -0.268 A  
HETATM    3  C   UNL     1     -12.535  12.966  70.843  1.00  0.00    -0.296 A  
HETATM    4 CL   UNL     1     -12.927  13.000  72.529  1.00  0.00    -0.276 Cl 
HETATM    5  C   UNL     1     -12.044  11.759  70.339  1.00  0.00    -0.440 A  
HETATM    6  C   UNL     1     -11.690  11.656  69.003  1.00  0.00    -0.388 A  
HETATM    7  C   UNL     1     -11.724  12.797  68.207  1.00  0.00    -0.388 A  
HETATM    8  C   UNL     1     -12.103  14.049  68.729  1.00  0.00    -0.303 A  
ENDROOT
BRANCH   8   9
HETATM    9  N   UNL     1     -11.880  15.241  67.969  1.00  0.00    -0.447 NA 
HETATM   10  H   UNL     1     -12.697  15.757  67.641  1.00  0.00     0.000 HD 
BRANCH   9  11
HETATM   11  C   UNL     1     -10.593  15.754  67.642  1.00  0.00    -0.301 A  
HETATM   12  C   UNL     1      -9.946  16.642  68.523  1.00  0.00    -0.261 A  
HETATM   13  C   UNL     1      -8.613  17.013  68.342  1.00  0.00    -0.243 A  
HETATM   14  C   UNL     1      -7.905  16.525  67.248  1.00  0.00    -0.185 A  
HETATM   15  C   UNL     1      -8.560  15.751  66.295  1.00  0.00    -0.307 A  
HETATM   16  C   UNL     1      -9.911  15.408  66.463  1.00  0.00    -0.282 A  
HETATM   17  C   UNL     1     -10.573  14.700  65.347  1.00  0.00    -0.374 C  
HETATM   18  O   UNL     1     -10.031  13.839  64.679  1.00  0.00    -0.277 OA 
HETATM   19  O   UNL     1     -11.819  15.163  65.108  1.00  0.00    -0.248 OA 
ENDBRANCH   9  11
ENDBRANCH   8   9
TORSDOF 2
ENDMDL
MODEL       74
REMARK 921   NORMALIZED FREE ENERGY PREDICTED BY IDOCK:   -4.90 KCAL/MOL
REMARK 922        TOTAL FREE ENERGY PREDICTED BY IDOCK:   -6.10 KCAL/MOL
REMARK 923 INTER-LIGAND FREE ENERGY PREDICTED BY IDOCK:   -5.38 KCAL/MOL
REMARK 924 INTRA-LIGAND FREE ENERGY PREDICTED BY IDOCK:   -0.72 KCAL/MOL
REMARK 927      BINDING AFFINITY PREDICTED BY RF-SCORE:    0.00 PKD
ROOT
HETATM    1  C   UNL     1      -9.457  10.233  65.684  1.00  0.00    -0.274 C  
HETATM    2  C   UNL     1     -10.368  11.350  65.254  1.00  0.00    -0.336 A  
HETATM    3  C   UNL     1     -10.602  11.639  63.894  1.00  0.00    -0.391 A  
HETATM    4 CL   UNL     1      -9.675  10.911  62.627  1.00  0.00    -0.278 Cl 
HETATM    5  C   UNL     1     -11.571  12.569  63.506  1.00  0.00    -0.584 A  
HETATM    6  C   UNL     1     -12.343  13.209  64.462  1.00  0.00    -0.447 A  
HETATM    7  C   UNL     1     -12.061  12.999  65.807  1.00  0.00    -0.510 A  
HETATM    8  C   UNL     1     -11.009  12.156  66.217  1.00  0.00    -0.295 A  
ENDROOT
BRANCH   8   9
HETATM    9  N   UNL     1     -10.575  12.160  67.581  1.00  0.00    -0.206 NA 
HETATM   10  H   UNL     1     -10.920  11.421  68.193  1.00  0.00     0.000 HD 
BRANCH   9  11
HETATM   11  C   UNL     1      -9.693  13.129  68.138  1.00  0.00    -0.228 A  
HETATM   12  C   UNL     1      -8.299  12.951  68.036  1.00  0.00    -0.169 A  
HETATM   13  C   UNL     1      -7.403  13.961  68.389  1.00  0.00    -0.115 A  
HETATM   14  C   UNL     1      -7.886  15.167  68.885  1.00  0.00    -0.164 A  
HETATM   15  C   UNL     1      -9.250  15.319  69.117  1.00  0.00    -0.234 A  
HETATM   16  C   UNL     1     -10.146  14.287  68.792  1.00  0.00    -0.217 A  
HETATM   17  C   UNL     1     -11.558  14.467  69.190  1.00  0.00    -0.298 C  
HETATM   18  O   UNL     1     -12.145  15.531  69.124  1.00  0.00    -0.326 OA 
HETATM   19  O   UNL     1     -12.100  13.340  69.698  1.00  0.00    -0.306 OA 
ENDBRANCH   9  11
ENDBRANCH   8   9
TORSDOF 2
ENDMDL
MODEL       75
REMARK 921   NORMALIZED FREE ENERGY PREDICTED BY IDOCK:   -4.90 KCAL/MOL
REMARK 922        TOTAL FREE ENERGY PREDICTED BY IDOCK:   -6.09 KCAL/MOL
REMARK 923 INTER-LIGAND FREE ENERGY PREDICTED BY IDOCK:   -5.47 KCAL/MOL
REMARK 924 INTRA-LIGAND FREE ENERGY PREDICTED BY IDOCK:   -0.63 KCAL/MOL
REMARK 927      BINDING AFFINITY PREDICTED BY RF-SCORE:    0.00 PKD
ROOT
HETATM    1  C   UNL     1     -11.910  12.816  68.939  1.00  0.00    -0.351 C  
HETATM    2  C   UNL     1     -11.968  13.960  69.914  1.00  0.00    -0.405 A  
HETATM    3  C   UNL     1     -12.439  13.792  71.232  1.00  0.00    -0.345 A  
HETATM    4 CL   UNL     1     -13.218  12.337  71.751  1.00  0.00    -0.509 Cl 
HETATM    5  C   UNL     1     -12.338  14.819  72.175  1.00  0.00    -0.408 A  
HETATM    6  C   UNL     1     -11.744  16.022  71.832  1.00  0.00    -0.594 A  
HETATM    7  C   UNL     1     -11.357  16.231  70.512  1.00  0.00    -0.318 A  
HETATM    8  C   UNL     1     -11.560  15.251  69.521  1.00  0.00    -0.322 A  
ENDROOT
BRANCH   8   9
HETATM    9  N   UNL     1     -11.397  15.583  68.139  1.00  0.00    -0.342 NA 
HETATM   10  H   UNL     1     -11.921  15.040  67.453  1.00  0.00     0.000 HD 
BRANCH   9  11
HETATM   11  C   UNL     1     -10.550  16.622  67.659  1.00  0.00    -0.321 A  
HETATM   12  C   UNL     1     -11.101  17.869  67.303  1.00  0.00     0.141 A  
HETATM   13  C   UNL     1     -10.295  18.971  67.017  1.00  0.00    -0.487 A  
HETATM   14  C   UNL     1      -8.910  18.839  67.050  1.00  0.00    -0.302 A  
HETATM   15  C   UNL     1      -8.344  17.587  67.271  1.00  0.00    -0.225 A  
HETATM   16  C   UNL     1      -9.160  16.472  67.524  1.00  0.00    -0.200 A  
HETATM   17  C   UNL     1      -8.495  15.155  67.615  1.00  0.00    -0.160 C  
HETATM   18  O   UNL     1      -7.416  14.981  68.150  1.00  0.00    -0.101 OA 
HETATM   19  O   UNL     1      -9.184  14.183  66.979  1.00  0.00    -0.220 OA 
ENDBRANCH   9  11
ENDBRANCH   8   9
TORSDOF 2
ENDMDL
MODEL       76
REMARK 921   NORMALIZED FREE ENERGY PREDICTED BY IDOCK:   -4.87 KCAL/MOL
REMARK 922        TOTAL FREE ENERGY PREDICTED BY IDOCK:   -6.06 KCAL/MOL
REMARK 923 INTER-LIGAND FREE ENERGY PREDICTED BY IDOCK:   -5.43 KCAL/MOL
REMARK 924 INTRA-LIGAND FREE ENERGY PREDICTED BY IDOCK:   -0.63 KCAL/MOL
REMARK 927      BINDING AFFINITY PREDICTED BY RF-SCORE:    0.00 PKD
ROOT
HETATM    1  C   UNL     1      -9.941  19.561  66.809  1.00  0.00    -0.501 C  
HETATM    2  C   UNL     1      -8.822  18.645  67.223  1.00  0.00    -0.283 A  
HETATM    3  C   UNL     1      -7.471  18.959  66.970  1.00  0.00    -0.216 A  
HETATM    4 CL   UNL     1      -7.009  20.279  65.951  1.00  0.00    -0.294 Cl 
HETATM    5  C   UNL     1      -6.434  18.184  67.499  1.00  0.00    -0.192 A  
HETATM    6  C   UNL     1      -6.722  17.098  68.310  1.00  0.00    -0.167 A  
HETATM    7  C   UNL     1      -8.050  16.727  68.493  1.00  0.00    -0.241 A  
HETATM    8  C   UNL     1      -9.104  17.425  67.870  1.00  0.00    -0.255 A  
ENDROOT
BRANCH   8   9
HETATM    9  N   UNL     1     -10.424  16.874  67.860  1.00  0.00    -0.331 NA 
HETATM   10  H   UNL     1     -11.133  17.324  68.439  1.00  0.00     0.000 HD 
BRANCH   9  11
HETATM   11  C   UNL     1     -10.812  15.737  67.096  1.00  0.00    -0.289 A  
HETATM   12  C   UNL     1     -10.640  15.740  65.697  1.00  0.00    -0.393 A  
HETATM   13  C   UNL     1     -10.820  14.585  64.935  1.00  0.00    -0.436 A  
HETATM   14  C   UNL     1     -11.212  13.404  65.556  1.00  0.00    -0.303 A  
HETATM   15  C   UNL     1     -11.515  13.409  66.915  1.00  0.00    -0.376 A  
HETATM   16  C   UNL     1     -11.364  14.582  67.673  1.00  0.00    -0.354 A  
HETATM   17  C   UNL     1     -11.832  14.545  69.075  1.00  0.00    -0.318 C  
HETATM   18  O   UNL     1     -11.689  13.584  69.807  1.00  0.00    -0.293 OA 
HETATM   19  O   UNL     1     -12.495  15.667  69.428  1.00  0.00    -0.188 OA 
ENDBRANCH   9  11
ENDBRANCH   8   9
TORSDOF 2
ENDMDL
MODEL       77
REMARK 921   NORMALIZED FREE ENERGY PREDICTED BY IDOCK:   -4.87 KCAL/MOL
REMARK 922        TOTAL FREE ENERGY PREDICTED BY IDOCK:   -6.05 KCAL/MOL
REMARK 923 INTER-LIGAND FREE ENERGY PREDICTED BY IDOCK:   -5.60 KCAL/MOL
REMARK 924 INTRA-LIGAND FREE ENERGY PREDICTED BY IDOCK:   -0.46 KCAL/MOL
REMARK 927      BINDING AFFINITY PREDICTED BY RF-SCORE:    0.00 PKD
ROOT
HETATM    1  C   UNL     1     -10.472   9.860  69.851  1.00  0.00    -0.309 C  
HETATM    2  C   UNL     1     -10.501   8.634  68.979  1.00  0.00    -0.216 A  
HETATM    3  C   UNL     1     -10.810   7.360  69.497  1.00  0.00    -0.189 A  
HETATM    4 CL   UNL     1     -10.925   7.061  71.197  1.00  0.00    -0.266 Cl 
HETATM    5  C   UNL     1     -10.992   6.259  68.654  1.00  0.00    -0.423 A  
HETATM    6  C   UNL     1     -10.897   6.412  67.280  1.00  0.00    -0.463 A  
HETATM    7  C   UNL     1     -10.507   7.643  66.765  1.00  0.00    -0.319 A  
HETATM    8  C   UNL     1     -10.202   8.732  67.605  1.00  0.00    -0.239 A  
ENDROOT
BRANCH   8   9
HETATM    9  N   UNL     1      -9.558   9.893  67.072  1.00  0.00    -0.169 NA 
HETATM   10  H   UNL     1      -9.086  10.519  67.725  1.00  0.00     0.000 HD 
BRANCH   9  11
HETATM   11  C   UNL     1      -9.534  10.232  65.689  1.00  0.00    -0.221 A  
HETATM   12  C   UNL     1      -8.605   9.612  64.830  1.00  0.00    -0.188 A  
HETATM   13  C   UNL     1      -8.674   9.764  63.446  1.00  0.00    -0.235 A  
HETATM   14  C   UNL     1      -9.659  10.572  62.889  1.00  0.00    -0.355 A  
HETATM   15  C   UNL     1     -10.506  11.298  63.722  1.00  0.00    -0.459 A  
HETATM   16  C   UNL     1     -10.412  11.168  65.118  1.00  0.00    -0.341 A  
HETATM   17  C   UNL     1     -11.250  12.069  65.938  1.00  0.00    -0.337 C  
HETATM   18  O   UNL     1     -12.391  12.375  65.649  1.00  0.00    -0.639 OA 
HETATM   19  O   UNL     1     -10.585  12.565  67.003  1.00  0.00    -0.229 OA 
ENDBRANCH   9  11
ENDBRANCH   8   9
TORSDOF 2
ENDMDL
MODEL       78
REMARK 921   NORMALIZED FREE ENERGY PREDICTED BY IDOCK:   -4.86 KCAL/MOL
REMARK 922        TOTAL FREE ENERGY PREDICTED BY IDOCK:   -6.05 KCAL/MOL
REMARK 923 INTER-LIGAND FREE ENERGY PREDICTED BY IDOCK:   -5.52 KCAL/MOL
REMARK 924 INTRA-LIGAND FREE ENERGY PREDICTED BY IDOCK:   -0.53 KCAL/MOL
REMARK 927      BINDING AFFINITY PREDICTED BY RF-SCORE:    0.00 PKD
ROOT
HETATM    1  C   UNL     1      -9.271   7.683  68.528  1.00  0.00    -0.143 C  
HETATM    2  C   UNL     1      -9.629   8.935  67.774  1.00  0.00    -0.176 A  
HETATM    3  C   UNL     1      -9.478   9.030  66.375  1.00  0.00    -0.226 A  
HETATM    4 CL   UNL     1      -8.640   7.827  65.457  1.00  0.00    -0.150 Cl 
HETATM    5  C   UNL     1      -9.963  10.133  65.667  1.00  0.00    -0.348 A  
HETATM    6  C   UNL     1     -10.630  11.149  66.333  1.00  0.00    -0.315 A  
HETATM    7  C   UNL     1     -10.706  11.108  67.721  1.00  0.00    -0.267 A  
HETATM    8  C   UNL     1     -10.119  10.063  68.462  1.00  0.00    -0.169 A  
ENDROOT
BRANCH   8   9
HETATM    9  N   UNL     1      -9.984  10.177  69.881  1.00  0.00    -0.357 NA 
HETATM   10  H   UNL     1      -9.101  10.533  70.249  1.00  0.00     0.000 HD 
BRANCH   9  11
HETATM   11  C   UNL     1     -11.001   9.825  70.814  1.00  0.00    -0.336 A  
HETATM   12  C   UNL     1     -12.205  10.556  70.848  1.00  0.00    -0.490 A  
HETATM   13  C   UNL     1     -13.299  10.129  71.601  1.00  0.00    -0.463 A  
HETATM   14  C   UNL     1     -13.199   8.973  72.368  1.00  0.00    -0.507 A  
HETATM   15  C   UNL     1     -11.980   8.307  72.452  1.00  0.00    -0.447 A  
HETATM   16  C   UNL     1     -10.870   8.758  71.718  1.00  0.00    -0.416 A  
HETATM   17  C   UNL     1      -9.578   8.083  71.962  1.00  0.00    -0.201 C  
HETATM   18  O   UNL     1      -9.468   6.884  72.140  1.00  0.00    -0.141 OA 
HETATM   19  O   UNL     1      -8.546   8.951  72.033  1.00  0.00    -0.367 OA 
ENDBRANCH   9  11
ENDBRANCH   8   9
TORSDOF 2
ENDMDL
MODEL       79
REMARK 921   NORMALIZED FREE ENERGY PREDICTED BY IDOCK:   -4.86 KCAL/MOL
REMARK 922        TOTAL FREE ENERGY PREDICTED BY IDOCK:   -6.05 KCAL/MOL
REMARK 923 INTER-LIGAND FREE ENERGY PREDICTED BY IDOCK:   -5.74 KCAL/MOL
REMARK 924 INTRA-LIGAND FREE ENERGY PREDICTED BY IDOCK:   -0.31 KCAL/MOL
REMARK 927      BINDING AFFINITY PREDICTED BY RF-SCORE:    0.00 PKD
ROOT
HETATM    1  C   UNL     1      -9.228  10.208  65.792  1.00  0.00    -0.221 C  
HETATM    2  C   UNL     1     -10.271  11.201  65.356  1.00  0.00    -0.327 A  
HETATM    3  C   UNL     1     -10.677  11.312  64.011  1.00  0.00    -0.377 A  
HETATM    4 CL   UNL     1      -9.838  10.508  62.728  1.00  0.00    -0.270 Cl 
HETATM    5  C   UNL     1     -11.756  12.120  63.642  1.00  0.00    -0.588 A  
HETATM    6  C   UNL     1     -12.469  12.812  64.609  1.00  0.00    -0.525 A  
HETATM    7  C   UNL     1     -12.024  12.780  65.926  1.00  0.00    -0.506 A  
HETATM    8  C   UNL     1     -10.867  12.066  66.297  1.00  0.00    -0.279 A  
ENDROOT
BRANCH   8   9
HETATM    9  N   UNL     1     -10.287  12.260  67.590  1.00  0.00    -0.202 NA 
HETATM   10  H   UNL     1      -9.553  12.962  67.683  1.00  0.00     0.000 HD 
BRANCH   9  11
HETATM   11  C   UNL     1     -10.667  11.535  68.755  1.00  0.00    -0.211 A  
HETATM   12  C   UNL     1     -11.895  11.815  69.387  1.00  0.00    -0.398 A  
HETATM   13  C   UNL     1     -12.396  11.004  70.405  1.00  0.00    -0.442 A  
HETATM   14  C   UNL     1     -11.658   9.908  70.839  1.00  0.00    -0.456 A  
HETATM   15  C   UNL     1     -10.386   9.687  70.322  1.00  0.00    -0.336 A  
HETATM   16  C   UNL     1      -9.870  10.525  69.320  1.00  0.00    -0.225 A  
HETATM   17  C   UNL     1      -8.464  10.311  68.917  1.00  0.00    -0.138 C  
HETATM   18  O   UNL     1      -7.955   9.212  68.807  1.00  0.00    -0.097 OA 
HETATM   19  O   UNL     1      -7.791  11.470  68.752  1.00  0.00    -0.140 OA 
ENDBRANCH   9  11
ENDBRANCH   8   9
TORSDOF 2
ENDMDL
MODEL       80
REMARK 921   NORMALIZED FREE ENERGY PREDICTED BY IDOCK:   -4.85 KCAL/MOL
REMARK 922        TOTAL FREE ENERGY PREDICTED BY IDOCK:   -6.03 KCAL/MOL
REMARK 923 INTER-LIGAND FREE ENERGY PREDICTED BY IDOCK:   -5.83 KCAL/MOL
REMARK 924 INTRA-LIGAND FREE ENERGY PREDICTED BY IDOCK:   -0.21 KCAL/MOL
REMARK 927      BINDING AFFINITY PREDICTED BY RF-SCORE:    0.00 PKD
ROOT
HETATM    1  C   UNL     1     -10.660   8.278  67.242  1.00  0.00    -0.335 C  
HETATM    2  C   UNL     1      -9.929   8.289  68.557  1.00  0.00    -0.206 A  
HETATM    3  C   UNL     1      -8.768   7.517  68.770  1.00  0.00    -0.128 A  
HETATM    4 CL   UNL     1      -8.245   6.314  67.642  1.00  0.00    -0.117 Cl 
HETATM    5  C   UNL     1      -8.007   7.657  69.935  1.00  0.00    -0.115 A  
HETATM    6  C   UNL     1      -8.372   8.586  70.896  1.00  0.00    -0.166 A  
HETATM    7  C   UNL     1      -9.561   9.289  70.737  1.00  0.00    -0.341 A  
HETATM    8  C   UNL     1     -10.402   9.075  69.627  1.00  0.00    -0.212 A  
ENDROOT
BRANCH   8   9
HETATM    9  N   UNL     1     -11.730   9.609  69.618  1.00  0.00    -0.445 NA 
HETATM   10  H   UNL     1     -12.429   9.139  69.043  1.00  0.00     0.000 HD 
BRANCH   9  11
HETATM   11  C   UNL     1     -12.137  10.755  70.358  1.00  0.00    -0.354 A  
HETATM   12  C   UNL     1     -11.734  12.039  69.943  1.00  0.00    -0.374 A  
HETATM   13  C   UNL     1     -12.265  13.195  70.516  1.00  0.00    -0.405 A  
HETATM   14  C   UNL     1     -13.193  13.088  71.547  1.00  0.00    -0.360 A  
HETATM   15  C   UNL     1     -13.509  11.835  72.062  1.00  0.00    -0.319 A  
HETATM   16  C   UNL     1     -12.946  10.675  71.504  1.00  0.00    -0.566 A  
HETATM   17  C   UNL     1     -13.222   9.393  72.188  1.00  0.00    -0.460 C  
HETATM   18  O   UNL     1     -14.299   9.110  72.677  1.00  0.00    -0.561 OA 
HETATM   19  O   UNL     1     -12.129   8.605  72.270  1.00  0.00    -0.364 OA 
ENDBRANCH   9  11
ENDBRANCH   8   9
TORSDOF 2
ENDMDL
MODEL       81
REMARK 921   NORMALIZED FREE ENERGY PREDICTED BY IDOCK:   -4.84 KCAL/MOL
REMARK 922        TOTAL FREE ENERGY PREDICTED BY IDOCK:   -6.03 KCAL/MOL
REMARK 923 INTER-LIGAND FREE ENERGY PREDICTED BY IDOCK:   -5.67 KCAL/MOL
REMARK 924 INTRA-LIGAND FREE ENERGY PREDICTED BY IDOCK:   -0.36 KCAL/MOL
REMARK 927      BINDING AFFINITY PREDICTED BY RF-SCORE:    0.00 PKD
ROOT
HETATM    1  C   UNL     1     -12.046  10.997  69.319  1.00  0.00    -0.363 C  
HETATM    2  C   UNL     1     -12.458  12.122  70.229  1.00  0.00    -0.164 A  
HETATM    3  C   UNL     1     -13.004  11.884  71.507  1.00  0.00    -0.323 A  
HETATM    4 CL   UNL     1     -13.476  10.302  72.025  1.00  0.00    -0.457 Cl 
HETATM    5  C   UNL     1     -13.233  12.931  72.405  1.00  0.00    -0.447 A  
HETATM    6  C   UNL     1     -12.898  14.230  72.058  1.00  0.00    -0.428 A  
HETATM    7  C   UNL     1     -12.443  14.488  70.769  1.00  0.00    -0.420 A  
HETATM    8  C   UNL     1     -12.319  13.461  69.812  1.00  0.00    -0.159 A  
ENDROOT
BRANCH   8   9
HETATM    9  N   UNL     1     -12.103  13.786  68.435  1.00  0.00    -0.436 NA 
HETATM   10  H   UNL     1     -12.835  14.302  67.947  1.00  0.00     0.000 HD 
BRANCH   9  11
HETATM   11  C   UNL     1     -10.934  13.434  67.703  1.00  0.00    -0.259 A  
HETATM   12  C   UNL     1      -9.661  13.685  68.251  1.00  0.00    -0.215 A  
HETATM   13  C   UNL     1      -8.499  13.184  67.664  1.00  0.00    -0.194 A  
HETATM   14  C   UNL     1      -8.584  12.444  66.489  1.00  0.00    -0.005 A  
HETATM   15  C   UNL     1      -9.816  12.293  65.860  1.00  0.00    -0.266 A  
HETATM   16  C   UNL     1     -10.980  12.829  66.437  1.00  0.00    -0.305 A  
HETATM   17  C   UNL     1     -12.226  12.746  65.645  1.00  0.00    -0.444 C  
HETATM   18  O   UNL     1     -12.532  11.781  64.970  1.00  0.00    -0.188 OA 
HETATM   19  O   UNL     1     -12.950  13.884  65.702  1.00  0.00    -0.599 OA 
ENDBRANCH   9  11
ENDBRANCH   8   9
TORSDOF 2
ENDMDL
MODEL       82
REMARK 921   NORMALIZED FREE ENERGY PREDICTED BY IDOCK:   -4.84 KCAL/MOL
REMARK 922        TOTAL FREE ENERGY PREDICTED BY IDOCK:   -6.03 KCAL/MOL
REMARK 923 INTER-LIGAND FREE ENERGY PREDICTED BY IDOCK:   -6.02 KCAL/MOL
REMARK 924 INTRA-LIGAND FREE ENERGY PREDICTED BY IDOCK:   -0.01 KCAL/MOL
REMARK 927      BINDING AFFINITY PREDICTED BY RF-SCORE:    0.00 PKD
ROOT
HETATM    1  C   UNL     1     -11.557  12.239  65.858  1.00  0.00    -0.450 C  
HETATM    2  C   UNL     1     -11.545  12.763  67.268  1.00  0.00    -0.420 A  
HETATM    3  C   UNL     1     -11.308  14.123  67.554  1.00  0.00    -0.322 A  
HETATM    4 CL   UNL     1     -10.764  15.236  66.345  1.00  0.00    -0.314 Cl 
HETATM    5  C   UNL     1     -11.458  14.630  68.848  1.00  0.00    -0.323 A  
HETATM    6  C   UNL     1     -11.872  13.798  69.876  1.00  0.00    -0.394 A  
HETATM    7  C   UNL     1     -12.023  12.438  69.624  1.00  0.00    -0.341 A  
HETATM    8  C   UNL     1     -11.760  11.890  68.353  1.00  0.00    -0.326 A  
ENDROOT
BRANCH   8   9
HETATM    9  N   UNL     1     -11.669  10.472  68.188  1.00  0.00    -0.760 NA 
HETATM   10  H   UNL     1     -12.223  10.042  67.447  1.00  0.00     0.000 HD 
BRANCH   9  11
HETATM   11  C   UNL     1     -10.855   9.622  68.989  1.00  0.00    -0.183 A  
HETATM   12  C   UNL     1     -10.453  10.042  70.273  1.00  0.00    -0.331 A  
HETATM   13  C   UNL     1      -9.826   9.172  71.165  1.00  0.00    -0.371 A  
HETATM   14  C   UNL     1      -9.556   7.864  70.777  1.00  0.00    -0.171 A  
HETATM   15  C   UNL     1      -9.825   7.464  69.472  1.00  0.00    -0.165 A  
HETATM   16  C   UNL     1     -10.426   8.354  68.565  1.00  0.00    -0.201 A  
HETATM   17  C   UNL     1     -10.557   7.904  67.163  1.00  0.00    -0.313 C  
HETATM   18  O   UNL     1     -10.848   6.766  66.846  1.00  0.00    -0.348 OA 
HETATM   19  O   UNL     1     -10.252   8.876  66.277  1.00  0.00    -0.284 OA 
ENDBRANCH   9  11
ENDBRANCH   8   9
TORSDOF 2
ENDMDL
MODEL       83
REMARK 921   NORMALIZED FREE ENERGY PREDICTED BY IDOCK:   -4.83 KCAL/MOL
REMARK 922        TOTAL FREE ENERGY PREDICTED BY IDOCK:   -6.01 KCAL/MOL
REMARK 923 INTER-LIGAND FREE ENERGY PREDICTED BY IDOCK:   -5.86 KCAL/MOL
REMARK 924 INTRA-LIGAND FREE ENERGY PREDICTED BY IDOCK:   -0.15 KCAL/MOL
REMARK 927      BINDING AFFINITY PREDICTED BY RF-SCORE:    0.00 PKD
ROOT
HETATM    1  C   UNL     1      -9.859   8.295  70.377  1.00  0.00    -0.194 C  
HETATM    2  C   UNL     1     -11.063   9.136  70.702  1.00  0.00    -0.320 A  
HETATM    3  C   UNL     1     -12.150   8.627  71.441  1.00  0.00    -0.303 A  
HETATM    4 CL   UNL     1     -12.302   6.943  71.809  1.00  0.00    -0.390 Cl 
HETATM    5  C   UNL     1     -13.187   9.459  71.874  1.00  0.00    -0.507 A  
HETATM    6  C   UNL     1     -13.147  10.817  71.603  1.00  0.00    -0.551 A  
HETATM    7  C   UNL     1     -12.127  11.315  70.800  1.00  0.00    -0.450 A  
HETATM    8  C   UNL     1     -11.139  10.471  70.255  1.00  0.00    -0.285 A  
ENDROOT
BRANCH   8   9
HETATM    9  N   UNL     1     -10.264  10.957  69.233  1.00  0.00    -0.351 NA 
HETATM   10  H   UNL     1      -9.272  10.729  69.306  1.00  0.00     0.000 HD 
BRANCH   9  11
HETATM   11  C   UNL     1     -10.687  11.738  68.121  1.00  0.00    -0.214 A  
HETATM   12  C   UNL     1     -11.346  12.966  68.334  1.00  0.00    -0.329 A  
HETATM   13  C   UNL     1     -11.601  13.852  67.288  1.00  0.00    -0.393 A  
HETATM   14  C   UNL     1     -11.231  13.512  65.991  1.00  0.00    -0.305 A  
HETATM   15  C   UNL     1     -10.698  12.252  65.736  1.00  0.00    -0.298 A  
HETATM   16  C   UNL     1     -10.473  11.348  66.788  1.00  0.00    -0.284 A  
HETATM   17  C   UNL     1     -10.032   9.984  66.426  1.00  0.00    -0.237 C  
HETATM   18  O   UNL     1      -9.243   9.748  65.531  1.00  0.00    -0.181 OA 
HETATM   19  O   UNL     1     -10.655   9.031  67.150  1.00  0.00    -0.272 OA 
ENDBRANCH   9  11
ENDBRANCH   8   9
TORSDOF 2
ENDMDL
MODEL       84
REMARK 921   NORMALIZED FREE ENERGY PREDICTED BY IDOCK:   -4.81 KCAL/MOL
REMARK 922        TOTAL FREE ENERGY PREDICTED BY IDOCK:   -5.99 KCAL/MOL
REMARK 923 INTER-LIGAND FREE ENERGY PREDICTED BY IDOCK:   -5.82 KCAL/MOL
REMARK 924 INTRA-LIGAND FREE ENERGY PREDICTED BY IDOCK:   -0.18 KCAL/MOL
REMARK 927      BINDING AFFINITY PREDICTED BY RF-SCORE:    0.00 PKD
ROOT
HETATM    1  C   UNL     1     -10.975  10.054  69.842  1.00  0.00    -0.339 C  
HETATM    2  C   UNL     1     -10.935  10.832  68.554  1.00  0.00    -0.291 A  
HETATM    3  C   UNL     1     -10.773  10.196  67.306  1.00  0.00    -0.254 A  
HETATM    4 CL   UNL     1     -10.354   8.522  67.174  1.00  0.00    -0.359 Cl 
HETATM    5  C   UNL     1     -10.899  10.906  66.108  1.00  0.00    -0.166 A  
HETATM    6  C   UNL     1     -11.214  12.255  66.130  1.00  0.00    -0.372 A  
HETATM    7  C   UNL     1     -11.289  12.910  67.354  1.00  0.00    -0.355 A  
HETATM    8  C   UNL     1     -11.047  12.236  68.568  1.00  0.00    -0.249 A  
ENDROOT
BRANCH   8   9
HETATM    9  N   UNL     1     -10.872  12.978  69.779  1.00  0.00    -0.282 NA 
HETATM   10  H   UNL     1      -9.919  13.178  70.082  1.00  0.00     0.000 HD 
BRANCH   9  11
HETATM   11  C   UNL     1     -11.943  13.454  70.588  1.00  0.00    -0.209 A  
HETATM   12  C   UNL     1     -12.838  12.540  71.178  1.00  0.00    -0.303 A  
HETATM   13  C   UNL     1     -13.774  12.942  72.130  1.00  0.00    -0.505 A  
HETATM   14  C   UNL     1     -13.859  14.284  72.489  1.00  0.00    -0.575 A  
HETATM   15  C   UNL     1     -13.076  15.224  71.827  1.00  0.00    -0.488 A  
HETATM   16  C   UNL     1     -12.157  14.819  70.844  1.00  0.00    -0.387 A  
HETATM   17  C   UNL     1     -11.460  15.883  70.091  1.00  0.00    -0.361 C  
HETATM   18  O   UNL     1     -11.062  16.916  70.596  1.00  0.00    -0.016 OA 
HETATM   19  O   UNL     1     -11.375  15.611  68.771  1.00  0.00    -0.304 OA 
ENDBRANCH   9  11
ENDBRANCH   8   9
TORSDOF 2
ENDMDL
MODEL       85
REMARK 921   NORMALIZED FREE ENERGY PREDICTED BY IDOCK:   -4.78 KCAL/MOL
REMARK 922        TOTAL FREE ENERGY PREDICTED BY IDOCK:   -5.96 KCAL/MOL
REMARK 923 INTER-LIGAND FREE ENERGY PREDICTED BY IDOCK:   -5.53 KCAL/MOL
REMARK 924 INTRA-LIGAND FREE ENERGY PREDICTED BY IDOCK:   -0.43 KCAL/MOL
REMARK 927      BINDING AFFINITY PREDICTED BY RF-SCORE:    0.00 PKD
ROOT
HETATM    1  C   UNL     1     -10.720   9.652  70.935  1.00  0.00    -0.402 C  
HETATM    2  C   UNL     1     -11.953   8.880  71.319  1.00  0.00    -0.365 A  
HETATM    3  C   UNL     1     -13.151   9.525  71.688  1.00  0.00    -0.401 A  
HETATM    4 CL   UNL     1     -13.226  11.230  71.974  1.00  0.00    -0.564 Cl 
HETATM    5  C   UNL     1     -14.333   8.805  71.886  1.00  0.00    -0.441 A  
HETATM    6  C   UNL     1     -14.350   7.433  71.695  1.00  0.00    -0.614 A  
HETATM    7  C   UNL     1     -13.156   6.775  71.419  1.00  0.00    -0.214 A  
HETATM    8  C   UNL     1     -11.934   7.470  71.333  1.00  0.00    -0.309 A  
ENDROOT
BRANCH   8   9
HETATM    9  N   UNL     1     -10.698   6.750  71.309  1.00  0.00    -0.223 NA 
HETATM   10  H   UNL     1      -9.942   7.119  70.732  1.00  0.00     0.000 HD 
BRANCH   9  11
HETATM   11  C   UNL     1     -10.455   5.552  72.038  1.00  0.00    -0.222 A  
HETATM   12  C   UNL     1     -10.767   5.489  73.411  1.00  0.00    -0.317 A  
HETATM   13  C   UNL     1     -10.731   4.286  74.116  1.00  0.00    -0.303 A  
HETATM   14  C   UNL     1     -10.347   3.118  73.466  1.00  0.00    -0.224 A  
HETATM   15  C   UNL     1      -9.909   3.177  72.147  1.00  0.00    -0.238 A  
HETATM   16  C   UNL     1      -9.915   4.396  71.450  1.00  0.00    -0.248 A  
HETATM   17  C   UNL     1      -9.311   4.406  70.100  1.00  0.00    -0.154 C  
HETATM   18  O   UNL     1      -9.435   3.497  69.301  1.00  0.00    -0.173 OA 
HETATM   19  O   UNL     1      -8.553   5.501  69.881  1.00  0.00    -0.116 OA 
ENDBRANCH   9  11
ENDBRANCH   8   9
TORSDOF 2
ENDMDL
MODEL       86
REMARK 921   NORMALIZED FREE ENERGY PREDICTED BY IDOCK:   -4.78 KCAL/MOL
REMARK 922        TOTAL FREE ENERGY PREDICTED BY IDOCK:   -5.96 KCAL/MOL
REMARK 923 INTER-LIGAND FREE ENERGY PREDICTED BY IDOCK:   -5.30 KCAL/MOL
REMARK 924 INTRA-LIGAND FREE ENERGY PREDICTED BY IDOCK:   -0.66 KCAL/MOL
REMARK 927      BINDING AFFINITY PREDICTED BY RF-SCORE:    0.00 PKD
ROOT
HETATM    1  C   UNL     1     -11.099   6.545  68.354  1.00  0.00    -0.340 C  
HETATM    2  C   UNL     1     -10.485   7.473  69.367  1.00  0.00    -0.222 A  
HETATM    3  C   UNL     1     -10.055   7.016  70.629  1.00  0.00    -0.191 A  
HETATM    4 CL   UNL     1     -10.428   5.429  71.209  1.00  0.00    -0.299 Cl 
HETATM    5  C   UNL     1      -9.342   7.848  71.498  1.00  0.00    -0.179 A  
HETATM    6  C   UNL     1      -9.019   9.140  71.114  1.00  0.00    -0.249 A  
HETATM    7  C   UNL     1      -9.514   9.629  69.910  1.00  0.00    -0.260 A  
HETATM    8  C   UNL     1     -10.335   8.844  69.076  1.00  0.00    -0.212 A  
ENDROOT
BRANCH   8   9
HETATM    9  N   UNL     1     -11.037   9.447  67.986  1.00  0.00    -0.513 NA 
HETATM   10  H   UNL     1     -12.041   9.600  68.091  1.00  0.00     0.000 HD 
BRANCH   9  11
HETATM   11  C   UNL     1     -10.427   9.848  66.763  1.00  0.00    -0.191 A  
HETATM   12  C   UNL     1      -9.454   9.026  66.162  1.00  0.00    -0.318 A  
HETATM   13  C   UNL     1      -8.975   9.278  64.876  1.00  0.00    -0.229 A  
HETATM   14  C   UNL     1      -9.440  10.385  64.173  1.00  0.00    -0.353 A  
HETATM   15  C   UNL     1     -10.302  11.283  64.795  1.00  0.00    -0.366 A  
HETATM   16  C   UNL     1     -10.756  11.043  66.103  1.00  0.00    -0.257 A  
HETATM   17  C   UNL     1     -11.559  12.106  66.744  1.00  0.00    -0.345 C  
HETATM   18  O   UNL     1     -12.394  12.767  66.156  1.00  0.00    -0.542 OA 
HETATM   19  O   UNL     1     -11.216  12.305  68.035  1.00  0.00    -0.233 OA 
ENDBRANCH   9  11
ENDBRANCH   8   9
TORSDOF 2
ENDMDL
MODEL       87
REMARK 921   NORMALIZED FREE ENERGY PREDICTED BY IDOCK:   -4.76 KCAL/MOL
REMARK 922        TOTAL FREE ENERGY PREDICTED BY IDOCK:   -5.94 KCAL/MOL
REMARK 923 INTER-LIGAND FREE ENERGY PREDICTED BY IDOCK:   -5.30 KCAL/MOL
REMARK 924 INTRA-LIGAND FREE ENERGY PREDICTED BY IDOCK:   -0.64 KCAL/MOL
REMARK 927      BINDING AFFINITY PREDICTED BY RF-SCORE:    0.00 PKD
ROOT
HETATM    1  C   UNL     1      -7.772  10.145  68.187  1.00  0.00    -0.088 C  
HETATM    2  C   UNL     1      -9.172  10.517  68.592  1.00  0.00    -0.172 A  
HETATM    3  C   UNL     1      -9.882   9.789  69.568  1.00  0.00    -0.214 A  
HETATM    4 CL   UNL     1      -9.310   8.276  70.184  1.00  0.00    -0.158 Cl 
HETATM    5  C   UNL     1     -11.115  10.236  70.053  1.00  0.00    -0.373 A  
HETATM    6  C   UNL     1     -11.650  11.429  69.596  1.00  0.00    -0.399 A  
HETATM    7  C   UNL     1     -11.002  12.110  68.571  1.00  0.00    -0.276 A  
HETATM    8  C   UNL     1      -9.820  11.612  67.987  1.00  0.00    -0.190 A  
ENDROOT
BRANCH   8   9
HETATM    9  N   UNL     1      -9.322  12.184  66.773  1.00  0.00    -0.206 NA 
HETATM   10  H   UNL     1      -8.336  12.444  66.739  1.00  0.00     0.000 HD 
BRANCH   9  11
HETATM   11  C   UNL     1     -10.113  12.415  65.612  1.00  0.00    -0.257 A  
HETATM   12  C   UNL     1     -10.381  11.355  64.724  1.00  0.00    -0.349 A  
HETATM   13  C   UNL     1     -11.306  11.485  63.687  1.00  0.00    -0.412 A  
HETATM   14  C   UNL     1     -11.962  12.697  63.496  1.00  0.00    -0.630 A  
HETATM   15  C   UNL     1     -11.618  13.795  64.279  1.00  0.00    -0.395 A  
HETATM   16  C   UNL     1     -10.662  13.670  65.300  1.00  0.00    -0.340 A  
HETATM   17  C   UNL     1     -10.252  14.907  65.998  1.00  0.00    -0.301 C  
HETATM   18  O   UNL     1     -11.023  15.801  66.291  1.00  0.00    -0.277 OA 
HETATM   19  O   UNL     1      -8.920  14.963  66.211  1.00  0.00    -0.258 OA 
ENDBRANCH   9  11
ENDBRANCH   8   9
TORSDOF 2
ENDMDL
MODEL       88
REMARK 921   NORMALIZED FREE ENERGY PREDICTED BY IDOCK:   -4.75 KCAL/MOL
REMARK 922        TOTAL FREE ENERGY PREDICTED BY IDOCK:   -5.93 KCAL/MOL
REMARK 923 INTER-LIGAND FREE ENERGY PREDICTED BY IDOCK:   -5.35 KCAL/MOL
REMARK 924 INTRA-LIGAND FREE ENERGY PREDICTED BY IDOCK:   -0.58 KCAL/MOL
REMARK 927      BINDING AFFINITY PREDICTED BY RF-SCORE:    0.00 PKD
ROOT
HETATM    1  C   UNL     1      -9.989  11.322  69.127  1.00  0.00    -0.058 C  
HETATM    2  C   UNL     1     -10.026   9.929  68.560  1.00  0.00    -0.175 A  
HETATM    3  C   UNL     1     -10.056   8.788  69.388  1.00  0.00    -0.203 A  
HETATM    4 CL   UNL     1      -9.796   8.886  71.097  1.00  0.00    -0.316 Cl 
HETATM    5  C   UNL     1     -10.253   7.510  68.857  1.00  0.00    -0.214 A  
HETATM    6  C   UNL     1     -10.450   7.346  67.495  1.00  0.00    -0.338 A  
HETATM    7  C   UNL     1     -10.334   8.452  66.660  1.00  0.00    -0.298 A  
HETATM    8  C   UNL     1     -10.018   9.729  67.165  1.00  0.00    -0.198 A  
ENDROOT
BRANCH   8   9
HETATM    9  N   UNL     1      -9.650  10.784  66.271  1.00  0.00    -0.189 NA 
HETATM   10  H   UNL     1      -8.663  11.034  66.211  1.00  0.00     0.000 HD 
BRANCH   9  11
HETATM   11  C   UNL     1     -10.572  11.507  65.462  1.00  0.00    -0.281 A  
HETATM   12  C   UNL     1     -11.708  12.098  66.050  1.00  0.00    -0.388 A  
HETATM   13  C   UNL     1     -12.527  12.975  65.338  1.00  0.00    -0.531 A  
HETATM   14  C   UNL     1     -12.245  13.254  64.005  1.00  0.00    -0.475 A  
HETATM   15  C   UNL     1     -11.207  12.582  63.367  1.00  0.00    -0.460 A  
HETATM   16  C   UNL     1     -10.404  11.674  64.078  1.00  0.00    -0.405 A  
HETATM   17  C   UNL     1      -9.410  10.901  63.303  1.00  0.00    -0.309 C  
HETATM   18  O   UNL     1      -8.758  11.368  62.389  1.00  0.00    -0.300 OA 
HETATM   19  O   UNL     1      -9.358   9.605  63.678  1.00  0.00    -0.211 OA 
ENDBRANCH   9  11
ENDBRANCH   8   9
TORSDOF 2
ENDMDL
MODEL       89
REMARK 921   NORMALIZED FREE ENERGY PREDICTED BY IDOCK:   -4.74 KCAL/MOL
REMARK 922        TOTAL FREE ENERGY PREDICTED BY IDOCK:   -5.91 KCAL/MOL
REMARK 923 INTER-LIGAND FREE ENERGY PREDICTED BY IDOCK:   -5.44 KCAL/MOL
REMARK 924 INTRA-LIGAND FREE ENERGY PREDICTED BY IDOCK:   -0.47 KCAL/MOL
REMARK 927      BINDING AFFINITY PREDICTED BY RF-SCORE:    0.00 PKD
ROOT
HETATM    1  C   UNL     1     -10.777  15.983  64.851  1.00  0.00    -0.339 C  
HETATM    2  C   UNL     1     -11.247  14.800  65.653  1.00  0.00    -0.343 A  
HETATM    3  C   UNL     1     -11.803  13.659  65.039  1.00  0.00    -0.360 A  
HETATM    4 CL   UNL     1     -12.223  13.631  63.360  1.00  0.00    -0.406 Cl 
HETATM    5  C   UNL     1     -12.086  12.504  65.774  1.00  0.00    -0.443 A  
HETATM    6  C   UNL     1     -11.796  12.454  67.128  1.00  0.00    -0.361 A  
HETATM    7  C   UNL     1     -11.330  13.602  67.761  1.00  0.00    -0.336 A  
HETATM    8  C   UNL     1     -11.152  14.810  67.059  1.00  0.00    -0.333 A  
ENDROOT
BRANCH   8   9
HETATM    9  N   UNL     1     -10.927  16.029  67.773  1.00  0.00    -0.326 NA 
HETATM   10  H   UNL     1     -11.719  16.658  67.905  1.00  0.00     0.000 HD 
BRANCH   9  11
HETATM   11  C   UNL     1      -9.668  16.422  68.311  1.00  0.00    -0.224 A  
HETATM   12  C   UNL     1      -8.929  15.519  69.100  1.00  0.00    -0.256 A  
HETATM   13  C   UNL     1      -7.614  15.785  69.481  1.00  0.00    -0.177 A  
HETATM   14  C   UNL     1      -7.018  16.985  69.106  1.00  0.00    -0.228 A  
HETATM   15  C   UNL     1      -7.769  17.948  68.439  1.00  0.00    -0.292 A  
HETATM   16  C   UNL     1      -9.104  17.689  68.086  1.00  0.00    -0.276 A  
HETATM   17  C   UNL     1      -9.878  18.805  67.502  1.00  0.00    -0.320 C  
HETATM   18  O   UNL     1      -9.412  19.606  66.713  1.00  0.00    -0.326 OA 
HETATM   19  O   UNL     1     -11.133  18.877  67.993  1.00  0.00    -0.097 OA 
ENDBRANCH   9  11
ENDBRANCH   8   9
TORSDOF 2
ENDMDL
MODEL       90
REMARK 921   NORMALIZED FREE ENERGY PREDICTED BY IDOCK:   -4.74 KCAL/MOL
REMARK 922        TOTAL FREE ENERGY PREDICTED BY IDOCK:   -5.91 KCAL/MOL
REMARK 923 INTER-LIGAND FREE ENERGY PREDICTED BY IDOCK:   -5.24 KCAL/MOL
REMARK 924 INTRA-LIGAND FREE ENERGY PREDICTED BY IDOCK:   -0.67 KCAL/MOL
REMARK 927      BINDING AFFINITY PREDICTED BY RF-SCORE:    0.00 PKD
ROOT
HETATM    1  C   UNL     1     -12.860  11.537  71.114  1.00  0.00    -0.414 C  
HETATM    2  C   UNL     1     -12.086  10.289  70.785  1.00  0.00    -0.451 A  
HETATM    3  C   UNL     1     -12.406   9.042  71.359  1.00  0.00    -0.318 A  
HETATM    4 CL   UNL     1     -13.532   8.893  72.665  1.00  0.00    -0.453 Cl 
HETATM    5  C   UNL     1     -11.789   7.864  70.928  1.00  0.00    -0.242 A  
HETATM    6  C   UNL     1     -10.862   7.902  69.899  1.00  0.00    -0.221 A  
HETATM    7  C   UNL     1     -10.474   9.135  69.386  1.00  0.00    -0.226 A  
HETATM    8  C   UNL     1     -10.998  10.342  69.891  1.00  0.00    -0.303 A  
ENDROOT
BRANCH   8   9
HETATM    9  N   UNL     1     -10.397  11.591  69.534  1.00  0.00    -0.419 NA 
HETATM   10  H   UNL     1      -9.860  12.082  70.248  1.00  0.00     0.000 HD 
BRANCH   9  11
HETATM   11  C   UNL     1     -10.502  12.191  68.248  1.00  0.00    -0.213 A  
HETATM   12  C   UNL     1     -11.719  12.130  67.541  1.00  0.00    -0.385 A  
HETATM   13  C   UNL     1     -11.927  12.866  66.375  1.00  0.00    -0.462 A  
HETATM   14  C   UNL     1     -10.902  13.659  65.869  1.00  0.00    -0.276 A  
HETATM   15  C   UNL     1      -9.651  13.635  66.476  1.00  0.00    -0.294 A  
HETATM   16  C   UNL     1      -9.435  12.866  67.631  1.00  0.00    -0.197 A  
HETATM   17  C   UNL     1      -8.049  12.784  68.140  1.00  0.00    -0.158 C  
HETATM   18  O   UNL     1      -7.278  13.725  68.147  1.00  0.00    -0.094 OA 
HETATM   19  O   UNL     1      -7.716  11.536  68.531  1.00  0.00    -0.120 OA 
ENDBRANCH   9  11
ENDBRANCH   8   9
TORSDOF 2
ENDMDL
MODEL       91
REMARK 921   NORMALIZED FREE ENERGY PREDICTED BY IDOCK:   -4.71 KCAL/MOL
REMARK 922        TOTAL FREE ENERGY PREDICTED BY IDOCK:   -5.88 KCAL/MOL
REMARK 923 INTER-LIGAND FREE ENERGY PREDICTED BY IDOCK:   -5.20 KCAL/MOL
REMARK 924 INTRA-LIGAND FREE ENERGY PREDICTED BY IDOCK:   -0.68 KCAL/MOL
REMARK 927      BINDING AFFINITY PREDICTED BY RF-SCORE:    0.00 PKD
ROOT
HETATM    1  C   UNL     1     -10.836   7.190  69.528  1.00  0.00    -0.244 C  
HETATM    2  C   UNL     1      -9.748   8.197  69.268  1.00  0.00    -0.170 A  
HETATM    3  C   UNL     1      -8.405   7.947  69.614  1.00  0.00    -0.131 A  
HETATM    4 CL   UNL     1      -7.942   6.592  70.587  1.00  0.00    -0.109 Cl 
HETATM    5  C   UNL     1      -7.381   8.815  69.224  1.00  0.00    -0.070 A  
HETATM    6  C   UNL     1      -7.672   9.933  68.458  1.00  0.00    -0.081 A  
HETATM    7  C   UNL     1      -9.002  10.236  68.186  1.00  0.00    -0.130 A  
HETATM    8  C   UNL     1     -10.055   9.437  68.673  1.00  0.00    -0.190 A  
ENDROOT
BRANCH   8   9
HETATM    9  N   UNL     1     -11.405   9.907  68.604  1.00  0.00    -0.498 NA 
HETATM   10  H   UNL     1     -11.997   9.548  67.856  1.00  0.00     0.000 HD 
BRANCH   9  11
HETATM   11  C   UNL     1     -11.974  10.845  69.512  1.00  0.00    -0.330 A  
HETATM   12  C   UNL     1     -12.635  10.388  70.670  1.00  0.00    -0.435 A  
HETATM   13  C   UNL     1     -13.033  11.264  71.680  1.00  0.00    -0.537 A  
HETATM   14  C   UNL     1     -12.806  12.629  71.536  1.00  0.00    -0.368 A  
HETATM   15  C   UNL     1     -12.273  13.117  70.347  1.00  0.00    -0.389 A  
HETATM   16  C   UNL     1     -11.905  12.234  69.318  1.00  0.00    -0.363 A  
HETATM   17  C   UNL     1     -11.474  12.832  68.037  1.00  0.00    -0.318 C  
HETATM   18  O   UNL     1     -10.786  13.833  67.958  1.00  0.00    -0.241 OA 
HETATM   19  O   UNL     1     -11.983  12.184  66.967  1.00  0.00    -0.593 OA 
ENDBRANCH   9  11
ENDBRANCH   8   9
TORSDOF 2
ENDMDL
MODEL       92
REMARK 921   NORMALIZED FREE ENERGY PREDICTED BY IDOCK:   -4.69 KCAL/MOL
REMARK 922        TOTAL FREE ENERGY PREDICTED BY IDOCK:   -5.86 KCAL/MOL
REMARK 923 INTER-LIGAND FREE ENERGY PREDICTED BY IDOCK:   -5.39 KCAL/MOL
REMARK 924 INTRA-LIGAND FREE ENERGY PREDICTED BY IDOCK:   -0.47 KCAL/MOL
REMARK 927      BINDING AFFINITY PREDICTED BY RF-SCORE:    0.00 PKD
ROOT
HETATM    1  C   UNL     1     -11.642  12.820  67.769  1.00  0.00    -0.405 C  
HETATM    2  C   UNL     1     -10.534  11.888  67.360  1.00  0.00    -0.242 A  
HETATM    3  C   UNL     1     -10.175  10.771  68.142  1.00  0.00    -0.172 A  
HETATM    4 CL   UNL     1     -10.793  10.531  69.740  1.00  0.00    -0.316 Cl 
HETATM    5  C   UNL     1      -9.259   9.823  67.676  1.00  0.00    -0.143 A  
HETATM    6  C   UNL     1      -8.704   9.955  66.414  1.00  0.00    -0.144 A  
HETATM    7  C   UNL     1      -8.983  11.096  65.670  1.00  0.00    -0.195 A  
HETATM    8  C   UNL     1      -9.810  12.120  66.173  1.00  0.00    -0.237 A  
ENDROOT
BRANCH   8   9
HETATM    9  N   UNL     1      -9.871  13.386  65.509  1.00  0.00    -0.485 NA 
HETATM   10  H   UNL     1     -10.294  13.418  64.581  1.00  0.00     0.000 HD 
BRANCH   9  11
HETATM   11  C   UNL     1      -9.379  14.603  66.059  1.00  0.00    -0.181 A  
HETATM   12  C   UNL     1      -8.328  14.576  66.997  1.00  0.00    -0.195 A  
HETATM   13  C   UNL     1      -7.685  15.743  67.412  1.00  0.00    -0.211 A  
HETATM   14  C   UNL     1      -8.106  16.973  66.919  1.00  0.00    -0.252 A  
HETATM   15  C   UNL     1      -9.225  17.037  66.093  1.00  0.00    -0.244 A  
HETATM   16  C   UNL     1      -9.890  15.863  65.704  1.00  0.00    -0.337 A  
HETATM   17  C   UNL     1     -11.146  16.019  64.940  1.00  0.00    -0.370 C  
HETATM   18  O   UNL     1     -11.310  16.864  64.080  1.00  0.00    -1.208 OA 
HETATM   19  O   UNL     1     -12.109  15.165  65.348  1.00  0.00    -0.056 OA 
ENDBRANCH   9  11
ENDBRANCH   8   9
TORSDOF 2
ENDMDL
MODEL       93
REMARK 921   NORMALIZED FREE ENERGY PREDICTED BY IDOCK:   -4.69 KCAL/MOL
REMARK 922        TOTAL FREE ENERGY PREDICTED BY IDOCK:   -5.86 KCAL/MOL
REMARK 923 INTER-LIGAND FREE ENERGY PREDICTED BY IDOCK:   -5.21 KCAL/MOL
REMARK 924 INTRA-LIGAND FREE ENERGY PREDICTED BY IDOCK:   -0.65 KCAL/MOL
REMARK 927      BINDING AFFINITY PREDICTED BY RF-SCORE:    0.00 PKD
ROOT
HETATM    1  C   UNL     1      -7.986   8.653  69.763  1.00  0.00    -0.095 C  
HETATM    2  C   UNL     1      -8.598   9.025  68.440  1.00  0.00    -0.130 A  
HETATM    3  C   UNL     1      -8.083   8.541  67.220  1.00  0.00    -0.105 A  
HETATM    4 CL   UNL     1      -6.573   7.702  67.128  1.00  0.00    -0.061 Cl 
HETATM    5  C   UNL     1      -8.753   8.759  66.012  1.00  0.00    -0.193 A  
HETATM    6  C   UNL     1      -9.960   9.440  66.000  1.00  0.00    -0.352 A  
HETATM    7  C   UNL     1     -10.432   9.998  67.183  1.00  0.00    -0.305 A  
HETATM    8  C   UNL     1      -9.710   9.890  68.388  1.00  0.00    -0.149 A  
ENDROOT
BRANCH   8   9
HETATM    9  N   UNL     1     -10.078  10.684  69.520  1.00  0.00    -0.385 NA 
HETATM   10  H   UNL     1      -9.490  11.484  69.753  1.00  0.00     0.000 HD 
BRANCH   9  11
HETATM   11  C   UNL     1     -11.213  10.430  70.342  1.00  0.00    -0.321 A  
HETATM   12  C   UNL     1     -11.474   9.121  70.793  1.00  0.00    -0.337 A  
HETATM   13  C   UNL     1     -12.452   8.859  71.753  1.00  0.00    -0.425 A  
HETATM   14  C   UNL     1     -13.217   9.904  72.260  1.00  0.00    -0.434 A  
HETATM   15  C   UNL     1     -13.066  11.184  71.736  1.00  0.00    -0.536 A  
HETATM   16  C   UNL     1     -12.104  11.438  70.746  1.00  0.00    -0.433 A  
HETATM   17  C   UNL     1     -12.094  12.788  70.143  1.00  0.00    -0.298 C  
HETATM   18  O   UNL     1     -12.283  13.810  70.776  1.00  0.00    -0.344 OA 
HETATM   19  O   UNL     1     -11.921  12.756  68.804  1.00  0.00    -0.305 OA 
ENDBRANCH   9  11
ENDBRANCH   8   9
TORSDOF 2
ENDMDL
MODEL       94
REMARK 921   NORMALIZED FREE ENERGY PREDICTED BY IDOCK:   -4.67 KCAL/MOL
REMARK 922        TOTAL FREE ENERGY PREDICTED BY IDOCK:   -5.84 KCAL/MOL
REMARK 923 INTER-LIGAND FREE ENERGY PREDICTED BY IDOCK:   -5.19 KCAL/MOL
REMARK 924 INTRA-LIGAND FREE ENERGY PREDICTED BY IDOCK:   -0.65 KCAL/MOL
REMARK 927      BINDING AFFINITY PREDICTED BY RF-SCORE:    0.00 PKD
ROOT
HETATM    1  C   UNL     1     -12.766  10.506  70.690  1.00  0.00    -0.441 C  
HETATM    2  C   UNL     1     -11.327  10.462  70.254  1.00  0.00    -0.406 A  
HETATM    3  C   UNL     1     -10.375   9.655  70.910  1.00  0.00    -0.264 A  
HETATM    4 CL   UNL     1     -10.720   8.858  72.407  1.00  0.00    -0.228 Cl 
HETATM    5  C   UNL     1      -9.083   9.497  70.400  1.00  0.00    -0.296 A  
HETATM    6  C   UNL     1      -8.722  10.117  69.215  1.00  0.00    -0.186 A  
HETATM    7  C   UNL     1      -9.623  10.985  68.607  1.00  0.00    -0.198 A  
HETATM    8  C   UNL     1     -10.887  11.250  69.171  1.00  0.00    -0.222 A  
ENDROOT
BRANCH   8   9
HETATM    9  N   UNL     1     -11.682  12.331  68.676  1.00  0.00    -0.313 NA 
HETATM   10  H   UNL     1     -12.628  12.121  68.358  1.00  0.00     0.000 HD 
BRANCH   9  11
HETATM   11  C   UNL     1     -11.238  13.682  68.597  1.00  0.00    -0.277 A  
HETATM   12  C   UNL     1     -11.302  14.509  69.736  1.00  0.00    -0.305 A  
HETATM   13  C   UNL     1     -10.702  15.768  69.761  1.00  0.00    -0.317 A  
HETATM   14  C   UNL     1     -10.048  16.243  68.628  1.00  0.00    -0.233 A  
HETATM   15  C   UNL     1     -10.083  15.500  67.452  1.00  0.00    -0.246 A  
HETATM   16  C   UNL     1     -10.718  14.247  67.421  1.00  0.00    -0.282 A  
HETATM   17  C   UNL     1     -10.832  13.579  66.107  1.00  0.00    -0.281 C  
HETATM   18  O   UNL     1      -9.953  13.593  65.266  1.00  0.00    -0.283 OA 
HETATM   19  O   UNL     1     -12.043  13.013  65.918  1.00  0.00    -0.412 OA 
ENDBRANCH   9  11
ENDBRANCH   8   9
TORSDOF 2
ENDMDL
MODEL       95
REMARK 921   NORMALIZED FREE ENERGY PREDICTED BY IDOCK:   -4.67 KCAL/MOL
REMARK 922        TOTAL FREE ENERGY PREDICTED BY IDOCK:   -5.83 KCAL/MOL
REMARK 923 INTER-LIGAND FREE ENERGY PREDICTED BY IDOCK:   -5.86 KCAL/MOL
REMARK 924 INTRA-LIGAND FREE ENERGY PREDICTED BY IDOCK:    0.03 KCAL/MOL
REMARK 927      BINDING AFFINITY PREDICTED BY RF-SCORE:    0.00 PKD
ROOT
HETATM    1  C   UNL     1     -11.579  14.759  69.379  1.00  0.00    -0.342 C  
HETATM    2  C   UNL     1     -12.198  13.813  70.372  1.00  0.00    -0.433 A  
HETATM    3  C   UNL     1     -13.014  14.271  71.427  1.00  0.00    -0.341 A  
HETATM    4 CL   UNL     1     -13.159  15.951  71.815  1.00  0.00    -0.469 Cl 
HETATM    5  C   UNL     1     -13.713  13.377  72.244  1.00  0.00    -0.705 A  
HETATM    6  C   UNL     1     -13.634  12.014  72.010  1.00  0.00    -0.230 A  
HETATM    7  C   UNL     1     -12.765  11.547  71.030  1.00  0.00    -0.426 A  
HETATM    8  C   UNL     1     -11.962  12.427  70.276  1.00  0.00    -0.289 A  
ENDROOT
BRANCH   8   9
HETATM    9  N   UNL     1     -10.898  11.914  69.469  1.00  0.00    -0.460 NA 
HETATM   10  H   UNL     1     -10.281  12.586  69.011  1.00  0.00     0.000 HD 
BRANCH   9  11
HETATM   11  C   UNL     1     -10.644  10.529  69.262  1.00  0.00    -0.236 A  
HETATM   12  C   UNL     1     -10.609   9.650  70.362  1.00  0.00    -0.354 A  
HETATM   13  C   UNL     1     -10.561   8.266  70.193  1.00  0.00    -0.233 A  
HETATM   14  C   UNL     1     -10.513   7.730  68.910  1.00  0.00    -0.208 A  
HETATM   15  C   UNL     1     -10.415   8.580  67.813  1.00  0.00    -0.287 A  
HETATM   16  C   UNL     1     -10.430   9.974  67.989  1.00  0.00    -0.260 A  
HETATM   17  C   UNL     1     -10.187  10.809  66.794  1.00  0.00    -0.230 C  
HETATM   18  O   UNL     1     -10.628  10.550  65.690  1.00  0.00    -0.177 OA 
HETATM   19  O   UNL     1      -9.366  11.851  67.050  1.00  0.00    -0.179 OA 
ENDBRANCH   9  11
ENDBRANCH   8   9
TORSDOF 2
ENDMDL
MODEL       96
REMARK 921   NORMALIZED FREE ENERGY PREDICTED BY IDOCK:   -4.66 KCAL/MOL
REMARK 922        TOTAL FREE ENERGY PREDICTED BY IDOCK:   -5.83 KCAL/MOL
REMARK 923 INTER-LIGAND FREE ENERGY PREDICTED BY IDOCK:   -5.16 KCAL/MOL
REMARK 924 INTRA-LIGAND FREE ENERGY PREDICTED BY IDOCK:   -0.67 KCAL/MOL
REMARK 927      BINDING AFFINITY PREDICTED BY RF-SCORE:    0.00 PKD
ROOT
HETATM    1  C   UNL     1      -9.502  15.144  67.143  1.00  0.00    -0.224 C  
HETATM    2  C   UNL     1     -10.639  14.462  66.433  1.00  0.00    -0.297 A  
HETATM    3  C   UNL     1     -11.254  15.029  65.298  1.00  0.00    -0.367 A  
HETATM    4 CL   UNL     1     -10.931  16.652  64.791  1.00  0.00    -0.274 Cl 
HETATM    5  C   UNL     1     -12.197  14.317  64.551  1.00  0.00    -0.476 A  
HETATM    6  C   UNL     1     -12.525  13.017  64.904  1.00  0.00    -0.512 A  
HETATM    7  C   UNL     1     -11.991  12.480  66.071  1.00  0.00    -0.456 A  
HETATM    8  C   UNL     1     -11.131  13.227  66.900  1.00  0.00    -0.289 A  
ENDROOT
BRANCH   8   9
HETATM    9  N   UNL     1     -10.809  12.754  68.212  1.00  0.00    -0.238 NA 
HETATM   10  H   UNL     1     -11.226  13.235  69.008  1.00  0.00     0.000 HD 
BRANCH   9  11
HETATM   11  C   UNL     1      -9.942  11.656  68.476  1.00  0.00    -0.194 A  
HETATM   12  C   UNL     1      -8.741  11.519  67.751  1.00  0.00    -0.142 A  
HETATM   13  C   UNL     1      -7.774  10.579  68.108  1.00  0.00    -0.096 A  
HETATM   14  C   UNL     1      -8.003   9.729  69.184  1.00  0.00    -0.104 A  
HETATM   15  C   UNL     1      -9.234   9.758  69.834  1.00  0.00    -0.263 A  
HETATM   16  C   UNL     1     -10.219  10.683  69.450  1.00  0.00    -0.218 A  
HETATM   17  C   UNL     1     -11.545  10.564  70.093  1.00  0.00    -0.326 C  
HETATM   18  O   UNL     1     -11.701  10.290  71.268  1.00  0.00    -0.354 OA 
HETATM   19  O   UNL     1     -12.560  10.724  69.217  1.00  0.00    -0.324 OA 
ENDBRANCH   9  11
ENDBRANCH   8   9
TORSDOF 2
ENDMDL
MODEL       97
REMARK 921   NORMALIZED FREE ENERGY PREDICTED BY IDOCK:   -4.62 KCAL/MOL
REMARK 922        TOTAL FREE ENERGY PREDICTED BY IDOCK:   -5.79 KCAL/MOL
REMARK 923 INTER-LIGAND FREE ENERGY PREDICTED BY IDOCK:   -5.10 KCAL/MOL
REMARK 924 INTRA-LIGAND FREE ENERGY PREDICTED BY IDOCK:   -0.68 KCAL/MOL
REMARK 927      BINDING AFFINITY PREDICTED BY RF-SCORE:    0.00 PKD
ROOT
HETATM    1  C   UNL     1      -8.088  12.772  67.316  1.00  0.00    -0.172 C  
HETATM    2  C   UNL     1      -9.499  13.278  67.445  1.00  0.00    -0.218 A  
HETATM    3  C   UNL     1      -9.905  14.502  66.874  1.00  0.00    -0.262 A  
HETATM    4 CL   UNL     1      -8.772  15.629  66.211  1.00  0.00    -0.356 Cl 
HETATM    5  C   UNL     1     -11.250  14.885  66.860  1.00  0.00    -0.343 A  
HETATM    6  C   UNL     1     -12.217  14.045  67.389  1.00  0.00    -0.289 A  
HETATM    7  C   UNL     1     -11.819  12.878  68.032  1.00  0.00    -0.390 A  
HETATM    8  C   UNL     1     -10.458  12.535  68.161  1.00  0.00    -0.229 A  
ENDROOT
BRANCH   8   9
HETATM    9  N   UNL     1     -10.064  11.480  69.043  1.00  0.00    -0.395 NA 
HETATM   10  H   UNL     1      -9.566  11.733  69.896  1.00  0.00     0.000 HD 
BRANCH   9  11
HETATM   11  C   UNL     1     -10.323  10.099  68.807  1.00  0.00    -0.194 A  
HETATM   12  C   UNL     1     -10.073   9.546  67.536  1.00  0.00    -0.257 A  
HETATM   13  C   UNL     1     -10.123   8.170  67.314  1.00  0.00    -0.309 A  
HETATM   14  C   UNL     1     -10.460   7.315  68.358  1.00  0.00    -0.228 A  
HETATM   15  C   UNL     1     -10.837   7.847  69.588  1.00  0.00    -0.177 A  
HETATM   16  C   UNL     1     -10.818   9.236  69.798  1.00  0.00    -0.239 A  
HETATM   17  C   UNL     1     -11.360   9.733  71.080  1.00  0.00    -0.389 C  
HETATM   18  O   UNL     1     -11.186   9.173  72.147  1.00  0.00    -0.326 OA 
HETATM   19  O   UNL     1     -12.123  10.835  70.926  1.00  0.00    -0.331 OA 
ENDBRANCH   9  11
ENDBRANCH   8   9
TORSDOF 2
ENDMDL
MODEL       98
REMARK 921   NORMALIZED FREE ENERGY PREDICTED BY IDOCK:   -4.61 KCAL/MOL
REMARK 922        TOTAL FREE ENERGY PREDICTED BY IDOCK:   -5.76 KCAL/MOL
REMARK 923 INTER-LIGAND FREE ENERGY PREDICTED BY IDOCK:   -5.28 KCAL/MOL
REMARK 924 INTRA-LIGAND FREE ENERGY PREDICTED BY IDOCK:   -0.49 KCAL/MOL
REMARK 927      BINDING AFFINITY PREDICTED BY RF-SCORE:    0.00 PKD
ROOT
HETATM    1  C   UNL     1     -10.626  13.243  68.804  1.00  0.00    -0.224 C  
HETATM    2  C   UNL     1     -10.219  14.522  68.125  1.00  0.00    -0.230 A  
HETATM    3  C   UNL     1     -10.565  15.785  68.649  1.00  0.00    -0.250 A  
HETATM    4 CL   UNL     1     -11.687  15.963  69.954  1.00  0.00    -0.336 Cl 
HETATM    5  C   UNL     1     -10.048  16.963  68.102  1.00  0.00    -0.299 A  
HETATM    6  C   UNL     1      -9.157  16.906  67.043  1.00  0.00    -0.240 A  
HETATM    7  C   UNL     1      -8.878  15.673  66.462  1.00  0.00    -0.345 A  
HETATM    8  C   UNL     1      -9.483  14.487  66.923  1.00  0.00    -0.252 A  
ENDROOT
BRANCH   8   9
HETATM    9  N   UNL     1      -9.386  13.285  66.154  1.00  0.00    -0.468 NA 
HETATM   10  H   UNL     1      -8.532  12.733  66.238  1.00  0.00     0.000 HD 
BRANCH   9  11
HETATM   11  C   UNL     1     -10.403  12.810  65.278  1.00  0.00    -0.296 A  
HETATM   12  C   UNL     1     -11.620  13.510  65.170  1.00  0.00    -0.333 A  
HETATM   13  C   UNL     1     -12.560  13.198  64.188  1.00  0.00    -0.261 A  
HETATM   14  C   UNL     1     -12.315  12.149  63.308  1.00  0.00    -0.547 A  
HETATM   15  C   UNL     1     -11.181  11.360  63.478  1.00  0.00    -0.322 A  
HETATM   16  C   UNL     1     -10.253  11.657  64.489  1.00  0.00    -0.337 A  
HETATM   17  C   UNL     1      -9.146  10.698  64.694  1.00  0.00    -0.211 C  
HETATM   18  O   UNL     1      -8.567  10.135  63.784  1.00  0.00    -0.171 OA 
HETATM   19  O   UNL     1      -8.897  10.467  66.000  1.00  0.00    -0.155 OA 
ENDBRANCH   9  11
ENDBRANCH   8   9
TORSDOF 2
ENDMDL
MODEL       99
REMARK 921   NORMALIZED FREE ENERGY PREDICTED BY IDOCK:   -4.60 KCAL/MOL
REMARK 922        TOTAL FREE ENERGY PREDICTED BY IDOCK:   -5.76 KCAL/MOL
REMARK 923 INTER-LIGAND FREE ENERGY PREDICTED BY IDOCK:   -5.22 KCAL/MOL
REMARK 924 INTRA-LIGAND FREE ENERGY PREDICTED BY IDOCK:   -0.54 KCAL/MOL
REMARK 927      BINDING AFFINITY PREDICTED BY RF-SCORE:    0.00 PKD
ROOT
HETATM    1  C   UNL     1     -11.396  12.022  66.037  1.00  0.00    -0.398 C  
HETATM    2  C   UNL     1     -10.119  11.785  66.796  1.00  0.00    -0.235 A  
HETATM    3  C   UNL     1      -9.204  10.781  66.418  1.00  0.00    -0.170 A  
HETATM    4 CL   UNL     1      -9.589   9.589  65.225  1.00  0.00    -0.349 Cl 
HETATM    5  C   UNL     1      -7.950  10.675  67.027  1.00  0.00    -0.121 A  
HETATM    6  C   UNL     1      -7.574  11.582  68.006  1.00  0.00    -0.112 A  
HETATM    7  C   UNL     1      -8.501  12.519  68.448  1.00  0.00    -0.125 A  
HETATM    8  C   UNL     1      -9.810  12.564  67.929  1.00  0.00    -0.207 A  
ENDROOT
BRANCH   8   9
HETATM    9  N   UNL     1     -10.813  13.353  68.576  1.00  0.00    -0.257 NA 
HETATM   10  H   UNL     1     -10.946  14.312  68.254  1.00  0.00     0.000 HD 
BRANCH   9  11
HETATM   11  C   UNL     1     -11.636  12.887  69.641  1.00  0.00    -0.248 A  
HETATM   12  C   UNL     1     -11.962  11.520  69.729  1.00  0.00    -0.415 A  
HETATM   13  C   UNL     1     -12.595  10.989  70.853  1.00  0.00    -0.488 A  
HETATM   14  C   UNL     1     -12.949  11.827  71.905  1.00  0.00    -0.435 A  
HETATM   15  C   UNL     1     -12.755  13.200  71.785  1.00  0.00    -0.270 A  
HETATM   16  C   UNL     1     -12.147  13.735  70.637  1.00  0.00    -0.405 A  
HETATM   17  C   UNL     1     -12.098  15.208  70.523  1.00  0.00    -0.343 C  
HETATM   18  O   UNL     1     -11.880  15.949  71.463  1.00  0.00    -0.391 OA 
HETATM   19  O   UNL     1     -12.388  15.640  69.277  1.00  0.00    -0.246 OA 
ENDBRANCH   9  11
ENDBRANCH   8   9
TORSDOF 2
ENDMDL
MODEL      100
REMARK 921   NORMALIZED FREE ENERGY PREDICTED BY IDOCK:   -4.59 KCAL/MOL
REMARK 922        TOTAL FREE ENERGY PREDICTED BY IDOCK:   -5.74 KCAL/MOL
REMARK 923 INTER-LIGAND FREE ENERGY PREDICTED BY IDOCK:   -5.03 KCAL/MOL
REMARK 924 INTRA-LIGAND FREE ENERGY PREDICTED BY IDOCK:   -0.72 KCAL/MOL
REMARK 927      BINDING AFFINITY PREDICTED BY RF-SCORE:    0.00 PKD
ROOT
HETATM    1  C   UNL     1      -7.352   7.103  65.307  1.00  0.00    -0.080 C  
HETATM    2  C   UNL     1      -8.701   6.871  65.932  1.00  0.00    -0.146 A  
HETATM    3  C   UNL     1      -9.347   5.620  65.864  1.00  0.00    -0.103 A  
HETATM    4 CL   UNL     1      -8.769   4.340  64.852  1.00  0.00    -0.125 Cl 
HETATM    5  C   UNL     1     -10.520   5.368  66.583  1.00  0.00    -0.356 A  
HETATM    6  C   UNL     1     -11.057   6.349  67.402  1.00  0.00    -0.412 A  
HETATM    7  C   UNL     1     -10.478   7.614  67.407  1.00  0.00    -0.367 A  
HETATM    8  C   UNL     1      -9.366   7.920  66.598  1.00  0.00    -0.193 A  
ENDROOT
BRANCH   8   9
HETATM    9  N   UNL     1      -8.957   9.280  66.425  1.00  0.00    -0.147 NA 
HETATM   10  H   UNL     1      -8.181   9.620  66.993  1.00  0.00     0.000 HD 
BRANCH   9  11
HETATM   11  C   UNL     1      -9.563  10.189  65.512  1.00  0.00    -0.250 A  
HETATM   12  C   UNL     1      -9.164  10.198  64.161  1.00  0.00    -0.314 A  
HETATM   13  C   UNL     1      -9.860  10.926  63.196  1.00  0.00    -0.392 A  
HETATM   14  C   UNL     1     -10.959  11.693  63.572  1.00  0.00    -0.485 A  
HETATM   15  C   UNL     1     -11.293  11.803  64.918  1.00  0.00    -0.299 A  
HETATM   16  C   UNL     1     -10.568  11.094  65.891  1.00  0.00    -0.294 A  
HETATM   17  C   UNL     1     -10.893  11.366  67.307  1.00  0.00    -0.263 C  
HETATM   18  O   UNL     1     -12.025  11.544  67.715  1.00  0.00    -0.623 OA 
HETATM   19  O   UNL     1      -9.792  11.461  68.082  1.00  0.00    -0.178 OA 
ENDBRANCH   9  11
ENDBRANCH   8   9
TORSDOF 2
ENDMDL
MODEL      101
REMARK 921   NORMALIZED FREE ENERGY PREDICTED BY IDOCK:   -4.58 KCAL/MOL
REMARK 922        TOTAL FREE ENERGY PREDICTED BY IDOCK:   -5.74 KCAL/MOL
REMARK 923 INTER-LIGAND FREE ENERGY PREDICTED BY IDOCK:   -5.25 KCAL/MOL
REMARK 924 INTRA-LIGAND FREE ENERGY PREDICTED BY IDOCK:   -0.49 KCAL/MOL
REMARK 927      BINDING AFFINITY PREDICTED BY RF-SCORE:    0.00 PKD
ROOT
HETATM    1  C   UNL     1     -10.849  11.391  69.080  1.00  0.00    -0.265 C  
HETATM    2  C   UNL     1     -11.554  10.732  70.234  1.00  0.00    -0.427 A  
HETATM    3  C   UNL     1     -12.481  11.429  71.036  1.00  0.00    -0.383 A  
HETATM    4 CL   UNL     1     -12.690  13.143  70.921  1.00  0.00    -0.354 Cl 
HETATM    5  C   UNL     1     -13.247  10.768  72.001  1.00  0.00    -0.466 A  
HETATM    6  C   UNL     1     -13.124   9.398  72.167  1.00  0.00    -0.526 A  
HETATM    7  C   UNL     1     -12.151   8.716  71.445  1.00  0.00    -0.351 A  
HETATM    8  C   UNL     1     -11.288   9.386  70.555  1.00  0.00    -0.274 A  
ENDROOT
BRANCH   8   9
HETATM    9  N   UNL     1     -10.138   8.716  70.028  1.00  0.00    -0.185 NA 
HETATM   10  H   UNL     1      -9.413   9.286  69.592  1.00  0.00     0.000 HD 
BRANCH   9  11
HETATM   11  C   UNL     1      -9.942   7.307  70.073  1.00  0.00    -0.184 A  
HETATM   12  C   UNL     1      -9.423   6.707  71.238  1.00  0.00    -0.166 A  
HETATM   13  C   UNL     1      -9.398   5.322  71.399  1.00  0.00    -0.184 A  
HETATM   14  C   UNL     1      -9.863   4.500  70.377  1.00  0.00    -0.302 A  
HETATM   15  C   UNL     1     -10.259   5.064  69.168  1.00  0.00    -0.227 A  
HETATM   16  C   UNL     1     -10.251   6.459  68.997  1.00  0.00    -0.216 A  
HETATM   17  C   UNL     1     -10.554   6.976  67.646  1.00  0.00    -0.257 C  
HETATM   18  O   UNL     1     -11.401   6.496  66.916  1.00  0.00    -0.330 OA 
HETATM   19  O   UNL     1      -9.740   7.992  67.287  1.00  0.00    -0.154 OA 
ENDBRANCH   9  11
ENDBRANCH   8   9
TORSDOF 2
ENDMDL
MODEL      102
REMARK 921   NORMALIZED FREE ENERGY PREDICTED BY IDOCK:   -4.58 KCAL/MOL
REMARK 922        TOTAL FREE ENERGY PREDICTED BY IDOCK:   -5.74 KCAL/MOL
REMARK 923 INTER-LIGAND FREE ENERGY PREDICTED BY IDOCK:   -5.12 KCAL/MOL
REMARK 924 INTRA-LIGAND FREE ENERGY PREDICTED BY IDOCK:   -0.62 KCAL/MOL
REMARK 927      BINDING AFFINITY PREDICTED BY RF-SCORE:    0.00 PKD
ROOT
HETATM    1  C   UNL     1      -9.740  10.000  64.730  1.00  0.00    -0.363 C  
HETATM    2  C   UNL     1      -8.858  10.689  65.735  1.00  0.00    -0.198 A  
HETATM    3  C   UNL     1      -7.485  10.392  65.847  1.00  0.00    -0.139 A  
HETATM    4 CL   UNL     1      -6.765   9.047  65.029  1.00  0.00    -0.069 Cl 
HETATM    5  C   UNL     1      -6.643  11.149  66.668  1.00  0.00    -0.137 A  
HETATM    6  C   UNL     1      -7.147  12.231  67.371  1.00  0.00    -0.151 A  
HETATM    7  C   UNL     1      -8.515  12.479  67.337  1.00  0.00    -0.181 A  
HETATM    8  C   UNL     1      -9.396  11.654  66.610  1.00  0.00    -0.194 A  
ENDROOT
BRANCH   8   9
HETATM    9  N   UNL     1     -10.810  11.770  66.799  1.00  0.00    -0.257 NA 
HETATM   10  H   UNL     1     -11.409  11.693  65.977  1.00  0.00     0.000 HD 
BRANCH   9  11
HETATM   11  C   UNL     1     -11.434  11.987  68.061  1.00  0.00    -0.328 A  
HETATM   12  C   UNL     1     -11.695  10.895  68.912  1.00  0.00    -0.376 A  
HETATM   13  C   UNL     1     -12.121  11.078  70.228  1.00  0.00    -0.448 A  
HETATM   14  C   UNL     1     -12.328  12.365  70.712  1.00  0.00    -0.377 A  
HETATM   15  C   UNL     1     -12.202  13.452  69.853  1.00  0.00    -0.337 A  
HETATM   16  C   UNL     1     -11.805  13.262  68.519  1.00  0.00    -0.384 A  
HETATM   17  C   UNL     1     -11.824  14.445  67.633  1.00  0.00    -0.378 C  
HETATM   18  O   UNL     1     -11.482  15.558  67.988  1.00  0.00    -0.342 OA 
HETATM   19  O   UNL     1     -12.326  14.168  66.410  1.00  0.00    -0.460 OA 
ENDBRANCH   9  11
ENDBRANCH   8   9
TORSDOF 2
ENDMDL
MODEL      103
REMARK 921   NORMALIZED FREE ENERGY PREDICTED BY IDOCK:   -4.58 KCAL/MOL
REMARK 922        TOTAL FREE ENERGY PREDICTED BY IDOCK:   -5.73 KCAL/MOL
REMARK 923 INTER-LIGAND FREE ENERGY PREDICTED BY IDOCK:   -5.19 KCAL/MOL
REMARK 924 INTRA-LIGAND FREE ENERGY PREDICTED BY IDOCK:   -0.54 KCAL/MOL
REMARK 927      BINDING AFFINITY PREDICTED BY RF-SCORE:    0.00 PKD
ROOT
HETATM    1  C   UNL     1     -11.040  10.288  70.361  1.00  0.00    -0.391 C  
HETATM    2  C   UNL     1     -12.070   9.427  71.041  1.00  0.00    -0.373 A  
HETATM    3  C   UNL     1     -13.181   9.983  71.708  1.00  0.00    -0.437 A  
HETATM    4 CL   UNL     1     -13.312  11.680  72.018  1.00  0.00    -0.534 Cl 
HETATM    5  C   UNL     1     -14.214   9.176  72.195  1.00  0.00    -0.353 A  
HETATM    6  C   UNL     1     -14.173   7.804  72.003  1.00  0.00    -0.424 A  
HETATM    7  C   UNL     1     -13.042   7.237  71.425  1.00  0.00    -0.412 A  
HETATM    8  C   UNL     1     -11.939   8.024  71.037  1.00  0.00    -0.245 A  
ENDROOT
BRANCH   8   9
HETATM    9  N   UNL     1     -10.698   7.401  70.692  1.00  0.00    -0.225 NA 
HETATM   10  H   UNL     1     -10.062   7.155  71.450  1.00  0.00     0.000 HD 
BRANCH   9  11
HETATM   11  C   UNL     1     -10.294   7.103  69.360  1.00  0.00    -0.198 A  
HETATM   12  C   UNL     1     -11.093   6.269  68.553  1.00  0.00    -0.397 A  
HETATM   13  C   UNL     1     -10.843   6.109  67.191  1.00  0.00    -0.442 A  
HETATM   14  C   UNL     1      -9.759   6.759  66.608  1.00  0.00    -0.213 A  
HETATM   15  C   UNL     1      -8.881   7.483  67.408  1.00  0.00    -0.127 A  
HETATM   16  C   UNL     1      -9.117   7.614  68.787  1.00  0.00    -0.139 A  
HETATM   17  C   UNL     1      -8.072   8.281  69.592  1.00  0.00    -0.116 C  
HETATM   18  O   UNL     1      -7.444   9.250  69.209  1.00  0.00    -0.071 OA 
HETATM   19  O   UNL     1      -7.847   7.656  70.767  1.00  0.00    -0.093 OA 
ENDBRANCH   9  11
ENDBRANCH   8   9
TORSDOF 2
ENDMDL
MODEL      104
REMARK 921   NORMALIZED FREE ENERGY PREDICTED BY IDOCK:   -4.56 KCAL/MOL
REMARK 922        TOTAL FREE ENERGY PREDICTED BY IDOCK:   -5.72 KCAL/MOL
REMARK 923 INTER-LIGAND FREE ENERGY PREDICTED BY IDOCK:   -5.06 KCAL/MOL
REMARK 924 INTRA-LIGAND FREE ENERGY PREDICTED BY IDOCK:   -0.65 KCAL/MOL
REMARK 927      BINDING AFFINITY PREDICTED BY RF-SCORE:    0.00 PKD
ROOT
HETATM    1  C   UNL     1      -9.613  11.111  66.158  1.00  0.00    -0.239 C  
HETATM    2  C   UNL     1     -10.490  12.257  65.732  1.00  0.00    -0.287 A  
HETATM    3  C   UNL     1     -10.966  12.378  64.411  1.00  0.00    -0.334 A  
HETATM    4 CL   UNL     1     -10.381  11.376  63.127  1.00  0.00    -0.377 Cl 
HETATM    5  C   UNL     1     -11.907  13.353  64.065  1.00  0.00    -0.498 A  
HETATM    6  C   UNL     1     -12.411  14.207  65.033  1.00  0.00    -0.452 A  
HETATM    7  C   UNL     1     -11.883  14.155  66.319  1.00  0.00    -0.427 A  
HETATM    8  C   UNL     1     -10.849  13.259  66.656  1.00  0.00    -0.281 A  
ENDROOT
BRANCH   8   9
HETATM    9  N   UNL     1     -10.151  13.402  67.896  1.00  0.00    -0.232 NA 
HETATM   10  H   UNL     1     -10.482  12.860  68.695  1.00  0.00     0.000 HD 
BRANCH   9  11
HETATM   11  C   UNL     1      -9.025  14.252  68.088  1.00  0.00    -0.189 A  
HETATM   12  C   UNL     1      -7.755  13.849  67.631  1.00  0.00    -0.193 A  
HETATM   13  C   UNL     1      -6.668  14.724  67.620  1.00  0.00    -0.198 A  
HETATM   14  C   UNL     1      -6.823  16.020  68.100  1.00  0.00    -0.130 A  
HETATM   15  C   UNL     1      -8.031  16.401  68.676  1.00  0.00    -0.220 A  
HETATM   16  C   UNL     1      -9.113  15.505  68.716  1.00  0.00    -0.207 A  
HETATM   17  C   UNL     1     -10.316  15.932  69.462  1.00  0.00    -0.277 C  
HETATM   18  O   UNL     1     -10.749  17.069  69.447  1.00  0.00    -0.322 OA 
HETATM   19  O   UNL     1     -10.839  14.939  70.213  1.00  0.00    -0.199 OA 
ENDBRANCH   9  11
ENDBRANCH   8   9
TORSDOF 2
ENDMDL
MODEL      105
REMARK 921   NORMALIZED FREE ENERGY PREDICTED BY IDOCK:   -4.56 KCAL/MOL
REMARK 922        TOTAL FREE ENERGY PREDICTED BY IDOCK:   -5.71 KCAL/MOL
REMARK 923 INTER-LIGAND FREE ENERGY PREDICTED BY IDOCK:   -5.09 KCAL/MOL
REMARK 924 INTRA-LIGAND FREE ENERGY PREDICTED BY IDOCK:   -0.63 KCAL/MOL
REMARK 927      BINDING AFFINITY PREDICTED BY RF-SCORE:    0.00 PKD
ROOT
HETATM    1  C   UNL     1     -10.099   9.865  65.747  1.00  0.00    -0.317 C  
HETATM    2  C   UNL     1     -10.655  10.715  66.856  1.00  0.00    -0.311 A  
HETATM    3  C   UNL     1     -10.884  12.097  66.692  1.00  0.00    -0.268 A  
HETATM    4 CL   UNL     1     -10.313  12.965  65.308  1.00  0.00    -0.306 Cl 
HETATM    5  C   UNL     1     -11.548  12.844  67.669  1.00  0.00    -0.406 A  
HETATM    6  C   UNL     1     -12.019  12.226  68.816  1.00  0.00    -0.281 A  
HETATM    7  C   UNL     1     -11.722  10.884  69.029  1.00  0.00    -0.391 A  
HETATM    8  C   UNL     1     -10.951  10.144  68.110  1.00  0.00    -0.259 A  
ENDROOT
BRANCH   8   9
HETATM    9  N   UNL     1     -10.443   8.856  68.472  1.00  0.00    -0.272 NA 
HETATM   10  H   UNL     1     -10.552   8.096  67.801  1.00  0.00     0.000 HD 
BRANCH   9  11
HETATM   11  C   UNL     1      -9.795   8.569  69.707  1.00  0.00    -0.186 A  
HETATM   12  C   UNL     1      -8.523   9.111  69.976  1.00  0.00    -0.164 A  
HETATM   13  C   UNL     1      -7.940   9.020  71.240  1.00  0.00    -0.139 A  
HETATM   14  C   UNL     1      -8.608   8.349  72.260  1.00  0.00    -0.263 A  
HETATM   15  C   UNL     1      -9.804   7.694  71.984  1.00  0.00    -0.211 A  
HETATM   16  C   UNL     1     -10.372   7.760  70.700  1.00  0.00    -0.202 A  
HETATM   17  C   UNL     1     -11.569   6.930  70.447  1.00  0.00    -0.335 C  
HETATM   18  O   UNL     1     -12.458   6.766  71.260  1.00  0.00    -0.362 OA 
HETATM   19  O   UNL     1     -11.530   6.322  69.242  1.00  0.00    -0.411 OA 
ENDBRANCH   9  11
ENDBRANCH   8   9
TORSDOF 2
ENDMDL
MODEL      106
REMARK 921   NORMALIZED FREE ENERGY PREDICTED BY IDOCK:   -4.53 KCAL/MOL
REMARK 922        TOTAL FREE ENERGY PREDICTED BY IDOCK:   -5.68 KCAL/MOL
REMARK 923 INTER-LIGAND FREE ENERGY PREDICTED BY IDOCK:   -5.48 KCAL/MOL
REMARK 924 INTRA-LIGAND FREE ENERGY PREDICTED BY IDOCK:   -0.20 KCAL/MOL
REMARK 927      BINDING AFFINITY PREDICTED BY RF-SCORE:    0.00 PKD
ROOT
HETATM    1  C   UNL     1      -9.735  15.153  66.843  1.00  0.00    -0.248 C  
HETATM    2  C   UNL     1     -10.448  14.041  66.123  1.00  0.00    -0.297 A  
HETATM    3  C   UNL     1     -11.144  14.261  64.917  1.00  0.00    -0.390 A  
HETATM    4 CL   UNL     1     -11.448  15.852  64.308  1.00  0.00    -0.333 Cl 
HETATM    5  C   UNL     1     -11.665  13.197  64.175  1.00  0.00    -0.472 A  
HETATM    6  C   UNL     1     -11.480  11.893  64.606  1.00  0.00    -0.345 A  
HETATM    7  C   UNL     1     -10.874  11.669  65.837  1.00  0.00    -0.339 A  
HETATM    8  C   UNL     1     -10.449  12.735  66.655  1.00  0.00    -0.257 A  
ENDROOT
BRANCH   8   9
HETATM    9  N   UNL     1     -10.073  12.493  68.014  1.00  0.00    -0.214 NA 
HETATM   10  H   UNL     1      -9.300  13.037  68.399  1.00  0.00     0.000 HD 
BRANCH   9  11
HETATM   11  C   UNL     1     -10.706  11.542  68.863  1.00  0.00    -0.207 A  
HETATM   12  C   UNL     1     -10.490  10.165  68.659  1.00  0.00    -0.225 A  
HETATM   13  C   UNL     1     -10.927   9.211  69.578  1.00  0.00    -0.138 A  
HETATM   14  C   UNL     1     -11.624   9.615  70.712  1.00  0.00    -0.395 A  
HETATM   15  C   UNL     1     -11.962  10.955  70.870  1.00  0.00    -0.416 A  
HETATM   16  C   UNL     1     -11.550  11.909  69.925  1.00  0.00    -0.333 A  
HETATM   17  C   UNL     1     -12.060  13.287  70.087  1.00  0.00    -0.333 C  
HETATM   18  O   UNL     1     -12.187  13.835  71.166  1.00  0.00    -0.349 OA 
HETATM   19  O   UNL     1     -12.433  13.842  68.915  1.00  0.00    -0.188 OA 
ENDBRANCH   9  11
ENDBRANCH   8   9
TORSDOF 2
ENDMDL
MODEL      107
REMARK 921   NORMALIZED FREE ENERGY PREDICTED BY IDOCK:   -4.53 KCAL/MOL
REMARK 922        TOTAL FREE ENERGY PREDICTED BY IDOCK:   -5.68 KCAL/MOL
REMARK 923 INTER-LIGAND FREE ENERGY PREDICTED BY IDOCK:   -5.17 KCAL/MOL
REMARK 924 INTRA-LIGAND FREE ENERGY PREDICTED BY IDOCK:   -0.52 KCAL/MOL
REMARK 927      BINDING AFFINITY PREDICTED BY RF-SCORE:    0.00 PKD
ROOT
HETATM    1  C   UNL     1     -10.077   8.342  70.013  1.00  0.00    -0.192 C  
HETATM    2  C   UNL     1     -11.263   8.935  70.724  1.00  0.00    -0.321 A  
HETATM    3  C   UNL     1     -11.695   8.457  71.978  1.00  0.00    -0.352 A  
HETATM    4 CL   UNL     1     -11.066   7.002  72.673  1.00  0.00    -0.299 Cl 
HETATM    5  C   UNL     1     -12.693   9.116  72.702  1.00  0.00    -0.254 A  
HETATM    6  C   UNL     1     -13.260  10.278  72.203  1.00  0.00    -0.443 A  
HETATM    7  C   UNL     1     -12.906  10.709  70.929  1.00  0.00    -0.473 A  
HETATM    8  C   UNL     1     -11.989   9.990  70.136  1.00  0.00    -0.131 A  
ENDROOT
BRANCH   8   9
HETATM    9  N   UNL     1     -11.841  10.303  68.748  1.00  0.00    -0.644 NA 
HETATM   10  H   UNL     1     -12.208   9.638  68.067  1.00  0.00     0.000 HD 
BRANCH   9  11
HETATM   11  C   UNL     1     -11.215  11.483  68.255  1.00  0.00    -0.261 A  
HETATM   12  C   UNL     1     -11.836  12.735  68.434  1.00  0.00    -0.353 A  
HETATM   13  C   UNL     1     -11.174  13.929  68.146  1.00  0.00    -0.293 A  
HETATM   14  C   UNL     1      -9.879  13.894  67.638  1.00  0.00    -0.236 A  
HETATM   15  C   UNL     1      -9.294  12.669  67.332  1.00  0.00    -0.189 A  
HETATM   16  C   UNL     1      -9.977  11.469  67.591  1.00  0.00    -0.199 A  
HETATM   17  C   UNL     1      -9.350  10.218  67.116  1.00  0.00    -0.153 C  
HETATM   18  O   UNL     1      -8.153  10.005  67.162  1.00  0.00    -0.116 OA 
HETATM   19  O   UNL     1     -10.243   9.370  66.563  1.00  0.00    -0.258 OA 
ENDBRANCH   9  11
ENDBRANCH   8   9
TORSDOF 2
ENDMDL
MODEL      108
REMARK 921   NORMALIZED FREE ENERGY PREDICTED BY IDOCK:   -4.52 KCAL/MOL
REMARK 922        TOTAL FREE ENERGY PREDICTED BY IDOCK:   -5.67 KCAL/MOL
REMARK 923 INTER-LIGAND FREE ENERGY PREDICTED BY IDOCK:   -5.05 KCAL/MOL
REMARK 924 INTRA-LIGAND FREE ENERGY PREDICTED BY IDOCK:   -0.62 KCAL/MOL
REMARK 927      BINDING AFFINITY PREDICTED BY RF-SCORE:    0.00 PKD
ROOT
HETATM    1  C   UNL     1     -11.419  16.323  69.316  1.00  0.00    -0.251 C  
HETATM    2  C   UNL     1     -10.244  15.631  68.680  1.00  0.00    -0.212 A  
HETATM    3  C   UNL     1     -10.210  14.233  68.504  1.00  0.00    -0.245 A  
HETATM    4 CL   UNL     1     -11.384  13.186  69.225  1.00  0.00    -0.323 Cl 
HETATM    5  C   UNL     1      -9.191  13.618  67.770  1.00  0.00    -0.214 A  
HETATM    6  C   UNL     1      -8.202  14.386  67.176  1.00  0.00    -0.202 A  
HETATM    7  C   UNL     1      -8.176  15.756  67.417  1.00  0.00    -0.196 A  
HETATM    8  C   UNL     1      -9.126  16.376  68.252  1.00  0.00    -0.207 A  
ENDROOT
BRANCH   8   9
HETATM    9  N   UNL     1      -8.927  17.723  68.691  1.00  0.00    -0.281 NA 
HETATM   10  H   UNL     1      -9.368  18.010  69.564  1.00  0.00     0.000 HD 
BRANCH   9  11
HETATM   11  C   UNL     1      -8.152  18.688  67.987  1.00  0.00    -0.275 A  
HETATM   12  C   UNL     1      -6.830  18.959  68.392  1.00  0.00    -0.276 A  
HETATM   13  C   UNL     1      -5.974  19.745  67.620  1.00  0.00    -0.210 A  
HETATM   14  C   UNL     1      -6.437  20.308  66.435  1.00  0.00    -0.244 A  
HETATM   15  C   UNL     1      -7.774  20.162  66.081  1.00  0.00    -0.280 A  
HETATM   16  C   UNL     1      -8.642  19.398  66.878  1.00  0.00    -0.325 A  
HETATM   17  C   UNL     1     -10.075  19.401  66.512  1.00  0.00    -0.422 C  
HETATM   18  O   UNL     1     -10.476  19.378  65.364  1.00  0.00    -0.442 OA 
HETATM   19  O   UNL     1     -10.883  19.500  67.589  1.00  0.00    -0.444 OA 
ENDBRANCH   9  11
ENDBRANCH   8   9
TORSDOF 2
ENDMDL
MODEL      109
REMARK 921   NORMALIZED FREE ENERGY PREDICTED BY IDOCK:   -4.52 KCAL/MOL
REMARK 922        TOTAL FREE ENERGY PREDICTED BY IDOCK:   -5.67 KCAL/MOL
REMARK 923 INTER-LIGAND FREE ENERGY PREDICTED BY IDOCK:   -5.07 KCAL/MOL
REMARK 924 INTRA-LIGAND FREE ENERGY PREDICTED BY IDOCK:   -0.60 KCAL/MOL
REMARK 927      BINDING AFFINITY PREDICTED BY RF-SCORE:    0.00 PKD
ROOT
HETATM    1  C   UNL     1     -11.049  11.635  64.901  1.00  0.00    -0.317 C  
HETATM    2  C   UNL     1      -9.957  11.665  65.936  1.00  0.00    -0.264 A  
HETATM    3  C   UNL     1      -9.295  10.492  66.352  1.00  0.00    -0.168 A  
HETATM    4 CL   UNL     1      -9.850   8.915  65.906  1.00  0.00    -0.287 Cl 
HETATM    5  C   UNL     1      -8.176  10.549  67.190  1.00  0.00    -0.123 A  
HETATM    6  C   UNL     1      -7.681  11.774  67.606  1.00  0.00    -0.137 A  
HETATM    7  C   UNL     1      -8.378  12.931  67.274  1.00  0.00    -0.185 A  
HETATM    8  C   UNL     1      -9.574  12.884  66.531  1.00  0.00    -0.259 A  
ENDROOT
BRANCH   8   9
HETATM    9  N   UNL     1     -10.402  14.046  66.427  1.00  0.00    -0.283 NA 
HETATM   10  H   UNL     1     -10.779  14.283  65.510  1.00  0.00     0.000 HD 
BRANCH   9  11
HETATM   11  C   UNL     1     -10.732  14.894  67.522  1.00  0.00    -0.276 A  
HETATM   12  C   UNL     1     -11.468  14.383  68.609  1.00  0.00    -0.316 A  
HETATM   13  C   UNL     1     -11.644  15.115  69.784  1.00  0.00    -0.338 A  
HETATM   14  C   UNL     1     -11.112  16.397  69.883  1.00  0.00    -0.313 A  
HETATM   15  C   UNL     1     -10.494  16.972  68.777  1.00  0.00    -0.347 A  
HETATM   16  C   UNL     1     -10.348  16.244  67.584  1.00  0.00    -0.284 A  
HETATM   17  C   UNL     1      -9.805  16.966  66.414  1.00  0.00    -0.305 C  
HETATM   18  O   UNL     1      -8.907  17.784  66.485  1.00  0.00    -0.259 OA 
HETATM   19  O   UNL     1     -10.460  16.666  65.272  1.00  0.00    -0.612 OA 
ENDBRANCH   9  11
ENDBRANCH   8   9
TORSDOF 2
ENDMDL
MODEL      110
REMARK 921   NORMALIZED FREE ENERGY PREDICTED BY IDOCK:   -4.52 KCAL/MOL
REMARK 922        TOTAL FREE ENERGY PREDICTED BY IDOCK:   -5.67 KCAL/MOL
REMARK 923 INTER-LIGAND FREE ENERGY PREDICTED BY IDOCK:   -5.15 KCAL/MOL
REMARK 924 INTRA-LIGAND FREE ENERGY PREDICTED BY IDOCK:   -0.52 KCAL/MOL
REMARK 927      BINDING AFFINITY PREDICTED BY RF-SCORE:    0.00 PKD
ROOT
HETATM    1  C   UNL     1     -10.628   7.633  67.003  1.00  0.00    -0.406 C  
HETATM    2  C   UNL     1      -9.834   7.227  68.214  1.00  0.00    -0.165 A  
HETATM    3  C   UNL     1      -9.427   5.894  68.425  1.00  0.00    -0.120 A  
HETATM    4 CL   UNL     1     -10.018   4.588  67.455  1.00  0.00    -0.188 Cl 
HETATM    5  C   UNL     1      -8.556   5.557  69.466  1.00  0.00    -0.105 A  
HETATM    6  C   UNL     1      -8.053   6.544  70.298  1.00  0.00    -0.121 A  
HETATM    7  C   UNL     1      -8.516   7.847  70.155  1.00  0.00    -0.129 A  
HETATM    8  C   UNL     1      -9.485   8.184  69.189  1.00  0.00    -0.155 A  
ENDROOT
BRANCH   8   9
HETATM    9  N   UNL     1     -10.131   9.460  69.233  1.00  0.00    -0.188 NA 
HETATM   10  H   UNL     1      -9.784  10.191  68.613  1.00  0.00     0.000 HD 
BRANCH   9  11
HETATM   11  C   UNL     1     -11.226   9.774  70.088  1.00  0.00    -0.272 A  
HETATM   12  C   UNL     1     -11.599   8.878  71.109  1.00  0.00    -0.360 A  
HETATM   13  C   UNL     1     -12.530   9.228  72.087  1.00  0.00    -0.421 A  
HETATM   14  C   UNL     1     -13.135  10.480  72.045  1.00  0.00    -0.511 A  
HETATM   15  C   UNL     1     -12.880  11.331  70.974  1.00  0.00    -0.395 A  
HETATM   16  C   UNL     1     -11.968  10.961  69.972  1.00  0.00    -0.429 A  
HETATM   17  C   UNL     1     -11.850  11.855  68.800  1.00  0.00    -0.313 C  
HETATM   18  O   UNL     1     -11.879  13.069  68.874  1.00  0.00    -0.302 OA 
HETATM   19  O   UNL     1     -11.777  11.174  67.637  1.00  0.00    -0.573 OA 
ENDBRANCH   9  11
ENDBRANCH   8   9
TORSDOF 2
ENDMDL
MODEL      111
REMARK 921   NORMALIZED FREE ENERGY PREDICTED BY IDOCK:   -4.51 KCAL/MOL
REMARK 922        TOTAL FREE ENERGY PREDICTED BY IDOCK:   -5.66 KCAL/MOL
REMARK 923 INTER-LIGAND FREE ENERGY PREDICTED BY IDOCK:   -5.09 KCAL/MOL
REMARK 924 INTRA-LIGAND FREE ENERGY PREDICTED BY IDOCK:   -0.57 KCAL/MOL
REMARK 927      BINDING AFFINITY PREDICTED BY RF-SCORE:    0.00 PKD
ROOT
HETATM    1  C   UNL     1     -10.655   7.252  67.388  1.00  0.00    -0.370 C  
HETATM    2  C   UNL     1     -10.635   7.894  68.749  1.00  0.00    -0.154 A  
HETATM    3  C   UNL     1     -10.438   7.140  69.924  1.00  0.00    -0.223 A  
HETATM    4 CL   UNL     1     -10.463   5.410  69.922  1.00  0.00    -0.376 Cl 
HETATM    5  C   UNL     1     -10.260   7.762  71.164  1.00  0.00    -0.214 A  
HETATM    6  C   UNL     1     -10.247   9.145  71.253  1.00  0.00    -0.400 A  
HETATM    7  C   UNL     1     -10.527   9.896  70.116  1.00  0.00    -0.339 A  
HETATM    8  C   UNL     1     -10.827   9.284  68.883  1.00  0.00    -0.099 A  
ENDROOT
BRANCH   8   9
HETATM    9  N   UNL     1     -11.363  10.060  67.807  1.00  0.00    -0.543 NA 
HETATM   10  H   UNL     1     -12.034   9.612  67.183  1.00  0.00     0.000 HD 
BRANCH   9  11
HETATM   11  C   UNL     1     -11.019  11.418  67.550  1.00  0.00    -0.260 A  
HETATM   12  C   UNL     1     -11.748  12.455  68.165  1.00  0.00    -0.408 A  
HETATM   13  C   UNL     1     -11.328  13.784  68.100  1.00  0.00    -0.315 A  
HETATM   14  C   UNL     1     -10.180  14.109  67.386  1.00  0.00    -0.244 A  
HETATM   15  C   UNL     1      -9.517  13.122  66.663  1.00  0.00    -0.260 A  
HETATM   16  C   UNL     1      -9.962  11.790  66.703  1.00  0.00    -0.224 A  
HETATM   17  C   UNL     1      -9.291  10.826  65.806  1.00  0.00    -0.203 C  
HETATM   18  O   UNL     1      -8.095  10.832  65.585  1.00  0.00    -0.161 OA 
HETATM   19  O   UNL     1     -10.162   9.984  65.209  1.00  0.00    -0.296 OA 
ENDBRANCH   9  11
ENDBRANCH   8   9
TORSDOF 2
ENDMDL
MODEL      112
REMARK 921   NORMALIZED FREE ENERGY PREDICTED BY IDOCK:   -4.50 KCAL/MOL
REMARK 922        TOTAL FREE ENERGY PREDICTED BY IDOCK:   -5.64 KCAL/MOL
REMARK 923 INTER-LIGAND FREE ENERGY PREDICTED BY IDOCK:   -5.03 KCAL/MOL
REMARK 924 INTRA-LIGAND FREE ENERGY PREDICTED BY IDOCK:   -0.61 KCAL/MOL
REMARK 927      BINDING AFFINITY PREDICTED BY RF-SCORE:    0.00 PKD
ROOT
HETATM    1  C   UNL     1      -7.677   9.126  68.843  1.00  0.00    -0.083 C  
HETATM    2  C   UNL     1      -8.827   9.904  68.265  1.00  0.00    -0.119 A  
HETATM    3  C   UNL     1      -8.724  10.578  67.030  1.00  0.00    -0.130 A  
HETATM    4 CL   UNL     1      -7.210  10.778  66.216  1.00  0.00    -0.136 Cl 
HETATM    5  C   UNL     1      -9.842  11.160  66.425  1.00  0.00    -0.248 A  
HETATM    6  C   UNL     1     -11.087  11.059  67.024  1.00  0.00    -0.311 A  
HETATM    7  C   UNL     1     -11.185  10.475  68.283  1.00  0.00    -0.354 A  
HETATM    8  C   UNL     1     -10.050   9.989  68.961  1.00  0.00    -0.200 A  
ENDROOT
BRANCH   8   9
HETATM    9  N   UNL     1     -10.135   9.637  70.345  1.00  0.00    -0.265 NA 
HETATM   10  H   UNL     1      -9.308   9.776  70.924  1.00  0.00     0.000 HD 
BRANCH   9  11
HETATM   11  C   UNL     1     -11.301   9.103  70.965  1.00  0.00    -0.309 A  
HETATM   12  C   UNL     1     -12.199   9.962  71.629  1.00  0.00    -0.482 A  
HETATM   13  C   UNL     1     -13.442   9.517  72.077  1.00  0.00    -0.522 A  
HETATM   14  C   UNL     1     -13.803   8.185  71.898  1.00  0.00    -0.424 A  
HETATM   15  C   UNL     1     -12.882   7.289  71.363  1.00  0.00    -0.425 A  
HETATM   16  C   UNL     1     -11.618   7.735  70.944  1.00  0.00    -0.289 A  
HETATM   17  C   UNL     1     -10.647   6.706  70.512  1.00  0.00    -0.229 C  
HETATM   18  O   UNL     1     -10.952   5.724  69.862  1.00  0.00    -0.344 OA 
HETATM   19  O   UNL     1      -9.402   6.942  70.978  1.00  0.00    -0.156 OA 
ENDBRANCH   9  11
ENDBRANCH   8   9
TORSDOF 2
ENDMDL
MODEL      113
REMARK 921   NORMALIZED FREE ENERGY PREDICTED BY IDOCK:   -4.49 KCAL/MOL
REMARK 922        TOTAL FREE ENERGY PREDICTED BY IDOCK:   -5.64 KCAL/MOL
REMARK 923 INTER-LIGAND FREE ENERGY PREDICTED BY IDOCK:   -5.49 KCAL/MOL
REMARK 924 INTRA-LIGAND FREE ENERGY PREDICTED BY IDOCK:   -0.15 KCAL/MOL
REMARK 927      BINDING AFFINITY PREDICTED BY RF-SCORE:    0.00 PKD
ROOT
HETATM    1  C   UNL     1      -9.894  16.655  68.300  1.00  0.00    -0.253 C  
HETATM    2  C   UNL     1      -8.726  15.744  68.040  1.00  0.00    -0.171 A  
HETATM    3  C   UNL     1      -7.394  16.171  68.221  1.00  0.00    -0.140 A  
HETATM    4 CL   UNL     1      -6.991  17.830  68.504  1.00  0.00    -0.228 Cl 
HETATM    5  C   UNL     1      -6.326  15.273  68.133  1.00  0.00    -0.135 A  
HETATM    6  C   UNL     1      -6.565  13.930  67.890  1.00  0.00    -0.167 A  
HETATM    7  C   UNL     1      -7.865  13.514  67.622  1.00  0.00    -0.178 A  
HETATM    8  C   UNL     1      -8.939  14.426  67.588  1.00  0.00    -0.192 A  
ENDROOT
BRANCH   8   9
HETATM    9  N   UNL     1     -10.206  14.024  67.059  1.00  0.00    -0.259 NA 
HETATM   10  H   UNL     1     -11.047  14.376  67.517  1.00  0.00     0.000 HD 
BRANCH   9  11
HETATM   11  C   UNL     1     -10.368  13.164  65.936  1.00  0.00    -0.290 A  
HETATM   12  C   UNL     1      -9.813  11.869  65.957  1.00  0.00    -0.258 A  
HETATM   13  C   UNL     1     -10.111  10.928  64.971  1.00  0.00    -0.362 A  
HETATM   14  C   UNL     1     -10.950  11.276  63.918  1.00  0.00    -0.382 A  
HETATM   15  C   UNL     1     -11.406  12.586  63.806  1.00  0.00    -0.534 A  
HETATM   16  C   UNL     1     -11.077  13.540  64.783  1.00  0.00    -0.368 A  
HETATM   17  C   UNL     1     -11.483  14.939  64.527  1.00  0.00    -0.325 C  
HETATM   18  O   UNL     1     -12.544  15.249  64.020  1.00  0.00    -0.750 OA 
HETATM   19  O   UNL     1     -10.519  15.825  64.856  1.00  0.00    -0.499 OA 
ENDBRANCH   9  11
ENDBRANCH   8   9
TORSDOF 2
ENDMDL
MODEL      114
REMARK 921   NORMALIZED FREE ENERGY PREDICTED BY IDOCK:   -4.49 KCAL/MOL
REMARK 922        TOTAL FREE ENERGY PREDICTED BY IDOCK:   -5.63 KCAL/MOL
REMARK 923 INTER-LIGAND FREE ENERGY PREDICTED BY IDOCK:   -5.03 KCAL/MOL
REMARK 924 INTRA-LIGAND FREE ENERGY PREDICTED BY IDOCK:   -0.60 KCAL/MOL
REMARK 927      BINDING AFFINITY PREDICTED BY RF-SCORE:    0.00 PKD
ROOT
HETATM    1  C   UNL     1      -9.432   5.990  70.921  1.00  0.00    -0.188 C  
HETATM    2  C   UNL     1      -9.817   6.166  69.478  1.00  0.00    -0.193 A  
HETATM    3  C   UNL     1      -9.951   5.068  68.604  1.00  0.00    -0.144 A  
HETATM    4 CL   UNL     1      -9.439   3.475  69.045  1.00  0.00    -0.237 Cl 
HETATM    5  C   UNL     1     -10.464   5.226  67.313  1.00  0.00    -0.236 A  
HETATM    6  C   UNL     1     -10.879   6.474  66.878  1.00  0.00    -0.427 A  
HETATM    7  C   UNL     1     -10.670   7.578  67.698  1.00  0.00    -0.266 A  
HETATM    8  C   UNL     1     -10.045   7.455  68.955  1.00  0.00    -0.186 A  
ENDROOT
BRANCH   8   9
HETATM    9  N   UNL     1      -9.609   8.623  69.657  1.00  0.00    -0.169 NA 
HETATM   10  H   UNL     1      -8.744   8.561  70.194  1.00  0.00     0.000 HD 
BRANCH   9  11
HETATM   11  C   UNL     1     -10.305   9.865  69.656  1.00  0.00    -0.241 A  
HETATM   12  C   UNL     1      -9.894  10.899  68.792  1.00  0.00    -0.203 A  
HETATM   13  C   UNL     1     -10.658  12.052  68.614  1.00  0.00    -0.253 A  
HETATM   14  C   UNL     1     -11.841  12.211  69.329  1.00  0.00    -0.370 A  
HETATM   15  C   UNL     1     -12.201  11.265  70.283  1.00  0.00    -0.428 A  
HETATM   16  C   UNL     1     -11.411  10.121  70.483  1.00  0.00    -0.416 A  
HETATM   17  C   UNL     1     -11.781   9.231  71.604  1.00  0.00    -0.392 C  
HETATM   18  O   UNL     1     -12.931   8.970  71.905  1.00  0.00    -0.335 OA 
HETATM   19  O   UNL     1     -10.707   8.797  72.296  1.00  0.00    -0.344 OA 
ENDBRANCH   9  11
ENDBRANCH   8   9
TORSDOF 2
ENDMDL
MODEL      115
REMARK 921   NORMALIZED FREE ENERGY PREDICTED BY IDOCK:   -4.48 KCAL/MOL
REMARK 922        TOTAL FREE ENERGY PREDICTED BY IDOCK:   -5.63 KCAL/MOL
REMARK 923 INTER-LIGAND FREE ENERGY PREDICTED BY IDOCK:   -5.56 KCAL/MOL
REMARK 924 INTRA-LIGAND FREE ENERGY PREDICTED BY IDOCK:   -0.06 KCAL/MOL
REMARK 927      BINDING AFFINITY PREDICTED BY RF-SCORE:    0.00 PKD
ROOT
HETATM    1  C   UNL     1     -10.470  19.024  67.407  1.00  0.00    -0.539 C  
HETATM    2  C   UNL     1      -9.153  18.378  67.070  1.00  0.00    -0.274 A  
HETATM    3  C   UNL     1      -7.964  19.128  66.958  1.00  0.00    -0.256 A  
HETATM    4 CL   UNL     1      -7.966  20.859  66.944  1.00  0.00    -0.168 Cl 
HETATM    5  C   UNL     1      -6.723  18.502  66.805  1.00  0.00    -0.211 A  
HETATM    6  C   UNL     1      -6.639  17.119  66.788  1.00  0.00    -0.257 A  
HETATM    7  C   UNL     1      -7.813  16.373  66.809  1.00  0.00    -0.301 A  
HETATM    8  C   UNL     1      -9.079  16.990  66.843  1.00  0.00    -0.236 A  
ENDROOT
BRANCH   8   9
HETATM    9  N   UNL     1     -10.260  16.219  66.601  1.00  0.00    -0.276 NA 
HETATM   10  H   UNL     1     -11.002  16.645  66.045  1.00  0.00     0.000 HD 
BRANCH   9  11
HETATM   11  C   UNL     1     -10.467  14.897  67.087  1.00  0.00    -0.271 A  
HETATM   12  C   UNL     1      -9.688  14.411  68.156  1.00  0.00    -0.223 A  
HETATM   13  C   UNL     1      -9.985  13.205  68.790  1.00  0.00    -0.038 A  
HETATM   14  C   UNL     1     -11.055  12.437  68.343  1.00  0.00    -0.288 A  
HETATM   15  C   UNL     1     -11.758  12.831  67.208  1.00  0.00    -0.440 A  
HETATM   16  C   UNL     1     -11.434  14.030  66.551  1.00  0.00    -0.368 A  
HETATM   17  C   UNL     1     -12.132  14.314  65.279  1.00  0.00    -0.400 C  
HETATM   18  O   UNL     1     -13.308  14.067  65.087  1.00  0.00    -0.703 OA 
HETATM   19  O   UNL     1     -11.305  14.812  64.336  1.00  0.00    -0.313 OA 
ENDBRANCH   9  11
ENDBRANCH   8   9
TORSDOF 2
ENDMDL
MODEL      116
REMARK 921   NORMALIZED FREE ENERGY PREDICTED BY IDOCK:   -4.48 KCAL/MOL
REMARK 922        TOTAL FREE ENERGY PREDICTED BY IDOCK:   -5.63 KCAL/MOL
REMARK 923 INTER-LIGAND FREE ENERGY PREDICTED BY IDOCK:   -5.21 KCAL/MOL
REMARK 924 INTRA-LIGAND FREE ENERGY PREDICTED BY IDOCK:   -0.41 KCAL/MOL
REMARK 927      BINDING AFFINITY PREDICTED BY RF-SCORE:    0.00 PKD
ROOT
HETATM    1  C   UNL     1     -11.440  12.580  65.930  1.00  0.00    -0.417 C  
HETATM    2  C   UNL     1     -11.398  12.967  67.384  1.00  0.00    -0.347 A  
HETATM    3  C   UNL     1     -11.007  14.257  67.799  1.00  0.00    -0.264 A  
HETATM    4 CL   UNL     1     -10.306  15.402  66.707  1.00  0.00    -0.272 Cl 
HETATM    5  C   UNL     1     -11.126  14.656  69.134  1.00  0.00    -0.285 A  
HETATM    6  C   UNL     1     -11.661  13.790  70.074  1.00  0.00    -0.327 A  
HETATM    7  C   UNL     1     -11.967  12.487  69.693  1.00  0.00    -0.339 A  
HETATM    8  C   UNL     1     -11.742  12.031  68.379  1.00  0.00    -0.332 A  
ENDROOT
BRANCH   8   9
HETATM    9  N   UNL     1     -11.817  10.633  68.082  1.00  0.00    -0.788 NA 
HETATM   10  H   UNL     1     -12.742  10.207  68.023  1.00  0.00     0.000 HD 
BRANCH   9  11
HETATM   11  C   UNL     1     -10.684   9.799  67.863  1.00  0.00    -0.258 A  
HETATM   12  C   UNL     1     -10.339   9.411  66.553  1.00  0.00    -0.268 A  
HETATM   13  C   UNL     1      -9.136   8.764  66.274  1.00  0.00    -0.240 A  
HETATM   14  C   UNL     1      -8.261   8.458  67.311  1.00  0.00    -0.112 A  
HETATM   15  C   UNL     1      -8.638   8.713  68.626  1.00  0.00    -0.131 A  
HETATM   16  C   UNL     1      -9.866   9.335  68.907  1.00  0.00    -0.170 A  
HETATM   17  C   UNL     1     -10.256   9.451  70.328  1.00  0.00    -0.247 C  
HETATM   18  O   UNL     1      -9.472   9.710  71.222  1.00  0.00    -0.154 OA 
HETATM   19  O   UNL     1     -11.561   9.170  70.530  1.00  0.00    -0.263 OA 
ENDBRANCH   9  11
ENDBRANCH   8   9
TORSDOF 2
ENDMDL
MODEL      117
REMARK 921   NORMALIZED FREE ENERGY PREDICTED BY IDOCK:   -4.48 KCAL/MOL
REMARK 922        TOTAL FREE ENERGY PREDICTED BY IDOCK:   -5.62 KCAL/MOL
REMARK 923 INTER-LIGAND FREE ENERGY PREDICTED BY IDOCK:   -4.95 KCAL/MOL
REMARK 924 INTRA-LIGAND FREE ENERGY PREDICTED BY IDOCK:   -0.67 KCAL/MOL
REMARK 927      BINDING AFFINITY PREDICTED BY RF-SCORE:    0.00 PKD
ROOT
HETATM    1  C   UNL     1      -9.563   6.654  74.311  1.00  0.00    -0.296 C  
HETATM    2  C   UNL     1      -9.585   5.913  73.002  1.00  0.00    -0.158 A  
HETATM    3  C   UNL     1      -9.310   4.532  72.924  1.00  0.00    -0.126 A  
HETATM    4 CL   UNL     1      -8.681   3.642  74.268  1.00  0.00    -0.088 Cl 
HETATM    5  C   UNL     1      -9.491   3.822  71.733  1.00  0.00    -0.214 A  
HETATM    6  C   UNL     1      -9.975   4.467  70.606  1.00  0.00    -0.273 A  
HETATM    7  C   UNL     1     -10.165   5.844  70.647  1.00  0.00    -0.268 A  
HETATM    8  C   UNL     1      -9.874   6.595  71.803  1.00  0.00    -0.161 A  
ENDROOT
BRANCH   8   9
HETATM    9  N   UNL     1      -9.828   8.024  71.739  1.00  0.00    -0.172 NA 
HETATM   10  H   UNL     1      -8.919   8.476  71.838  1.00  0.00     0.000 HD 
BRANCH   9  11
HETATM   11  C   UNL     1     -10.968   8.854  71.547  1.00  0.00    -0.328 A  
HETATM   12  C   UNL     1     -12.125   8.650  72.325  1.00  0.00    -0.443 A  
HETATM   13  C   UNL     1     -13.186   9.555  72.311  1.00  0.00    -0.507 A  
HETATM   14  C   UNL     1     -13.126  10.674  71.487  1.00  0.00    -0.527 A  
HETATM   15  C   UNL     1     -12.053  10.830  70.615  1.00  0.00    -0.467 A  
HETATM   16  C   UNL     1     -11.002   9.898  70.607  1.00  0.00    -0.405 A  
HETATM   17  C   UNL     1      -9.967  10.055  69.563  1.00  0.00    -0.228 C  
HETATM   18  O   UNL     1      -9.538  11.133  69.197  1.00  0.00    -0.132 OA 
HETATM   19  O   UNL     1      -9.604   8.876  69.014  1.00  0.00    -0.155 OA 
ENDBRANCH   9  11
ENDBRANCH   8   9
TORSDOF 2
ENDMDL
MODEL      118
REMARK 921   NORMALIZED FREE ENERGY PREDICTED BY IDOCK:   -4.48 KCAL/MOL
REMARK 922        TOTAL FREE ENERGY PREDICTED BY IDOCK:   -5.62 KCAL/MOL
REMARK 923 INTER-LIGAND FREE ENERGY PREDICTED BY IDOCK:   -5.01 KCAL/MOL
REMARK 924 INTRA-LIGAND FREE ENERGY PREDICTED BY IDOCK:   -0.61 KCAL/MOL
REMARK 927      BINDING AFFINITY PREDICTED BY RF-SCORE:    0.00 PKD
ROOT
HETATM    1  C   UNL     1      -9.851   5.279  68.859  1.00  0.00    -0.230 C  
HETATM    2  C   UNL     1     -10.160   4.978  70.300  1.00  0.00    -0.339 A  
HETATM    3  C   UNL     1      -9.545   3.911  70.986  1.00  0.00    -0.181 A  
HETATM    4 CL   UNL     1      -8.594   2.719  70.168  1.00  0.00    -0.100 Cl 
HETATM    5  C   UNL     1      -9.716   3.739  72.363  1.00  0.00    -0.213 A  
HETATM    6  C   UNL     1     -10.479   4.640  73.087  1.00  0.00    -0.253 A  
HETATM    7  C   UNL     1     -11.161   5.644  72.407  1.00  0.00    -0.336 A  
HETATM    8  C   UNL     1     -11.097   5.761  71.005  1.00  0.00    -0.194 A  
ENDROOT
BRANCH   8   9
HETATM    9  N   UNL     1     -12.002   6.626  70.313  1.00  0.00    -0.583 NA 
HETATM   10  H   UNL     1     -12.327   6.338  69.390  1.00  0.00     0.000 HD 
BRANCH   9  11
HETATM   11  C   UNL     1     -12.480   7.864  70.830  1.00  0.00    -0.034 A  
HETATM   12  C   UNL     1     -13.742   7.925  71.454  1.00  0.00    -0.328 A  
HETATM   13  C   UNL     1     -14.164   9.061  72.144  1.00  0.00    -0.409 A  
HETATM   14  C   UNL     1     -13.340  10.181  72.197  1.00  0.00    -0.431 A  
HETATM   15  C   UNL     1     -12.147  10.191  71.480  1.00  0.00    -0.442 A  
HETATM   16  C   UNL     1     -11.741   9.057  70.758  1.00  0.00    -0.286 A  
HETATM   17  C   UNL     1     -10.534   9.189  69.915  1.00  0.00    -0.223 C  
HETATM   18  O   UNL     1      -9.546   9.815  70.248  1.00  0.00    -0.249 OA 
HETATM   19  O   UNL     1     -10.678   8.595  68.711  1.00  0.00    -0.174 OA 
ENDBRANCH   9  11
ENDBRANCH   8   9
TORSDOF 2
ENDMDL
MODEL      119
REMARK 921   NORMALIZED FREE ENERGY PREDICTED BY IDOCK:   -4.47 KCAL/MOL
REMARK 922        TOTAL FREE ENERGY PREDICTED BY IDOCK:   -5.62 KCAL/MOL
REMARK 923 INTER-LIGAND FREE ENERGY PREDICTED BY IDOCK:   -5.00 KCAL/MOL
REMARK 924 INTRA-LIGAND FREE ENERGY PREDICTED BY IDOCK:   -0.61 KCAL/MOL
REMARK 927      BINDING AFFINITY PREDICTED BY RF-SCORE:    0.00 PKD
ROOT
HETATM    1  C   UNL     1     -11.146  11.688  65.350  1.00  0.00    -0.299 C  
HETATM    2  C   UNL     1     -10.323  11.167  66.497  1.00  0.00    -0.290 A  
HETATM    3  C   UNL     1      -9.319  10.194  66.311  1.00  0.00    -0.172 A  
HETATM    4 CL   UNL     1      -9.129   9.343  64.816  1.00  0.00    -0.268 Cl 
HETATM    5  C   UNL     1      -8.454   9.835  67.349  1.00  0.00    -0.121 A  
HETATM    6  C   UNL     1      -8.555  10.458  68.583  1.00  0.00    -0.133 A  
HETATM    7  C   UNL     1      -9.596  11.353  68.804  1.00  0.00    -0.139 A  
HETATM    8  C   UNL     1     -10.549  11.637  67.806  1.00  0.00    -0.194 A  
ENDROOT
BRANCH   8   9
HETATM    9  N   UNL     1     -11.745  12.350  68.137  1.00  0.00    -0.341 NA 
HETATM   10  H   UNL     1     -12.601  12.099  67.643  1.00  0.00     0.000 HD 
BRANCH   9  11
HETATM   11  C   UNL     1     -11.816  13.386  69.110  1.00  0.00    -0.336 A  
HETATM   12  C   UNL     1     -12.268  13.096  70.413  1.00  0.00    -0.389 A  
HETATM   13  C   UNL     1     -12.170  14.027  71.447  1.00  0.00    -0.349 A  
HETATM   14  C   UNL     1     -11.645  15.290  71.189  1.00  0.00    -0.416 A  
HETATM   15  C   UNL     1     -11.313  15.644  69.885  1.00  0.00    -0.340 A  
HETATM   16  C   UNL     1     -11.445  14.714  68.840  1.00  0.00    -0.323 A  
HETATM   17  C   UNL     1     -11.203  15.202  67.466  1.00  0.00    -0.330 C  
HETATM   18  O   UNL     1     -10.324  15.993  67.178  1.00  0.00    -0.284 OA 
HETATM   19  O   UNL     1     -12.106  14.727  66.582  1.00  0.00    -0.278 OA 
ENDBRANCH   9  11
ENDBRANCH   8   9
TORSDOF 2
ENDMDL
MODEL      120
REMARK 921   NORMALIZED FREE ENERGY PREDICTED BY IDOCK:   -4.47 KCAL/MOL
REMARK 922        TOTAL FREE ENERGY PREDICTED BY IDOCK:   -5.62 KCAL/MOL
REMARK 923 INTER-LIGAND FREE ENERGY PREDICTED BY IDOCK:   -5.16 KCAL/MOL
REMARK 924 INTRA-LIGAND FREE ENERGY PREDICTED BY IDOCK:   -0.45 KCAL/MOL
REMARK 927      BINDING AFFINITY PREDICTED BY RF-SCORE:    0.00 PKD
ROOT
HETATM    1  C   UNL     1      -9.486   9.719  69.670  1.00  0.00    -0.237 C  
HETATM    2  C   UNL     1     -10.706   9.893  70.533  1.00  0.00    -0.382 A  
HETATM    3  C   UNL     1     -11.662  10.897  70.275  1.00  0.00    -0.347 A  
HETATM    4 CL   UNL     1     -11.385  12.156  69.120  1.00  0.00    -0.316 Cl 
HETATM    5  C   UNL     1     -12.868  10.949  70.980  1.00  0.00    -0.472 A  
HETATM    6  C   UNL     1     -13.157   9.987  71.935  1.00  0.00    -0.563 A  
HETATM    7  C   UNL     1     -12.186   9.046  72.259  1.00  0.00    -0.387 A  
HETATM    8  C   UNL     1     -10.919   9.052  71.643  1.00  0.00    -0.365 A  
ENDROOT
BRANCH   8   9
HETATM    9  N   UNL     1      -9.859   8.250  72.173  1.00  0.00    -0.243 NA 
HETATM   10  H   UNL     1      -8.982   8.714  72.409  1.00  0.00     0.000 HD 
BRANCH   9  11
HETATM   11  C   UNL     1      -9.949   6.845  72.391  1.00  0.00    -0.165 A  
HETATM   12  C   UNL     1     -10.504   6.355  73.590  1.00  0.00    -0.311 A  
HETATM   13  C   UNL     1     -10.792   5.002  73.764  1.00  0.00    -0.366 A  
HETATM   14  C   UNL     1     -10.497   4.098  72.748  1.00  0.00    -0.241 A  
HETATM   15  C   UNL     1      -9.830   4.538  71.609  1.00  0.00    -0.258 A  
HETATM   16  C   UNL     1      -9.511   5.898  71.451  1.00  0.00    -0.168 A  
HETATM   17  C   UNL     1      -8.686   6.267  70.282  1.00  0.00    -0.142 C  
HETATM   18  O   UNL     1      -8.815   5.766  69.181  1.00  0.00    -0.112 OA 
HETATM   19  O   UNL     1      -7.731   7.171  70.589  1.00  0.00    -0.091 OA 
ENDBRANCH   9  11
ENDBRANCH   8   9
TORSDOF 2
ENDMDL
MODEL      121
REMARK 921   NORMALIZED FREE ENERGY PREDICTED BY IDOCK:   -4.46 KCAL/MOL
REMARK 922        TOTAL FREE ENERGY PREDICTED BY IDOCK:   -5.60 KCAL/MOL
REMARK 923 INTER-LIGAND FREE ENERGY PREDICTED BY IDOCK:   -5.03 KCAL/MOL
REMARK 924 INTRA-LIGAND FREE ENERGY PREDICTED BY IDOCK:   -0.58 KCAL/MOL
REMARK 927      BINDING AFFINITY PREDICTED BY RF-SCORE:    0.00 PKD
ROOT
HETATM    1  C   UNL     1     -10.553   5.503  69.738  1.00  0.00    -0.388 C  
HETATM    2  C   UNL     1     -10.116   6.194  71.001  1.00  0.00    -0.231 A  
HETATM    3  C   UNL     1      -9.290   5.558  71.950  1.00  0.00    -0.144 A  
HETATM    4 CL   UNL     1      -8.929   3.867  71.868  1.00  0.00    -0.143 Cl 
HETATM    5  C   UNL     1      -8.759   6.259  73.036  1.00  0.00    -0.124 A  
HETATM    6  C   UNL     1      -9.017   7.613  73.183  1.00  0.00    -0.244 A  
HETATM    7  C   UNL     1      -9.900   8.230  72.303  1.00  0.00    -0.364 A  
HETATM    8  C   UNL     1     -10.539   7.511  71.274  1.00  0.00    -0.215 A  
ENDROOT
BRANCH   8   9
HETATM    9  N   UNL     1     -11.628   8.098  70.556  1.00  0.00    -0.438 NA 
HETATM   10  H   UNL     1     -12.189   7.490  69.959  1.00  0.00     0.000 HD 
BRANCH   9  11
HETATM   11  C   UNL     1     -11.980   9.476  70.621  1.00  0.00    -0.197 A  
HETATM   12  C   UNL     1     -13.017   9.897  71.476  1.00  0.00    -0.523 A  
HETATM   13  C   UNL     1     -13.263  11.248  71.719  1.00  0.00    -0.480 A  
HETATM   14  C   UNL     1     -12.493  12.215  71.080  1.00  0.00    -0.337 A  
HETATM   15  C   UNL     1     -11.551  11.827  70.133  1.00  0.00    -0.281 A  
HETATM   16  C   UNL     1     -11.328  10.466  69.866  1.00  0.00    -0.370 A  
HETATM   17  C   UNL     1     -10.412  10.136  68.754  1.00  0.00    -0.204 C  
HETATM   18  O   UNL     1      -9.390  10.753  68.519  1.00  0.00    -0.159 OA 
HETATM   19  O   UNL     1     -10.869   9.120  67.991  1.00  0.00    -0.185 OA 
ENDBRANCH   9  11
ENDBRANCH   8   9
TORSDOF 2
ENDMDL
MODEL      122
REMARK 921   NORMALIZED FREE ENERGY PREDICTED BY IDOCK:   -4.43 KCAL/MOL
REMARK 922        TOTAL FREE ENERGY PREDICTED BY IDOCK:   -5.57 KCAL/MOL
REMARK 923 INTER-LIGAND FREE ENERGY PREDICTED BY IDOCK:   -5.01 KCAL/MOL
REMARK 924 INTRA-LIGAND FREE ENERGY PREDICTED BY IDOCK:   -0.56 KCAL/MOL
REMARK 927      BINDING AFFINITY PREDICTED BY RF-SCORE:    0.00 PKD
ROOT
HETATM    1  C   UNL     1      -9.424   6.237  71.256  1.00  0.00    -0.171 C  
HETATM    2  C   UNL     1      -9.769   6.160  69.793  1.00  0.00    -0.187 A  
HETATM    3  C   UNL     1      -9.531   4.997  69.033  1.00  0.00    -0.137 A  
HETATM    4 CL   UNL     1      -8.602   3.672  69.645  1.00  0.00    -0.099 Cl 
HETATM    5  C   UNL     1     -10.001   4.879  67.721  1.00  0.00    -0.186 A  
HETATM    6  C   UNL     1     -10.738   5.905  67.152  1.00  0.00    -0.387 A  
HETATM    7  C   UNL     1     -10.902   7.091  67.860  1.00  0.00    -0.252 A  
HETATM    8  C   UNL     1     -10.334   7.272  69.137  1.00  0.00    -0.205 A  
ENDROOT
BRANCH   8   9
HETATM    9  N   UNL     1     -10.293   8.575  69.727  1.00  0.00    -0.208 NA 
HETATM   10  H   UNL     1      -9.415   9.091  69.682  1.00  0.00     0.000 HD 
BRANCH   9  11
HETATM   11  C   UNL     1     -11.399   9.197  70.373  1.00  0.00    -0.224 A  
HETATM   12  C   UNL     1     -12.144   8.483  71.332  1.00  0.00    -0.345 A  
HETATM   13  C   UNL     1     -13.104   9.108  72.128  1.00  0.00    -0.516 A  
HETATM   14  C   UNL     1     -13.366  10.463  71.955  1.00  0.00    -0.469 A  
HETATM   15  C   UNL     1     -12.737  11.159  70.927  1.00  0.00    -0.438 A  
HETATM   16  C   UNL     1     -11.795  10.518  70.106  1.00  0.00    -0.404 A  
HETATM   17  C   UNL     1     -11.271  11.282  68.953  1.00  0.00    -0.253 C  
HETATM   18  O   UNL     1     -11.009  12.469  68.996  1.00  0.00    -0.233 OA 
HETATM   19  O   UNL     1     -11.181  10.532  67.834  1.00  0.00    -0.296 OA 
ENDBRANCH   9  11
ENDBRANCH   8   9
TORSDOF 2
ENDMDL
MODEL      123
REMARK 921   NORMALIZED FREE ENERGY PREDICTED BY IDOCK:   -4.42 KCAL/MOL
REMARK 922        TOTAL FREE ENERGY PREDICTED BY IDOCK:   -5.56 KCAL/MOL
REMARK 923 INTER-LIGAND FREE ENERGY PREDICTED BY IDOCK:   -4.99 KCAL/MOL
REMARK 924 INTRA-LIGAND FREE ENERGY PREDICTED BY IDOCK:   -0.57 KCAL/MOL
REMARK 927      BINDING AFFINITY PREDICTED BY RF-SCORE:    0.00 PKD
ROOT
HETATM    1  C   UNL     1      -8.853   9.988  68.142  1.00  0.00    -0.122 C  
HETATM    2  C   UNL     1      -9.957  10.558  68.991  1.00  0.00    -0.223 A  
HETATM    3  C   UNL     1     -10.676  11.707  68.604  1.00  0.00    -0.212 A  
HETATM    4 CL   UNL     1     -10.185  12.692  67.268  1.00  0.00    -0.223 Cl 
HETATM    5  C   UNL     1     -11.801  12.134  69.316  1.00  0.00    -0.370 A  
HETATM    6  C   UNL     1     -12.247  11.410  70.410  1.00  0.00    -0.450 A  
HETATM    7  C   UNL     1     -11.495  10.327  70.853  1.00  0.00    -0.425 A  
HETATM    8  C   UNL     1     -10.293   9.954  70.220  1.00  0.00    -0.281 A  
ENDROOT
BRANCH   8   9
HETATM    9  N   UNL     1      -9.413   9.015  70.844  1.00  0.00    -0.244 NA 
HETATM   10  H   UNL     1      -8.409   9.160  70.739  1.00  0.00     0.000 HD 
BRANCH   9  11
HETATM   11  C   UNL     1      -9.848   7.890  71.601  1.00  0.00    -0.167 A  
HETATM   12  C   UNL     1      -9.737   7.903  73.005  1.00  0.00    -0.349 A  
HETATM   13  C   UNL     1     -10.326   6.916  73.795  1.00  0.00    -0.409 A  
HETATM   14  C   UNL     1     -11.015   5.869  73.191  1.00  0.00    -0.286 A  
HETATM   15  C   UNL     1     -11.027   5.764  71.804  1.00  0.00    -0.317 A  
HETATM   16  C   UNL     1     -10.404   6.743  71.011  1.00  0.00    -0.228 A  
HETATM   17  C   UNL     1     -10.342   6.494  69.555  1.00  0.00    -0.200 C  
HETATM   18  O   UNL     1     -11.251   5.994  68.918  1.00  0.00    -0.344 OA 
HETATM   19  O   UNL     1      -9.144   6.819  69.025  1.00  0.00    -0.138 OA 
ENDBRANCH   9  11
ENDBRANCH   8   9
TORSDOF 2
ENDMDL
MODEL      124
REMARK 921   NORMALIZED FREE ENERGY PREDICTED BY IDOCK:   -4.42 KCAL/MOL
REMARK 922        TOTAL FREE ENERGY PREDICTED BY IDOCK:   -5.56 KCAL/MOL
REMARK 923 INTER-LIGAND FREE ENERGY PREDICTED BY IDOCK:   -4.85 KCAL/MOL
REMARK 924 INTRA-LIGAND FREE ENERGY PREDICTED BY IDOCK:   -0.71 KCAL/MOL
REMARK 927      BINDING AFFINITY PREDICTED BY RF-SCORE:    0.00 PKD
ROOT
HETATM    1  C   UNL     1     -10.659  10.227  70.155  1.00  0.00    -0.303 C  
HETATM    2  C   UNL     1     -11.702   9.392  70.846  1.00  0.00    -0.378 A  
HETATM    3  C   UNL     1     -12.856   9.967  71.417  1.00  0.00    -0.405 A  
HETATM    4 CL   UNL     1     -13.039  11.678  71.596  1.00  0.00    -0.527 Cl 
HETATM    5  C   UNL     1     -13.894   9.171  71.912  1.00  0.00    -0.455 A  
HETATM    6  C   UNL     1     -13.815   7.791  71.824  1.00  0.00    -0.440 A  
HETATM    7  C   UNL     1     -12.645   7.212  71.343  1.00  0.00    -0.432 A  
HETATM    8  C   UNL     1     -11.541   7.996  70.951  1.00  0.00    -0.269 A  
ENDROOT
BRANCH   8   9
HETATM    9  N   UNL     1     -10.272   7.380  70.712  1.00  0.00    -0.197 NA 
HETATM   10  H   UNL     1     -10.035   7.135  69.751  1.00  0.00     0.000 HD 
BRANCH   9  11
HETATM   11  C   UNL     1      -9.319   7.088  71.729  1.00  0.00    -0.144 A  
HETATM   12  C   UNL     1      -8.362   8.056  72.093  1.00  0.00    -0.188 A  
HETATM   13  C   UNL     1      -7.542   7.890  73.209  1.00  0.00    -0.169 A  
HETATM   14  C   UNL     1      -7.640   6.730  73.970  1.00  0.00    -0.101 A  
HETATM   15  C   UNL     1      -8.484   5.705  73.556  1.00  0.00    -0.115 A  
HETATM   16  C   UNL     1      -9.284   5.861  72.412  1.00  0.00    -0.146 A  
HETATM   17  C   UNL     1     -10.053   4.682  71.958  1.00  0.00    -0.197 C  
HETATM   18  O   UNL     1     -10.601   3.904  72.715  1.00  0.00    -0.171 OA 
HETATM   19  O   UNL     1     -10.021   4.530  70.617  1.00  0.00    -0.212 OA 
ENDBRANCH   9  11
ENDBRANCH   8   9
TORSDOF 2
ENDMDL
MODEL      125
REMARK 921   NORMALIZED FREE ENERGY PREDICTED BY IDOCK:   -4.41 KCAL/MOL
REMARK 922        TOTAL FREE ENERGY PREDICTED BY IDOCK:   -5.54 KCAL/MOL
REMARK 923 INTER-LIGAND FREE ENERGY PREDICTED BY IDOCK:   -4.88 KCAL/MOL
REMARK 924 INTRA-LIGAND FREE ENERGY PREDICTED BY IDOCK:   -0.67 KCAL/MOL
REMARK 927      BINDING AFFINITY PREDICTED BY RF-SCORE:    0.00 PKD
ROOT
HETATM    1  C   UNL     1      -9.240   6.493  69.326  1.00  0.00    -0.139 C  
HETATM    2  C   UNL     1     -10.217   7.003  70.349  1.00  0.00    -0.209 A  
HETATM    3  C   UNL     1     -10.629   6.215  71.443  1.00  0.00    -0.243 A  
HETATM    4 CL   UNL     1     -10.252   4.529  71.555  1.00  0.00    -0.233 Cl 
HETATM    5  C   UNL     1     -11.408   6.751  72.473  1.00  0.00    -0.292 A  
HETATM    6  C   UNL     1     -11.769   8.089  72.446  1.00  0.00    -0.444 A  
HETATM    7  C   UNL     1     -11.443   8.853  71.330  1.00  0.00    -0.381 A  
HETATM    8  C   UNL     1     -10.762   8.298  70.229  1.00  0.00    -0.235 A  
ENDROOT
BRANCH   8   9
HETATM    9  N   UNL     1     -10.671   9.024  69.000  1.00  0.00    -0.367 NA 
HETATM   10  H   UNL     1     -11.238   8.704  68.215  1.00  0.00     0.000 HD 
BRANCH   9  11
HETATM   11  C   UNL     1      -9.841  10.163  68.802  1.00  0.00    -0.175 A  
HETATM   12  C   UNL     1      -8.497  10.135  69.224  1.00  0.00    -0.167 A  
HETATM   13  C   UNL     1      -7.599  11.144  68.878  1.00  0.00    -0.133 A  
HETATM   14  C   UNL     1      -8.037  12.228  68.124  1.00  0.00    -0.158 A  
HETATM   15  C   UNL     1      -9.387  12.343  67.806  1.00  0.00    -0.196 A  
HETATM   16  C   UNL     1     -10.295  11.341  68.186  1.00  0.00    -0.205 A  
HETATM   17  C   UNL     1     -11.729  11.597  67.932  1.00  0.00    -0.259 C  
HETATM   18  O   UNL     1     -12.148  12.146  66.931  1.00  0.00    -0.600 OA 
HETATM   19  O   UNL     1     -12.513  11.217  68.964  1.00  0.00    -0.439 OA 
ENDBRANCH   9  11
ENDBRANCH   8   9
TORSDOF 2
ENDMDL
MODEL      126
REMARK 921   NORMALIZED FREE ENERGY PREDICTED BY IDOCK:   -4.41 KCAL/MOL
REMARK 922        TOTAL FREE ENERGY PREDICTED BY IDOCK:   -5.54 KCAL/MOL
REMARK 923 INTER-LIGAND FREE ENERGY PREDICTED BY IDOCK:   -4.86 KCAL/MOL
REMARK 924 INTRA-LIGAND FREE ENERGY PREDICTED BY IDOCK:   -0.68 KCAL/MOL
REMARK 927      BINDING AFFINITY PREDICTED BY RF-SCORE:    0.00 PKD
ROOT
HETATM    1  C   UNL     1     -12.089  15.058  69.433  1.00  0.00    -0.290 C  
HETATM    2  C   UNL     1     -12.060  13.599  69.799  1.00  0.00    -0.396 A  
HETATM    3  C   UNL     1     -12.514  13.137  71.051  1.00  0.00    -0.318 A  
HETATM    4 CL   UNL     1     -12.895  14.218  72.347  1.00  0.00    -0.425 Cl 
HETATM    5  C   UNL     1     -12.635  11.770  71.320  1.00  0.00    -0.401 A  
HETATM    6  C   UNL     1     -12.331  10.839  70.339  1.00  0.00    -0.438 A  
HETATM    7  C   UNL     1     -11.799  11.281  69.133  1.00  0.00    -0.423 A  
HETATM    8  C   UNL     1     -11.558  12.647  68.888  1.00  0.00    -0.317 A  
ENDROOT
BRANCH   8   9
HETATM    9  N   UNL     1     -10.777  13.049  67.759  1.00  0.00    -0.225 NA 
HETATM   10  H   UNL     1     -11.249  13.551  67.007  1.00  0.00     0.000 HD 
BRANCH   9  11
HETATM   11  C   UNL     1      -9.384  12.791  67.616  1.00  0.00    -0.191 A  
HETATM   12  C   UNL     1      -8.445  13.659  68.208  1.00  0.00    -0.170 A  
HETATM   13  C   UNL     1      -7.088  13.343  68.262  1.00  0.00    -0.109 A  
HETATM   14  C   UNL     1      -6.633  12.158  67.692  1.00  0.00    -0.116 A  
HETATM   15  C   UNL     1      -7.520  11.349  66.989  1.00  0.00    -0.147 A  
HETATM   16  C   UNL     1      -8.881  11.688  66.907  1.00  0.00    -0.190 A  
HETATM   17  C   UNL     1      -9.734  10.855  66.033  1.00  0.00    -0.224 C  
HETATM   18  O   UNL     1      -9.625   9.647  65.940  1.00  0.00    -0.215 OA 
HETATM   19  O   UNL     1     -10.598  11.590  65.301  1.00  0.00    -0.269 OA 
ENDBRANCH   9  11
ENDBRANCH   8   9
TORSDOF 2
ENDMDL
MODEL      127
REMARK 921   NORMALIZED FREE ENERGY PREDICTED BY IDOCK:   -4.40 KCAL/MOL
REMARK 922        TOTAL FREE ENERGY PREDICTED BY IDOCK:   -5.54 KCAL/MOL
REMARK 923 INTER-LIGAND FREE ENERGY PREDICTED BY IDOCK:   -5.14 KCAL/MOL
REMARK 924 INTRA-LIGAND FREE ENERGY PREDICTED BY IDOCK:   -0.39 KCAL/MOL
REMARK 927      BINDING AFFINITY PREDICTED BY RF-SCORE:    0.00 PKD
ROOT
HETATM    1  C   UNL     1      -8.338  11.016  68.160  1.00  0.00    -0.130 C  
HETATM    2  C   UNL     1      -8.823   9.670  67.694  1.00  0.00    -0.127 A  
HETATM    3  C   UNL     1      -7.946   8.578  67.535  1.00  0.00    -0.106 A  
HETATM    4 CL   UNL     1      -6.226   8.761  67.610  1.00  0.00    -0.052 Cl 
HETATM    5  C   UNL     1      -8.427   7.295  67.259  1.00  0.00    -0.118 A  
HETATM    6  C   UNL     1      -9.791   7.070  67.164  1.00  0.00    -0.225 A  
HETATM    7  C   UNL     1     -10.660   8.154  67.232  1.00  0.00    -0.344 A  
HETATM    8  C   UNL     1     -10.185   9.471  67.390  1.00  0.00    -0.227 A  
ENDROOT
BRANCH   8   9
HETATM    9  N   UNL     1     -11.066  10.581  67.196  1.00  0.00    -0.247 NA 
HETATM   10  H   UNL     1     -11.388  10.774  66.247  1.00  0.00     0.000 HD 
BRANCH   9  11
HETATM   11  C   UNL     1     -11.523  11.434  68.241  1.00  0.00    -0.299 A  
HETATM   12  C   UNL     1     -11.721  10.914  69.535  1.00  0.00    -0.400 A  
HETATM   13  C   UNL     1     -11.976  11.744  70.627  1.00  0.00    -0.320 A  
HETATM   14  C   UNL     1     -12.071  13.119  70.439  1.00  0.00    -0.392 A  
HETATM   15  C   UNL     1     -12.008  13.644  69.151  1.00  0.00    -0.394 A  
HETATM   16  C   UNL     1     -11.785  12.800  68.050  1.00  0.00    -0.405 A  
HETATM   17  C   UNL     1     -11.866  13.409  66.705  1.00  0.00    -0.403 C  
HETATM   18  O   UNL     1     -11.440  14.518  66.442  1.00  0.00    -0.346 OA 
HETATM   19  O   UNL     1     -12.524  12.628  65.823  1.00  0.00    -0.607 OA 
ENDBRANCH   9  11
ENDBRANCH   8   9
TORSDOF 2
ENDMDL
MODEL      128
REMARK 921   NORMALIZED FREE ENERGY PREDICTED BY IDOCK:   -4.40 KCAL/MOL
REMARK 922        TOTAL FREE ENERGY PREDICTED BY IDOCK:   -5.53 KCAL/MOL
REMARK 923 INTER-LIGAND FREE ENERGY PREDICTED BY IDOCK:   -4.85 KCAL/MOL
REMARK 924 INTRA-LIGAND FREE ENERGY PREDICTED BY IDOCK:   -0.68 KCAL/MOL
REMARK 927      BINDING AFFINITY PREDICTED BY RF-SCORE:    0.00 PKD
ROOT
HETATM    1  C   UNL     1     -11.098  16.274  65.059  1.00  0.00    -0.262 C  
HETATM    2  C   UNL     1     -10.140  16.724  66.129  1.00  0.00    -0.360 A  
HETATM    3  C   UNL     1      -9.992  18.084  66.471  1.00  0.00    -0.371 A  
HETATM    4 CL   UNL     1     -10.698  19.352  65.528  1.00  0.00    -0.414 Cl 
HETATM    5  C   UNL     1      -9.223  18.476  67.571  1.00  0.00    -0.288 A  
HETATM    6  C   UNL     1      -8.609  17.521  68.366  1.00  0.00    -0.275 A  
HETATM    7  C   UNL     1      -8.676  16.185  67.986  1.00  0.00    -0.176 A  
HETATM    8  C   UNL     1      -9.346  15.783  66.814  1.00  0.00    -0.242 A  
ENDROOT
BRANCH   8   9
HETATM    9  N   UNL     1      -9.180  14.454  66.311  1.00  0.00    -0.476 NA 
HETATM   10  H   UNL     1      -8.649  14.334  65.448  1.00  0.00     0.000 HD 
BRANCH   9  11
HETATM   11  C   UNL     1      -9.707  13.288  66.936  1.00  0.00    -0.248 A  
HETATM   12  C   UNL     1     -11.034  13.285  67.410  1.00  0.00    -0.287 A  
HETATM   13  C   UNL     1     -11.653  12.114  67.847  1.00  0.00    -0.413 A  
HETATM   14  C   UNL     1     -10.941  10.919  67.852  1.00  0.00    -0.325 A  
HETATM   15  C   UNL     1      -9.592  10.921  67.512  1.00  0.00    -0.171 A  
HETATM   16  C   UNL     1      -8.963  12.109  67.104  1.00  0.00    -0.189 A  
HETATM   17  C   UNL     1      -7.501  12.061  66.890  1.00  0.00    -0.051 C  
HETATM   18  O   UNL     1      -6.926  11.118  66.379  1.00  0.00    -0.135 OA 
HETATM   19  O   UNL     1      -6.870  13.146  67.386  1.00  0.00    -0.163 OA 
ENDBRANCH   9  11
ENDBRANCH   8   9
TORSDOF 2
ENDMDL
MODEL      129
REMARK 921   NORMALIZED FREE ENERGY PREDICTED BY IDOCK:   -4.37 KCAL/MOL
REMARK 922        TOTAL FREE ENERGY PREDICTED BY IDOCK:   -5.50 KCAL/MOL
REMARK 923 INTER-LIGAND FREE ENERGY PREDICTED BY IDOCK:   -4.84 KCAL/MOL
REMARK 924 INTRA-LIGAND FREE ENERGY PREDICTED BY IDOCK:   -0.66 KCAL/MOL
REMARK 927      BINDING AFFINITY PREDICTED BY RF-SCORE:    0.00 PKD
ROOT
HETATM    1  C   UNL     1     -11.523   7.413  72.294  1.00  0.00    -0.329 C  
HETATM    2  C   UNL     1     -11.783   8.680  71.525  1.00  0.00    -0.369 A  
HETATM    3  C   UNL     1     -12.977   9.413  71.682  1.00  0.00    -0.391 A  
HETATM    4 CL   UNL     1     -14.330   8.790  72.563  1.00  0.00    -0.451 Cl 
HETATM    5  C   UNL     1     -13.140  10.669  71.088  1.00  0.00    -0.415 A  
HETATM    6  C   UNL     1     -12.110  11.229  70.351  1.00  0.00    -0.474 A  
HETATM    7  C   UNL     1     -10.963  10.477  70.117  1.00  0.00    -0.338 A  
HETATM    8  C   UNL     1     -10.829   9.163  70.607  1.00  0.00    -0.264 A  
ENDROOT
BRANCH   8   9
HETATM    9  N   UNL     1      -9.767   8.326  70.138  1.00  0.00    -0.175 NA 
HETATM   10  H   UNL     1      -8.902   8.308  70.677  1.00  0.00     0.000 HD 
BRANCH   9  11
HETATM   11  C   UNL     1      -9.841   7.519  68.968  1.00  0.00    -0.170 A  
HETATM   12  C   UNL     1     -10.212   6.163  69.072  1.00  0.00    -0.237 A  
HETATM   13  C   UNL     1     -10.487   5.391  67.944  1.00  0.00    -0.202 A  
HETATM   14  C   UNL     1     -10.363   5.952  66.677  1.00  0.00    -0.283 A  
HETATM   15  C   UNL     1      -9.873   7.248  66.544  1.00  0.00    -0.202 A  
HETATM   16  C   UNL     1      -9.565   8.012  67.682  1.00  0.00    -0.185 A  
HETATM   17  C   UNL     1      -8.924   9.326  67.460  1.00  0.00    -0.118 C  
HETATM   18  O   UNL     1      -9.227  10.078  66.554  1.00  0.00    -0.146 OA 
HETATM   19  O   UNL     1      -7.922   9.565  68.333  1.00  0.00    -0.092 OA 
ENDBRANCH   9  11
ENDBRANCH   8   9
TORSDOF 2
ENDMDL
MODEL      130
REMARK 921   NORMALIZED FREE ENERGY PREDICTED BY IDOCK:   -4.37 KCAL/MOL
REMARK 922        TOTAL FREE ENERGY PREDICTED BY IDOCK:   -5.50 KCAL/MOL
REMARK 923 INTER-LIGAND FREE ENERGY PREDICTED BY IDOCK:   -5.44 KCAL/MOL
REMARK 924 INTRA-LIGAND FREE ENERGY PREDICTED BY IDOCK:   -0.06 KCAL/MOL
REMARK 927      BINDING AFFINITY PREDICTED BY RF-SCORE:    0.00 PKD
ROOT
HETATM    1  C   UNL     1     -11.297  15.918  64.448  1.00  0.00    -0.276 C  
HETATM    2  C   UNL     1     -10.302  15.622  65.537  1.00  0.00    -0.421 A  
HETATM    3  C   UNL     1      -9.787  16.636  66.370  1.00  0.00    -0.292 A  
HETATM    4 CL   UNL     1     -10.055  18.315  66.048  1.00  0.00    -0.322 Cl 
HETATM    5  C   UNL     1      -8.991  16.330  67.478  1.00  0.00    -0.193 A  
HETATM    6  C   UNL     1      -8.715  15.009  67.792  1.00  0.00    -0.167 A  
HETATM    7  C   UNL     1      -9.143  14.007  66.928  1.00  0.00    -0.262 A  
HETATM    8  C   UNL     1      -9.845  14.305  65.743  1.00  0.00    -0.287 A  
ENDROOT
BRANCH   8   9
HETATM    9  N   UNL     1     -10.042  13.292  64.752  1.00  0.00    -0.574 NA 
HETATM   10  H   UNL     1     -10.241  13.592  63.797  1.00  0.00     0.000 HD 
BRANCH   9  11
HETATM   11  C   UNL     1      -9.979  11.894  65.011  1.00  0.00    -0.248 A  
HETATM   12  C   UNL     1      -9.100  11.080  64.269  1.00  0.00    -0.116 A  
HETATM   13  C   UNL     1      -8.862   9.751  64.618  1.00  0.00    -0.244 A  
HETATM   14  C   UNL     1      -9.528   9.193  65.704  1.00  0.00    -0.309 A  
HETATM   15  C   UNL     1     -10.497   9.937  66.372  1.00  0.00    -0.197 A  
HETATM   16  C   UNL     1     -10.759  11.265  65.996  1.00  0.00    -0.301 A  
HETATM   17  C   UNL     1     -11.892  11.944  66.660  1.00  0.00    -0.067 C  
HETATM   18  O   UNL     1     -12.159  11.811  67.839  1.00  0.00    -0.592 OA 
HETATM   19  O   UNL     1     -12.634  12.672  65.799  1.00  0.00    -0.575 OA 
ENDBRANCH   9  11
ENDBRANCH   8   9
TORSDOF 2
ENDMDL
MODEL      131
REMARK 921   NORMALIZED FREE ENERGY PREDICTED BY IDOCK:   -4.37 KCAL/MOL
REMARK 922        TOTAL FREE ENERGY PREDICTED BY IDOCK:   -5.50 KCAL/MOL
REMARK 923 INTER-LIGAND FREE ENERGY PREDICTED BY IDOCK:   -5.00 KCAL/MOL
REMARK 924 INTRA-LIGAND FREE ENERGY PREDICTED BY IDOCK:   -0.50 KCAL/MOL
REMARK 927      BINDING AFFINITY PREDICTED BY RF-SCORE:    0.00 PKD
ROOT
HETATM    1  C   UNL     1      -9.280  11.593  66.334  1.00  0.00    -0.219 C  
HETATM    2  C   UNL     1     -10.415  11.825  65.375  1.00  0.00    -0.317 A  
HETATM    3  C   UNL     1     -10.493  11.153  64.137  1.00  0.00    -0.377 A  
HETATM    4 CL   UNL     1      -9.177  10.216  63.516  1.00  0.00    -0.298 Cl 
HETATM    5  C   UNL     1     -11.628  11.252  63.327  1.00  0.00     0.233 A  
HETATM    6  C   UNL     1     -12.717  12.000  63.746  1.00  0.00    -0.516 A  
HETATM    7  C   UNL     1     -12.618  12.737  64.921  1.00  0.00    -0.541 A  
HETATM    8  C   UNL     1     -11.437  12.743  65.690  1.00  0.00    -0.342 A  
ENDROOT
BRANCH   8   9
HETATM    9  N   UNL     1     -11.268  13.701  66.739  1.00  0.00    -0.307 NA 
HETATM   10  H   UNL     1     -11.458  13.400  67.695  1.00  0.00     0.000 HD 
BRANCH   9  11
HETATM   11  C   UNL     1     -10.853  15.048  66.535  1.00  0.00    -0.320 A  
HETATM   12  C   UNL     1     -10.942  15.624  65.253  1.00  0.00    -0.375 A  
HETATM   13  C   UNL     1     -10.735  16.988  65.046  1.00  0.00     0.006 A  
HETATM   14  C   UNL     1     -10.398  17.804  66.121  1.00  0.00    -0.340 A  
HETATM   15  C   UNL     1     -10.177  17.237  67.372  1.00  0.00    -0.325 A  
HETATM   16  C   UNL     1     -10.354  15.857  67.569  1.00  0.00    -0.283 A  
HETATM   17  C   UNL     1      -9.970  15.308  68.887  1.00  0.00    -0.225 C  
HETATM   18  O   UNL     1     -10.172  15.883  69.940  1.00  0.00    -0.273 OA 
HETATM   19  O   UNL     1      -9.313  14.133  68.786  1.00  0.00    -0.180 OA 
ENDBRANCH   9  11
ENDBRANCH   8   9
TORSDOF 2
ENDMDL
MODEL      132
REMARK 921   NORMALIZED FREE ENERGY PREDICTED BY IDOCK:   -4.36 KCAL/MOL
REMARK 922        TOTAL FREE ENERGY PREDICTED BY IDOCK:   -5.48 KCAL/MOL
REMARK 923 INTER-LIGAND FREE ENERGY PREDICTED BY IDOCK:   -4.95 KCAL/MOL
REMARK 924 INTRA-LIGAND FREE ENERGY PREDICTED BY IDOCK:   -0.53 KCAL/MOL
REMARK 927      BINDING AFFINITY PREDICTED BY RF-SCORE:    0.00 PKD
ROOT
HETATM    1  C   UNL     1      -7.454  12.091  66.986  1.00  0.00    -0.106 C  
HETATM    2  C   UNL     1      -8.143  13.140  67.815  1.00  0.00    -0.165 A  
HETATM    3  C   UNL     1      -7.425  14.005  68.666  1.00  0.00    -0.125 A  
HETATM    4 CL   UNL     1      -5.748  13.767  69.018  1.00  0.00    -0.073 Cl 
HETATM    5  C   UNL     1      -8.053  15.078  69.307  1.00  0.00    -0.178 A  
HETATM    6  C   UNL     1      -9.399  15.325  69.092  1.00  0.00    -0.236 A  
HETATM    7  C   UNL     1     -10.135  14.427  68.326  1.00  0.00    -0.239 A  
HETATM    8  C   UNL     1      -9.545  13.275  67.770  1.00  0.00    -0.214 A  
ENDROOT
BRANCH   8   9
HETATM    9  N   UNL     1     -10.367  12.243  67.215  1.00  0.00    -0.213 NA 
HETATM   10  H   UNL     1     -10.499  11.392  67.762  1.00  0.00     0.000 HD 
BRANCH   9  11
HETATM   11  C   UNL     1     -11.012  12.328  65.949  1.00  0.00    -0.302 A  
HETATM   12  C   UNL     1     -11.981  13.325  65.720  1.00  0.00    -0.463 A  
HETATM   13  C   UNL     1     -12.493  13.570  64.446  1.00  0.00    -0.324 A  
HETATM   14  C   UNL     1     -12.068  12.794  63.372  1.00  0.00    -0.619 A  
HETATM   15  C   UNL     1     -11.211  11.721  63.595  1.00  0.00    -0.519 A  
HETATM   16  C   UNL     1     -10.724  11.456  64.886  1.00  0.00    -0.350 A  
HETATM   17  C   UNL     1      -9.929  10.223  65.069  1.00  0.00    -0.323 C  
HETATM   18  O   UNL     1      -9.122   9.816  64.254  1.00  0.00    -0.233 OA 
HETATM   19  O   UNL     1     -10.248   9.567  66.204  1.00  0.00    -0.273 OA 
ENDBRANCH   9  11
ENDBRANCH   8   9
TORSDOF 2
ENDMDL
MODEL      133
REMARK 921   NORMALIZED FREE ENERGY PREDICTED BY IDOCK:   -4.35 KCAL/MOL
REMARK 922        TOTAL FREE ENERGY PREDICTED BY IDOCK:   -5.48 KCAL/MOL
REMARK 923 INTER-LIGAND FREE ENERGY PREDICTED BY IDOCK:   -4.77 KCAL/MOL
REMARK 924 INTRA-LIGAND FREE ENERGY PREDICTED BY IDOCK:   -0.71 KCAL/MOL
REMARK 927      BINDING AFFINITY PREDICTED BY RF-SCORE:    0.00 PKD
ROOT
HETATM    1  C   UNL     1      -8.160   8.944  64.392  1.00  0.00    -0.153 C  
HETATM    2  C   UNL     1      -8.669   9.028  65.805  1.00  0.00    -0.197 A  
HETATM    3  C   UNL     1      -8.954   7.874  66.563  1.00  0.00    -0.161 A  
HETATM    4 CL   UNL     1      -8.986   6.294  65.857  1.00  0.00    -0.152 Cl 
HETATM    5  C   UNL     1      -9.270   7.958  67.923  1.00  0.00    -0.139 A  
HETATM    6  C   UNL     1      -9.284   9.189  68.558  1.00  0.00    -0.136 A  
HETATM    7  C   UNL     1      -9.092  10.340  67.801  1.00  0.00    -0.138 A  
HETATM    8  C   UNL     1      -8.890  10.282  66.408  1.00  0.00    -0.145 A  
ENDROOT
BRANCH   8   9
HETATM    9  N   UNL     1      -8.957  11.476  65.622  1.00  0.00    -0.377 NA 
HETATM   10  H   UNL     1      -8.079  11.911  65.340  1.00  0.00     0.000 HD 
BRANCH   9  11
HETATM   11  C   UNL     1     -10.170  12.096  65.209  1.00  0.00    -0.274 A  
HETATM   12  C   UNL     1     -10.792  11.694  64.010  1.00  0.00    -0.455 A  
HETATM   13  C   UNL     1     -12.072  12.129  63.667  1.00  0.00    -0.648 A  
HETATM   14  C   UNL     1     -12.749  13.009  64.506  1.00  0.00    -0.318 A  
HETATM   15  C   UNL     1     -12.105  13.521  65.628  1.00  0.00    -0.467 A  
HETATM   16  C   UNL     1     -10.803  13.107  65.953  1.00  0.00    -0.288 A  
HETATM   17  C   UNL     1     -10.135  13.793  67.079  1.00  0.00    -0.256 C  
HETATM   18  O   UNL     1     -10.708  14.122  68.101  1.00  0.00    -0.237 OA 
HETATM   19  O   UNL     1      -8.841  14.075  66.819  1.00  0.00    -0.225 OA 
ENDBRANCH   9  11
ENDBRANCH   8   9
TORSDOF 2
ENDMDL
MODEL      134
REMARK 921   NORMALIZED FREE ENERGY PREDICTED BY IDOCK:   -4.35 KCAL/MOL
REMARK 922        TOTAL FREE ENERGY PREDICTED BY IDOCK:   -5.47 KCAL/MOL
REMARK 923 INTER-LIGAND FREE ENERGY PREDICTED BY IDOCK:   -5.27 KCAL/MOL
REMARK 924 INTRA-LIGAND FREE ENERGY PREDICTED BY IDOCK:   -0.21 KCAL/MOL
REMARK 927      BINDING AFFINITY PREDICTED BY RF-SCORE:    0.00 PKD
ROOT
HETATM    1  C   UNL     1      -9.857  11.044  68.740  1.00  0.00    -0.206 C  
HETATM    2  C   UNL     1     -10.850  12.159  68.927  1.00  0.00    -0.241 A  
HETATM    3  C   UNL     1     -11.944  12.042  69.809  1.00  0.00    -0.300 A  
HETATM    4 CL   UNL     1     -12.376  10.535  70.542  1.00  0.00    -0.407 Cl 
HETATM    5  C   UNL     1     -12.765  13.136  70.096  1.00  0.00     0.060 A  
HETATM    6  C   UNL     1     -12.496  14.373  69.533  1.00  0.00    -0.164 A  
HETATM    7  C   UNL     1     -11.475  14.480  68.596  1.00  0.00    -0.321 A  
HETATM    8  C   UNL     1     -10.714  13.361  68.204  1.00  0.00    -0.253 A  
ENDROOT
BRANCH   8   9
HETATM    9  N   UNL     1      -9.856  13.440  67.061  1.00  0.00    -0.244 NA 
HETATM   10  H   UNL     1      -9.064  14.082  67.103  1.00  0.00     0.000 HD 
BRANCH   9  11
HETATM   11  C   UNL     1     -10.037  12.682  65.870  1.00  0.00    -0.264 A  
HETATM   12  C   UNL     1      -9.131  11.652  65.548  1.00  0.00    -0.048 A  
HETATM   13  C   UNL     1      -9.376  10.760  64.504  1.00  0.00    -0.273 A  
HETATM   14  C   UNL     1     -10.525  10.902  63.732  1.00  0.00    -0.329 A  
HETATM   15  C   UNL     1     -11.368  11.988  63.947  1.00  0.00    -0.503 A  
HETATM   16  C   UNL     1     -11.100  12.904  64.978  1.00  0.00    -0.320 A  
HETATM   17  C   UNL     1     -11.962  14.102  65.059  1.00  0.00    -0.408 C  
HETATM   18  O   UNL     1     -13.161  14.084  64.853  1.00  0.00    -0.693 OA 
HETATM   19  O   UNL     1     -11.261  15.226  65.318  1.00  0.00    -0.352 OA 
ENDBRANCH   9  11
ENDBRANCH   8   9
TORSDOF 2
ENDMDL
MODEL      135
REMARK 921   NORMALIZED FREE ENERGY PREDICTED BY IDOCK:   -4.33 KCAL/MOL
REMARK 922        TOTAL FREE ENERGY PREDICTED BY IDOCK:   -5.46 KCAL/MOL
REMARK 923 INTER-LIGAND FREE ENERGY PREDICTED BY IDOCK:   -4.93 KCAL/MOL
REMARK 924 INTRA-LIGAND FREE ENERGY PREDICTED BY IDOCK:   -0.53 KCAL/MOL
REMARK 927      BINDING AFFINITY PREDICTED BY RF-SCORE:    0.00 PKD
ROOT
HETATM    1  C   UNL     1      -7.735  11.703  67.702  1.00  0.00    -0.133 C  
HETATM    2  C   UNL     1      -9.199  12.049  67.753  1.00  0.00    -0.190 A  
HETATM    3  C   UNL     1      -9.686  13.292  67.298  1.00  0.00    -0.231 A  
HETATM    4 CL   UNL     1      -8.629  14.600  66.890  1.00  0.00    -0.249 Cl 
HETATM    5  C   UNL     1     -11.058  13.541  67.199  1.00  0.00    -0.308 A  
HETATM    6  C   UNL     1     -11.970  12.550  67.526  1.00  0.00    -0.287 A  
HETATM    7  C   UNL     1     -11.503  11.354  68.059  1.00  0.00    -0.377 A  
HETATM    8  C   UNL     1     -10.129  11.129  68.277  1.00  0.00    -0.185 A  
ENDROOT
BRANCH   8   9
HETATM    9  N   UNL     1      -9.699  10.011  69.060  1.00  0.00    -0.189 NA 
HETATM   10  H   UNL     1      -8.914  10.149  69.696  1.00  0.00     0.000 HD 
BRANCH   9  11
HETATM   11  C   UNL     1     -10.295   8.719  69.006  1.00  0.00    -0.213 A  
HETATM   12  C   UNL     1     -10.445   8.066  67.767  1.00  0.00    -0.280 A  
HETATM   13  C   UNL     1     -10.839   6.730  67.686  1.00  0.00    -0.361 A  
HETATM   14  C   UNL     1     -11.126   6.025  68.850  1.00  0.00    -0.349 A  
HETATM   15  C   UNL     1     -11.111   6.685  70.075  1.00  0.00    -0.394 A  
HETATM   16  C   UNL     1     -10.746   8.039  70.149  1.00  0.00    -0.244 A  
HETATM   17  C   UNL     1     -10.884   8.706  71.462  1.00  0.00    -0.282 C  
HETATM   18  O   UNL     1     -10.616   8.169  72.520  1.00  0.00    -0.293 OA 
HETATM   19  O   UNL     1     -11.404   9.947  71.359  1.00  0.00    -0.364 OA 
ENDBRANCH   9  11
ENDBRANCH   8   9
TORSDOF 2
ENDMDL
MODEL      136
REMARK 921   NORMALIZED FREE ENERGY PREDICTED BY IDOCK:   -4.31 KCAL/MOL
REMARK 922        TOTAL FREE ENERGY PREDICTED BY IDOCK:   -5.44 KCAL/MOL
REMARK 923 INTER-LIGAND FREE ENERGY PREDICTED BY IDOCK:   -4.83 KCAL/MOL
REMARK 924 INTRA-LIGAND FREE ENERGY PREDICTED BY IDOCK:   -0.61 KCAL/MOL
REMARK 927      BINDING AFFINITY PREDICTED BY RF-SCORE:    0.00 PKD
ROOT
HETATM    1  C   UNL     1     -11.200   6.858  72.446  1.00  0.00    -0.303 C  
HETATM    2  C   UNL     1     -10.712   6.288  71.142  1.00  0.00    -0.301 A  
HETATM    3  C   UNL     1     -10.140   5.001  71.060  1.00  0.00    -0.227 A  
HETATM    4 CL   UNL     1      -9.723   4.089  72.470  1.00  0.00    -0.196 Cl 
HETATM    5  C   UNL     1      -9.840   4.418  69.825  1.00  0.00    -0.284 A  
HETATM    6  C   UNL     1     -10.127   5.093  68.650  1.00  0.00    -0.220 A  
HETATM    7  C   UNL     1     -10.608   6.396  68.720  1.00  0.00    -0.295 A  
HETATM    8  C   UNL     1     -10.805   7.044  69.956  1.00  0.00    -0.261 A  
ENDROOT
BRANCH   8   9
HETATM    9  N   UNL     1     -11.046   8.453  69.998  1.00  0.00    -0.394 NA 
HETATM   10  H   UNL     1     -11.978   8.769  70.268  1.00  0.00     0.000 HD 
BRANCH   9  11
HETATM   11  C   UNL     1     -10.071   9.443  69.687  1.00  0.00    -0.206 A  
HETATM   12  C   UNL     1      -8.737   9.271  70.107  1.00  0.00    -0.224 A  
HETATM   13  C   UNL     1      -7.715  10.109  69.661  1.00  0.00    -0.167 A  
HETATM   14  C   UNL     1      -8.013  11.164  68.805  1.00  0.00    -0.144 A  
HETATM   15  C   UNL     1      -9.339  11.432  68.480  1.00  0.00    -0.180 A  
HETATM   16  C   UNL     1     -10.370  10.606  68.959  1.00  0.00    -0.237 A  
HETATM   17  C   UNL     1     -11.759  11.031  68.685  1.00  0.00    -0.296 C  
HETATM   18  O   UNL     1     -12.115  11.532  67.634  1.00  0.00    -0.623 OA 
HETATM   19  O   UNL     1     -12.571  10.864  69.750  1.00  0.00    -0.270 OA 
ENDBRANCH   9  11
ENDBRANCH   8   9
TORSDOF 2
ENDMDL
MODEL      137
REMARK 921   NORMALIZED FREE ENERGY PREDICTED BY IDOCK:   -4.26 KCAL/MOL
REMARK 922        TOTAL FREE ENERGY PREDICTED BY IDOCK:   -5.38 KCAL/MOL
REMARK 923 INTER-LIGAND FREE ENERGY PREDICTED BY IDOCK:   -4.72 KCAL/MOL
REMARK 924 INTRA-LIGAND FREE ENERGY PREDICTED BY IDOCK:   -0.65 KCAL/MOL
REMARK 927      BINDING AFFINITY PREDICTED BY RF-SCORE:    0.00 PKD
ROOT
HETATM    1  C   UNL     1     -12.000   6.923  71.029  1.00  0.00    -0.422 C  
HETATM    2  C   UNL     1     -10.684   7.617  71.258  1.00  0.00    -0.248 A  
HETATM    3  C   UNL     1      -9.959   7.461  72.457  1.00  0.00    -0.184 A  
HETATM    4 CL   UNL     1     -10.635   6.678  73.845  1.00  0.00    -0.329 Cl 
HETATM    5  C   UNL     1      -8.667   7.977  72.597  1.00  0.00    -0.250 A  
HETATM    6  C   UNL     1      -8.063   8.633  71.537  1.00  0.00    -0.188 A  
HETATM    7  C   UNL     1      -8.800   8.870  70.382  1.00  0.00    -0.204 A  
HETATM    8  C   UNL     1     -10.144   8.462  70.268  1.00  0.00    -0.189 A  
ENDROOT
BRANCH   8   9
HETATM    9  N   UNL     1     -10.952   8.942  69.188  1.00  0.00    -0.428 NA 
HETATM   10  H   UNL     1     -11.405   8.252  68.590  1.00  0.00     0.000 HD 
BRANCH   9  11
HETATM   11  C   UNL     1     -11.162  10.319  68.895  1.00  0.00    -0.207 A  
HETATM   12  C   UNL     1     -12.017  11.087  69.709  1.00  0.00    -0.428 A  
HETATM   13  C   UNL     1     -12.100  12.474  69.581  1.00  0.00    -0.272 A  
HETATM   14  C   UNL     1     -11.348  13.122  68.607  1.00  0.00    -0.327 A  
HETATM   15  C   UNL     1     -10.596  12.372  67.707  1.00  0.00    -0.236 A  
HETATM   16  C   UNL     1     -10.541  10.973  67.818  1.00  0.00    -0.250 A  
HETATM   17  C   UNL     1      -9.834  10.237  66.749  1.00  0.00    -0.197 C  
HETATM   18  O   UNL     1      -8.806  10.629  66.229  1.00  0.00    -0.151 OA 
HETATM   19  O   UNL     1     -10.490   9.121  66.368  1.00  0.00    -0.213 OA 
ENDBRANCH   9  11
ENDBRANCH   8   9
TORSDOF 2
ENDMDL
MODEL      138
REMARK 921   NORMALIZED FREE ENERGY PREDICTED BY IDOCK:   -4.26 KCAL/MOL
REMARK 922        TOTAL FREE ENERGY PREDICTED BY IDOCK:   -5.38 KCAL/MOL
REMARK 923 INTER-LIGAND FREE ENERGY PREDICTED BY IDOCK:   -4.75 KCAL/MOL
REMARK 924 INTRA-LIGAND FREE ENERGY PREDICTED BY IDOCK:   -0.63 KCAL/MOL
REMARK 927      BINDING AFFINITY PREDICTED BY RF-SCORE:    0.00 PKD
ROOT
HETATM    1  C   UNL     1      -8.254  15.821  66.521  1.00  0.00    -0.278 C  
HETATM    2  C   UNL     1      -9.551  15.395  65.888  1.00  0.00    -0.386 A  
HETATM    3  C   UNL     1     -10.512  16.332  65.457  1.00  0.00    -0.362 A  
HETATM    4 CL   UNL     1     -10.397  18.014  65.850  1.00  0.00    -0.337 Cl 
HETATM    5  C   UNL     1     -11.636  15.936  64.727  1.00  0.00    -0.137 A  
HETATM    6  C   UNL     1     -11.811  14.604  64.389  1.00  0.00    -0.405 A  
HETATM    7  C   UNL     1     -10.917  13.660  64.883  1.00  0.00    -0.372 A  
HETATM    8  C   UNL     1      -9.845  14.027  65.720  1.00  0.00    -0.256 A  
ENDROOT
BRANCH   8   9
HETATM    9  N   UNL     1      -9.104  13.023  66.420  1.00  0.00    -0.434 NA 
HETATM   10  H   UNL     1      -8.097  13.156  66.520  1.00  0.00     0.000 HD 
BRANCH   9  11
HETATM   11  C   UNL     1      -9.680  11.850  66.985  1.00  0.00    -0.194 A  
HETATM   12  C   UNL     1     -10.353  11.923  68.220  1.00  0.00    -0.211 A  
HETATM   13  C   UNL     1     -11.097  10.851  68.714  1.00  0.00    -0.310 A  
HETATM   14  C   UNL     1     -11.156   9.663  67.992  1.00  0.00    -0.108 A  
HETATM   15  C   UNL     1     -10.395   9.522  66.836  1.00  0.00    -0.307 A  
HETATM   16  C   UNL     1      -9.620  10.593  66.360  1.00  0.00    -0.230 A  
HETATM   17  C   UNL     1      -8.736  10.326  65.205  1.00  0.00    -0.172 C  
HETATM   18  O   UNL     1      -9.051   9.622  64.264  1.00  0.00    -0.238 OA 
HETATM   19  O   UNL     1      -7.519  10.894  65.345  1.00  0.00    -0.013 OA 
ENDBRANCH   9  11
ENDBRANCH   8   9
TORSDOF 2
ENDMDL
MODEL      139
REMARK 921   NORMALIZED FREE ENERGY PREDICTED BY IDOCK:   -4.25 KCAL/MOL
REMARK 922        TOTAL FREE ENERGY PREDICTED BY IDOCK:   -5.37 KCAL/MOL
REMARK 923 INTER-LIGAND FREE ENERGY PREDICTED BY IDOCK:   -4.83 KCAL/MOL
REMARK 924 INTRA-LIGAND FREE ENERGY PREDICTED BY IDOCK:   -0.54 KCAL/MOL
REMARK 927      BINDING AFFINITY PREDICTED BY RF-SCORE:    0.00 PKD
ROOT
HETATM    1  C   UNL     1     -11.645  14.240  65.731  1.00  0.00    -0.346 C  
HETATM    2  C   UNL     1     -10.994  12.903  65.503  1.00  0.00    -0.301 A  
HETATM    3  C   UNL     1     -11.259  12.133  64.352  1.00  0.00    -0.341 A  
HETATM    4 CL   UNL     1     -12.530  12.535  63.249  1.00  0.00    -0.524 Cl 
HETATM    5  C   UNL     1     -10.531  10.973  64.071  1.00  0.00    -0.433 A  
HETATM    6  C   UNL     1      -9.508  10.572  64.916  1.00  0.00    -0.304 A  
HETATM    7  C   UNL     1      -9.297  11.274  66.098  1.00  0.00    -0.230 A  
HETATM    8  C   UNL     1     -10.100  12.375  66.456  1.00  0.00    -0.232 A  
ENDROOT
BRANCH   8   9
HETATM    9  N   UNL     1     -10.036  12.910  67.781  1.00  0.00    -0.224 NA 
HETATM   10  H   UNL     1     -10.632  12.490  68.494  1.00  0.00     0.000 HD 
BRANCH   9  11
HETATM   11  C   UNL     1      -9.194  13.991  68.169  1.00  0.00    -0.196 A  
HETATM   12  C   UNL     1      -7.824  13.965  67.844  1.00  0.00    -0.161 A  
HETATM   13  C   UNL     1      -7.006  15.081  68.028  1.00  0.00    -0.147 A  
HETATM   14  C   UNL     1      -7.540  16.243  68.574  1.00  0.00    -0.179 A  
HETATM   15  C   UNL     1      -8.857  16.251  69.022  1.00  0.00    -0.243 A  
HETATM   16  C   UNL     1      -9.668  15.114  68.867  1.00  0.00    -0.224 A  
HETATM   17  C   UNL     1     -11.010  15.151  69.487  1.00  0.00    -0.272 C  
HETATM   18  O   UNL     1     -11.719  16.140  69.498  1.00  0.00    -0.294 OA 
HETATM   19  O   UNL     1     -11.329  13.990  70.097  1.00  0.00    -0.178 OA 
ENDBRANCH   9  11
ENDBRANCH   8   9
TORSDOF 2
ENDMDL
MODEL      140
REMARK 921   NORMALIZED FREE ENERGY PREDICTED BY IDOCK:   -4.24 KCAL/MOL
REMARK 922        TOTAL FREE ENERGY PREDICTED BY IDOCK:   -5.36 KCAL/MOL
REMARK 923 INTER-LIGAND FREE ENERGY PREDICTED BY IDOCK:   -5.25 KCAL/MOL
REMARK 924 INTRA-LIGAND FREE ENERGY PREDICTED BY IDOCK:   -0.11 KCAL/MOL
REMARK 927      BINDING AFFINITY PREDICTED BY RF-SCORE:    0.00 PKD
ROOT
HETATM    1  C   UNL     1     -10.731  16.259  65.278  1.00  0.00    -0.349 C  
HETATM    2  C   UNL     1     -10.025  15.364  66.260  1.00  0.00    -0.308 A  
HETATM    3  C   UNL     1     -10.610  14.172  66.734  1.00  0.00    -0.277 A  
HETATM    4 CL   UNL     1     -12.267  13.776  66.430  1.00  0.00    -0.477 Cl 
HETATM    5  C   UNL     1      -9.884  13.269  67.517  1.00  0.00    -0.220 A  
HETATM    6  C   UNL     1      -8.557  13.523  67.821  1.00  0.00    -0.183 A  
HETATM    7  C   UNL     1      -7.997  14.736  67.434  1.00  0.00    -0.220 A  
HETATM    8  C   UNL     1      -8.748  15.710  66.747  1.00  0.00    -0.271 A  
ENDROOT
BRANCH   8   9
HETATM    9  N   UNL     1      -8.235  17.036  66.593  1.00  0.00    -0.234 NA 
HETATM   10  H   UNL     1      -8.264  17.454  65.663  1.00  0.00     0.000 HD 
BRANCH   9  11
HETATM   11  C   UNL     1      -7.687  17.811  67.654  1.00  0.00    -0.208 A  
HETATM   12  C   UNL     1      -6.587  17.321  68.386  1.00  0.00    -0.174 A  
HETATM   13  C   UNL     1      -5.897  18.122  69.296  1.00  0.00    -0.228 A  
HETATM   14  C   UNL     1      -6.316  19.430  69.519  1.00  0.00    -0.347 A  
HETATM   15  C   UNL     1      -7.476  19.894  68.906  1.00  0.00    -0.233 A  
HETATM   16  C   UNL     1      -8.188  19.073  68.016  1.00  0.00    -0.334 A  
HETATM   17  C   UNL     1      -9.479  19.584  67.510  1.00  0.00    -0.320 C  
HETATM   18  O   UNL     1      -9.671  20.747  67.208  1.00  0.00    -0.479 OA 
HETATM   19  O   UNL     1     -10.438  18.634  67.485  1.00  0.00    -0.388 OA 
ENDBRANCH   9  11
ENDBRANCH   8   9
TORSDOF 2
ENDMDL
MODEL      141
REMARK 921   NORMALIZED FREE ENERGY PREDICTED BY IDOCK:   -4.24 KCAL/MOL
REMARK 922        TOTAL FREE ENERGY PREDICTED BY IDOCK:   -5.35 KCAL/MOL
REMARK 923 INTER-LIGAND FREE ENERGY PREDICTED BY IDOCK:   -4.89 KCAL/MOL
REMARK 924 INTRA-LIGAND FREE ENERGY PREDICTED BY IDOCK:   -0.46 KCAL/MOL
REMARK 927      BINDING AFFINITY PREDICTED BY RF-SCORE:    0.00 PKD
ROOT
HETATM    1  C   UNL     1      -8.164   8.438  71.921  1.00  0.00    -0.210 C  
HETATM    2  C   UNL     1      -9.376   7.546  71.913  1.00  0.00    -0.171 A  
HETATM    3  C   UNL     1      -9.546   6.513  72.858  1.00  0.00    -0.149 A  
HETATM    4 CL   UNL     1      -8.275   6.027  73.928  1.00  0.00    -0.111 Cl 
HETATM    5  C   UNL     1     -10.744   5.797  72.943  1.00  0.00    -0.282 A  
HETATM    6  C   UNL     1     -11.803   6.114  72.108  1.00  0.00    -0.339 A  
HETATM    7  C   UNL     1     -11.617   7.069  71.115  1.00  0.00    -0.351 A  
HETATM    8  C   UNL     1     -10.378   7.716  70.937  1.00  0.00    -0.201 A  
ENDROOT
BRANCH   8   9
HETATM    9  N   UNL     1     -10.135   8.491  69.759  1.00  0.00    -0.192 NA 
HETATM   10  H   UNL     1      -9.431   8.153  69.103  1.00  0.00     0.000 HD 
BRANCH   9  11
HETATM   11  C   UNL     1     -10.812   9.704  69.444  1.00  0.00    -0.217 A  
HETATM   12  C   UNL     1     -11.505  10.403  70.452  1.00  0.00    -0.420 A  
HETATM   13  C   UNL     1     -12.012  11.684  70.238  1.00  0.00    -0.445 A  
HETATM   14  C   UNL     1     -11.865  12.284  68.991  1.00  0.00    -0.358 A  
HETATM   15  C   UNL     1     -11.299  11.564  67.944  1.00  0.00    -0.372 A  
HETATM   16  C   UNL     1     -10.820  10.260  68.155  1.00  0.00    -0.312 A  
HETATM   17  C   UNL     1     -10.358   9.510  66.968  1.00  0.00    -0.250 C  
HETATM   18  O   UNL     1      -9.732  10.014  66.054  1.00  0.00    -0.206 OA 
HETATM   19  O   UNL     1     -10.765   8.223  66.979  1.00  0.00    -0.307 OA 
ENDBRANCH   9  11
ENDBRANCH   8   9
TORSDOF 2
ENDMDL
MODEL      142
REMARK 921   NORMALIZED FREE ENERGY PREDICTED BY IDOCK:   -4.24 KCAL/MOL
REMARK 922        TOTAL FREE ENERGY PREDICTED BY IDOCK:   -5.35 KCAL/MOL
REMARK 923 INTER-LIGAND FREE ENERGY PREDICTED BY IDOCK:   -4.79 KCAL/MOL
REMARK 924 INTRA-LIGAND FREE ENERGY PREDICTED BY IDOCK:   -0.56 KCAL/MOL
REMARK 927      BINDING AFFINITY PREDICTED BY RF-SCORE:    0.00 PKD
ROOT
HETATM    1  C   UNL     1     -11.626  11.436  69.580  1.00  0.00    -0.399 C  
HETATM    2  C   UNL     1     -11.180  10.231  70.363  1.00  0.00    -0.407 A  
HETATM    3  C   UNL     1     -11.906   9.754  71.474  1.00  0.00    -0.399 A  
HETATM    4 CL   UNL     1     -13.207  10.653  72.176  1.00  0.00    -0.507 Cl 
HETATM    5  C   UNL     1     -11.574   8.545  72.093  1.00  0.00    -0.447 A  
HETATM    6  C   UNL     1     -10.532   7.776  71.602  1.00  0.00    -0.241 A  
HETATM    7  C   UNL     1      -9.755   8.278  70.564  1.00  0.00    -0.185 A  
HETATM    8  C   UNL     1     -10.000   9.548  70.006  1.00  0.00    -0.237 A  
ENDROOT
BRANCH   8   9
HETATM    9  N   UNL     1      -9.039  10.146  69.131  1.00  0.00    -0.172 NA 
HETATM   10  H   UNL     1      -8.334  10.758  69.544  1.00  0.00     0.000 HD 
BRANCH   9  11
HETATM   11  C   UNL     1      -9.002   9.943  67.722  1.00  0.00    -0.131 A  
HETATM   12  C   UNL     1      -8.796   8.649  67.204  1.00  0.00    -0.138 A  
HETATM   13  C   UNL     1      -8.948   8.371  65.846  1.00  0.00    -0.223 A  
HETATM   14  C   UNL     1      -9.279   9.397  64.966  1.00  0.00    -0.280 A  
HETATM   15  C   UNL     1      -9.360  10.705  65.433  1.00  0.00    -0.250 A  
HETATM   16  C   UNL     1      -9.173  10.986  66.797  1.00  0.00    -0.174 A  
HETATM   17  C   UNL     1      -9.141  12.409  67.195  1.00  0.00    -0.199 C  
HETATM   18  O   UNL     1      -9.868  13.259  66.716  1.00  0.00    -0.249 OA 
HETATM   19  O   UNL     1      -8.171  12.671  68.097  1.00  0.00    -0.155 OA 
ENDBRANCH   9  11
ENDBRANCH   8   9
TORSDOF 2
ENDMDL
MODEL      143
REMARK 921   NORMALIZED FREE ENERGY PREDICTED BY IDOCK:   -4.23 KCAL/MOL
REMARK 922        TOTAL FREE ENERGY PREDICTED BY IDOCK:   -5.35 KCAL/MOL
REMARK 923 INTER-LIGAND FREE ENERGY PREDICTED BY IDOCK:   -4.97 KCAL/MOL
REMARK 924 INTRA-LIGAND FREE ENERGY PREDICTED BY IDOCK:   -0.38 KCAL/MOL
REMARK 927      BINDING AFFINITY PREDICTED BY RF-SCORE:    0.00 PKD
ROOT
HETATM    1  C   UNL     1     -10.790  11.419  69.088  1.00  0.00    -0.260 C  
HETATM    2  C   UNL     1     -11.508  10.820  70.267  1.00  0.00    -0.406 A  
HETATM    3  C   UNL     1     -12.446  11.555  71.019  1.00  0.00    -0.356 A  
HETATM    4 CL   UNL     1     -12.656  13.261  70.813  1.00  0.00    -0.388 Cl 
HETATM    5  C   UNL     1     -13.223  10.944  72.008  1.00  0.00    -0.456 A  
HETATM    6  C   UNL     1     -13.100   9.585  72.247  1.00  0.00    -0.492 A  
HETATM    7  C   UNL     1     -12.117   8.868  71.573  1.00  0.00    -0.395 A  
HETATM    8  C   UNL     1     -11.244   9.492  70.660  1.00  0.00    -0.302 A  
ENDROOT
BRANCH   8   9
HETATM    9  N   UNL     1     -10.087   8.799  70.183  1.00  0.00    -0.182 NA 
HETATM   10  H   UNL     1      -9.365   9.344  69.711  1.00  0.00     0.000 HD 
BRANCH   9  11
HETATM   11  C   UNL     1      -9.878   7.397  70.323  1.00  0.00    -0.187 A  
HETATM   12  C   UNL     1     -10.744   6.490  69.680  1.00  0.00    -0.323 A  
HETATM   13  C   UNL     1     -10.466   5.125  69.627  1.00  0.00    -0.262 A  
HETATM   14  C   UNL     1      -9.325   4.629  70.250  1.00  0.00    -0.218 A  
HETATM   15  C   UNL     1      -8.525   5.485  71.001  1.00  0.00    -0.125 A  
HETATM   16  C   UNL     1      -8.827   6.854  71.080  1.00  0.00    -0.142 A  
HETATM   17  C   UNL     1      -8.013   7.674  72.003  1.00  0.00    -0.100 C  
HETATM   18  O   UNL     1      -6.814   7.528  72.153  1.00  0.00    -0.057 OA 
HETATM   19  O   UNL     1      -8.757   8.553  72.707  1.00  0.00    -0.321 OA 
ENDBRANCH   9  11
ENDBRANCH   8   9
TORSDOF 2
ENDMDL
MODEL      144
REMARK 921   NORMALIZED FREE ENERGY PREDICTED BY IDOCK:   -4.22 KCAL/MOL
REMARK 922        TOTAL FREE ENERGY PREDICTED BY IDOCK:   -5.33 KCAL/MOL
REMARK 923 INTER-LIGAND FREE ENERGY PREDICTED BY IDOCK:   -5.16 KCAL/MOL
REMARK 924 INTRA-LIGAND FREE ENERGY PREDICTED BY IDOCK:   -0.18 KCAL/MOL
REMARK 927      BINDING AFFINITY PREDICTED BY RF-SCORE:    0.00 PKD
ROOT
HETATM    1  C   UNL     1     -12.758  13.143  65.056  1.00  0.00    -0.456 C  
HETATM    2  C   UNL     1     -11.800  13.699  66.074  1.00  0.00    -0.415 A  
HETATM    3  C   UNL     1     -11.258  14.995  65.955  1.00  0.00    -0.310 A  
HETATM    4 CL   UNL     1     -11.444  15.942  64.519  1.00  0.00    -0.370 Cl 
HETATM    5  C   UNL     1     -10.499  15.562  66.984  1.00  0.00    -0.304 A  
HETATM    6  C   UNL     1     -10.288  14.860  68.160  1.00  0.00    -0.237 A  
HETATM    7  C   UNL     1     -10.743  13.549  68.253  1.00  0.00    -0.271 A  
HETATM    8  C   UNL     1     -11.406  12.920  67.180  1.00  0.00    -0.306 A  
ENDROOT
BRANCH   8   9
HETATM    9  N   UNL     1     -11.627  11.507  67.202  1.00  0.00    -0.557 NA 
HETATM   10  H   UNL     1     -12.451  11.146  66.720  1.00  0.00     0.000 HD 
BRANCH   9  11
HETATM   11  C   UNL     1     -10.774  10.572  67.853  1.00  0.00    -0.260 A  
HETATM   12  C   UNL     1     -10.898  10.354  69.240  1.00  0.00    -0.280 A  
HETATM   13  C   UNL     1     -10.225   9.315  69.881  1.00  0.00    -0.235 A  
HETATM   14  C   UNL     1      -9.380   8.486  69.150  1.00  0.00    -0.153 A  
HETATM   15  C   UNL     1      -9.141   8.760  67.807  1.00  0.00    -0.143 A  
HETATM   16  C   UNL     1      -9.795   9.829  67.172  1.00  0.00    -0.238 A  
HETATM   17  C   UNL     1      -9.390  10.141  65.785  1.00  0.00    -0.188 C  
HETATM   18  O   UNL     1      -9.127   9.293  64.953  1.00  0.00    -0.218 OA 
HETATM   19  O   UNL     1      -9.278  11.469  65.566  1.00  0.00    -0.211 OA 
ENDBRANCH   9  11
ENDBRANCH   8   9
TORSDOF 2
ENDMDL
MODEL      145
REMARK 921   NORMALIZED FREE ENERGY PREDICTED BY IDOCK:   -4.19 KCAL/MOL
REMARK 922        TOTAL FREE ENERGY PREDICTED BY IDOCK:   -5.30 KCAL/MOL
REMARK 923 INTER-LIGAND FREE ENERGY PREDICTED BY IDOCK:   -4.75 KCAL/MOL
REMARK 924 INTRA-LIGAND FREE ENERGY PREDICTED BY IDOCK:   -0.55 KCAL/MOL
REMARK 927      BINDING AFFINITY PREDICTED BY RF-SCORE:    0.00 PKD
ROOT
HETATM    1  C   UNL     1     -10.948  16.996  68.220  1.00  0.00    -0.269 C  
HETATM    2  C   UNL     1     -10.825  15.521  67.951  1.00  0.00    -0.307 A  
HETATM    3  C   UNL     1     -11.581  14.569  68.665  1.00  0.00    -0.315 A  
HETATM    4 CL   UNL     1     -12.507  14.992  70.064  1.00  0.00    -0.342 Cl 
HETATM    5  C   UNL     1     -11.580  13.219  68.300  1.00  0.00    -0.369 A  
HETATM    6  C   UNL     1     -10.848  12.797  67.202  1.00  0.00    -0.282 A  
HETATM    7  C   UNL     1     -10.030  13.710  66.545  1.00  0.00    -0.288 A  
HETATM    8  C   UNL     1      -9.926  15.048  66.973  1.00  0.00    -0.242 A  
ENDROOT
BRANCH   8   9
HETATM    9  N   UNL     1      -8.894  15.891  66.453  1.00  0.00    -0.305 NA 
HETATM   10  H   UNL     1      -9.007  16.254  65.506  1.00  0.00     0.000 HD 
BRANCH   9  11
HETATM   11  C   UNL     1      -7.719  16.255  67.170  1.00  0.00    -0.188 A  
HETATM   12  C   UNL     1      -7.325  15.508  68.298  1.00  0.00    -0.117 A  
HETATM   13  C   UNL     1      -6.087  15.703  68.909  1.00  0.00    -0.108 A  
HETATM   14  C   UNL     1      -5.224  16.680  68.423  1.00  0.00    -0.113 A  
HETATM   15  C   UNL     1      -5.644  17.517  67.394  1.00  0.00    -0.154 A  
HETATM   16  C   UNL     1      -6.906  17.339  66.802  1.00  0.00    -0.251 A  
HETATM   17  C   UNL     1      -7.335  18.348  65.811  1.00  0.00    -0.141 C  
HETATM   18  O   UNL     1      -6.587  18.850  64.993  1.00  0.00    -0.476 OA 
HETATM   19  O   UNL     1      -8.631  18.699  65.958  1.00  0.00    -0.488 OA 
ENDBRANCH   9  11
ENDBRANCH   8   9
TORSDOF 2
ENDMDL
MODEL      146
REMARK 921   NORMALIZED FREE ENERGY PREDICTED BY IDOCK:   -4.19 KCAL/MOL
REMARK 922        TOTAL FREE ENERGY PREDICTED BY IDOCK:   -5.30 KCAL/MOL
REMARK 923 INTER-LIGAND FREE ENERGY PREDICTED BY IDOCK:   -4.60 KCAL/MOL
REMARK 924 INTRA-LIGAND FREE ENERGY PREDICTED BY IDOCK:   -0.70 KCAL/MOL
REMARK 927      BINDING AFFINITY PREDICTED BY RF-SCORE:    0.00 PKD
ROOT
HETATM    1  C   UNL     1     -12.461   7.428  70.966  1.00  0.00    -0.285 C  
HETATM    2  C   UNL     1     -11.321   6.446  70.928  1.00  0.00    -0.398 A  
HETATM    3  C   UNL     1     -10.634   6.058  72.096  1.00  0.00    -0.214 A  
HETATM    4 CL   UNL     1     -10.869   6.861  73.611  1.00  0.00    -0.293 Cl 
HETATM    5  C   UNL     1      -9.688   5.029  72.073  1.00  0.00    -0.214 A  
HETATM    6  C   UNL     1      -9.428   4.349  70.894  1.00  0.00    -0.241 A  
HETATM    7  C   UNL     1     -10.035   4.781  69.719  1.00  0.00    -0.308 A  
HETATM    8  C   UNL     1     -10.900   5.893  69.701  1.00  0.00    -0.374 A  
ENDROOT
BRANCH   8   9
HETATM    9  N   UNL     1     -11.299   6.473  68.456  1.00  0.00    -0.578 NA 
HETATM   10  H   UNL     1     -12.203   6.198  68.070  1.00  0.00     0.000 HD 
BRANCH   9  11
HETATM   11  C   UNL     1     -10.517   7.408  67.720  1.00  0.00    -0.232 A  
HETATM   12  C   UNL     1     -10.676   8.789  67.947  1.00  0.00    -0.171 A  
HETATM   13  C   UNL     1      -9.801   9.727  67.398  1.00  0.00    -0.219 A  
HETATM   14  C   UNL     1      -8.762   9.302  66.577  1.00  0.00    -0.145 A  
HETATM   15  C   UNL     1      -8.664   7.957  66.233  1.00  0.00    -0.174 A  
HETATM   16  C   UNL     1      -9.567   7.020  66.761  1.00  0.00    -0.221 A  
HETATM   17  C   UNL     1      -9.484   5.636  66.246  1.00  0.00    -0.155 C  
HETATM   18  O   UNL     1      -8.435   5.072  65.997  1.00  0.00    -0.113 OA 
HETATM   19  O   UNL     1     -10.700   5.096  66.018  1.00  0.00    -0.264 OA 
ENDBRANCH   9  11
ENDBRANCH   8   9
TORSDOF 2
ENDMDL
MODEL      147
REMARK 921   NORMALIZED FREE ENERGY PREDICTED BY IDOCK:   -4.17 KCAL/MOL
REMARK 922        TOTAL FREE ENERGY PREDICTED BY IDOCK:   -5.28 KCAL/MOL
REMARK 923 INTER-LIGAND FREE ENERGY PREDICTED BY IDOCK:   -4.67 KCAL/MOL
REMARK 924 INTRA-LIGAND FREE ENERGY PREDICTED BY IDOCK:   -0.61 KCAL/MOL
REMARK 927      BINDING AFFINITY PREDICTED BY RF-SCORE:    0.00 PKD
ROOT
HETATM    1  C   UNL     1      -8.714  14.510  67.561  1.00  0.00    -0.195 C  
HETATM    2  C   UNL     1      -9.983  13.877  67.059  1.00  0.00    -0.258 A  
HETATM    3  C   UNL     1     -10.683  14.393  65.950  1.00  0.00    -0.306 A  
HETATM    4 CL   UNL     1     -10.289  15.924  65.245  1.00  0.00    -0.393 Cl 
HETATM    5  C   UNL     1     -11.767  13.708  65.392  1.00  0.00    -0.347 A  
HETATM    6  C   UNL     1     -12.157  12.484  65.912  1.00  0.00    -0.420 A  
HETATM    7  C   UNL     1     -11.530  12.008  67.059  1.00  0.00    -0.402 A  
HETATM    8  C   UNL     1     -10.516  12.743  67.704  1.00  0.00    -0.220 A  
ENDROOT
BRANCH   8   9
HETATM    9  N   UNL     1     -10.075  12.364  69.012  1.00  0.00    -0.423 NA 
HETATM   10  H   UNL     1      -9.614  13.072  69.583  1.00  0.00     0.000 HD 
BRANCH   9  11
HETATM   11  C   UNL     1     -10.239  11.063  69.566  1.00  0.00     0.005 A  
HETATM   12  C   UNL     1     -11.310  10.803  70.444  1.00  0.00    -0.342 A  
HETATM   13  C   UNL     1     -11.623   9.507  70.854  1.00  0.00    -0.398 A  
HETATM   14  C   UNL     1     -10.845   8.440  70.418  1.00  0.00    -0.246 A  
HETATM   15  C   UNL     1      -9.706   8.685  69.657  1.00  0.00    -0.179 A  
HETATM   16  C   UNL     1      -9.374   9.995  69.274  1.00  0.00    -0.224 A  
HETATM   17  C   UNL     1      -8.081  10.191  68.584  1.00  0.00    -0.109 C  
HETATM   18  O   UNL     1      -7.635   9.417  67.758  1.00  0.00    -0.087 OA 
HETATM   19  O   UNL     1      -7.423  11.285  69.022  1.00  0.00    -0.121 OA 
ENDBRANCH   9  11
ENDBRANCH   8   9
TORSDOF 2
ENDMDL
MODEL      148
REMARK 921   NORMALIZED FREE ENERGY PREDICTED BY IDOCK:   -4.17 KCAL/MOL
REMARK 922        TOTAL FREE ENERGY PREDICTED BY IDOCK:   -5.28 KCAL/MOL
REMARK 923 INTER-LIGAND FREE ENERGY PREDICTED BY IDOCK:   -4.73 KCAL/MOL
REMARK 924 INTRA-LIGAND FREE ENERGY PREDICTED BY IDOCK:   -0.55 KCAL/MOL
REMARK 927      BINDING AFFINITY PREDICTED BY RF-SCORE:    0.00 PKD
ROOT
HETATM    1  C   UNL     1      -8.716   8.873  64.932  1.00  0.00    -0.184 C  
HETATM    2  C   UNL     1      -9.642   9.912  65.504  1.00  0.00    -0.341 A  
HETATM    3  C   UNL     1     -10.119  10.990  64.731  1.00  0.00    -0.308 A  
HETATM    4 CL   UNL     1      -9.487  11.346  63.160  1.00  0.00    -0.354 Cl 
HETATM    5  C   UNL     1     -11.102  11.855  65.221  1.00  0.00    -0.354 A  
HETATM    6  C   UNL     1     -11.646  11.648  66.479  1.00  0.00    -0.166 A  
HETATM    7  C   UNL     1     -11.121  10.643  67.283  1.00  0.00    -0.313 A  
HETATM    8  C   UNL     1     -10.048   9.837  66.852  1.00  0.00    -0.226 A  
ENDROOT
BRANCH   8   9
HETATM    9  N   UNL     1      -9.360   8.997  67.783  1.00  0.00    -0.139 NA 
HETATM   10  H   UNL     1      -8.343   8.954  67.725  1.00  0.00     0.000 HD 
BRANCH   9  11
HETATM   11  C   UNL     1     -10.004   8.217  68.786  1.00  0.00    -0.183 A  
HETATM   12  C   UNL     1     -10.234   8.766  70.062  1.00  0.00    -0.208 A  
HETATM   13  C   UNL     1     -11.030   8.117  71.006  1.00  0.00    -0.273 A  
HETATM   14  C   UNL     1     -11.589   6.880  70.702  1.00  0.00    -0.402 A  
HETATM   15  C   UNL     1     -11.270   6.258  69.499  1.00  0.00    -0.500 A  
HETATM   16  C   UNL     1     -10.441   6.900  68.565  1.00  0.00    -0.229 A  
HETATM   17  C   UNL     1     -10.038   6.124  67.372  1.00  0.00    -0.156 C  
HETATM   18  O   UNL     1     -10.783   5.367  66.779  1.00  0.00    -0.284 OA 
HETATM   19  O   UNL     1      -8.737   6.298  67.058  1.00  0.00    -0.108 OA 
ENDBRANCH   9  11
ENDBRANCH   8   9
TORSDOF 2
ENDMDL
MODEL      149
REMARK 921   NORMALIZED FREE ENERGY PREDICTED BY IDOCK:   -4.15 KCAL/MOL
REMARK 922        TOTAL FREE ENERGY PREDICTED BY IDOCK:   -5.26 KCAL/MOL
REMARK 923 INTER-LIGAND FREE ENERGY PREDICTED BY IDOCK:   -4.99 KCAL/MOL
REMARK 924 INTRA-LIGAND FREE ENERGY PREDICTED BY IDOCK:   -0.26 KCAL/MOL
REMARK 927      BINDING AFFINITY PREDICTED BY RF-SCORE:    0.00 PKD
ROOT
HETATM    1  C   UNL     1     -11.816  10.558  69.241  1.00  0.00    -0.242 C  
HETATM    2  C   UNL     1     -10.371  10.175  69.414  1.00  0.00    -0.251 A  
HETATM    3  C   UNL     1      -9.928   9.424  70.522  1.00  0.00    -0.267 A  
HETATM    4 CL   UNL     1     -10.947   9.108  71.885  1.00  0.00    -0.429 Cl 
HETATM    5  C   UNL     1      -8.620   8.936  70.592  1.00  0.00    -0.224 A  
HETATM    6  C   UNL     1      -7.737   9.164  69.549  1.00  0.00    -0.080 A  
HETATM    7  C   UNL     1      -8.135   9.977  68.493  1.00  0.00    -0.103 A  
HETATM    8  C   UNL     1      -9.410  10.575  68.464  1.00  0.00    -0.168 A  
ENDROOT
BRANCH   8   9
HETATM    9  N   UNL     1      -9.699  11.604  67.512  1.00  0.00    -0.176 NA 
HETATM   10  H   UNL     1      -9.910  12.536  67.868  1.00  0.00     0.000 HD 
BRANCH   9  11
HETATM   11  C   UNL     1      -9.711  11.410  66.102  1.00  0.00    -0.219 A  
HETATM   12  C   UNL     1      -8.638  10.747  65.475  1.00  0.00    -0.181 A  
HETATM   13  C   UNL     1      -8.697  10.363  64.135  1.00  0.00    -0.205 A  
HETATM   14  C   UNL     1      -9.825  10.665  63.380  1.00  0.00    -0.376 A  
HETATM   15  C   UNL     1     -10.842  11.433  63.941  1.00  0.00    -0.463 A  
HETATM   16  C   UNL     1     -10.764  11.847  65.281  1.00  0.00    -0.331 A  
HETATM   17  C   UNL     1     -11.813  12.770  65.765  1.00  0.00    -0.434 C  
HETATM   18  O   UNL     1     -12.984  12.682  65.450  1.00  0.00    -0.535 OA 
HETATM   19  O   UNL     1     -11.315  13.758  66.538  1.00  0.00    -0.309 OA 
ENDBRANCH   9  11
ENDBRANCH   8   9
TORSDOF 2
ENDMDL
MODEL      150
REMARK 921   NORMALIZED FREE ENERGY PREDICTED BY IDOCK:   -4.13 KCAL/MOL
REMARK 922        TOTAL FREE ENERGY PREDICTED BY IDOCK:   -5.23 KCAL/MOL
REMARK 923 INTER-LIGAND FREE ENERGY PREDICTED BY IDOCK:   -4.72 KCAL/MOL
REMARK 924 INTRA-LIGAND FREE ENERGY PREDICTED BY IDOCK:   -0.51 KCAL/MOL
REMARK 927      BINDING AFFINITY PREDICTED BY RF-SCORE:    0.00 PKD
ROOT
HETATM    1  C   UNL     1      -7.572   6.998  70.357  1.00  0.00    -0.090 C  
HETATM    2  C   UNL     1      -8.391   7.480  69.190  1.00  0.00    -0.135 A  
HETATM    3  C   UNL     1      -8.092   7.102  67.865  1.00  0.00    -0.119 A  
HETATM    4 CL   UNL     1      -6.628   6.277  67.453  1.00  0.00    -0.050 Cl 
HETATM    5  C   UNL     1      -8.950   7.421  66.808  1.00  0.00    -0.159 A  
HETATM    6  C   UNL     1     -10.134   8.098  67.054  1.00  0.00    -0.350 A  
HETATM    7  C   UNL     1     -10.396   8.552  68.343  1.00  0.00    -0.241 A  
HETATM    8  C   UNL     1      -9.486   8.343  69.398  1.00  0.00    -0.158 A  
ENDROOT
BRANCH   8   9
HETATM    9  N   UNL     1      -9.652   9.038  70.637  1.00  0.00    -0.216 NA 
HETATM   10  H   UNL     1      -8.822   9.441  71.073  1.00  0.00     0.000 HD 
BRANCH   9  11
HETATM   11  C   UNL     1     -10.899   9.202  71.303  1.00  0.00    -0.332 A  
HETATM   12  C   UNL     1     -11.766  10.245  70.923  1.00  0.00    -0.472 A  
HETATM   13  C   UNL     1     -13.072  10.325  71.407  1.00  0.00    -0.512 A  
HETATM   14  C   UNL     1     -13.531   9.375  72.313  1.00  0.00    -0.539 A  
HETATM   15  C   UNL     1     -12.654   8.412  72.802  1.00  0.00    -0.091 A  
HETATM   16  C   UNL     1     -11.329   8.355  72.338  1.00  0.00    -0.448 A  
HETATM   17  C   UNL     1     -10.421   7.394  73.001  1.00  0.00    -0.323 C  
HETATM   18  O   UNL     1     -10.761   6.280  73.353  1.00  0.00    -0.255 OA 
HETATM   19  O   UNL     1      -9.197   7.915  73.232  1.00  0.00    -0.232 OA 
ENDBRANCH   9  11
ENDBRANCH   8   9
TORSDOF 2
ENDMDL
MODEL      151
REMARK 921   NORMALIZED FREE ENERGY PREDICTED BY IDOCK:   -4.13 KCAL/MOL
REMARK 922        TOTAL FREE ENERGY PREDICTED BY IDOCK:   -5.23 KCAL/MOL
REMARK 923 INTER-LIGAND FREE ENERGY PREDICTED BY IDOCK:   -4.73 KCAL/MOL
REMARK 924 INTRA-LIGAND FREE ENERGY PREDICTED BY IDOCK:   -0.50 KCAL/MOL
REMARK 927      BINDING AFFINITY PREDICTED BY RF-SCORE:    0.00 PKD
ROOT
HETATM    1  C   UNL     1     -11.904  12.334  69.029  1.00  0.00    -0.358 C  
HETATM    2  C   UNL     1     -11.458  13.517  68.213  1.00  0.00    -0.345 A  
HETATM    3  C   UNL     1     -11.607  14.840  68.679  1.00  0.00    -0.319 A  
HETATM    4 CL   UNL     1     -12.534  15.220  70.090  1.00  0.00    -0.385 Cl 
HETATM    5  C   UNL     1     -11.046  15.919  67.989  1.00  0.00    -0.334 A  
HETATM    6  C   UNL     1     -10.305  15.700  66.839  1.00  0.00    -0.293 A  
HETATM    7  C   UNL     1     -10.227  14.411  66.323  1.00  0.00    -0.307 A  
HETATM    8  C   UNL     1     -10.885  13.328  66.940  1.00  0.00    -0.276 A  
ENDROOT
BRANCH   8   9
HETATM    9  N   UNL     1     -11.007  12.077  66.256  1.00  0.00    -0.286 NA 
HETATM   10  H   UNL     1     -11.901  11.859  65.817  1.00  0.00     0.000 HD 
BRANCH   9  11
HETATM   11  C   UNL     1      -9.960  11.118  66.149  1.00  0.00    -0.229 A  
HETATM   12  C   UNL     1      -9.317  10.648  67.311  1.00  0.00    -0.166 A  
HETATM   13  C   UNL     1      -8.429   9.573  67.272  1.00  0.00    -0.128 A  
HETATM   14  C   UNL     1      -8.139   8.962  66.057  1.00  0.00    -0.111 A  
HETATM   15  C   UNL     1      -8.660   9.491  64.880  1.00  0.00    -0.191 A  
HETATM   16  C   UNL     1      -9.527  10.595  64.919  1.00  0.00    -0.293 A  
HETATM   17  C   UNL     1      -9.932  11.183  63.624  1.00  0.00    -0.363 C  
HETATM   18  O   UNL     1     -10.184  10.522  62.634  1.00  0.00     0.008 OA 
HETATM   19  O   UNL     1      -9.923  12.533  63.644  1.00  0.00    -0.355 OA 
ENDBRANCH   9  11
ENDBRANCH   8   9
TORSDOF 2
ENDMDL
MODEL      152
REMARK 921   NORMALIZED FREE ENERGY PREDICTED BY IDOCK:   -4.12 KCAL/MOL
REMARK 922        TOTAL FREE ENERGY PREDICTED BY IDOCK:   -5.22 KCAL/MOL
REMARK 923 INTER-LIGAND FREE ENERGY PREDICTED BY IDOCK:   -4.74 KCAL/MOL
REMARK 924 INTRA-LIGAND FREE ENERGY PREDICTED BY IDOCK:   -0.48 KCAL/MOL
REMARK 927      BINDING AFFINITY PREDICTED BY RF-SCORE:    0.00 PKD
ROOT
HETATM    1  C   UNL     1     -10.487  17.977  68.239  1.00  0.00    -0.355 C  
HETATM    2  C   UNL     1      -9.418  16.947  67.993  1.00  0.00    -0.243 A  
HETATM    3  C   UNL     1      -8.203  17.273  67.355  1.00  0.00    -0.191 A  
HETATM    4 CL   UNL     1      -7.951  18.801  66.583  1.00  0.00    -0.265 Cl 
HETATM    5  C   UNL     1      -7.155  16.351  67.277  1.00  0.00    -0.216 A  
HETATM    6  C   UNL     1      -7.286  15.098  67.854  1.00  0.00    -0.152 A  
HETATM    7  C   UNL     1      -8.510  14.736  68.408  1.00  0.00    -0.157 A  
HETATM    8  C   UNL     1      -9.615  15.609  68.390  1.00  0.00    -0.199 A  
ENDROOT
BRANCH   8   9
HETATM    9  N   UNL     1     -10.919  15.124  68.723  1.00  0.00    -0.244 NA 
HETATM   10  H   UNL     1     -11.548  14.881  67.958  1.00  0.00     0.000 HD 
BRANCH   9  11
HETATM   11  C   UNL     1     -11.396  14.960  70.055  1.00  0.00    -0.274 A  
HETATM   12  C   UNL     1     -11.295  16.023  70.974  1.00  0.00    -0.423 A  
HETATM   13  C   UNL     1     -11.920  15.977  72.219  1.00  0.00    -0.633 A  
HETATM   14  C   UNL     1     -12.638  14.843  72.588  1.00  0.00    -0.456 A  
HETATM   15  C   UNL     1     -12.644  13.731  71.752  1.00  0.00    -0.319 A  
HETATM   16  C   UNL     1     -11.984  13.769  70.513  1.00  0.00    -0.367 A  
HETATM   17  C   UNL     1     -11.920  12.509  69.742  1.00  0.00    -0.289 C  
HETATM   18  O   UNL     1     -12.839  11.715  69.672  1.00  0.00     0.205 OA 
HETATM   19  O   UNL     1     -10.707  12.306  69.184  1.00  0.00    -0.163 OA 
ENDBRANCH   9  11
ENDBRANCH   8   9
TORSDOF 2
ENDMDL
MODEL      153
REMARK 921   NORMALIZED FREE ENERGY PREDICTED BY IDOCK:   -4.11 KCAL/MOL
REMARK 922        TOTAL FREE ENERGY PREDICTED BY IDOCK:   -5.21 KCAL/MOL
REMARK 923 INTER-LIGAND FREE ENERGY PREDICTED BY IDOCK:   -4.84 KCAL/MOL
REMARK 924 INTRA-LIGAND FREE ENERGY PREDICTED BY IDOCK:   -0.37 KCAL/MOL
REMARK 927      BINDING AFFINITY PREDICTED BY RF-SCORE:    0.00 PKD
ROOT
HETATM    1  C   UNL     1     -12.227  11.601  70.038  1.00  0.00    -0.338 C  
HETATM    2  C   UNL     1     -10.962  11.339  69.267  1.00  0.00    -0.297 A  
HETATM    3  C   UNL     1     -10.637  12.063  68.101  1.00  0.00    -0.210 A  
HETATM    4 CL   UNL     1     -11.771  13.116  67.328  1.00  0.00    -0.405 Cl 
HETATM    5  C   UNL     1      -9.390  11.925  67.486  1.00  0.00    -0.177 A  
HETATM    6  C   UNL     1      -8.433  11.086  68.034  1.00  0.00    -0.129 A  
HETATM    7  C   UNL     1      -8.773  10.302  69.131  1.00  0.00    -0.176 A  
HETATM    8  C   UNL     1     -10.065  10.338  69.692  1.00  0.00    -0.224 A  
ENDROOT
BRANCH   8   9
HETATM    9  N   UNL     1     -10.464   9.344  70.640  1.00  0.00    -0.267 NA 
HETATM   10  H   UNL     1     -10.699   9.653  71.584  1.00  0.00     0.000 HD 
BRANCH   9  11
HETATM   11  C   UNL     1     -10.556   7.953  70.352  1.00  0.00    -0.228 A  
HETATM   12  C   UNL     1     -10.473   7.505  69.019  1.00  0.00    -0.216 A  
HETATM   13  C   UNL     1     -10.360   6.150  68.707  1.00  0.00    -0.256 A  
HETATM   14  C   UNL     1     -10.362   5.206  69.729  1.00  0.00    -0.332 A  
HETATM   15  C   UNL     1     -10.572   5.614  71.042  1.00  0.00    -0.318 A  
HETATM   16  C   UNL     1     -10.719   6.977  71.349  1.00  0.00    -0.241 A  
HETATM   17  C   UNL     1     -11.074   7.322  72.742  1.00  0.00    -0.319 C  
HETATM   18  O   UNL     1     -10.619   6.749  73.714  1.00  0.00    -0.337 OA 
HETATM   19  O   UNL     1     -12.008   8.295  72.812  1.00  0.00    -0.377 OA 
ENDBRANCH   9  11
ENDBRANCH   8   9
TORSDOF 2
ENDMDL
MODEL      154
REMARK 921   NORMALIZED FREE ENERGY PREDICTED BY IDOCK:   -4.11 KCAL/MOL
REMARK 922        TOTAL FREE ENERGY PREDICTED BY IDOCK:   -5.21 KCAL/MOL
REMARK 923 INTER-LIGAND FREE ENERGY PREDICTED BY IDOCK:   -4.54 KCAL/MOL
REMARK 924 INTRA-LIGAND FREE ENERGY PREDICTED BY IDOCK:   -0.67 KCAL/MOL
REMARK 927      BINDING AFFINITY PREDICTED BY RF-SCORE:    0.00 PKD
ROOT
HETATM    1  C   UNL     1     -10.357   9.528  66.983  1.00  0.00    -0.319 C  
HETATM    2  C   UNL     1     -10.829  10.313  68.177  1.00  0.00    -0.312 A  
HETATM    3  C   UNL     1     -11.224  11.662  68.071  1.00  0.00    -0.263 A  
HETATM    4 CL   UNL     1     -10.957  12.588  66.633  1.00  0.00    -0.287 Cl 
HETATM    5  C   UNL     1     -11.812  12.333  69.147  1.00  0.00    -0.355 A  
HETATM    6  C   UNL     1     -12.043  11.666  70.340  1.00  0.00    -0.462 A  
HETATM    7  C   UNL     1     -11.578  10.363  70.484  1.00  0.00    -0.433 A  
HETATM    8  C   UNL     1     -10.877   9.711  69.450  1.00  0.00    -0.217 A  
ENDROOT
BRANCH   8   9
HETATM    9  N   UNL     1     -10.188   8.484  69.712  1.00  0.00    -0.201 NA 
HETATM   10  H   UNL     1     -10.487   7.652  69.204  1.00  0.00     0.000 HD 
BRANCH   9  11
HETATM   11  C   UNL     1      -9.112   8.351  70.635  1.00  0.00    -0.156 A  
HETATM   12  C   UNL     1      -7.804   8.697  70.244  1.00  0.00    -0.097 A  
HETATM   13  C   UNL     1      -6.759   8.769  71.165  1.00  0.00    -0.075 A  
HETATM   14  C   UNL     1      -6.996   8.462  72.501  1.00  0.00    -0.104 A  
HETATM   15  C   UNL     1      -8.248   7.993  72.888  1.00  0.00    -0.221 A  
HETATM   16  C   UNL     1      -9.289   7.889  71.950  1.00  0.00    -0.204 A  
HETATM   17  C   UNL     1     -10.546   7.256  72.403  1.00  0.00    -0.237 C  
HETATM   18  O   UNL     1     -11.028   7.433  73.506  1.00  0.00    -0.344 OA 
HETATM   19  O   UNL     1     -11.060   6.411  71.484  1.00  0.00    -0.252 OA 
ENDBRANCH   9  11
ENDBRANCH   8   9
TORSDOF 2
ENDMDL
MODEL      155
REMARK 921   NORMALIZED FREE ENERGY PREDICTED BY IDOCK:   -4.09 KCAL/MOL
REMARK 922        TOTAL FREE ENERGY PREDICTED BY IDOCK:   -5.18 KCAL/MOL
REMARK 923 INTER-LIGAND FREE ENERGY PREDICTED BY IDOCK:   -4.98 KCAL/MOL
REMARK 924 INTRA-LIGAND FREE ENERGY PREDICTED BY IDOCK:   -0.20 KCAL/MOL
REMARK 927      BINDING AFFINITY PREDICTED BY RF-SCORE:    0.00 PKD
ROOT
HETATM    1  C   UNL     1     -11.317  11.162  70.071  1.00  0.00    -0.326 C  
HETATM    2  C   UNL     1     -10.478  11.318  68.832  1.00  0.00    -0.232 A  
HETATM    3  C   UNL     1      -9.259  10.629  68.668  1.00  0.00    -0.181 A  
HETATM    4 CL   UNL     1      -8.511   9.761  69.964  1.00  0.00    -0.221 Cl 
HETATM    5  C   UNL     1      -8.569  10.654  67.451  1.00  0.00    -0.122 A  
HETATM    6  C   UNL     1      -9.093  11.343  66.370  1.00  0.00    -0.201 A  
HETATM    7  C   UNL     1     -10.248  12.098  66.546  1.00  0.00    -0.230 A  
HETATM    8  C   UNL     1     -10.891  12.181  67.797  1.00  0.00    -0.224 A  
ENDROOT
BRANCH   8   9
HETATM    9  N   UNL     1     -11.912  13.159  68.017  1.00  0.00    -0.342 NA 
HETATM   10  H   UNL     1     -12.759  13.098  67.453  1.00  0.00     0.000 HD 
BRANCH   9  11
HETATM   11  C   UNL     1     -11.821  14.211  68.972  1.00  0.00    -0.348 A  
HETATM   12  C   UNL     1     -12.584  14.154  70.154  1.00  0.00    -0.325 A  
HETATM   13  C   UNL     1     -12.382  15.055  71.200  1.00  0.00    -0.391 A  
HETATM   14  C   UNL     1     -11.429  16.060  71.070  1.00  0.00    -0.460 A  
HETATM   15  C   UNL     1     -10.755  16.216  69.863  1.00  0.00    -0.328 A  
HETATM   16  C   UNL     1     -10.986  15.327  68.799  1.00  0.00    -0.260 A  
HETATM   17  C   UNL     1     -10.336  15.636  67.507  1.00  0.00    -0.277 C  
HETATM   18  O   UNL     1      -9.207  16.079  67.410  1.00  0.00    -0.205 OA 
HETATM   19  O   UNL     1     -11.159  15.438  66.455  1.00  0.00    -0.308 OA 
ENDBRANCH   9  11
ENDBRANCH   8   9
TORSDOF 2
ENDMDL
MODEL      156
REMARK 921   NORMALIZED FREE ENERGY PREDICTED BY IDOCK:   -4.08 KCAL/MOL
REMARK 922        TOTAL FREE ENERGY PREDICTED BY IDOCK:   -5.18 KCAL/MOL
REMARK 923 INTER-LIGAND FREE ENERGY PREDICTED BY IDOCK:   -5.28 KCAL/MOL
REMARK 924 INTRA-LIGAND FREE ENERGY PREDICTED BY IDOCK:    0.10 KCAL/MOL
REMARK 927      BINDING AFFINITY PREDICTED BY RF-SCORE:    0.00 PKD
ROOT
HETATM    1  C   UNL     1     -10.574  14.759  64.953  1.00  0.00    -0.431 C  
HETATM    2  C   UNL     1     -10.295  13.284  64.853  1.00  0.00    -0.368 A  
HETATM    3  C   UNL     1     -10.901  12.478  63.868  1.00  0.00    -0.431 A  
HETATM    4 CL   UNL     1     -12.193  13.057  62.872  1.00  0.00    -0.093 Cl 
HETATM    5  C   UNL     1     -10.515  11.147  63.680  1.00  0.00    -0.438 A  
HETATM    6  C   UNL     1      -9.500  10.603  64.451  1.00  0.00    -0.317 A  
HETATM    7  C   UNL     1      -8.957  11.361  65.483  1.00  0.00    -0.096 A  
HETATM    8  C   UNL     1      -9.418  12.663  65.764  1.00  0.00    -0.033 A  
ENDROOT
BRANCH   8   9
HETATM    9  N   UNL     1      -9.033  13.314  66.978  1.00  0.00    -0.227 NA 
HETATM   10  H   UNL     1      -8.044  13.313  67.227  1.00  0.00     0.000 HD 
BRANCH   9  11
HETATM   11  C   UNL     1      -9.942  13.964  67.861  1.00  0.00    -0.242 A  
HETATM   12  C   UNL     1      -9.763  15.326  68.175  1.00  0.00    -0.212 A  
HETATM   13  C   UNL     1     -10.730  16.050  68.871  1.00  0.00    -0.275 A  
HETATM   14  C   UNL     1     -11.890  15.414  69.301  1.00  0.00    -0.365 A  
HETATM   15  C   UNL     1     -12.031  14.042  69.118  1.00  0.00    -0.400 A  
HETATM   16  C   UNL     1     -11.038  13.309  68.445  1.00  0.00    -0.299 A  
HETATM   17  C   UNL     1     -11.192  11.839  68.407  1.00  0.00    -0.251 C  
HETATM   18  O   UNL     1     -12.262  11.278  68.259  1.00  0.00    -0.611 OA 
HETATM   19  O   UNL     1     -10.028  11.192  68.623  1.00  0.00    -0.193 OA 
ENDBRANCH   9  11
ENDBRANCH   8   9
TORSDOF 2
ENDMDL
MODEL      157
REMARK 921   NORMALIZED FREE ENERGY PREDICTED BY IDOCK:   -4.08 KCAL/MOL
REMARK 922        TOTAL FREE ENERGY PREDICTED BY IDOCK:   -5.18 KCAL/MOL
REMARK 923 INTER-LIGAND FREE ENERGY PREDICTED BY IDOCK:   -5.20 KCAL/MOL
REMARK 924 INTRA-LIGAND FREE ENERGY PREDICTED BY IDOCK:    0.02 KCAL/MOL
REMARK 927      BINDING AFFINITY PREDICTED BY RF-SCORE:    0.00 PKD
ROOT
HETATM    1  C   UNL     1      -9.953  13.563  66.249  1.00  0.00    -0.302 C  
HETATM    2  C   UNL     1      -9.834  12.125  65.823  1.00  0.00    -0.264 A  
HETATM    3  C   UNL     1     -10.261  11.687  64.553  1.00  0.00    -0.291 A  
HETATM    4 CL   UNL     1     -11.181  12.699  63.493  1.00  0.00    -0.517 Cl 
HETATM    5  C   UNL     1      -9.999  10.388  64.107  1.00  0.00    -0.337 A  
HETATM    6  C   UNL     1      -9.284   9.510  64.906  1.00  0.00    -0.284 A  
HETATM    7  C   UNL     1      -8.935   9.902  66.194  1.00  0.00    -0.177 A  
HETATM    8  C   UNL     1      -9.295  11.165  66.704  1.00  0.00    -0.177 A  
ENDROOT
BRANCH   8   9
HETATM    9  N   UNL     1      -9.157  11.442  68.101  1.00  0.00    -0.167 NA 
HETATM   10  H   UNL     1      -8.817  12.364  68.372  1.00  0.00     0.000 HD 
BRANCH   9  11
HETATM   11  C   UNL     1      -9.464  10.514  69.136  1.00  0.00    -0.191 A  
HETATM   12  C   UNL     1      -8.470   9.633  69.606  1.00  0.00    -0.181 A  
HETATM   13  C   UNL     1      -8.665   8.848  70.743  1.00  0.00    -0.245 A  
HETATM   14  C   UNL     1      -9.879   8.904  71.418  1.00  0.00    -0.376 A  
HETATM   15  C   UNL     1     -10.921   9.667  70.899  1.00  0.00    -0.412 A  
HETATM   16  C   UNL     1     -10.731  10.430  69.735  1.00  0.00    -0.325 A  
HETATM   17  C   UNL     1     -11.918  11.106  69.170  1.00  0.00    -0.343 C  
HETATM   18  O   UNL     1     -12.779  11.634  69.848  1.00  0.00     0.002 OA 
HETATM   19  O   UNL     1     -11.975  11.012  67.824  1.00  0.00    -0.609 OA 
ENDBRANCH   9  11
ENDBRANCH   8   9
TORSDOF 2
ENDMDL
MODEL      158
REMARK 921   NORMALIZED FREE ENERGY PREDICTED BY IDOCK:   -4.08 KCAL/MOL
REMARK 922        TOTAL FREE ENERGY PREDICTED BY IDOCK:   -5.18 KCAL/MOL
REMARK 923 INTER-LIGAND FREE ENERGY PREDICTED BY IDOCK:   -4.66 KCAL/MOL
REMARK 924 INTRA-LIGAND FREE ENERGY PREDICTED BY IDOCK:   -0.52 KCAL/MOL
REMARK 927      BINDING AFFINITY PREDICTED BY RF-SCORE:    0.00 PKD
ROOT
HETATM    1  C   UNL     1      -8.464  10.172  69.132  1.00  0.00    -0.157 C  
HETATM    2  C   UNL     1      -8.081  11.559  68.691  1.00  0.00    -0.132 A  
HETATM    3  C   UNL     1      -6.802  12.094  68.945  1.00  0.00    -0.100 A  
HETATM    4 CL   UNL     1      -5.669  11.312  69.994  1.00  0.00    -0.089 Cl 
HETATM    5  C   UNL     1      -6.403  13.315  68.393  1.00  0.00    -0.086 A  
HETATM    6  C   UNL     1      -7.261  14.013  67.557  1.00  0.00    -0.183 A  
HETATM    7  C   UNL     1      -8.555  13.539  67.371  1.00  0.00    -0.209 A  
HETATM    8  C   UNL     1      -9.013  12.372  68.015  1.00  0.00    -0.194 A  
ENDROOT
BRANCH   8   9
HETATM    9  N   UNL     1     -10.408  12.053  68.017  1.00  0.00    -0.190 NA 
HETATM   10  H   UNL     1     -10.795  11.603  67.188  1.00  0.00     0.000 HD 
BRANCH   9  11
HETATM   11  C   UNL     1     -11.290  12.324  69.101  1.00  0.00    -0.272 A  
HETATM   12  C   UNL     1     -11.639  11.294  69.996  1.00  0.00    -0.404 A  
HETATM   13  C   UNL     1     -12.336  11.554  71.176  1.00  0.00    -0.382 A  
HETATM   14  C   UNL     1     -12.730  12.855  71.471  1.00  0.00    -0.339 A  
HETATM   15  C   UNL     1     -12.511  13.867  70.542  1.00  0.00    -0.422 A  
HETATM   16  C   UNL     1     -11.838  13.595  69.339  1.00  0.00    -0.392 A  
HETATM   17  C   UNL     1     -11.762  14.687  68.345  1.00  0.00    -0.320 C  
HETATM   18  O   UNL     1     -11.582  15.854  68.639  1.00  0.00    -0.382 OA 
HETATM   19  O   UNL     1     -11.983  14.256  67.085  1.00  0.00    -0.405 OA 
ENDBRANCH   9  11
ENDBRANCH   8   9
TORSDOF 2
ENDMDL
MODEL      159
REMARK 921   NORMALIZED FREE ENERGY PREDICTED BY IDOCK:   -4.08 KCAL/MOL
REMARK 922        TOTAL FREE ENERGY PREDICTED BY IDOCK:   -5.18 KCAL/MOL
REMARK 923 INTER-LIGAND FREE ENERGY PREDICTED BY IDOCK:   -4.61 KCAL/MOL
REMARK 924 INTRA-LIGAND FREE ENERGY PREDICTED BY IDOCK:   -0.56 KCAL/MOL
REMARK 927      BINDING AFFINITY PREDICTED BY RF-SCORE:    0.00 PKD
ROOT
HETATM    1  C   UNL     1      -9.710  16.295  65.974  1.00  0.00    -0.370 C  
HETATM    2  C   UNL     1      -8.597  15.462  66.547  1.00  0.00    -0.294 A  
HETATM    3  C   UNL     1      -7.333  16.012  66.846  1.00  0.00    -0.201 A  
HETATM    4 CL   UNL     1      -6.884  17.607  66.346  1.00  0.00    -0.269 Cl 
HETATM    5  C   UNL     1      -6.361  15.271  67.525  1.00  0.00    -0.129 A  
HETATM    6  C   UNL     1      -6.638  13.979  67.942  1.00  0.00    -0.173 A  
HETATM    7  C   UNL     1      -7.846  13.396  67.576  1.00  0.00    -0.181 A  
HETATM    8  C   UNL     1      -8.789  14.087  66.789  1.00  0.00    -0.157 A  
ENDROOT
BRANCH   8   9
HETATM    9  N   UNL     1      -9.894  13.385  66.212  1.00  0.00    -0.287 NA 
HETATM   10  H   UNL     1     -10.501  13.896  65.571  1.00  0.00     0.000 HD 
BRANCH   9  11
HETATM   11  C   UNL     1     -10.202  12.020  66.474  1.00  0.00    -0.206 A  
HETATM   12  C   UNL     1      -9.669  11.009  65.650  1.00  0.00    -0.276 A  
HETATM   13  C   UNL     1      -9.780   9.659  65.981  1.00  0.00    -0.331 A  
HETATM   14  C   UNL     1     -10.461   9.287  67.136  1.00  0.00    -0.319 A  
HETATM   15  C   UNL     1     -11.106  10.257  67.897  1.00  0.00    -0.341 A  
HETATM   16  C   UNL     1     -11.020  11.613  67.541  1.00  0.00    -0.312 A  
HETATM   17  C   UNL     1     -11.840  12.569  68.316  1.00  0.00    -0.309 C  
HETATM   18  O   UNL     1     -12.010  12.489  69.518  1.00  0.00    -0.303 OA 
HETATM   19  O   UNL     1     -12.433  13.495  67.532  1.00  0.00    -0.154 OA 
ENDBRANCH   9  11
ENDBRANCH   8   9
TORSDOF 2
ENDMDL
MODEL      160
REMARK 921   NORMALIZED FREE ENERGY PREDICTED BY IDOCK:   -4.07 KCAL/MOL
REMARK 922        TOTAL FREE ENERGY PREDICTED BY IDOCK:   -5.17 KCAL/MOL
REMARK 923 INTER-LIGAND FREE ENERGY PREDICTED BY IDOCK:   -4.55 KCAL/MOL
REMARK 924 INTRA-LIGAND FREE ENERGY PREDICTED BY IDOCK:   -0.61 KCAL/MOL
REMARK 927      BINDING AFFINITY PREDICTED BY RF-SCORE:    0.00 PKD
ROOT
HETATM    1  C   UNL     1     -10.258   9.284  71.329  1.00  0.00    -0.383 C  
HETATM    2  C   UNL     1     -10.373   8.043  70.488  1.00  0.00    -0.205 A  
HETATM    3  C   UNL     1     -10.904   6.842  71.002  1.00  0.00    -0.242 A  
HETATM    4 CL   UNL     1     -11.223   6.625  72.689  1.00  0.00    -0.289 Cl 
HETATM    5  C   UNL     1     -11.156   5.746  70.172  1.00  0.00    -0.323 A  
HETATM    6  C   UNL     1     -10.910   5.833  68.811  1.00  0.00    -0.285 A  
HETATM    7  C   UNL     1     -10.304   6.980  68.308  1.00  0.00    -0.223 A  
HETATM    8  C   UNL     1      -9.934   8.048  69.149  1.00  0.00    -0.188 A  
ENDROOT
BRANCH   8   9
HETATM    9  N   UNL     1      -9.087   9.090  68.655  1.00  0.00    -0.137 NA 
HETATM   10  H   UNL     1      -8.495   9.580  69.326  1.00  0.00     0.000 HD 
BRANCH   9  11
HETATM   11  C   UNL     1      -9.017   9.487  67.290  1.00  0.00    -0.131 A  
HETATM   12  C   UNL     1      -8.020   8.949  66.452  1.00  0.00    -0.103 A  
HETATM   13  C   UNL     1      -8.033   9.154  65.073  1.00  0.00    -0.120 A  
HETATM   14  C   UNL     1      -9.032   9.937  64.502  1.00  0.00    -0.272 A  
HETATM   15  C   UNL     1      -9.951  10.585  65.322  1.00  0.00    -0.364 A  
HETATM   16  C   UNL     1      -9.914  10.402  66.715  1.00  0.00    -0.256 A  
HETATM   17  C   UNL     1     -10.832  11.226  67.529  1.00  0.00    -0.245 C  
HETATM   18  O   UNL     1     -11.973  11.488  67.198  1.00  0.00    -0.581 OA 
HETATM   19  O   UNL     1     -10.243  11.710  68.643  1.00  0.00    -0.209 OA 
ENDBRANCH   9  11
ENDBRANCH   8   9
TORSDOF 2
ENDMDL
MODEL      161
REMARK 921   NORMALIZED FREE ENERGY PREDICTED BY IDOCK:   -4.07 KCAL/MOL
REMARK 922        TOTAL FREE ENERGY PREDICTED BY IDOCK:   -5.16 KCAL/MOL
REMARK 923 INTER-LIGAND FREE ENERGY PREDICTED BY IDOCK:   -4.66 KCAL/MOL
REMARK 924 INTRA-LIGAND FREE ENERGY PREDICTED BY IDOCK:   -0.50 KCAL/MOL
REMARK 927      BINDING AFFINITY PREDICTED BY RF-SCORE:    0.00 PKD
ROOT
HETATM    1  C   UNL     1     -11.520   7.470  71.597  1.00  0.00    -0.292 C  
HETATM    2  C   UNL     1     -11.828   8.865  71.125  1.00  0.00    -0.353 A  
HETATM    3  C   UNL     1     -12.852   9.639  71.707  1.00  0.00    -0.421 A  
HETATM    4 CL   UNL     1     -13.992   8.966  72.822  1.00  0.00    -0.369 Cl 
HETATM    5  C   UNL     1     -13.023  10.986  71.373  1.00  0.00    -0.517 A  
HETATM    6  C   UNL     1     -12.162  11.593  70.473  1.00  0.00    -0.451 A  
HETATM    7  C   UNL     1     -11.205  10.818  69.827  1.00  0.00    -0.365 A  
HETATM    8  C   UNL     1     -11.096   9.433  70.063  1.00  0.00    -0.221 A  
ENDROOT
BRANCH   8   9
HETATM    9  N   UNL     1     -10.291   8.620  69.204  1.00  0.00    -0.215 NA 
HETATM   10  H   UNL     1     -10.341   7.608  69.322  1.00  0.00     0.000 HD 
BRANCH   9  11
HETATM   11  C   UNL     1      -9.424   9.132  68.197  1.00  0.00    -0.142 A  
HETATM   12  C   UNL     1      -9.792   9.038  66.840  1.00  0.00    -0.288 A  
HETATM   13  C   UNL     1      -9.076   9.695  65.840  1.00  0.00    -0.221 A  
HETATM   14  C   UNL     1      -7.948  10.437  66.174  1.00  0.00    -0.138 A  
HETATM   15  C   UNL     1      -7.490  10.438  67.489  1.00  0.00    -0.093 A  
HETATM   16  C   UNL     1      -8.196   9.748  68.488  1.00  0.00    -0.106 A  
HETATM   17  C   UNL     1      -7.578   9.682  69.829  1.00  0.00    -0.123 C  
HETATM   18  O   UNL     1      -6.981  10.610  70.342  1.00  0.00    -0.276 OA 
HETATM   19  O   UNL     1      -7.690   8.459  70.391  1.00  0.00    -0.072 OA 
ENDBRANCH   9  11
ENDBRANCH   8   9
TORSDOF 2
ENDMDL
MODEL      162
REMARK 921   NORMALIZED FREE ENERGY PREDICTED BY IDOCK:   -4.07 KCAL/MOL
REMARK 922        TOTAL FREE ENERGY PREDICTED BY IDOCK:   -5.16 KCAL/MOL
REMARK 923 INTER-LIGAND FREE ENERGY PREDICTED BY IDOCK:   -4.61 KCAL/MOL
REMARK 924 INTRA-LIGAND FREE ENERGY PREDICTED BY IDOCK:   -0.56 KCAL/MOL
REMARK 927      BINDING AFFINITY PREDICTED BY RF-SCORE:    0.00 PKD
ROOT
HETATM    1  C   UNL     1     -10.250   7.746  69.600  1.00  0.00    -0.206 C  
HETATM    2  C   UNL     1     -11.215   8.756  70.159  1.00  0.00    -0.162 A  
HETATM    3  C   UNL     1     -12.150   8.418  71.158  1.00  0.00    -0.249 A  
HETATM    4 CL   UNL     1     -12.437   6.778  71.633  1.00  0.00    -0.404 Cl 
HETATM    5  C   UNL     1     -12.930   9.396  71.784  1.00  0.00    -0.484 A  
HETATM    6  C   UNL     1     -12.773  10.730  71.446  1.00  0.00    -0.544 A  
HETATM    7  C   UNL     1     -11.918  11.066  70.401  1.00  0.00    -0.459 A  
HETATM    8  C   UNL     1     -11.214  10.081  69.679  1.00  0.00    -0.239 A  
ENDROOT
BRANCH   8   9
HETATM    9  N   UNL     1     -10.554  10.422  68.457  1.00  0.00    -0.196 NA 
HETATM   10  H   UNL     1     -10.976  10.107  67.583  1.00  0.00     0.000 HD 
BRANCH   9  11
HETATM   11  C   UNL     1      -9.346  11.172  68.381  1.00  0.00    -0.185 A  
HETATM   12  C   UNL     1      -8.207  10.743  69.092  1.00  0.00    -0.124 A  
HETATM   13  C   UNL     1      -6.957  11.329  68.894  1.00  0.00    -0.099 A  
HETATM   14  C   UNL     1      -6.825  12.385  67.999  1.00  0.00    -0.089 A  
HETATM   15  C   UNL     1      -7.957  12.911  67.383  1.00  0.00    -0.178 A  
HETATM   16  C   UNL     1      -9.220  12.340  67.610  1.00  0.00    -0.183 A  
HETATM   17  C   UNL     1     -10.390  13.033  67.030  1.00  0.00    -0.247 C  
HETATM   18  O   UNL     1     -10.387  13.552  65.930  1.00  0.00    -0.286 OA 
HETATM   19  O   UNL     1     -11.435  13.086  67.883  1.00  0.00    -0.272 OA 
ENDBRANCH   9  11
ENDBRANCH   8   9
TORSDOF 2
ENDMDL
MODEL      163
REMARK 921   NORMALIZED FREE ENERGY PREDICTED BY IDOCK:   -4.06 KCAL/MOL
REMARK 922        TOTAL FREE ENERGY PREDICTED BY IDOCK:   -5.16 KCAL/MOL
REMARK 923 INTER-LIGAND FREE ENERGY PREDICTED BY IDOCK:   -4.56 KCAL/MOL
REMARK 924 INTRA-LIGAND FREE ENERGY PREDICTED BY IDOCK:   -0.60 KCAL/MOL
REMARK 927      BINDING AFFINITY PREDICTED BY RF-SCORE:    0.00 PKD
ROOT
HETATM    1  C   UNL     1     -12.630  13.902  65.769  1.00  0.00    -0.533 C  
HETATM    2  C   UNL     1     -11.190  14.196  66.092  1.00  0.00    -0.326 A  
HETATM    3  C   UNL     1     -10.516  15.305  65.542  1.00  0.00    -0.374 A  
HETATM    4 CL   UNL     1     -11.199  16.258  64.269  1.00  0.00    -0.216 Cl 
HETATM    5  C   UNL     1      -9.233  15.661  65.971  1.00  0.00    -0.374 A  
HETATM    6  C   UNL     1      -8.610  14.935  66.973  1.00  0.00    -0.265 A  
HETATM    7  C   UNL     1      -9.228  13.789  67.460  1.00  0.00    -0.216 A  
HETATM    8  C   UNL     1     -10.467  13.348  66.954  1.00  0.00    -0.273 A  
ENDROOT
BRANCH   8   9
HETATM    9  N   UNL     1     -10.951  12.041  67.279  1.00  0.00    -0.248 NA 
HETATM   10  H   UNL     1     -11.669  11.964  68.000  1.00  0.00     0.000 HD 
BRANCH   9  11
HETATM   11  C   UNL     1     -10.496  10.841  66.663  1.00  0.00    -0.246 A  
HETATM   12  C   UNL     1     -10.263  10.811  65.273  1.00  0.00    -0.351 A  
HETATM   13  C   UNL     1      -9.634   9.727  64.660  1.00  0.00    -0.244 A  
HETATM   14  C   UNL     1      -9.252   8.629  65.424  1.00  0.00    -0.103 A  
HETATM   15  C   UNL     1      -9.588   8.580  66.774  1.00  0.00    -0.273 A  
HETATM   16  C   UNL     1     -10.251   9.659  67.381  1.00  0.00    -0.283 A  
HETATM   17  C   UNL     1     -10.694   9.480  68.780  1.00  0.00    -0.190 C  
HETATM   18  O   UNL     1     -10.038   8.898  69.624  1.00  0.00    -0.189 OA 
HETATM   19  O   UNL     1     -11.932   9.971  68.998  1.00  0.00     0.146 OA 
ENDBRANCH   9  11
ENDBRANCH   8   9
TORSDOF 2
ENDMDL
MODEL      164
REMARK 921   NORMALIZED FREE ENERGY PREDICTED BY IDOCK:   -4.06 KCAL/MOL
REMARK 922        TOTAL FREE ENERGY PREDICTED BY IDOCK:   -5.15 KCAL/MOL
REMARK 923 INTER-LIGAND FREE ENERGY PREDICTED BY IDOCK:   -4.66 KCAL/MOL
REMARK 924 INTRA-LIGAND FREE ENERGY PREDICTED BY IDOCK:   -0.49 KCAL/MOL
REMARK 927      BINDING AFFINITY PREDICTED BY RF-SCORE:    0.00 PKD
ROOT
HETATM    1  C   UNL     1     -10.670  11.077  68.981  1.00  0.00    -0.258 C  
HETATM    2  C   UNL     1     -11.500  10.665  70.166  1.00  0.00    -0.411 A  
HETATM    3  C   UNL     1     -12.312  11.584  70.861  1.00  0.00    -0.359 A  
HETATM    4 CL   UNL     1     -12.224  13.289  70.574  1.00  0.00    -0.436 Cl 
HETATM    5  C   UNL     1     -13.200  11.162  71.855  1.00  0.00    -0.488 A  
HETATM    6  C   UNL     1     -13.315   9.814  72.157  1.00  0.00    -0.527 A  
HETATM    7  C   UNL     1     -12.457   8.909  71.540  1.00  0.00    -0.380 A  
HETATM    8  C   UNL     1     -11.474   9.332  70.624  1.00  0.00    -0.274 A  
ENDROOT
BRANCH   8   9
HETATM    9  N   UNL     1     -10.445   8.430  70.208  1.00  0.00    -0.213 NA 
HETATM   10  H   UNL     1     -10.556   7.962  69.308  1.00  0.00     0.000 HD 
BRANCH   9  11
HETATM   11  C   UNL     1      -9.275   8.143  70.968  1.00  0.00    -0.152 A  
HETATM   12  C   UNL     1      -9.247   8.430  72.347  1.00  0.00    -0.345 A  
HETATM   13  C   UNL     1      -8.207   7.989  73.165  1.00  0.00    -0.244 A  
HETATM   14  C   UNL     1      -7.148   7.277  72.611  1.00  0.00    -0.068 A  
HETATM   15  C   UNL     1      -7.089   7.095  71.233  1.00  0.00    -0.069 A  
HETATM   16  C   UNL     1      -8.122   7.569  70.407  1.00  0.00    -0.111 A  
HETATM   17  C   UNL     1      -7.926   7.459  68.946  1.00  0.00    -0.126 C  
HETATM   18  O   UNL     1      -7.403   6.501  68.408  1.00  0.00    -0.083 OA 
HETATM   19  O   UNL     1      -8.326   8.566  68.286  1.00  0.00    -0.122 OA 
ENDBRANCH   9  11
ENDBRANCH   8   9
TORSDOF 2
ENDMDL
MODEL      165
REMARK 921   NORMALIZED FREE ENERGY PREDICTED BY IDOCK:   -4.06 KCAL/MOL
REMARK 922        TOTAL FREE ENERGY PREDICTED BY IDOCK:   -5.15 KCAL/MOL
REMARK 923 INTER-LIGAND FREE ENERGY PREDICTED BY IDOCK:   -4.64 KCAL/MOL
REMARK 924 INTRA-LIGAND FREE ENERGY PREDICTED BY IDOCK:   -0.51 KCAL/MOL
REMARK 927      BINDING AFFINITY PREDICTED BY RF-SCORE:    0.00 PKD
ROOT
HETATM    1  C   UNL     1      -8.881   8.615  71.927  1.00  0.00    -0.275 C  
HETATM    2  C   UNL     1     -10.244   8.026  71.688  1.00  0.00    -0.256 A  
HETATM    3  C   UNL     1     -10.641   6.806  72.273  1.00  0.00    -0.213 A  
HETATM    4 CL   UNL     1      -9.522   5.773  73.094  1.00  0.00    -0.146 Cl 
HETATM    5  C   UNL     1     -11.959   6.350  72.176  1.00  0.00    -0.346 A  
HETATM    6  C   UNL     1     -12.912   7.111  71.519  1.00  0.00    -0.431 A  
HETATM    7  C   UNL     1     -12.513   8.271  70.863  1.00  0.00     0.005 A  
HETATM    8  C   UNL     1     -11.166   8.684  70.849  1.00  0.00    -0.267 A  
ENDROOT
BRANCH   8   9
HETATM    9  N   UNL     1     -10.742   9.722  69.960  1.00  0.00    -0.261 NA 
HETATM   10  H   UNL     1     -10.755  10.681  70.307  1.00  0.00     0.000 HD 
BRANCH   9  11
HETATM   11  C   UNL     1     -10.304   9.503  68.623  1.00  0.00    -0.205 A  
HETATM   12  C   UNL     1      -9.502   8.384  68.321  1.00  0.00    -0.147 A  
HETATM   13  C   UNL     1      -9.215   8.023  67.005  1.00  0.00    -0.181 A  
HETATM   14  C   UNL     1      -9.699   8.798  65.956  1.00  0.00    -0.276 A  
HETATM   15  C   UNL     1     -10.382   9.978  66.232  1.00  0.00    -0.235 A  
HETATM   16  C   UNL     1     -10.641  10.357  67.560  1.00  0.00    -0.312 A  
HETATM   17  C   UNL     1     -11.250  11.686  67.777  1.00  0.00    -0.268 C  
HETATM   18  O   UNL     1     -12.114  12.156  67.061  1.00  0.00    -0.591 OA 
HETATM   19  O   UNL     1     -10.693  12.347  68.815  1.00  0.00    -0.230 OA 
ENDBRANCH   9  11
ENDBRANCH   8   9
TORSDOF 2
ENDMDL
MODEL      166
REMARK 921   NORMALIZED FREE ENERGY PREDICTED BY IDOCK:   -4.05 KCAL/MOL
REMARK 922        TOTAL FREE ENERGY PREDICTED BY IDOCK:   -5.15 KCAL/MOL
REMARK 923 INTER-LIGAND FREE ENERGY PREDICTED BY IDOCK:   -4.53 KCAL/MOL
REMARK 924 INTRA-LIGAND FREE ENERGY PREDICTED BY IDOCK:   -0.62 KCAL/MOL
REMARK 927      BINDING AFFINITY PREDICTED BY RF-SCORE:    0.00 PKD
ROOT
HETATM    1  C   UNL     1     -10.212  10.909  63.833  1.00  0.00    -0.418 C  
HETATM    2  C   UNL     1     -10.739  11.642  65.037  1.00  0.00    -0.351 A  
HETATM    3  C   UNL     1     -11.668  12.696  64.918  1.00  0.00    -0.353 A  
HETATM    4 CL   UNL     1     -12.078  13.393  63.388  1.00  0.00    -0.534 Cl 
HETATM    5  C   UNL     1     -12.272  13.261  66.046  1.00  0.00    -0.483 A  
HETATM    6  C   UNL     1     -11.983  12.770  67.309  1.00  0.00    -0.345 A  
HETATM    7  C   UNL     1     -11.003  11.793  67.444  1.00  0.00    -0.314 A  
HETATM    8  C   UNL     1     -10.298  11.296  66.330  1.00  0.00    -0.247 A  
ENDROOT
BRANCH   8   9
HETATM    9  N   UNL     1      -9.128  10.494  66.519  1.00  0.00    -0.155 NA 
HETATM   10  H   UNL     1      -8.244  10.847  66.154  1.00  0.00     0.000 HD 
BRANCH   9  11
HETATM   11  C   UNL     1      -9.119   9.234  67.183  1.00  0.00    -0.130 A  
HETATM   12  C   UNL     1     -10.176   8.325  66.979  1.00  0.00    -0.380 A  
HETATM   13  C   UNL     1     -10.114   7.013  67.448  1.00  0.00    -0.252 A  
HETATM   14  C   UNL     1      -9.001   6.590  68.166  1.00  0.00    -0.116 A  
HETATM   15  C   UNL     1      -8.004   7.505  68.493  1.00  0.00    -0.123 A  
HETATM   16  C   UNL     1      -8.086   8.835  68.047  1.00  0.00    -0.107 A  
HETATM   17  C   UNL     1      -7.063   9.779  68.545  1.00  0.00    -0.068 C  
HETATM   18  O   UNL     1      -5.891   9.486  68.691  1.00  0.00    -0.040 OA 
HETATM   19  O   UNL     1      -7.586  10.976  68.883  1.00  0.00    -0.117 OA 
ENDBRANCH   9  11
ENDBRANCH   8   9
TORSDOF 2
ENDMDL
MODEL      167
REMARK 921   NORMALIZED FREE ENERGY PREDICTED BY IDOCK:   -4.05 KCAL/MOL
REMARK 922        TOTAL FREE ENERGY PREDICTED BY IDOCK:   -5.14 KCAL/MOL
REMARK 923 INTER-LIGAND FREE ENERGY PREDICTED BY IDOCK:   -4.44 KCAL/MOL
REMARK 924 INTRA-LIGAND FREE ENERGY PREDICTED BY IDOCK:   -0.70 KCAL/MOL
REMARK 927      BINDING AFFINITY PREDICTED BY RF-SCORE:    0.00 PKD
ROOT
HETATM    1  C   UNL     1      -7.256   9.772  67.382  1.00  0.00    -0.086 C  
HETATM    2  C   UNL     1      -8.468   9.545  68.243  1.00  0.00    -0.119 A  
HETATM    3  C   UNL     1      -8.825   8.260  68.701  1.00  0.00    -0.133 A  
HETATM    4 CL   UNL     1      -8.060   6.826  68.107  1.00  0.00    -0.114 Cl 
HETATM    5  C   UNL     1      -9.855   8.081  69.630  1.00  0.00    -0.184 A  
HETATM    6  C   UNL     1     -10.530   9.178  70.140  1.00  0.00    -0.249 A  
HETATM    7  C   UNL     1     -10.246  10.441  69.630  1.00  0.00    -0.245 A  
HETATM    8  C   UNL     1      -9.294  10.627  68.608  1.00  0.00    -0.177 A  
ENDROOT
BRANCH   8   9
HETATM    9  N   UNL     1      -9.210  11.881  67.925  1.00  0.00    -0.180 NA 
HETATM   10  H   UNL     1      -8.455  12.516  68.187  1.00  0.00     0.000 HD 
BRANCH   9  11
HETATM   11  C   UNL     1     -10.110  12.301  66.905  1.00  0.00    -0.211 A  
HETATM   12  C   UNL     1      -9.952  11.823  65.589  1.00  0.00    -0.271 A  
HETATM   13  C   UNL     1     -10.918  12.048  64.608  1.00  0.00    -0.367 A  
HETATM   14  C   UNL     1     -12.053  12.790  64.915  1.00  0.00    -0.490 A  
HETATM   15  C   UNL     1     -12.169  13.382  66.169  1.00  0.00    -0.471 A  
HETATM   16  C   UNL     1     -11.178  13.181  67.145  1.00  0.00    -0.326 A  
HETATM   17  C   UNL     1     -11.302  13.949  68.402  1.00  0.00    -0.285 C  
HETATM   18  O   UNL     1     -12.363  14.161  68.959  1.00  0.00    -0.294 OA 
HETATM   19  O   UNL     1     -10.119  14.443  68.824  1.00  0.00    -0.236 OA 
ENDBRANCH   9  11
ENDBRANCH   8   9
TORSDOF 2
ENDMDL
MODEL      168
REMARK 921   NORMALIZED FREE ENERGY PREDICTED BY IDOCK:   -4.04 KCAL/MOL
REMARK 922        TOTAL FREE ENERGY PREDICTED BY IDOCK:   -5.14 KCAL/MOL
REMARK 923 INTER-LIGAND FREE ENERGY PREDICTED BY IDOCK:   -4.95 KCAL/MOL
REMARK 924 INTRA-LIGAND FREE ENERGY PREDICTED BY IDOCK:   -0.18 KCAL/MOL
REMARK 927      BINDING AFFINITY PREDICTED BY RF-SCORE:    0.00 PKD
ROOT
HETATM    1  C   UNL     1     -10.659   7.754  67.094  1.00  0.00    -0.401 C  
HETATM    2  C   UNL     1      -9.393   8.133  66.375  1.00  0.00    -0.269 A  
HETATM    3  C   UNL     1      -8.389   7.186  66.086  1.00  0.00    -0.133 A  
HETATM    4 CL   UNL     1      -8.413   5.589  66.751  1.00  0.00    -0.111 Cl 
HETATM    5  C   UNL     1      -7.295   7.512  65.279  1.00  0.00    -0.072 A  
HETATM    6  C   UNL     1      -7.194   8.777  64.723  1.00  0.00    -0.091 A  
HETATM    7  C   UNL     1      -8.130   9.744  65.073  1.00  0.00    -0.134 A  
HETATM    8  C   UNL     1      -9.173   9.467  65.979  1.00  0.00    -0.196 A  
ENDROOT
BRANCH   8   9
HETATM    9  N   UNL     1      -9.957  10.535  66.519  1.00  0.00    -0.207 NA 
HETATM   10  H   UNL     1     -10.023  10.612  67.534  1.00  0.00     0.000 HD 
BRANCH   9  11
HETATM   11  C   UNL     1     -10.652  11.497  65.732  1.00  0.00    -0.263 A  
HETATM   12  C   UNL     1     -10.702  11.353  64.331  1.00  0.00    -0.405 A  
HETATM   13  C   UNL     1     -11.529  12.153  63.542  1.00  0.00    -0.544 A  
HETATM   14  C   UNL     1     -12.303  13.142  64.139  1.00  0.00    -0.418 A  
HETATM   15  C   UNL     1     -12.174  13.389  65.502  1.00  0.00    -0.499 A  
HETATM   16  C   UNL     1     -11.314  12.604  66.288  1.00  0.00    -0.376 A  
HETATM   17  C   UNL     1     -11.127  13.010  67.697  1.00  0.00    -0.267 C  
HETATM   18  O   UNL     1     -12.025  13.432  68.401  1.00  0.00    -0.348 OA 
HETATM   19  O   UNL     1      -9.839  12.925  68.093  1.00  0.00    -0.217 OA 
ENDBRANCH   9  11
ENDBRANCH   8   9
TORSDOF 2
ENDMDL
MODEL      169
REMARK 921   NORMALIZED FREE ENERGY PREDICTED BY IDOCK:   -4.03 KCAL/MOL
REMARK 922        TOTAL FREE ENERGY PREDICTED BY IDOCK:   -5.12 KCAL/MOL
REMARK 923 INTER-LIGAND FREE ENERGY PREDICTED BY IDOCK:   -5.12 KCAL/MOL
REMARK 924 INTRA-LIGAND FREE ENERGY PREDICTED BY IDOCK:   -0.01 KCAL/MOL
REMARK 927      BINDING AFFINITY PREDICTED BY RF-SCORE:    0.00 PKD
ROOT
HETATM    1  C   UNL     1     -12.227  11.005  70.354  1.00  0.00    -0.461 C  
HETATM    2  C   UNL     1     -11.025  10.959  69.451  1.00  0.00    -0.304 A  
HETATM    3  C   UNL     1      -9.957  10.068  69.679  1.00  0.00    -0.236 A  
HETATM    4 CL   UNL     1      -9.821   9.150  71.140  1.00  0.00    -0.365 Cl 
HETATM    5  C   UNL     1      -8.924   9.919  68.749  1.00  0.00    -0.140 A  
HETATM    6  C   UNL     1      -8.950  10.634  67.562  1.00  0.00    -0.136 A  
HETATM    7  C   UNL     1      -9.951  11.579  67.366  1.00  0.00    -0.209 A  
HETATM    8  C   UNL     1     -10.933  11.828  68.345  1.00  0.00    -0.231 A  
ENDROOT
BRANCH   8   9
HETATM    9  N   UNL     1     -11.784  12.973  68.235  1.00  0.00    -0.335 NA 
HETATM   10  H   UNL     1     -12.792  12.819  68.236  1.00  0.00     0.000 HD 
BRANCH   9  11
HETATM   11  C   UNL     1     -11.315  14.312  68.122  1.00  0.00    -0.288 A  
HETATM   12  C   UNL     1     -10.383  14.648  67.121  1.00  0.00    -0.265 A  
HETATM   13  C   UNL     1     -10.047  15.974  66.848  1.00  0.00    -0.266 A  
HETATM   14  C   UNL     1     -10.614  16.997  67.600  1.00  0.00    -0.333 A  
HETATM   15  C   UNL     1     -11.436  16.684  68.678  1.00  0.00    -0.046 A  
HETATM   16  C   UNL     1     -11.746  15.345  68.971  1.00  0.00    -0.380 A  
HETATM   17  C   UNL     1     -12.512  15.084  70.208  1.00  0.00    -0.337 C  
HETATM   18  O   UNL     1     -13.423  15.791  70.598  1.00  0.00    -0.453 OA 
HETATM   19  O   UNL     1     -12.045  14.016  70.889  1.00  0.00    -0.333 OA 
ENDBRANCH   9  11
ENDBRANCH   8   9
TORSDOF 2
ENDMDL
MODEL      170
REMARK 921   NORMALIZED FREE ENERGY PREDICTED BY IDOCK:   -4.01 KCAL/MOL
REMARK 922        TOTAL FREE ENERGY PREDICTED BY IDOCK:   -5.10 KCAL/MOL
REMARK 923 INTER-LIGAND FREE ENERGY PREDICTED BY IDOCK:   -4.53 KCAL/MOL
REMARK 924 INTRA-LIGAND FREE ENERGY PREDICTED BY IDOCK:   -0.57 KCAL/MOL
REMARK 927      BINDING AFFINITY PREDICTED BY RF-SCORE:    0.00 PKD
ROOT
HETATM    1  C   UNL     1     -12.016  12.750  66.883  1.00  0.00    -0.380 C  
HETATM    2  C   UNL     1     -10.817  13.658  66.853  1.00  0.00    -0.286 A  
HETATM    3  C   UNL     1     -10.559  14.514  65.763  1.00  0.00    -0.317 A  
HETATM    4 CL   UNL     1     -11.442  14.405  64.279  1.00  0.00    -0.282 Cl 
HETATM    5  C   UNL     1      -9.537  15.467  65.814  1.00  0.00    -0.368 A  
HETATM    6  C   UNL     1      -8.771  15.604  66.961  1.00  0.00    -0.256 A  
HETATM    7  C   UNL     1      -8.959  14.707  68.008  1.00  0.00    -0.174 A  
HETATM    8  C   UNL     1      -9.903  13.665  67.926  1.00  0.00    -0.237 A  
ENDROOT
BRANCH   8   9
HETATM    9  N   UNL     1      -9.895  12.610  68.893  1.00  0.00    -0.414 NA 
HETATM   10  H   UNL     1     -10.351  12.782  69.790  1.00  0.00     0.000 HD 
BRANCH   9  11
HETATM   11  C   UNL     1      -9.291  11.338  68.686  1.00  0.00    -0.164 A  
HETATM   12  C   UNL     1      -8.250  11.199  67.747  1.00  0.00    -0.119 A  
HETATM   13  C   UNL     1      -7.501  10.026  67.651  1.00  0.00    -0.090 A  
HETATM   14  C   UNL     1      -7.802   8.948  68.477  1.00  0.00    -0.103 A  
HETATM   15  C   UNL     1      -8.906   9.014  69.321  1.00  0.00    -0.139 A  
HETATM   16  C   UNL     1      -9.679  10.185  69.390  1.00  0.00    -0.247 A  
HETATM   17  C   UNL     1     -10.911  10.135  70.205  1.00  0.00    -0.316 C  
HETATM   18  O   UNL     1     -10.992   9.550  71.268  1.00  0.00    -0.337 OA 
HETATM   19  O   UNL     1     -11.953  10.751  69.605  1.00  0.00    -0.300 OA 
ENDBRANCH   9  11
ENDBRANCH   8   9
TORSDOF 2
ENDMDL
MODEL      171
REMARK 921   NORMALIZED FREE ENERGY PREDICTED BY IDOCK:   -4.00 KCAL/MOL
REMARK 922        TOTAL FREE ENERGY PREDICTED BY IDOCK:   -5.09 KCAL/MOL
REMARK 923 INTER-LIGAND FREE ENERGY PREDICTED BY IDOCK:   -4.46 KCAL/MOL
REMARK 924 INTRA-LIGAND FREE ENERGY PREDICTED BY IDOCK:   -0.63 KCAL/MOL
REMARK 927      BINDING AFFINITY PREDICTED BY RF-SCORE:    0.00 PKD
ROOT
HETATM    1  C   UNL     1      -9.701  11.371  68.178  1.00  0.00    -0.194 C  
HETATM    2  C   UNL     1     -10.157  11.276  66.747  1.00  0.00    -0.254 A  
HETATM    3  C   UNL     1     -11.163  12.117  66.229  1.00  0.00    -0.334 A  
HETATM    4 CL   UNL     1     -12.123  13.136  67.247  1.00  0.00    -0.376 Cl 
HETATM    5  C   UNL     1     -11.465  12.132  64.864  1.00  0.00    -0.379 A  
HETATM    6  C   UNL     1     -10.753  11.331  63.986  1.00  0.00    -0.444 A  
HETATM    7  C   UNL     1      -9.821  10.434  64.497  1.00  0.00    -0.405 A  
HETATM    8  C   UNL     1      -9.588  10.320  65.882  1.00  0.00    -0.209 A  
ENDROOT
BRANCH   8   9
HETATM    9  N   UNL     1      -8.827   9.222  66.395  1.00  0.00    -0.141 NA 
HETATM   10  H   UNL     1      -7.890   9.415  66.746  1.00  0.00     0.000 HD 
BRANCH   9  11
HETATM   11  C   UNL     1      -9.294   7.878  66.445  1.00  0.00    -0.189 A  
HETATM   12  C   UNL     1     -10.520   7.583  67.073  1.00  0.00    -0.409 A  
HETATM   13  C   UNL     1     -11.109   6.322  66.976  1.00  0.00    -0.379 A  
HETATM   14  C   UNL     1     -10.461   5.312  66.271  1.00  0.00    -0.311 A  
HETATM   15  C   UNL     1      -9.190   5.541  65.754  1.00  0.00    -0.132 A  
HETATM   16  C   UNL     1      -8.586   6.803  65.883  1.00  0.00    -0.153 A  
HETATM   17  C   UNL     1      -7.185   6.931  65.428  1.00  0.00    -0.073 C  
HETATM   18  O   UNL     1      -6.748   6.388  64.431  1.00  0.00    -0.033 OA 
HETATM   19  O   UNL     1      -6.430   7.659  66.279  1.00  0.00    -0.047 OA 
ENDBRANCH   9  11
ENDBRANCH   8   9
TORSDOF 2
ENDMDL
MODEL      172
REMARK 921   NORMALIZED FREE ENERGY PREDICTED BY IDOCK:   -3.99 KCAL/MOL
REMARK 922        TOTAL FREE ENERGY PREDICTED BY IDOCK:   -5.07 KCAL/MOL
REMARK 923 INTER-LIGAND FREE ENERGY PREDICTED BY IDOCK:   -4.53 KCAL/MOL
REMARK 924 INTRA-LIGAND FREE ENERGY PREDICTED BY IDOCK:   -0.54 KCAL/MOL
REMARK 927      BINDING AFFINITY PREDICTED BY RF-SCORE:    0.00 PKD
ROOT
HETATM    1  C   UNL     1     -10.081   5.051  66.659  1.00  0.00    -0.276 C  
HETATM    2  C   UNL     1      -9.916   4.495  68.047  1.00  0.00    -0.102 A  
HETATM    3  C   UNL     1      -9.311   3.242  68.279  1.00  0.00    -0.184 A  
HETATM    4 CL   UNL     1      -8.949   2.143  66.992  1.00  0.00    -0.153 Cl 
HETATM    5  C   UNL     1      -9.017   2.808  69.575  1.00  0.00    -0.170 A  
HETATM    6  C   UNL     1      -9.294   3.622  70.661  1.00  0.00    -0.228 A  
HETATM    7  C   UNL     1      -9.969   4.820  70.451  1.00  0.00    -0.315 A  
HETATM    8  C   UNL     1     -10.380   5.218  69.163  1.00  0.00    -0.194 A  
ENDROOT
BRANCH   8   9
HETATM    9  N   UNL     1     -11.292   6.310  69.006  1.00  0.00    -0.537 NA 
HETATM   10  H   UNL     1     -11.817   6.371  68.134  1.00  0.00     0.000 HD 
BRANCH   9  11
HETATM   11  C   UNL     1     -11.512   7.317  69.988  1.00  0.00    -0.110 A  
HETATM   12  C   UNL     1     -12.482   7.121  70.991  1.00  0.00    -0.359 A  
HETATM   13  C   UNL     1     -12.595   7.985  72.080  1.00  0.00    -0.316 A  
HETATM   14  C   UNL     1     -11.756   9.090  72.173  1.00  0.00    -0.366 A  
HETATM   15  C   UNL     1     -10.880   9.378  71.131  1.00  0.00    -0.427 A  
HETATM   16  C   UNL     1     -10.792   8.524  70.019  1.00  0.00    -0.225 A  
HETATM   17  C   UNL     1      -9.940   8.964  68.894  1.00  0.00    -0.190 C  
HETATM   18  O   UNL     1      -8.872   9.528  69.039  1.00  0.00    -0.134 OA 
HETATM   19  O   UNL     1     -10.511   8.731  67.692  1.00  0.00    -0.241 OA 
ENDBRANCH   9  11
ENDBRANCH   8   9
TORSDOF 2
ENDMDL
MODEL      173
REMARK 921   NORMALIZED FREE ENERGY PREDICTED BY IDOCK:   -3.96 KCAL/MOL
REMARK 922        TOTAL FREE ENERGY PREDICTED BY IDOCK:   -5.05 KCAL/MOL
REMARK 923 INTER-LIGAND FREE ENERGY PREDICTED BY IDOCK:   -4.62 KCAL/MOL
REMARK 924 INTRA-LIGAND FREE ENERGY PREDICTED BY IDOCK:   -0.43 KCAL/MOL
REMARK 927      BINDING AFFINITY PREDICTED BY RF-SCORE:    0.00 PKD
ROOT
HETATM    1  C   UNL     1      -8.221  14.486  67.187  1.00  0.00    -0.214 C  
HETATM    2  C   UNL     1      -9.492  13.879  66.658  1.00  0.00    -0.296 A  
HETATM    3  C   UNL     1      -9.620  12.492  66.441  1.00  0.00    -0.247 A  
HETATM    4 CL   UNL     1      -8.264  11.420  66.518  1.00  0.00    -0.167 Cl 
HETATM    5  C   UNL     1     -10.852  11.921  66.105  1.00  0.00    -0.334 A  
HETATM    6  C   UNL     1     -11.982  12.716  66.005  1.00  0.00    -0.478 A  
HETATM    7  C   UNL     1     -11.850  14.095  66.130  1.00  0.00    -0.420 A  
HETATM    8  C   UNL     1     -10.597  14.699  66.351  1.00  0.00    -0.301 A  
ENDROOT
BRANCH   8   9
HETATM    9  N   UNL     1     -10.448  16.116  66.215  1.00  0.00    -0.318 NA 
HETATM   10  H   UNL     1     -10.298  16.492  65.279  1.00  0.00     0.000 HD 
BRANCH   9  11
HETATM   11  C   UNL     1     -10.496  17.034  67.302  1.00  0.00    -0.301 A  
HETATM   12  C   UNL     1     -10.853  16.582  68.588  1.00  0.00    -0.345 A  
HETATM   13  C   UNL     1     -10.724  17.396  69.713  1.00  0.00     0.430 A  
HETATM   14  C   UNL     1     -10.263  18.701  69.570  1.00  0.00     0.349 A  
HETATM   15  C   UNL     1     -10.027  19.211  68.297  1.00  0.00    -0.482 A  
HETATM   16  C   UNL     1     -10.191  18.398  67.163  1.00  0.00    -0.396 A  
HETATM   17  C   UNL     1     -10.054  19.045  65.841  1.00  0.00    -0.236 C  
HETATM   18  O   UNL     1      -9.225  19.900  65.593  1.00  0.00    -0.302 OA 
HETATM   19  O   UNL     1     -10.993  18.633  64.963  1.00  0.00    -0.559 OA 
ENDBRANCH   9  11
ENDBRANCH   8   9
TORSDOF 2
ENDMDL
MODEL      174
REMARK 921   NORMALIZED FREE ENERGY PREDICTED BY IDOCK:   -3.96 KCAL/MOL
REMARK 922        TOTAL FREE ENERGY PREDICTED BY IDOCK:   -5.04 KCAL/MOL
REMARK 923 INTER-LIGAND FREE ENERGY PREDICTED BY IDOCK:   -4.38 KCAL/MOL
REMARK 924 INTRA-LIGAND FREE ENERGY PREDICTED BY IDOCK:   -0.67 KCAL/MOL
REMARK 927      BINDING AFFINITY PREDICTED BY RF-SCORE:    0.00 PKD
ROOT
HETATM    1  C   UNL     1      -7.176  11.423  69.189  1.00  0.00    -0.102 C  
HETATM    2  C   UNL     1      -8.240  10.960  68.231  1.00  0.00    -0.127 A  
HETATM    3  C   UNL     1      -8.057   9.834  67.403  1.00  0.00    -0.114 A  
HETATM    4 CL   UNL     1      -6.521   9.056  67.235  1.00  0.00    -0.060 Cl 
HETATM    5  C   UNL     1      -9.107   9.318  66.638  1.00  0.00    -0.177 A  
HETATM    6  C   UNL     1     -10.365   9.896  66.703  1.00  0.00    -0.275 A  
HETATM    7  C   UNL     1     -10.534  11.059  67.447  1.00  0.00    -0.255 A  
HETATM    8  C   UNL     1      -9.458  11.662  68.129  1.00  0.00    -0.191 A  
ENDROOT
BRANCH   8   9
HETATM    9  N   UNL     1      -9.596  12.982  68.664  1.00  0.00    -0.407 NA 
HETATM   10  H   UNL     1      -9.875  13.074  69.640  1.00  0.00     0.000 HD 
BRANCH   9  11
HETATM   11  C   UNL     1      -9.368  14.175  67.921  1.00  0.00    -0.204 A  
HETATM   12  C   UNL     1      -8.107  14.802  67.968  1.00  0.00    -0.140 A  
HETATM   13  C   UNL     1      -7.778  15.852  67.111  1.00  0.00    -0.247 A  
HETATM   14  C   UNL     1      -8.723  16.323  66.205  1.00  0.00    -0.353 A  
HETATM   15  C   UNL     1     -10.015  15.807  66.228  1.00  0.00    -0.315 A  
HETATM   16  C   UNL     1     -10.352  14.772  67.116  1.00  0.00    -0.255 A  
HETATM   17  C   UNL     1     -11.774  14.370  67.178  1.00  0.00    -0.400 C  
HETATM   18  O   UNL     1     -12.496  14.299  66.201  1.00  0.00    -0.442 OA 
HETATM   19  O   UNL     1     -12.197  14.159  68.442  1.00  0.00    -0.314 OA 
ENDBRANCH   9  11
ENDBRANCH   8   9
TORSDOF 2
ENDMDL
MODEL      175
REMARK 921   NORMALIZED FREE ENERGY PREDICTED BY IDOCK:   -3.95 KCAL/MOL
REMARK 922        TOTAL FREE ENERGY PREDICTED BY IDOCK:   -5.03 KCAL/MOL
REMARK 923 INTER-LIGAND FREE ENERGY PREDICTED BY IDOCK:   -4.43 KCAL/MOL
REMARK 924 INTRA-LIGAND FREE ENERGY PREDICTED BY IDOCK:   -0.60 KCAL/MOL
REMARK 927      BINDING AFFINITY PREDICTED BY RF-SCORE:    0.00 PKD
ROOT
HETATM    1  C   UNL     1     -10.689  10.297  68.678  1.00  0.00    -0.255 C  
HETATM    2  C   UNL     1     -10.646   8.805  68.864  1.00  0.00    -0.178 A  
HETATM    3  C   UNL     1     -10.600   8.215  70.144  1.00  0.00    -0.237 A  
HETATM    4 CL   UNL     1     -10.331   9.148  71.576  1.00  0.00    -0.413 Cl 
HETATM    5  C   UNL     1     -10.723   6.833  70.311  1.00  0.00    -0.284 A  
HETATM    6  C   UNL     1     -10.922   6.015  69.210  1.00  0.00    -0.436 A  
HETATM    7  C   UNL     1     -10.881   6.575  67.938  1.00  0.00    -0.383 A  
HETATM    8  C   UNL     1     -10.639   7.949  67.744  1.00  0.00    -0.175 A  
ENDROOT
BRANCH   8   9
HETATM    9  N   UNL     1     -10.344   8.449  66.436  1.00  0.00    -0.396 NA 
HETATM   10  H   UNL     1     -11.128   8.672  65.823  1.00  0.00     0.000 HD 
BRANCH   9  11
HETATM   11  C   UNL     1      -9.027   8.655  65.936  1.00  0.00    -0.200 A  
HETATM   12  C   UNL     1      -7.931   8.031  66.564  1.00  0.00    -0.102 A  
HETATM   13  C   UNL     1      -6.657   8.044  65.997  1.00  0.00    -0.046 A  
HETATM   14  C   UNL     1      -6.443   8.715  64.797  1.00  0.00    -0.065 A  
HETATM   15  C   UNL     1      -7.479   9.448  64.225  1.00  0.00    -0.110 A  
HETATM   16  C   UNL     1      -8.753   9.460  64.817  1.00  0.00    -0.227 A  
HETATM   17  C   UNL     1      -9.763  10.365  64.229  1.00  0.00    -0.326 C  
HETATM   18  O   UNL     1      -9.885  10.551  63.033  1.00  0.00    -0.315 OA 
HETATM   19  O   UNL     1     -10.486  11.012  65.168  1.00  0.00    -0.281 OA 
ENDBRANCH   9  11
ENDBRANCH   8   9
TORSDOF 2
ENDMDL
MODEL      176
REMARK 921   NORMALIZED FREE ENERGY PREDICTED BY IDOCK:   -3.94 KCAL/MOL
REMARK 922        TOTAL FREE ENERGY PREDICTED BY IDOCK:   -5.03 KCAL/MOL
REMARK 923 INTER-LIGAND FREE ENERGY PREDICTED BY IDOCK:   -4.81 KCAL/MOL
REMARK 924 INTRA-LIGAND FREE ENERGY PREDICTED BY IDOCK:   -0.22 KCAL/MOL
REMARK 927      BINDING AFFINITY PREDICTED BY RF-SCORE:    0.00 PKD
ROOT
HETATM    1  C   UNL     1     -10.914   9.976  70.385  1.00  0.00    -0.384 C  
HETATM    2  C   UNL     1     -11.910   9.045  71.022  1.00  0.00    -0.339 A  
HETATM    3  C   UNL     1     -13.137   9.509  71.540  1.00  0.00    -0.389 A  
HETATM    4 CL   UNL     1     -13.480  11.196  71.718  1.00  0.00    -0.338 Cl 
HETATM    5  C   UNL     1     -14.121   8.619  71.981  1.00  0.00    -0.523 A  
HETATM    6  C   UNL     1     -13.914   7.252  71.890  1.00  0.00    -0.371 A  
HETATM    7  C   UNL     1     -12.675   6.785  71.463  1.00  0.00    -0.341 A  
HETATM    8  C   UNL     1     -11.630   7.668  71.128  1.00  0.00    -0.280 A  
ENDROOT
BRANCH   8   9
HETATM    9  N   UNL     1     -10.300   7.171  70.947  1.00  0.00    -0.201 NA 
HETATM   10  H   UNL     1      -9.621   7.781  70.492  1.00  0.00     0.000 HD 
BRANCH   9  11
HETATM   11  C   UNL     1      -9.864   5.880  71.360  1.00  0.00    -0.168 A  
HETATM   12  C   UNL     1     -10.146   4.754  70.561  1.00  0.00    -0.291 A  
HETATM   13  C   UNL     1      -9.575   3.509  70.822  1.00  0.00    -0.246 A  
HETATM   14  C   UNL     1      -8.730   3.354  71.916  1.00  0.00    -0.120 A  
HETATM   15  C   UNL     1      -8.540   4.417  72.793  1.00  0.00    -0.109 A  
HETATM   16  C   UNL     1      -9.144   5.661  72.546  1.00  0.00    -0.138 A  
HETATM   17  C   UNL     1      -9.006   6.699  73.589  1.00  0.00    -0.133 C  
HETATM   18  O   UNL     1      -7.988   6.879  74.229  1.00  0.00    -0.114 OA 
HETATM   19  O   UNL     1     -10.155   7.376  73.799  1.00  0.00    -0.327 OA 
ENDBRANCH   9  11
ENDBRANCH   8   9
TORSDOF 2
ENDMDL
MODEL      177
REMARK 921   NORMALIZED FREE ENERGY PREDICTED BY IDOCK:   -3.92 KCAL/MOL
REMARK 922        TOTAL FREE ENERGY PREDICTED BY IDOCK:   -5.00 KCAL/MOL
REMARK 923 INTER-LIGAND FREE ENERGY PREDICTED BY IDOCK:   -4.69 KCAL/MOL
REMARK 924 INTRA-LIGAND FREE ENERGY PREDICTED BY IDOCK:   -0.31 KCAL/MOL
REMARK 927      BINDING AFFINITY PREDICTED BY RF-SCORE:    0.00 PKD
ROOT
HETATM    1  C   UNL     1      -8.018  11.153  67.378  1.00  0.00    -0.125 C  
HETATM    2  C   UNL     1      -9.348  11.660  67.866  1.00  0.00    -0.174 A  
HETATM    3  C   UNL     1      -9.737  13.005  67.702  1.00  0.00    -0.212 A  
HETATM    4 CL   UNL     1      -8.631  14.224  67.168  1.00  0.00    -0.231 Cl 
HETATM    5  C   UNL     1     -11.034  13.428  68.012  1.00  0.00    -0.265 A  
HETATM    6  C   UNL     1     -11.973  12.516  68.463  1.00  0.00    -0.266 A  
HETATM    7  C   UNL     1     -11.576  11.206  68.712  1.00  0.00    -0.389 A  
HETATM    8  C   UNL     1     -10.244  10.790  68.520  1.00  0.00    -0.178 A  
ENDROOT
BRANCH   8   9
HETATM    9  N   UNL     1      -9.806   9.525  69.025  1.00  0.00    -0.170 NA 
HETATM   10  H   UNL     1      -8.930   9.146  68.666  1.00  0.00     0.000 HD 
BRANCH   9  11
HETATM   11  C   UNL     1     -10.515   8.762  69.996  1.00  0.00    -0.212 A  
HETATM   12  C   UNL     1     -10.843   9.337  71.239  1.00  0.00    -0.417 A  
HETATM   13  C   UNL     1     -11.700   8.701  72.137  1.00  0.00    -0.442 A  
HETATM   14  C   UNL     1     -12.224   7.452  71.823  1.00  0.00    -0.359 A  
HETATM   15  C   UNL     1     -11.812   6.806  70.661  1.00  0.00    -0.442 A  
HETATM   16  C   UNL     1     -10.923   7.436  69.774  1.00  0.00    -0.215 A  
HETATM   17  C   UNL     1     -10.427   6.637  68.633  1.00  0.00    -0.211 C  
HETATM   18  O   UNL     1     -11.120   5.858  68.005  1.00  0.00    -0.252 OA 
HETATM   19  O   UNL     1      -9.108   6.817  68.411  1.00  0.00    -0.127 OA 
ENDBRANCH   9  11
ENDBRANCH   8   9
TORSDOF 2
ENDMDL
MODEL      178
REMARK 921   NORMALIZED FREE ENERGY PREDICTED BY IDOCK:   -3.92 KCAL/MOL
REMARK 922        TOTAL FREE ENERGY PREDICTED BY IDOCK:   -5.00 KCAL/MOL
REMARK 923 INTER-LIGAND FREE ENERGY PREDICTED BY IDOCK:   -4.80 KCAL/MOL
REMARK 924 INTRA-LIGAND FREE ENERGY PREDICTED BY IDOCK:   -0.19 KCAL/MOL
REMARK 927      BINDING AFFINITY PREDICTED BY RF-SCORE:    0.00 PKD
ROOT
HETATM    1  C   UNL     1     -11.266   7.783  72.734  1.00  0.00    -0.456 C  
HETATM    2  C   UNL     1     -11.521   8.860  71.715  1.00  0.00    -0.423 A  
HETATM    3  C   UNL     1     -12.710   9.618  71.715  1.00  0.00    -0.420 A  
HETATM    4 CL   UNL     1     -14.064   9.205  72.711  1.00  0.00    -0.340 Cl 
HETATM    5  C   UNL     1     -12.869  10.720  70.869  1.00  0.00    -0.443 A  
HETATM    6  C   UNL     1     -11.837  11.104  70.028  1.00  0.00    -0.441 A  
HETATM    7  C   UNL     1     -10.696  10.312  69.955  1.00  0.00    -0.345 A  
HETATM    8  C   UNL     1     -10.568   9.131  70.713  1.00  0.00    -0.260 A  
ENDROOT
BRANCH   8   9
HETATM    9  N   UNL     1      -9.513   8.207  70.430  1.00  0.00    -0.162 NA 
HETATM   10  H   UNL     1      -9.036   7.772  71.219  1.00  0.00     0.000 HD 
BRANCH   9  11
HETATM   11  C   UNL     1      -9.087   7.855  69.117  1.00  0.00    -0.145 A  
HETATM   12  C   UNL     1      -8.487   8.824  68.290  1.00  0.00    -0.130 A  
HETATM   13  C   UNL     1      -7.880   8.482  67.082  1.00  0.00    -0.097 A  
HETATM   14  C   UNL     1      -7.891   7.157  66.656  1.00  0.00    -0.109 A  
HETATM   15  C   UNL     1      -8.590   6.205  67.391  1.00  0.00    -0.106 A  
HETATM   16  C   UNL     1      -9.229   6.560  68.591  1.00  0.00    -0.127 A  
HETATM   17  C   UNL     1     -10.062   5.528  69.244  1.00  0.00    -0.223 C  
HETATM   18  O   UNL     1      -9.759   4.351  69.296  1.00  0.00    -0.181 OA 
HETATM   19  O   UNL     1     -11.226   6.026  69.715  1.00  0.00    -0.394 OA 
ENDBRANCH   9  11
ENDBRANCH   8   9
TORSDOF 2
ENDMDL
MODEL      179
REMARK 921   NORMALIZED FREE ENERGY PREDICTED BY IDOCK:   -3.91 KCAL/MOL
REMARK 922        TOTAL FREE ENERGY PREDICTED BY IDOCK:   -4.99 KCAL/MOL
REMARK 923 INTER-LIGAND FREE ENERGY PREDICTED BY IDOCK:   -4.76 KCAL/MOL
REMARK 924 INTRA-LIGAND FREE ENERGY PREDICTED BY IDOCK:   -0.23 KCAL/MOL
REMARK 927      BINDING AFFINITY PREDICTED BY RF-SCORE:    0.00 PKD
ROOT
HETATM    1  C   UNL     1     -12.916  15.567  70.155  1.00  0.00    -0.035 C  
HETATM    2  C   UNL     1     -12.561  14.106  70.227  1.00  0.00    -0.367 A  
HETATM    3  C   UNL     1     -12.711  13.362  71.415  1.00  0.00    -0.322 A  
HETATM    4 CL   UNL     1     -13.064  14.114  72.933  1.00  0.00    -0.585 Cl 
HETATM    5  C   UNL     1     -12.534  11.975  71.430  1.00  0.00    -0.240 A  
HETATM    6  C   UNL     1     -12.231  11.301  70.258  1.00  0.00    -0.428 A  
HETATM    7  C   UNL     1     -11.994  12.034  69.100  1.00  0.00    -0.326 A  
HETATM    8  C   UNL     1     -12.051  13.442  69.094  1.00  0.00    -0.261 A  
ENDROOT
BRANCH   8   9
HETATM    9  N   UNL     1     -11.553  14.176  67.971  1.00  0.00    -0.315 NA 
HETATM   10  H   UNL     1     -12.060  14.100  67.089  1.00  0.00     0.000 HD 
BRANCH   9  11
HETATM   11  C   UNL     1     -10.396  15.005  68.005  1.00  0.00    -0.236 A  
HETATM   12  C   UNL     1     -10.531  16.403  67.901  1.00  0.00    -0.307 A  
HETATM   13  C   UNL     1      -9.454  17.261  68.126  1.00  0.00    -0.278 A  
HETATM   14  C   UNL     1      -8.203  16.733  68.428  1.00  0.00    -0.224 A  
HETATM   15  C   UNL     1      -8.016  15.354  68.408  1.00  0.00    -0.131 A  
HETATM   16  C   UNL     1      -9.095  14.493  68.148  1.00  0.00    -0.191 A  
HETATM   17  C   UNL     1      -8.793  13.053  68.011  1.00  0.00    -0.191 C  
HETATM   18  O   UNL     1      -7.982  12.466  68.702  1.00  0.00    -0.122 OA 
HETATM   19  O   UNL     1      -9.466  12.479  66.990  1.00  0.00    -0.204 OA 
ENDBRANCH   9  11
ENDBRANCH   8   9
TORSDOF 2
ENDMDL
MODEL      180
REMARK 921   NORMALIZED FREE ENERGY PREDICTED BY IDOCK:   -3.89 KCAL/MOL
REMARK 922        TOTAL FREE ENERGY PREDICTED BY IDOCK:   -4.96 KCAL/MOL
REMARK 923 INTER-LIGAND FREE ENERGY PREDICTED BY IDOCK:   -4.69 KCAL/MOL
REMARK 924 INTRA-LIGAND FREE ENERGY PREDICTED BY IDOCK:   -0.27 KCAL/MOL
REMARK 927      BINDING AFFINITY PREDICTED BY RF-SCORE:    0.00 PKD
ROOT
HETATM    1  C   UNL     1     -11.667  12.016  69.710  1.00  0.00    -0.390 C  
HETATM    2  C   UNL     1     -11.999  10.829  70.573  1.00  0.00    -0.456 A  
HETATM    3  C   UNL     1     -12.953  10.906  71.608  1.00  0.00    -0.464 A  
HETATM    4 CL   UNL     1     -13.623  12.413  72.132  1.00  0.00    -0.531 Cl 
HETATM    5  C   UNL     1     -13.371   9.763  72.296  1.00  0.00    -0.472 A  
HETATM    6  C   UNL     1     -12.868   8.519  71.949  1.00  0.00    -0.399 A  
HETATM    7  C   UNL     1     -11.862   8.443  70.991  1.00  0.00    -0.278 A  
HETATM    8  C   UNL     1     -11.344   9.598  70.372  1.00  0.00    -0.277 A  
ENDROOT
BRANCH   8   9
HETATM    9  N   UNL     1     -10.146   9.519  69.594  1.00  0.00    -0.198 NA 
HETATM   10  H   UNL     1     -10.236   9.518  68.578  1.00  0.00     0.000 HD 
BRANCH   9  11
HETATM   11  C   UNL     1      -8.836   9.441  70.146  1.00  0.00    -0.223 A  
HETATM   12  C   UNL     1      -8.635   8.816  71.393  1.00  0.00    -0.254 A  
HETATM   13  C   UNL     1      -7.356   8.544  71.878  1.00  0.00    -0.119 A  
HETATM   14  C   UNL     1      -6.242   8.923  71.136  1.00  0.00    -0.057 A  
HETATM   15  C   UNL     1      -6.413   9.657  69.966  1.00  0.00    -0.067 A  
HETATM   16  C   UNL     1      -7.702   9.959  69.497  1.00  0.00    -0.135 A  
HETATM   17  C   UNL     1      -7.803  10.854  68.325  1.00  0.00    -0.118 C  
HETATM   18  O   UNL     1      -7.043  10.809  67.376  1.00  0.00    -0.086 OA 
HETATM   19  O   UNL     1      -8.787  11.769  68.456  1.00  0.00    -0.169 OA 
ENDBRANCH   9  11
ENDBRANCH   8   9
TORSDOF 2
ENDMDL
MODEL      181
REMARK 921   NORMALIZED FREE ENERGY PREDICTED BY IDOCK:   -3.88 KCAL/MOL
REMARK 922        TOTAL FREE ENERGY PREDICTED BY IDOCK:   -4.96 KCAL/MOL
REMARK 923 INTER-LIGAND FREE ENERGY PREDICTED BY IDOCK:   -4.62 KCAL/MOL
REMARK 924 INTRA-LIGAND FREE ENERGY PREDICTED BY IDOCK:   -0.34 KCAL/MOL
REMARK 927      BINDING AFFINITY PREDICTED BY RF-SCORE:    0.00 PKD
ROOT
HETATM    1  C   UNL     1      -8.532  14.934  66.708  1.00  0.00    -0.215 C  
HETATM    2  C   UNL     1      -9.821  14.497  66.068  1.00  0.00    -0.342 A  
HETATM    3  C   UNL     1     -10.736  15.425  65.529  1.00  0.00    -0.384 A  
HETATM    4 CL   UNL     1     -10.576  17.129  65.786  1.00  0.00    -0.280 Cl 
HETATM    5  C   UNL     1     -11.849  15.004  64.795  1.00  0.00    -0.341 A  
HETATM    6  C   UNL     1     -12.058  13.654  64.561  1.00  0.00    -0.459 A  
HETATM    7  C   UNL     1     -11.212  12.728  65.162  1.00  0.00    -0.327 A  
HETATM    8  C   UNL     1     -10.155  13.129  66.003  1.00  0.00    -0.286 A  
ENDROOT
BRANCH   8   9
HETATM    9  N   UNL     1      -9.471  12.165  66.808  1.00  0.00    -0.206 NA 
HETATM   10  H   UNL     1      -9.026  12.490  67.666  1.00  0.00     0.000 HD 
BRANCH   9  11
HETATM   11  C   UNL     1      -9.372  10.781  66.489  1.00  0.00    -0.168 A  
HETATM   12  C   UNL     1      -8.968  10.385  65.198  1.00  0.00    -0.217 A  
HETATM   13  C   UNL     1      -8.669   9.056  64.900  1.00  0.00    -0.200 A  
HETATM   14  C   UNL     1      -8.800   8.082  65.885  1.00  0.00    -0.189 A  
HETATM   15  C   UNL     1      -9.320   8.428  67.128  1.00  0.00    -0.192 A  
HETATM   16  C   UNL     1      -9.653   9.762  67.414  1.00  0.00    -0.187 A  
HETATM   17  C   UNL     1     -10.325  10.030  68.704  1.00  0.00    -0.190 C  
HETATM   18  O   UNL     1     -10.035   9.467  69.743  1.00  0.00    -0.186 OA 
HETATM   19  O   UNL     1     -11.337  10.915  68.585  1.00  0.00    -0.250 OA 
ENDBRANCH   9  11
ENDBRANCH   8   9
TORSDOF 2
ENDMDL
MODEL      182
REMARK 921   NORMALIZED FREE ENERGY PREDICTED BY IDOCK:   -3.88 KCAL/MOL
REMARK 922        TOTAL FREE ENERGY PREDICTED BY IDOCK:   -4.95 KCAL/MOL
REMARK 923 INTER-LIGAND FREE ENERGY PREDICTED BY IDOCK:   -4.49 KCAL/MOL
REMARK 924 INTRA-LIGAND FREE ENERGY PREDICTED BY IDOCK:   -0.46 KCAL/MOL
REMARK 927      BINDING AFFINITY PREDICTED BY RF-SCORE:    0.00 PKD
ROOT
HETATM    1  C   UNL     1      -7.312  11.628  66.974  1.00  0.00    -0.143 C  
HETATM    2  C   UNL     1      -7.763  10.833  65.780  1.00  0.00    -0.094 A  
HETATM    3  C   UNL     1      -6.957   9.829  65.206  1.00  0.00    -0.111 A  
HETATM    4 CL   UNL     1      -5.301   9.609  65.659  1.00  0.00    -0.042 Cl 
HETATM    5  C   UNL     1      -7.448   8.989  64.202  1.00  0.00    -0.110 A  
HETATM    6  C   UNL     1      -8.758   9.115  63.770  1.00  0.00    -0.150 A  
HETATM    7  C   UNL     1      -9.534  10.157  64.266  1.00  0.00    -0.366 A  
HETATM    8  C   UNL     1      -9.018  11.087  65.190  1.00  0.00    -0.145 A  
ENDROOT
BRANCH   8   9
HETATM    9  N   UNL     1      -9.740  12.287  65.481  1.00  0.00    -0.373 NA 
HETATM   10  H   UNL     1      -9.633  13.074  64.842  1.00  0.00     0.000 HD 
BRANCH   9  11
HETATM   11  C   UNL     1     -10.597  12.453  66.606  1.00  0.00    -0.231 A  
HETATM   12  C   UNL     1     -11.014  11.328  67.343  1.00  0.00    -0.337 A  
HETATM   13  C   UNL     1     -11.687  11.457  68.558  1.00  0.00    -0.386 A  
HETATM   14  C   UNL     1     -11.989  12.723  69.048  1.00  0.00    -0.288 A  
HETATM   15  C   UNL     1     -11.703  13.845  68.276  1.00  0.00    -0.396 A  
HETATM   16  C   UNL     1     -11.056  13.709  67.036  1.00  0.00    -0.313 A  
HETATM   17  C   UNL     1     -10.908  14.929  66.214  1.00  0.00    -0.331 C  
HETATM   18  O   UNL     1     -10.645  16.024  66.675  1.00  0.00    -0.317 OA 
HETATM   19  O   UNL     1     -11.163  14.705  64.907  1.00  0.00    -0.360 OA 
ENDBRANCH   9  11
ENDBRANCH   8   9
TORSDOF 2
ENDMDL
MODEL      183
REMARK 921   NORMALIZED FREE ENERGY PREDICTED BY IDOCK:   -3.88 KCAL/MOL
REMARK 922        TOTAL FREE ENERGY PREDICTED BY IDOCK:   -4.95 KCAL/MOL
REMARK 923 INTER-LIGAND FREE ENERGY PREDICTED BY IDOCK:   -4.35 KCAL/MOL
REMARK 924 INTRA-LIGAND FREE ENERGY PREDICTED BY IDOCK:   -0.60 KCAL/MOL
REMARK 927      BINDING AFFINITY PREDICTED BY RF-SCORE:    0.00 PKD
ROOT
HETATM    1  C   UNL     1      -8.948  14.053  68.369  1.00  0.00    -0.189 C  
HETATM    2  C   UNL     1     -10.158  13.717  67.541  1.00  0.00    -0.241 A  
HETATM    3  C   UNL     1     -11.004  14.718  67.021  1.00  0.00    -0.324 A  
HETATM    4 CL   UNL     1     -10.870  16.376  67.498  1.00  0.00    -0.290 Cl 
HETATM    5  C   UNL     1     -12.029  14.406  66.122  1.00  0.00    -0.381 A  
HETATM    6  C   UNL     1     -12.214  13.098  65.705  1.00  0.00    -0.521 A  
HETATM    7  C   UNL     1     -11.443  12.092  66.279  1.00  0.00    -0.433 A  
HETATM    8  C   UNL     1     -10.487  12.373  67.275  1.00  0.00    -0.222 A  
ENDROOT
BRANCH   8   9
HETATM    9  N   UNL     1      -9.900  11.307  68.028  1.00  0.00    -0.173 NA 
HETATM   10  H   UNL     1      -9.685  11.481  69.010  1.00  0.00     0.000 HD 
BRANCH   9  11
HETATM   11  C   UNL     1      -9.597  10.022  67.496  1.00  0.00    -0.153 A  
HETATM   12  C   UNL     1     -10.519   8.966  67.643  1.00  0.00    -0.320 A  
HETATM   13  C   UNL     1     -10.355   7.753  66.974  1.00  0.00    -0.405 A  
HETATM   14  C   UNL     1      -9.241   7.558  66.165  1.00  0.00    -0.156 A  
HETATM   15  C   UNL     1      -8.253   8.535  66.107  1.00  0.00    -0.115 A  
HETATM   16  C   UNL     1      -8.404   9.743  66.809  1.00  0.00    -0.124 A  
HETATM   17  C   UNL     1      -7.256  10.674  66.809  1.00  0.00    -0.119 C  
HETATM   18  O   UNL     1      -6.551  10.872  65.837  1.00  0.00    -0.118 OA 
HETATM   19  O   UNL     1      -7.038  11.226  68.021  1.00  0.00    -0.067 OA 
ENDBRANCH   9  11
ENDBRANCH   8   9
TORSDOF 2
ENDMDL
MODEL      184
REMARK 921   NORMALIZED FREE ENERGY PREDICTED BY IDOCK:   -3.87 KCAL/MOL
REMARK 922        TOTAL FREE ENERGY PREDICTED BY IDOCK:   -4.94 KCAL/MOL
REMARK 923 INTER-LIGAND FREE ENERGY PREDICTED BY IDOCK:   -4.46 KCAL/MOL
REMARK 924 INTRA-LIGAND FREE ENERGY PREDICTED BY IDOCK:   -0.48 KCAL/MOL
REMARK 927      BINDING AFFINITY PREDICTED BY RF-SCORE:    0.00 PKD
ROOT
HETATM    1  C   UNL     1     -11.567  11.842  69.558  1.00  0.00    -0.394 C  
HETATM    2  C   UNL     1     -11.491  10.434  70.082  1.00  0.00    -0.396 A  
HETATM    3  C   UNL     1     -12.333   9.979  71.117  1.00  0.00    -0.377 A  
HETATM    4 CL   UNL     1     -13.331  11.057  72.032  1.00  0.00    -0.508 Cl 
HETATM    5  C   UNL     1     -12.367   8.630  71.485  1.00  0.00    -0.370 A  
HETATM    6  C   UNL     1     -11.583   7.707  70.812  1.00  0.00    -0.284 A  
HETATM    7  C   UNL     1     -10.684   8.158  69.851  1.00  0.00    -0.241 A  
HETATM    8  C   UNL     1     -10.551   9.528  69.551  1.00  0.00    -0.221 A  
ENDROOT
BRANCH   8   9
HETATM    9  N   UNL     1      -9.451   9.986  68.760  1.00  0.00    -0.155 NA 
HETATM   10  H   UNL     1      -8.633  10.353  69.247  1.00  0.00     0.000 HD 
BRANCH   9  11
HETATM   11  C   UNL     1      -9.423   9.964  67.336  1.00  0.00    -0.149 A  
HETATM   12  C   UNL     1     -10.532  10.432  66.605  1.00  0.00    -0.279 A  
HETATM   13  C   UNL     1     -10.475  10.612  65.223  1.00  0.00    -0.264 A  
HETATM   14  C   UNL     1      -9.310  10.293  64.534  1.00  0.00    -0.328 A  
HETATM   15  C   UNL     1      -8.247   9.707  65.215  1.00  0.00    -0.131 A  
HETATM   16  C   UNL     1      -8.321   9.496  66.602  1.00  0.00    -0.116 A  
HETATM   17  C   UNL     1      -7.212   8.748  67.232  1.00  0.00    -0.080 C  
HETATM   18  O   UNL     1      -6.044   8.885  66.918  1.00  0.00    -0.056 OA 
HETATM   19  O   UNL     1      -7.645   7.851  68.143  1.00  0.00    -0.110 OA 
ENDBRANCH   9  11
ENDBRANCH   8   9
TORSDOF 2
ENDMDL
MODEL      185
REMARK 921   NORMALIZED FREE ENERGY PREDICTED BY IDOCK:   -3.86 KCAL/MOL
REMARK 922        TOTAL FREE ENERGY PREDICTED BY IDOCK:   -4.94 KCAL/MOL
REMARK 923 INTER-LIGAND FREE ENERGY PREDICTED BY IDOCK:   -4.43 KCAL/MOL
REMARK 924 INTRA-LIGAND FREE ENERGY PREDICTED BY IDOCK:   -0.51 KCAL/MOL
REMARK 927      BINDING AFFINITY PREDICTED BY RF-SCORE:    0.00 PKD
ROOT
HETATM    1  C   UNL     1     -11.566   7.382  72.772  1.00  0.00    -0.255 C  
HETATM    2  C   UNL     1     -11.715   8.511  71.789  1.00  0.00    -0.392 A  
HETATM    3  C   UNL     1     -12.925   9.221  71.649  1.00  0.00    -0.374 A  
HETATM    4 CL   UNL     1     -14.393   8.693  72.398  1.00  0.00    -0.494 Cl 
HETATM    5  C   UNL     1     -13.007  10.368  70.853  1.00  0.00    -0.475 A  
HETATM    6  C   UNL     1     -11.879  10.844  70.204  1.00  0.00    -0.438 A  
HETATM    7  C   UNL     1     -10.703  10.104  70.263  1.00  0.00    -0.352 A  
HETATM    8  C   UNL     1     -10.635   8.883  70.963  1.00  0.00    -0.247 A  
ENDROOT
BRANCH   8   9
HETATM    9  N   UNL     1      -9.506   8.020  70.794  1.00  0.00    -0.161 NA 
HETATM   10  H   UNL     1      -8.687   8.187  71.378  1.00  0.00     0.000 HD 
BRANCH   9  11
HETATM   11  C   UNL     1      -9.453   6.943  69.863  1.00  0.00    -0.156 A  
HETATM   12  C   UNL     1     -10.617   6.554  69.173  1.00  0.00    -0.286 A  
HETATM   13  C   UNL     1     -10.572   5.644  68.116  1.00  0.00    -0.256 A  
HETATM   14  C   UNL     1      -9.357   5.075  67.748  1.00  0.00    -0.146 A  
HETATM   15  C   UNL     1      -8.217   5.344  68.498  1.00  0.00    -0.094 A  
HETATM   16  C   UNL     1      -8.272   6.236  69.583  1.00  0.00    -0.124 A  
HETATM   17  C   UNL     1      -7.056   6.368  70.412  1.00  0.00    -0.068 C  
HETATM   18  O   UNL     1      -5.928   6.376  69.956  1.00  0.00    -0.021 OA 
HETATM   19  O   UNL     1      -7.333   6.409  71.733  1.00  0.00    -0.085 OA 
ENDBRANCH   9  11
ENDBRANCH   8   9
TORSDOF 2
ENDMDL
MODEL      186
REMARK 921   NORMALIZED FREE ENERGY PREDICTED BY IDOCK:   -3.86 KCAL/MOL
REMARK 922        TOTAL FREE ENERGY PREDICTED BY IDOCK:   -4.94 KCAL/MOL
REMARK 923 INTER-LIGAND FREE ENERGY PREDICTED BY IDOCK:   -4.28 KCAL/MOL
REMARK 924 INTRA-LIGAND FREE ENERGY PREDICTED BY IDOCK:   -0.66 KCAL/MOL
REMARK 927      BINDING AFFINITY PREDICTED BY RF-SCORE:    0.00 PKD
ROOT
HETATM    1  C   UNL     1      -8.747   4.286  69.855  1.00  0.00    -0.110 C  
HETATM    2  C   UNL     1      -9.296   4.530  68.476  1.00  0.00    -0.198 A  
HETATM    3  C   UNL     1      -9.229   3.549  67.465  1.00  0.00    -0.188 A  
HETATM    4 CL   UNL     1      -8.296   2.103  67.647  1.00  0.00    -0.075 Cl 
HETATM    5  C   UNL     1      -9.882   3.723  66.241  1.00  0.00    -0.076 A  
HETATM    6  C   UNL     1     -10.635   4.863  66.010  1.00  0.00    -0.312 A  
HETATM    7  C   UNL     1     -10.635   5.875  66.965  1.00  0.00    -0.376 A  
HETATM    8  C   UNL     1      -9.886   5.768  68.153  1.00  0.00    -0.135 A  
ENDROOT
BRANCH   8   9
HETATM    9  N   UNL     1      -9.694   6.915  68.987  1.00  0.00    -0.150 NA 
HETATM   10  H   UNL     1      -8.779   7.366  68.974  1.00  0.00     0.000 HD 
BRANCH   9  11
HETATM   11  C   UNL     1     -10.696   7.467  69.834  1.00  0.00    -0.243 A  
HETATM   12  C   UNL     1     -11.484   6.617  70.635  1.00  0.00    -0.420 A  
HETATM   13  C   UNL     1     -12.337   7.120  71.618  1.00  0.00    -0.398 A  
HETATM   14  C   UNL     1     -12.444   8.495  71.799  1.00  0.00    -0.388 A  
HETATM   15  C   UNL     1     -11.776   9.357  70.935  1.00  0.00    -0.378 A  
HETATM   16  C   UNL     1     -10.945   8.847  69.924  1.00  0.00    -0.190 A  
HETATM   17  C   UNL     1     -10.377   9.816  68.963  1.00  0.00    -0.208 C  
HETATM   18  O   UNL     1      -9.977  10.921  69.278  1.00  0.00    -0.196 OA 
HETATM   19  O   UNL     1     -10.415   9.365  67.691  1.00  0.00    -0.238 OA 
ENDBRANCH   9  11
ENDBRANCH   8   9
TORSDOF 2
ENDMDL
MODEL      187
REMARK 921   NORMALIZED FREE ENERGY PREDICTED BY IDOCK:   -3.86 KCAL/MOL
REMARK 922        TOTAL FREE ENERGY PREDICTED BY IDOCK:   -4.93 KCAL/MOL
REMARK 923 INTER-LIGAND FREE ENERGY PREDICTED BY IDOCK:   -4.48 KCAL/MOL
REMARK 924 INTRA-LIGAND FREE ENERGY PREDICTED BY IDOCK:   -0.45 KCAL/MOL
REMARK 927      BINDING AFFINITY PREDICTED BY RF-SCORE:    0.00 PKD
ROOT
HETATM    1  C   UNL     1      -9.782   9.364  67.149  1.00  0.00    -0.225 C  
HETATM    2  C   UNL     1     -10.490  10.470  67.883  1.00  0.00    -0.247 A  
HETATM    3  C   UNL     1     -11.112  11.536  67.201  1.00  0.00    -0.297 A  
HETATM    4 CL   UNL     1     -10.896  11.793  65.503  1.00  0.00    -0.339 Cl 
HETATM    5  C   UNL     1     -11.902  12.469  67.880  1.00  0.00    -0.383 A  
HETATM    6  C   UNL     1     -12.108  12.343  69.244  1.00  0.00    -0.218 A  
HETATM    7  C   UNL     1     -11.429  11.349  69.940  1.00  0.00    -0.353 A  
HETATM    8  C   UNL     1     -10.536  10.473  69.291  1.00  0.00    -0.235 A  
ENDROOT
BRANCH   8   9
HETATM    9  N   UNL     1      -9.661   9.641  70.059  1.00  0.00    -0.230 NA 
HETATM   10  H   UNL     1      -8.796  10.053  70.408  1.00  0.00     0.000 HD 
BRANCH   9  11
HETATM   11  C   UNL     1      -9.919   8.275  70.366  1.00  0.00    -0.188 A  
HETATM   12  C   UNL     1     -11.206   7.740  70.157  1.00  0.00    -0.168 A  
HETATM   13  C   UNL     1     -11.454   6.371  70.255  1.00  0.00    -0.468 A  
HETATM   14  C   UNL     1     -10.421   5.506  70.600  1.00  0.00    -0.342 A  
HETATM   15  C   UNL     1      -9.174   6.024  70.938  1.00  0.00    -0.165 A  
HETATM   16  C   UNL     1      -8.937   7.407  70.870  1.00  0.00    -0.149 A  
HETATM   17  C   UNL     1      -7.634   7.895  71.372  1.00  0.00    -0.083 C  
HETATM   18  O   UNL     1      -6.583   7.308  71.196  1.00  0.00    -0.043 OA 
HETATM   19  O   UNL     1      -7.752   9.024  72.102  1.00  0.00    -0.351 OA 
ENDBRANCH   9  11
ENDBRANCH   8   9
TORSDOF 2
ENDMDL
MODEL      188
REMARK 921   NORMALIZED FREE ENERGY PREDICTED BY IDOCK:   -3.86 KCAL/MOL
REMARK 922        TOTAL FREE ENERGY PREDICTED BY IDOCK:   -4.93 KCAL/MOL
REMARK 923 INTER-LIGAND FREE ENERGY PREDICTED BY IDOCK:   -4.32 KCAL/MOL
REMARK 924 INTRA-LIGAND FREE ENERGY PREDICTED BY IDOCK:   -0.61 KCAL/MOL
REMARK 927      BINDING AFFINITY PREDICTED BY RF-SCORE:    0.00 PKD
ROOT
HETATM    1  C   UNL     1     -11.032  10.992  68.948  1.00  0.00    -0.277 C  
HETATM    2  C   UNL     1     -10.569  10.748  67.537  1.00  0.00    -0.280 A  
HETATM    3  C   UNL     1     -10.278  11.810  66.656  1.00  0.00    -0.210 A  
HETATM    4 CL   UNL     1     -10.671  13.452  67.033  1.00  0.00    -0.267 Cl 
HETATM    5  C   UNL     1      -9.696  11.577  65.406  1.00  0.00    -0.262 A  
HETATM    6  C   UNL     1      -9.368  10.286  65.022  1.00  0.00    -0.290 A  
HETATM    7  C   UNL     1      -9.730   9.225  65.845  1.00  0.00    -0.355 A  
HETATM    8  C   UNL     1     -10.425   9.433  67.053  1.00  0.00    -0.231 A  
ENDROOT
BRANCH   8   9
HETATM    9  N   UNL     1     -11.011   8.325  67.744  1.00  0.00    -0.491 NA 
HETATM   10  H   UNL     1     -11.889   8.482  68.238  1.00  0.00     0.000 HD 
BRANCH   9  11
HETATM   11  C   UNL     1     -10.447   7.018  67.787  1.00  0.00    -0.223 A  
HETATM   12  C   UNL     1     -10.907   6.026  66.899  1.00  0.00    -0.396 A  
HETATM   13  C   UNL     1     -10.255   4.799  66.770  1.00  0.00    -0.253 A  
HETATM   14  C   UNL     1      -9.141   4.525  67.557  1.00  0.00    -0.137 A  
HETATM   15  C   UNL     1      -8.747   5.436  68.532  1.00  0.00    -0.094 A  
HETATM   16  C   UNL     1      -9.426   6.656  68.681  1.00  0.00    -0.128 A  
HETATM   17  C   UNL     1      -9.037   7.511  69.823  1.00  0.00    -0.140 C  
HETATM   18  O   UNL     1      -7.888   7.655  70.195  1.00  0.00    -0.093 OA 
HETATM   19  O   UNL     1     -10.102   8.058  70.447  1.00  0.00    -0.192 OA 
ENDBRANCH   9  11
ENDBRANCH   8   9
TORSDOF 2
ENDMDL
MODEL      189
REMARK 921   NORMALIZED FREE ENERGY PREDICTED BY IDOCK:   -3.86 KCAL/MOL
REMARK 922        TOTAL FREE ENERGY PREDICTED BY IDOCK:   -4.93 KCAL/MOL
REMARK 923 INTER-LIGAND FREE ENERGY PREDICTED BY IDOCK:   -4.36 KCAL/MOL
REMARK 924 INTRA-LIGAND FREE ENERGY PREDICTED BY IDOCK:   -0.57 KCAL/MOL
REMARK 927      BINDING AFFINITY PREDICTED BY RF-SCORE:    0.00 PKD
ROOT
HETATM    1  C   UNL     1      -8.894  15.691  69.815  1.00  0.00     0.020 C  
HETATM    2  C   UNL     1      -7.743  15.281  68.937  1.00  0.00    -0.167 A  
HETATM    3  C   UNL     1      -6.656  16.143  68.684  1.00  0.00    -0.126 A  
HETATM    4 CL   UNL     1      -6.680  17.811  69.143  1.00  0.00    -0.248 Cl 
HETATM    5  C   UNL     1      -5.520  15.698  68.002  1.00  0.00    -0.135 A  
HETATM    6  C   UNL     1      -5.432  14.379  67.584  1.00  0.00     0.060 A  
HETATM    7  C   UNL     1      -6.533  13.545  67.750  1.00  0.00    -0.175 A  
HETATM    8  C   UNL     1      -7.731  14.010  68.328  1.00  0.00    -0.141 A  
ENDROOT
BRANCH   8   9
HETATM    9  N   UNL     1      -8.920  13.219  68.250  1.00  0.00    -0.214 NA 
HETATM   10  H   UNL     1      -9.091  12.540  68.992  1.00  0.00     0.000 HD 
BRANCH   9  11
HETATM   11  C   UNL     1      -9.881  13.318  67.203  1.00  0.00    -0.237 A  
HETATM   12  C   UNL     1      -9.601  14.100  66.065  1.00  0.00    -0.251 A  
HETATM   13  C   UNL     1     -10.420  14.070  64.936  1.00  0.00    -0.453 A  
HETATM   14  C   UNL     1     -11.562  13.275  64.935  1.00  0.00    -0.353 A  
HETATM   15  C   UNL     1     -11.928  12.595  66.092  1.00  0.00    -0.458 A  
HETATM   16  C   UNL     1     -11.119  12.655  67.239  1.00  0.00    -0.320 A  
HETATM   17  C   UNL     1     -11.639  12.020  68.468  1.00  0.00    -0.309 C  
HETATM   18  O   UNL     1     -12.250  10.968  68.475  1.00  0.00    -0.582 OA 
HETATM   19  O   UNL     1     -11.421  12.770  69.570  1.00  0.00    -0.267 OA 
ENDBRANCH   9  11
ENDBRANCH   8   9
TORSDOF 2
ENDMDL
MODEL      190
REMARK 921   NORMALIZED FREE ENERGY PREDICTED BY IDOCK:   -3.86 KCAL/MOL
REMARK 922        TOTAL FREE ENERGY PREDICTED BY IDOCK:   -4.93 KCAL/MOL
REMARK 923 INTER-LIGAND FREE ENERGY PREDICTED BY IDOCK:   -4.32 KCAL/MOL
REMARK 924 INTRA-LIGAND FREE ENERGY PREDICTED BY IDOCK:   -0.61 KCAL/MOL
REMARK 927      BINDING AFFINITY PREDICTED BY RF-SCORE:    0.00 PKD
ROOT
HETATM    1  C   UNL     1     -10.579   9.857  70.164  1.00  0.00    -0.350 C  
HETATM    2  C   UNL     1     -10.594   8.626  69.299  1.00  0.00    -0.204 A  
HETATM    3  C   UNL     1     -10.841   7.345  69.833  1.00  0.00    -0.246 A  
HETATM    4 CL   UNL     1     -10.891   7.053  71.538  1.00  0.00    -0.249 Cl 
HETATM    5  C   UNL     1     -11.013   6.234  69.002  1.00  0.00    -0.437 A  
HETATM    6  C   UNL     1     -10.968   6.382  67.625  1.00  0.00    -0.441 A  
HETATM    7  C   UNL     1     -10.637   7.623  67.091  1.00  0.00    -0.410 A  
HETATM    8  C   UNL     1     -10.343   8.726  67.916  1.00  0.00    -0.224 A  
ENDROOT
BRANCH   8   9
HETATM    9  N   UNL     1      -9.758   9.906  67.356  1.00  0.00    -0.157 NA 
HETATM   10  H   UNL     1     -10.146  10.808  67.632  1.00  0.00     0.000 HD 
BRANCH   9  11
HETATM   11  C   UNL     1      -8.669   9.902  66.439  1.00  0.00    -0.132 A  
HETATM   12  C   UNL     1      -7.412   9.409  66.842  1.00  0.00    -0.091 A  
HETATM   13  C   UNL     1      -6.378   9.204  65.929  1.00  0.00    -0.060 A  
HETATM   14  C   UNL     1      -6.570   9.520  64.588  1.00  0.00    -0.093 A  
HETATM   15  C   UNL     1      -7.756  10.129  64.188  1.00  0.00    -0.133 A  
HETATM   16  C   UNL     1      -8.783  10.365  65.117  1.00  0.00    -0.194 A  
HETATM   17  C   UNL     1      -9.955  11.135  64.649  1.00  0.00    -0.292 C  
HETATM   18  O   UNL     1     -10.449  11.003  63.545  1.00  0.00    -0.361 OA 
HETATM   19  O   UNL     1     -10.371  12.045  65.555  1.00  0.00    -0.246 OA 
ENDBRANCH   9  11
ENDBRANCH   8   9
TORSDOF 2
ENDMDL
MODEL      191
REMARK 921   NORMALIZED FREE ENERGY PREDICTED BY IDOCK:   -3.85 KCAL/MOL
REMARK 922        TOTAL FREE ENERGY PREDICTED BY IDOCK:   -4.92 KCAL/MOL
REMARK 923 INTER-LIGAND FREE ENERGY PREDICTED BY IDOCK:   -4.44 KCAL/MOL
REMARK 924 INTRA-LIGAND FREE ENERGY PREDICTED BY IDOCK:   -0.48 KCAL/MOL
REMARK 927      BINDING AFFINITY PREDICTED BY RF-SCORE:    0.00 PKD
ROOT
HETATM    1  C   UNL     1     -11.820  10.999  69.500  1.00  0.00    -0.404 C  
HETATM    2  C   UNL     1     -10.436  11.116  68.923  1.00  0.00    -0.233 A  
HETATM    3  C   UNL     1     -10.049  12.218  68.133  1.00  0.00    -0.211 A  
HETATM    4 CL   UNL     1     -11.193  13.381  67.555  1.00  0.00    -0.295 Cl 
HETATM    5  C   UNL     1      -8.720  12.398  67.739  1.00  0.00    -0.176 A  
HETATM    6  C   UNL     1      -7.747  11.499  68.146  1.00  0.00    -0.120 A  
HETATM    7  C   UNL     1      -8.130  10.363  68.850  1.00  0.00    -0.129 A  
HETATM    8  C   UNL     1      -9.482  10.104  69.153  1.00  0.00    -0.206 A  
ENDROOT
BRANCH   8   9
HETATM    9  N   UNL     1      -9.875   8.818  69.641  1.00  0.00    -0.179 NA 
HETATM   10  H   UNL     1     -10.347   8.187  68.993  1.00  0.00     0.000 HD 
BRANCH   9  11
HETATM   11  C   UNL     1      -9.651   8.362  70.971  1.00  0.00    -0.169 A  
HETATM   12  C   UNL     1      -8.347   8.363  71.503  1.00  0.00    -0.196 A  
HETATM   13  C   UNL     1      -8.107   8.114  72.854  1.00  0.00    -0.224 A  
HETATM   14  C   UNL     1      -9.172   7.825  73.701  1.00  0.00    -0.344 A  
HETATM   15  C   UNL     1     -10.453   7.691  73.174  1.00  0.00    -0.433 A  
HETATM   16  C   UNL     1     -10.685   7.908  71.806  1.00  0.00    -0.281 A  
HETATM   17  C   UNL     1     -12.042   7.616  71.296  1.00  0.00    -0.314 C  
HETATM   18  O   UNL     1     -13.061   7.868  71.911  1.00  0.00    -0.317 OA 
HETATM   19  O   UNL     1     -12.020   6.979  70.106  1.00  0.00    -0.209 OA 
ENDBRANCH   9  11
ENDBRANCH   8   9
TORSDOF 2
ENDMDL
MODEL      192
REMARK 921   NORMALIZED FREE ENERGY PREDICTED BY IDOCK:   -3.85 KCAL/MOL
REMARK 922        TOTAL FREE ENERGY PREDICTED BY IDOCK:   -4.92 KCAL/MOL
REMARK 923 INTER-LIGAND FREE ENERGY PREDICTED BY IDOCK:   -4.25 KCAL/MOL
REMARK 924 INTRA-LIGAND FREE ENERGY PREDICTED BY IDOCK:   -0.67 KCAL/MOL
REMARK 927      BINDING AFFINITY PREDICTED BY RF-SCORE:    0.00 PKD
ROOT
HETATM    1  C   UNL     1     -10.082  14.182  64.765  1.00  0.00    -0.200 C  
HETATM    2  C   UNL     1     -10.359  13.742  66.177  1.00  0.00    -0.301 A  
HETATM    3  C   UNL     1     -11.612  13.223  66.562  1.00  0.00    -0.350 A  
HETATM    4 CL   UNL     1     -12.994  13.289  65.522  1.00  0.00    -0.305 Cl 
HETATM    5  C   UNL     1     -11.809  12.669  67.831  1.00  0.00    -0.388 A  
HETATM    6  C   UNL     1     -10.757  12.596  68.729  1.00  0.00    -0.240 A  
HETATM    7  C   UNL     1      -9.542  13.184  68.392  1.00  0.00    -0.186 A  
HETATM    8  C   UNL     1      -9.361  13.853  67.165  1.00  0.00    -0.243 A  
ENDROOT
BRANCH   8   9
HETATM    9  N   UNL     1      -8.202  14.666  66.955  1.00  0.00    -0.374 NA 
HETATM   10  H   UNL     1      -7.391  14.234  66.511  1.00  0.00     0.000 HD 
BRANCH   9  11
HETATM   11  C   UNL     1      -8.108  16.038  67.324  1.00  0.00    -0.177 A  
HETATM   12  C   UNL     1      -8.656  17.030  66.488  1.00  0.00    -0.305 A  
HETATM   13  C   UNL     1      -8.762  18.358  66.899  1.00  0.00    -0.275 A  
HETATM   14  C   UNL     1      -8.287  18.731  68.152  1.00  0.00    -0.334 A  
HETATM   15  C   UNL     1      -7.625  17.797  68.943  1.00  0.00    -0.223 A  
HETATM   16  C   UNL     1      -7.490  16.467  68.511  1.00  0.00    -0.193 A  
HETATM   17  C   UNL     1      -6.659  15.568  69.339  1.00  0.00    -0.158 C  
HETATM   18  O   UNL     1      -6.655  15.587  70.556  1.00  0.00     0.091 OA 
HETATM   19  O   UNL     1      -5.859  14.774  68.597  1.00  0.00    -0.084 OA 
ENDBRANCH   9  11
ENDBRANCH   8   9
TORSDOF 2
ENDMDL
MODEL      193
REMARK 921   NORMALIZED FREE ENERGY PREDICTED BY IDOCK:   -3.85 KCAL/MOL
REMARK 922        TOTAL FREE ENERGY PREDICTED BY IDOCK:   -4.92 KCAL/MOL
REMARK 923 INTER-LIGAND FREE ENERGY PREDICTED BY IDOCK:   -4.53 KCAL/MOL
REMARK 924 INTRA-LIGAND FREE ENERGY PREDICTED BY IDOCK:   -0.38 KCAL/MOL
REMARK 927      BINDING AFFINITY PREDICTED BY RF-SCORE:    0.00 PKD
ROOT
HETATM    1  C   UNL     1      -7.566  12.423  67.504  1.00  0.00    -0.155 C  
HETATM    2  C   UNL     1      -8.060  13.675  68.177  1.00  0.00    -0.156 A  
HETATM    3  C   UNL     1      -7.194  14.528  68.890  1.00  0.00    -0.125 A  
HETATM    4 CL   UNL     1      -5.565  14.081  69.264  1.00  0.00    -0.081 Cl 
HETATM    5  C   UNL     1      -7.629  15.767  69.372  1.00  0.00    -0.214 A  
HETATM    6  C   UNL     1      -8.926  16.190  69.130  1.00  0.00    -0.237 A  
HETATM    7  C   UNL     1      -9.814  15.320  68.505  1.00  0.00    -0.210 A  
HETATM    8  C   UNL     1      -9.425  14.022  68.119  1.00  0.00    -0.215 A  
ENDROOT
BRANCH   8   9
HETATM    9  N   UNL     1     -10.412  13.065  67.723  1.00  0.00    -0.224 NA 
HETATM   10  H   UNL     1     -11.080  12.750  68.426  1.00  0.00     0.000 HD 
BRANCH   9  11
HETATM   11  C   UNL     1     -10.522  12.523  66.410  1.00  0.00    -0.247 A  
HETATM   12  C   UNL     1     -10.548  13.384  65.295  1.00  0.00    -0.333 A  
HETATM   13  C   UNL     1     -10.456  12.898  63.992  1.00  0.00    -0.395 A  
HETATM   14  C   UNL     1     -10.369  11.527  63.773  1.00  0.00    -0.450 A  
HETATM   15  C   UNL     1     -10.472  10.650  64.849  1.00  0.00    -0.282 A  
HETATM   16  C   UNL     1     -10.599  11.144  66.158  1.00  0.00    -0.305 A  
HETATM   17  C   UNL     1     -10.838  10.156  67.232  1.00  0.00    -0.230 C  
HETATM   18  O   UNL     1     -10.302   9.065  67.275  1.00  0.00    -0.237 OA 
HETATM   19  O   UNL     1     -11.767  10.573  68.119  1.00  0.00    -0.431 OA 
ENDBRANCH   9  11
ENDBRANCH   8   9
TORSDOF 2
ENDMDL
MODEL      194
REMARK 921   NORMALIZED FREE ENERGY PREDICTED BY IDOCK:   -3.84 KCAL/MOL
REMARK 922        TOTAL FREE ENERGY PREDICTED BY IDOCK:   -4.91 KCAL/MOL
REMARK 923 INTER-LIGAND FREE ENERGY PREDICTED BY IDOCK:   -4.52 KCAL/MOL
REMARK 924 INTRA-LIGAND FREE ENERGY PREDICTED BY IDOCK:   -0.39 KCAL/MOL
REMARK 927      BINDING AFFINITY PREDICTED BY RF-SCORE:    0.00 PKD
ROOT
HETATM    1  C   UNL     1     -11.667  12.051  66.346  1.00  0.00    -0.326 C  
HETATM    2  C   UNL     1     -11.242  13.451  65.998  1.00  0.00    -0.310 A  
HETATM    3  C   UNL     1     -11.527  14.025  64.742  1.00  0.00    -0.369 A  
HETATM    4 CL   UNL     1     -12.152  13.091  63.425  1.00  0.00    -0.630 Cl 
HETATM    5  C   UNL     1     -11.273  15.376  64.486  1.00  0.00    -0.310 A  
HETATM    6  C   UNL     1     -10.755  16.186  65.484  1.00  0.00    -0.355 A  
HETATM    7  C   UNL     1     -10.388  15.612  66.696  1.00  0.00    -0.290 A  
HETATM    8  C   UNL     1     -10.526  14.229  66.930  1.00  0.00    -0.272 A  
ENDROOT
BRANCH   8   9
HETATM    9  N   UNL     1      -9.907  13.628  68.071  1.00  0.00    -0.236 NA 
HETATM   10  H   UNL     1     -10.319  13.807  68.986  1.00  0.00     0.000 HD 
BRANCH   9  11
HETATM   11  C   UNL     1      -8.752  12.797  68.010  1.00  0.00    -0.194 A  
HETATM   12  C   UNL     1      -8.889  11.398  68.101  1.00  0.00    -0.162 A  
HETATM   13  C   UNL     1      -7.818  10.539  67.851  1.00  0.00    -0.105 A  
HETATM   14  C   UNL     1      -6.570  11.068  67.537  1.00  0.00    -0.068 A  
HETATM   15  C   UNL     1      -6.379  12.446  67.569  1.00  0.00    -0.148 A  
HETATM   16  C   UNL     1      -7.452  13.306  67.854  1.00  0.00    -0.143 A  
HETATM   17  C   UNL     1      -7.145  14.745  68.003  1.00  0.00    -0.138 C  
HETATM   18  O   UNL     1      -6.342  15.337  67.307  1.00  0.00    -0.310 OA 
HETATM   19  O   UNL     1      -7.800  15.309  69.040  1.00  0.00    -0.152 OA 
ENDBRANCH   9  11
ENDBRANCH   8   9
TORSDOF 2
ENDMDL
MODEL      195
REMARK 921   NORMALIZED FREE ENERGY PREDICTED BY IDOCK:   -3.80 KCAL/MOL
REMARK 922        TOTAL FREE ENERGY PREDICTED BY IDOCK:   -4.86 KCAL/MOL
REMARK 923 INTER-LIGAND FREE ENERGY PREDICTED BY IDOCK:   -4.29 KCAL/MOL
REMARK 924 INTRA-LIGAND FREE ENERGY PREDICTED BY IDOCK:   -0.57 KCAL/MOL
REMARK 927      BINDING AFFINITY PREDICTED BY RF-SCORE:    0.00 PKD
ROOT
HETATM    1  C   UNL     1     -11.784  13.519  65.985  1.00  0.00    -0.389 C  
HETATM    2  C   UNL     1     -10.985  12.376  65.421  1.00  0.00    -0.335 A  
HETATM    3  C   UNL     1     -11.243  11.849  64.140  1.00  0.00    -0.376 A  
HETATM    4 CL   UNL     1     -12.645  12.294  63.227  1.00  0.00    -0.558 Cl 
HETATM    5  C   UNL     1     -10.395  10.899  63.561  1.00  0.00    -0.342 A  
HETATM    6  C   UNL     1      -9.261  10.477  64.237  1.00  0.00    -0.281 A  
HETATM    7  C   UNL     1      -9.045  10.923  65.536  1.00  0.00    -0.221 A  
HETATM    8  C   UNL     1      -9.952  11.788  66.179  1.00  0.00    -0.226 A  
ENDROOT
BRANCH   8   9
HETATM    9  N   UNL     1      -9.847  12.022  67.587  1.00  0.00    -0.186 NA 
HETATM   10  H   UNL     1     -10.596  12.546  68.041  1.00  0.00     0.000 HD 
BRANCH   9  11
HETATM   11  C   UNL     1      -8.766  11.570  68.395  1.00  0.00    -0.160 A  
HETATM   12  C   UNL     1      -8.882  10.364  69.114  1.00  0.00    -0.180 A  
HETATM   13  C   UNL     1      -7.787   9.786  69.757  1.00  0.00    -0.159 A  
HETATM   14  C   UNL     1      -6.552  10.425  69.722  1.00  0.00    -0.103 A  
HETATM   15  C   UNL     1      -6.443  11.679  69.130  1.00  0.00    -0.095 A  
HETATM   16  C   UNL     1      -7.556  12.274  68.513  1.00  0.00    -0.118 A  
HETATM   17  C   UNL     1      -7.398  13.661  68.026  1.00  0.00    -0.131 C  
HETATM   18  O   UNL     1      -6.386  14.076  67.493  1.00  0.00    -0.284 OA 
HETATM   19  O   UNL     1      -8.473  14.430  68.301  1.00  0.00    -0.150 OA 
ENDBRANCH   9  11
ENDBRANCH   8   9
TORSDOF 2
ENDMDL
MODEL      196
REMARK 921   NORMALIZED FREE ENERGY PREDICTED BY IDOCK:   -3.78 KCAL/MOL
REMARK 922        TOTAL FREE ENERGY PREDICTED BY IDOCK:   -4.85 KCAL/MOL
REMARK 923 INTER-LIGAND FREE ENERGY PREDICTED BY IDOCK:   -4.37 KCAL/MOL
REMARK 924 INTRA-LIGAND FREE ENERGY PREDICTED BY IDOCK:   -0.48 KCAL/MOL
REMARK 927      BINDING AFFINITY PREDICTED BY RF-SCORE:    0.00 PKD
ROOT
HETATM    1  C   UNL     1      -9.244   8.863  69.851  1.00  0.00    -0.171 C  
HETATM    2  C   UNL     1     -10.450   9.728  70.096  1.00  0.00    -0.338 A  
HETATM    3  C   UNL     1     -11.216   9.621  71.276  1.00  0.00    -0.376 A  
HETATM    4 CL   UNL     1     -10.989   8.330  72.405  1.00  0.00    -0.417 Cl 
HETATM    5  C   UNL     1     -12.233  10.535  71.566  1.00  0.00    -0.385 A  
HETATM    6  C   UNL     1     -12.490  11.588  70.702  1.00  0.00    -0.405 A  
HETATM    7  C   UNL     1     -11.802  11.652  69.495  1.00  0.00    -0.414 A  
HETATM    8  C   UNL     1     -10.857  10.672  69.131  1.00  0.00    -0.237 A  
ENDROOT
BRANCH   8   9
HETATM    9  N   UNL     1     -10.361  10.614  67.791  1.00  0.00    -0.193 NA 
HETATM   10  H   UNL     1     -10.982  10.250  67.068  1.00  0.00     0.000 HD 
BRANCH   9  11
HETATM   11  C   UNL     1      -9.057  11.032  67.400  1.00  0.00    -0.141 A  
HETATM   12  C   UNL     1      -8.459  12.144  68.026  1.00  0.00    -0.170 A  
HETATM   13  C   UNL     1      -7.118  12.468  67.818  1.00  0.00    -0.126 A  
HETATM   14  C   UNL     1      -6.351  11.701  66.947  1.00  0.00    -0.142 A  
HETATM   15  C   UNL     1      -6.953  10.679  66.219  1.00  0.00    -0.133 A  
HETATM   16  C   UNL     1      -8.312  10.377  66.406  1.00  0.00    -0.139 A  
HETATM   17  C   UNL     1      -8.912   9.373  65.502  1.00  0.00    -0.204 C  
HETATM   18  O   UNL     1      -8.334   8.366  65.136  1.00  0.00    -0.155 OA 
HETATM   19  O   UNL     1     -10.142   9.730  65.076  1.00  0.00    -0.225 OA 
ENDBRANCH   9  11
ENDBRANCH   8   9
TORSDOF 2
ENDMDL
MODEL      197
REMARK 921   NORMALIZED FREE ENERGY PREDICTED BY IDOCK:   -3.75 KCAL/MOL
REMARK 922        TOTAL FREE ENERGY PREDICTED BY IDOCK:   -4.81 KCAL/MOL
REMARK 923 INTER-LIGAND FREE ENERGY PREDICTED BY IDOCK:   -4.32 KCAL/MOL
REMARK 924 INTRA-LIGAND FREE ENERGY PREDICTED BY IDOCK:   -0.49 KCAL/MOL
REMARK 927      BINDING AFFINITY PREDICTED BY RF-SCORE:    0.00 PKD
ROOT
HETATM    1  C   UNL     1     -11.034  10.815  69.820  1.00  0.00    -0.314 C  
HETATM    2  C   UNL     1     -11.409   9.487  70.419  1.00  0.00    -0.318 A  
HETATM    3  C   UNL     1     -12.491   9.354  71.314  1.00  0.00    -0.335 A  
HETATM    4 CL   UNL     1     -13.301  10.727  71.987  1.00  0.00    -0.506 Cl 
HETATM    5  C   UNL     1     -12.931   8.097  71.738  1.00  0.00    -0.364 A  
HETATM    6  C   UNL     1     -12.321   6.949  71.260  1.00  0.00    -0.422 A  
HETATM    7  C   UNL     1     -11.199   7.070  70.447  1.00  0.00    -0.339 A  
HETATM    8  C   UNL     1     -10.668   8.330  70.106  1.00  0.00    -0.239 A  
ENDROOT
BRANCH   8   9
HETATM    9  N   UNL     1      -9.378   8.425  69.495  1.00  0.00    -0.157 NA 
HETATM   10  H   UNL     1      -8.695   9.053  69.918  1.00  0.00     0.000 HD 
BRANCH   9  11
HETATM   11  C   UNL     1      -8.986   7.699  68.334  1.00  0.00    -0.128 A  
HETATM   12  C   UNL     1      -8.516   6.376  68.459  1.00  0.00    -0.119 A  
HETATM   13  C   UNL     1      -8.309   5.565  67.344  1.00  0.00    -0.103 A  
HETATM   14  C   UNL     1      -8.537   6.074  66.069  1.00  0.00    -0.147 A  
HETATM   15  C   UNL     1      -8.876   7.415  65.914  1.00  0.00    -0.149 A  
HETATM   16  C   UNL     1      -9.051   8.238  67.039  1.00  0.00    -0.172 A  
HETATM   17  C   UNL     1      -9.276   9.679  66.793  1.00  0.00    -0.149 C  
HETATM   18  O   UNL     1      -9.961  10.107  65.884  1.00  0.00    -0.240 OA 
HETATM   19  O   UNL     1      -8.584  10.463  67.647  1.00  0.00    -0.118 OA 
ENDBRANCH   9  11
ENDBRANCH   8   9
TORSDOF 2
ENDMDL
MODEL      198
REMARK 921   NORMALIZED FREE ENERGY PREDICTED BY IDOCK:   -3.75 KCAL/MOL
REMARK 922        TOTAL FREE ENERGY PREDICTED BY IDOCK:   -4.81 KCAL/MOL
REMARK 923 INTER-LIGAND FREE ENERGY PREDICTED BY IDOCK:   -4.30 KCAL/MOL
REMARK 924 INTRA-LIGAND FREE ENERGY PREDICTED BY IDOCK:   -0.51 KCAL/MOL
REMARK 927      BINDING AFFINITY PREDICTED BY RF-SCORE:    0.00 PKD
ROOT
HETATM    1  C   UNL     1     -10.505  10.861  69.308  1.00  0.00    -0.230 C  
HETATM    2  C   UNL     1     -11.128  11.711  68.234  1.00  0.00    -0.287 A  
HETATM    3  C   UNL     1     -11.694  12.971  68.518  1.00  0.00    -0.342 A  
HETATM    4 CL   UNL     1     -11.945  13.522  70.139  1.00  0.00    -0.403 Cl 
HETATM    5  C   UNL     1     -12.124  13.821  67.494  1.00  0.00    -0.366 A  
HETATM    6  C   UNL     1     -11.974  13.444  66.169  1.00  0.00    -0.460 A  
HETATM    7  C   UNL     1     -11.500  12.168  65.881  1.00  0.00    -0.418 A  
HETATM    8  C   UNL     1     -11.174  11.254  66.902  1.00  0.00    -0.230 A  
ENDROOT
BRANCH   8   9
HETATM    9  N   UNL     1     -10.942   9.878  66.587  1.00  0.00     0.044 NA 
HETATM   10  H   UNL     1     -11.742   9.246  66.594  1.00  0.00     0.000 HD 
BRANCH   9  11
HETATM   11  C   UNL     1      -9.666   9.334  66.264  1.00  0.00    -0.271 A  
HETATM   12  C   UNL     1      -8.826  10.005  65.354  1.00  0.00    -0.199 A  
HETATM   13  C   UNL     1      -7.500   9.619  65.159  1.00  0.00    -0.115 A  
HETATM   14  C   UNL     1      -6.993   8.523  65.850  1.00  0.00    -0.071 A  
HETATM   15  C   UNL     1      -7.839   7.766  66.655  1.00  0.00    -0.102 A  
HETATM   16  C   UNL     1      -9.183   8.139  66.823  1.00  0.00    -0.206 A  
HETATM   17  C   UNL     1     -10.052   7.213  67.581  1.00  0.00    -0.180 C  
HETATM   18  O   UNL     1      -9.687   6.607  68.570  1.00  0.00    -0.131 OA 
HETATM   19  O   UNL     1     -11.268   7.065  67.014  1.00  0.00    -0.328 OA 
ENDBRANCH   9  11
ENDBRANCH   8   9
TORSDOF 2
ENDMDL
MODEL      199
REMARK 921   NORMALIZED FREE ENERGY PREDICTED BY IDOCK:   -3.73 KCAL/MOL
REMARK 922        TOTAL FREE ENERGY PREDICTED BY IDOCK:   -4.79 KCAL/MOL
REMARK 923 INTER-LIGAND FREE ENERGY PREDICTED BY IDOCK:   -4.11 KCAL/MOL
REMARK 924 INTRA-LIGAND FREE ENERGY PREDICTED BY IDOCK:   -0.68 KCAL/MOL
REMARK 927      BINDING AFFINITY PREDICTED BY RF-SCORE:    0.00 PKD
ROOT
HETATM    1  C   UNL     1     -10.585  13.991  66.553  1.00  0.00    -0.279 C  
HETATM    2  C   UNL     1     -10.451  12.818  65.620  1.00  0.00    -0.297 A  
HETATM    3  C   UNL     1     -11.214  12.717  64.439  1.00  0.00    -0.346 A  
HETATM    4 CL   UNL     1     -12.533  13.785  64.101  1.00  0.00    -0.350 Cl 
HETATM    5  C   UNL     1     -10.968  11.710  63.500  1.00  0.00    -0.485 A  
HETATM    6  C   UNL     1      -9.941  10.803  63.707  1.00  0.00    -0.411 A  
HETATM    7  C   UNL     1      -9.241  10.840  64.908  1.00  0.00    -0.243 A  
HETATM    8  C   UNL     1      -9.554  11.772  65.917  1.00  0.00    -0.230 A  
ENDROOT
BRANCH   8   9
HETATM    9  N   UNL     1      -9.004  11.623  67.229  1.00  0.00    -0.165 NA 
HETATM   10  H   UNL     1      -8.301  12.297  67.530  1.00  0.00     0.000 HD 
BRANCH   9  11
HETATM   11  C   UNL     1      -9.375  10.594  68.141  1.00  0.00    -0.151 A  
HETATM   12  C   UNL     1     -10.598  10.679  68.835  1.00  0.00    -0.241 A  
HETATM   13  C   UNL     1     -11.091   9.610  69.583  1.00  0.00    -0.223 A  
HETATM   14  C   UNL     1     -10.350   8.437  69.680  1.00  0.00    -0.218 A  
HETATM   15  C   UNL     1      -9.081   8.376  69.111  1.00  0.00    -0.147 A  
HETATM   16  C   UNL     1      -8.573   9.467  68.387  1.00  0.00    -0.120 A  
HETATM   17  C   UNL     1      -7.170   9.381  67.929  1.00  0.00    -0.082 C  
HETATM   18  O   UNL     1      -6.663   8.359  67.505  1.00  0.00    -0.061 OA 
HETATM   19  O   UNL     1      -6.499  10.540  68.097  1.00  0.00    -0.061 OA 
ENDBRANCH   9  11
ENDBRANCH   8   9
TORSDOF 2
ENDMDL
MODEL      200
REMARK 921   NORMALIZED FREE ENERGY PREDICTED BY IDOCK:   -3.71 KCAL/MOL
REMARK 922        TOTAL FREE ENERGY PREDICTED BY IDOCK:   -4.77 KCAL/MOL
REMARK 923 INTER-LIGAND FREE ENERGY PREDICTED BY IDOCK:   -4.36 KCAL/MOL
REMARK 924 INTRA-LIGAND FREE ENERGY PREDICTED BY IDOCK:   -0.41 KCAL/MOL
REMARK 927      BINDING AFFINITY PREDICTED BY RF-SCORE:    0.00 PKD
ROOT
HETATM    1  C   UNL     1     -11.810  12.657  68.199  1.00  0.00    -0.366 C  
HETATM    2  C   UNL     1     -10.947  13.516  67.316  1.00  0.00    -0.293 A  
HETATM    3  C   UNL     1     -11.444  14.106  66.136  1.00  0.00    -0.347 A  
HETATM    4 CL   UNL     1     -12.989  13.688  65.480  1.00  0.00    -0.443 Cl 
HETATM    5  C   UNL     1     -10.685  15.030  65.411  1.00  0.00    -0.389 A  
HETATM    6  C   UNL     1      -9.429  15.403  65.861  1.00  0.00    -0.369 A  
HETATM    7  C   UNL     1      -8.893  14.762  66.974  1.00  0.00    -0.258 A  
HETATM    8  C   UNL     1      -9.595  13.743  67.647  1.00  0.00    -0.219 A  
ENDROOT
BRANCH   8   9
HETATM    9  N   UNL     1      -8.926  12.927  68.614  1.00  0.00    -0.394 NA 
HETATM   10  H   UNL     1      -8.728  13.336  69.527  1.00  0.00     0.000 HD 
BRANCH   9  11
HETATM   11  C   UNL     1      -8.519  11.583  68.383  1.00  0.00    -0.159 A  
HETATM   12  C   UNL     1      -9.362  10.519  68.760  1.00  0.00    -0.181 A  
HETATM   13  C   UNL     1      -9.097   9.204  68.379  1.00  0.00    -0.132 A  
HETATM   14  C   UNL     1      -7.955   8.918  67.636  1.00  0.00    -0.102 A  
HETATM   15  C   UNL     1      -7.041   9.932  67.364  1.00  0.00    -0.085 A  
HETATM   16  C   UNL     1      -7.295  11.249  67.778  1.00  0.00    -0.094 A  
HETATM   17  C   UNL     1      -6.219  12.242  67.573  1.00  0.00    -0.140 C  
HETATM   18  O   UNL     1      -5.512  12.273  66.584  1.00  0.00    -0.321 OA 
HETATM   19  O   UNL     1      -6.066  13.065  68.632  1.00  0.00    -0.066 OA 
ENDBRANCH   9  11
ENDBRANCH   8   9
TORSDOF 2
ENDMDL
MODEL      201
REMARK 921   NORMALIZED FREE ENERGY PREDICTED BY IDOCK:   -3.68 KCAL/MOL
REMARK 922        TOTAL FREE ENERGY PREDICTED BY IDOCK:   -4.73 KCAL/MOL
REMARK 923 INTER-LIGAND FREE ENERGY PREDICTED BY IDOCK:   -4.45 KCAL/MOL
REMARK 924 INTRA-LIGAND FREE ENERGY PREDICTED BY IDOCK:   -0.29 KCAL/MOL
REMARK 927      BINDING AFFINITY PREDICTED BY RF-SCORE:    0.00 PKD
ROOT
HETATM    1  C   UNL     1      -6.401  10.923  70.314  1.00  0.00    -0.135 C  
HETATM    2  C   UNL     1      -7.334  11.274  69.187  1.00  0.00    -0.104 A  
HETATM    3  C   UNL     1      -7.121  12.402  68.369  1.00  0.00    -0.106 A  
HETATM    4 CL   UNL     1      -5.934  13.603  68.749  1.00  0.00    -0.080 Cl 
HETATM    5  C   UNL     1      -7.897  12.629  67.228  1.00  0.00    -0.155 A  
HETATM    6  C   UNL     1      -8.881  11.723  66.866  1.00  0.00    -0.191 A  
HETATM    7  C   UNL     1      -9.159  10.655  67.713  1.00  0.00    -0.144 A  
HETATM    8  C   UNL     1      -8.467  10.477  68.927  1.00  0.00    -0.152 A  
ENDROOT
BRANCH   8   9
HETATM    9  N   UNL     1      -8.942   9.535  69.894  1.00  0.00    -0.195 NA 
HETATM   10  H   UNL     1      -8.363   8.718  70.088  1.00  0.00     0.000 HD 
BRANCH   9  11
HETATM   11  C   UNL     1     -10.171   9.664  70.600  1.00  0.00    -0.278 A  
HETATM   12  C   UNL     1     -11.140  10.588  70.162  1.00  0.00    -0.369 A  
HETATM   13  C   UNL     1     -12.427  10.611  70.699  1.00  0.00    -0.462 A  
HETATM   14  C   UNL     1     -12.765   9.724  71.717  1.00  0.00    -0.519 A  
HETATM   15  C   UNL     1     -11.788   8.891  72.255  1.00  0.00    -0.365 A  
HETATM   16  C   UNL     1     -10.484   8.896  71.734  1.00  0.00    -0.431 A  
HETATM   17  C   UNL     1      -9.470   8.085  72.443  1.00  0.00    -0.215 C  
HETATM   18  O   UNL     1      -9.698   6.989  72.920  1.00  0.00    -0.151 OA 
HETATM   19  O   UNL     1      -8.287   8.725  72.561  1.00  0.00    -0.398 OA 
ENDBRANCH   9  11
ENDBRANCH   8   9
TORSDOF 2
ENDMDL
MODEL      202
REMARK 921   NORMALIZED FREE ENERGY PREDICTED BY IDOCK:   -3.67 KCAL/MOL
REMARK 922        TOTAL FREE ENERGY PREDICTED BY IDOCK:   -4.72 KCAL/MOL
REMARK 923 INTER-LIGAND FREE ENERGY PREDICTED BY IDOCK:   -4.01 KCAL/MOL
REMARK 924 INTRA-LIGAND FREE ENERGY PREDICTED BY IDOCK:   -0.71 KCAL/MOL
REMARK 927      BINDING AFFINITY PREDICTED BY RF-SCORE:    0.00 PKD
ROOT
HETATM    1  C   UNL     1     -11.536   5.402  72.534  1.00  0.00    -0.259 C  
HETATM    2  C   UNL     1     -10.337   5.014  71.712  1.00  0.00    -0.268 A  
HETATM    3  C   UNL     1      -9.221   4.368  72.282  1.00  0.00    -0.122 A  
HETATM    4 CL   UNL     1      -9.031   4.201  73.994  1.00  0.00    -0.095 Cl 
HETATM    5  C   UNL     1      -8.186   3.869  71.486  1.00  0.00    -0.076 A  
HETATM    6  C   UNL     1      -8.255   3.981  70.106  1.00  0.00    -0.069 A  
HETATM    7  C   UNL     1      -9.306   4.693  69.539  1.00  0.00    -0.208 A  
HETATM    8  C   UNL     1     -10.295   5.306  70.333  1.00  0.00    -0.275 A  
ENDROOT
BRANCH   8   9
HETATM    9  N   UNL     1     -11.207   6.242  69.750  1.00  0.00    -0.403 NA 
HETATM   10  H   UNL     1     -12.128   5.902  69.476  1.00  0.00     0.000 HD 
BRANCH   9  11
HETATM   11  C   UNL     1     -10.910   7.617  69.528  1.00  0.00    -0.165 A  
HETATM   12  C   UNL     1     -11.178   8.565  70.535  1.00  0.00    -0.262 A  
HETATM   13  C   UNL     1     -10.727   9.881  70.441  1.00  0.00    -0.379 A  
HETATM   14  C   UNL     1     -10.023  10.289  69.312  1.00  0.00    -0.244 A  
HETATM   15  C   UNL     1      -9.859   9.407  68.248  1.00  0.00    -0.180 A  
HETATM   16  C   UNL     1     -10.344   8.091  68.333  1.00  0.00    -0.236 A  
HETATM   17  C   UNL     1     -10.253   7.257  67.116  1.00  0.00    -0.269 C  
HETATM   18  O   UNL     1      -9.302   7.276  66.357  1.00  0.00    -0.176 OA 
HETATM   19  O   UNL     1     -11.368   6.527  66.906  1.00  0.00    -0.330 OA 
ENDBRANCH   9  11
ENDBRANCH   8   9
TORSDOF 2
ENDMDL
MODEL      203
REMARK 921   NORMALIZED FREE ENERGY PREDICTED BY IDOCK:   -3.64 KCAL/MOL
REMARK 922        TOTAL FREE ENERGY PREDICTED BY IDOCK:   -4.69 KCAL/MOL
REMARK 923 INTER-LIGAND FREE ENERGY PREDICTED BY IDOCK:   -4.58 KCAL/MOL
REMARK 924 INTRA-LIGAND FREE ENERGY PREDICTED BY IDOCK:   -0.11 KCAL/MOL
REMARK 927      BINDING AFFINITY PREDICTED BY RF-SCORE:    0.00 PKD
ROOT
HETATM    1  C   UNL     1      -9.351  16.190  65.617  1.00  0.00    -0.081 C  
HETATM    2  C   UNL     1      -8.745  15.672  66.893  1.00  0.00    -0.283 A  
HETATM    3  C   UNL     1      -8.115  16.529  67.818  1.00  0.00    -0.161 A  
HETATM    4 CL   UNL     1      -7.765  18.183  67.450  1.00  0.00    -0.217 Cl 
HETATM    5  C   UNL     1      -7.699  16.066  69.070  1.00  0.00    -0.216 A  
HETATM    6  C   UNL     1      -7.927  14.748  69.434  1.00  0.00    -0.065 A  
HETATM    7  C   UNL     1      -8.466  13.873  68.496  1.00  0.00    -0.127 A  
HETATM    8  C   UNL     1      -8.781  14.295  67.189  1.00  0.00    -0.227 A  
ENDROOT
BRANCH   8   9
HETATM    9  N   UNL     1      -9.084  13.331  66.177  1.00  0.00    -0.463 NA 
HETATM   10  H   UNL     1      -8.304  12.846  65.732  1.00  0.00     0.000 HD 
BRANCH   9  11
HETATM   11  C   UNL     1     -10.402  13.004  65.750  1.00  0.00    -0.286 A  
HETATM   12  C   UNL     1     -11.496  13.767  66.204  1.00  0.00    -0.350 A  
HETATM   13  C   UNL     1     -12.773  13.611  65.664  1.00  0.00    -0.505 A  
HETATM   14  C   UNL     1     -12.990  12.657  64.675  1.00  0.00    -0.225 A  
HETATM   15  C   UNL     1     -11.956  11.804  64.303  1.00  0.00    -0.277 A  
HETATM   16  C   UNL     1     -10.680  11.942  64.874  1.00  0.00    -0.350 A  
HETATM   17  C   UNL     1      -9.671  10.917  64.531  1.00  0.00    -0.282 C  
HETATM   18  O   UNL     1      -9.553  10.434  63.420  1.00  0.00    -0.299 OA 
HETATM   19  O   UNL     1      -8.944  10.529  65.600  1.00  0.00    -0.166 OA 
ENDBRANCH   9  11
ENDBRANCH   8   9
TORSDOF 2
ENDMDL
MODEL      204
REMARK 921   NORMALIZED FREE ENERGY PREDICTED BY IDOCK:   -3.62 KCAL/MOL
REMARK 922        TOTAL FREE ENERGY PREDICTED BY IDOCK:   -4.66 KCAL/MOL
REMARK 923 INTER-LIGAND FREE ENERGY PREDICTED BY IDOCK:   -4.52 KCAL/MOL
REMARK 924 INTRA-LIGAND FREE ENERGY PREDICTED BY IDOCK:   -0.14 KCAL/MOL
REMARK 927      BINDING AFFINITY PREDICTED BY RF-SCORE:    0.00 PKD
ROOT
HETATM    1  C   UNL     1     -11.094   5.055  72.620  1.00  0.00    -0.265 C  
HETATM    2  C   UNL     1      -9.831   5.760  72.205  1.00  0.00    -0.185 A  
HETATM    3  C   UNL     1      -8.600   5.520  72.849  1.00  0.00    -0.119 A  
HETATM    4 CL   UNL     1      -8.491   4.606  74.314  1.00  0.00    -0.104 Cl 
HETATM    5  C   UNL     1      -7.406   6.055  72.355  1.00  0.00    -0.090 A  
HETATM    6  C   UNL     1      -7.412   6.815  71.196  1.00  0.00    -0.087 A  
HETATM    7  C   UNL     1      -8.630   7.130  70.603  1.00  0.00    -0.143 A  
HETATM    8  C   UNL     1      -9.853   6.700  71.155  1.00  0.00    -0.181 A  
ENDROOT
BRANCH   8   9
HETATM    9  N   UNL     1     -11.087   7.249  70.684  1.00  0.00    -0.257 NA 
HETATM   10  H   UNL     1     -11.851   6.603  70.486  1.00  0.00     0.000 HD 
BRANCH   9  11
HETATM   11  C   UNL     1     -11.317   8.638  70.472  1.00  0.00    -0.218 A  
HETATM   12  C   UNL     1     -10.532   9.346  69.541  1.00  0.00    -0.229 A  
HETATM   13  C   UNL     1     -10.846  10.650  69.159  1.00  0.00    -0.279 A  
HETATM   14  C   UNL     1     -11.942  11.290  69.730  1.00  0.00    -0.431 A  
HETATM   15  C   UNL     1     -12.654  10.659  70.745  1.00  0.00    -0.479 A  
HETATM   16  C   UNL     1     -12.314   9.358  71.151  1.00  0.00    -0.386 A  
HETATM   17  C   UNL     1     -13.026   8.808  72.324  1.00  0.00    -0.408 C  
HETATM   18  O   UNL     1     -14.211   8.987  72.537  1.00  0.00    -0.537 OA 
HETATM   19  O   UNL     1     -12.204   8.144  73.164  1.00  0.00    -0.118 OA 
ENDBRANCH   9  11
ENDBRANCH   8   9
TORSDOF 2
ENDMDL
MODEL      205
REMARK 921   NORMALIZED FREE ENERGY PREDICTED BY IDOCK:   -3.61 KCAL/MOL
REMARK 922        TOTAL FREE ENERGY PREDICTED BY IDOCK:   -4.65 KCAL/MOL
REMARK 923 INTER-LIGAND FREE ENERGY PREDICTED BY IDOCK:   -3.99 KCAL/MOL
REMARK 924 INTRA-LIGAND FREE ENERGY PREDICTED BY IDOCK:   -0.66 KCAL/MOL
REMARK 927      BINDING AFFINITY PREDICTED BY RF-SCORE:    0.00 PKD
ROOT
HETATM    1  C   UNL     1     -11.915  13.973  67.587  1.00  0.00    -0.404 C  
HETATM    2  C   UNL     1     -10.418  14.117  67.644  1.00  0.00    -0.245 A  
HETATM    3  C   UNL     1      -9.790  15.378  67.600  1.00  0.00    -0.220 A  
HETATM    4 CL   UNL     1     -10.659  16.826  67.223  1.00  0.00    -0.306 Cl 
HETATM    5  C   UNL     1      -8.415  15.511  67.815  1.00  0.00    -0.159 A  
HETATM    6  C   UNL     1      -7.645  14.396  68.105  1.00  0.00    -0.128 A  
HETATM    7  C   UNL     1      -8.238  13.139  68.063  1.00  0.00    -0.158 A  
HETATM    8  C   UNL     1      -9.597  12.975  67.730  1.00  0.00    -0.208 A  
ENDROOT
BRANCH   8   9
HETATM    9  N   UNL     1     -10.113  11.672  67.440  1.00  0.00    -0.197 NA 
HETATM   10  H   UNL     1     -10.305  11.441  66.465  1.00  0.00     0.000 HD 
BRANCH   9  11
HETATM   11  C   UNL     1     -10.377  10.678  68.424  1.00  0.00    -0.175 A  
HETATM   12  C   UNL     1     -10.924  11.049  69.669  1.00  0.00    -0.286 A  
HETATM   13  C   UNL     1     -11.380  10.098  70.582  1.00  0.00    -0.433 A  
HETATM   14  C   UNL     1     -11.266   8.744  70.281  1.00  0.00    -0.212 A  
HETATM   15  C   UNL     1     -10.612   8.351  69.117  1.00  0.00    -0.177 A  
HETATM   16  C   UNL     1     -10.124   9.312  68.216  1.00  0.00    -0.214 A  
HETATM   17  C   UNL     1      -9.324   8.822  67.073  1.00  0.00    -0.157 C  
HETATM   18  O   UNL     1      -9.581   7.804  66.459  1.00  0.00    -0.202 OA 
HETATM   19  O   UNL     1      -8.242   9.592  66.833  1.00  0.00    -0.112 OA 
ENDBRANCH   9  11
ENDBRANCH   8   9
TORSDOF 2
ENDMDL
MODEL      206
REMARK 921   NORMALIZED FREE ENERGY PREDICTED BY IDOCK:   -3.60 KCAL/MOL
REMARK 922        TOTAL FREE ENERGY PREDICTED BY IDOCK:   -4.64 KCAL/MOL
REMARK 923 INTER-LIGAND FREE ENERGY PREDICTED BY IDOCK:   -4.14 KCAL/MOL
REMARK 924 INTRA-LIGAND FREE ENERGY PREDICTED BY IDOCK:   -0.49 KCAL/MOL
REMARK 927      BINDING AFFINITY PREDICTED BY RF-SCORE:    0.00 PKD
ROOT
HETATM    1  C   UNL     1     -11.503   6.246  71.079  1.00  0.00    -0.370 C  
HETATM    2  C   UNL     1     -11.922   7.690  71.018  1.00  0.00    -0.296 A  
HETATM    3  C   UNL     1     -13.169   8.125  71.510  1.00  0.00    -0.284 A  
HETATM    4 CL   UNL     1     -14.410   7.014  71.982  1.00  0.00    -0.424 Cl 
HETATM    5  C   UNL     1     -13.481   9.485  71.596  1.00  0.00    -0.463 A  
HETATM    6  C   UNL     1     -12.548  10.438  71.219  1.00  0.00    -0.525 A  
HETATM    7  C   UNL     1     -11.350  10.019  70.651  1.00  0.00    -0.425 A  
HETATM    8  C   UNL     1     -11.067   8.654  70.446  1.00  0.00    -0.230 A  
ENDROOT
BRANCH   8   9
HETATM    9  N   UNL     1      -9.958   8.264  69.631  1.00  0.00    -0.189 NA 
HETATM   10  H   UNL     1     -10.158   7.828  68.731  1.00  0.00     0.000 HD 
BRANCH   9  11
HETATM   11  C   UNL     1      -8.593   8.446  69.995  1.00  0.00    -0.131 A  
HETATM   12  C   UNL     1      -8.029   9.737  69.979  1.00  0.00    -0.196 A  
HETATM   13  C   UNL     1      -6.764   9.989  70.512  1.00  0.00    -0.118 A  
HETATM   14  C   UNL     1      -6.019   8.942  71.044  1.00  0.00    -0.045 A  
HETATM   15  C   UNL     1      -6.501   7.640  70.953  1.00  0.00    -0.038 A  
HETATM   16  C   UNL     1      -7.760   7.385  70.385  1.00  0.00    -0.093 A  
HETATM   17  C   UNL     1      -8.144   5.969  70.200  1.00  0.00    -0.114 C  
HETATM   18  O   UNL     1      -7.894   5.093  71.006  1.00  0.00    -0.092 OA 
HETATM   19  O   UNL     1      -8.742   5.747  69.010  1.00  0.00    -0.112 OA 
ENDBRANCH   9  11
ENDBRANCH   8   9
TORSDOF 2
ENDMDL
MODEL      207
REMARK 921   NORMALIZED FREE ENERGY PREDICTED BY IDOCK:   -3.57 KCAL/MOL
REMARK 922        TOTAL FREE ENERGY PREDICTED BY IDOCK:   -4.61 KCAL/MOL
REMARK 923 INTER-LIGAND FREE ENERGY PREDICTED BY IDOCK:   -4.03 KCAL/MOL
REMARK 924 INTRA-LIGAND FREE ENERGY PREDICTED BY IDOCK:   -0.58 KCAL/MOL
REMARK 927      BINDING AFFINITY PREDICTED BY RF-SCORE:    0.00 PKD
ROOT
HETATM    1  C   UNL     1     -11.342   9.295  71.518  1.00  0.00    -0.455 C  
HETATM    2  C   UNL     1     -10.766   8.378  70.473  1.00  0.00    -0.247 A  
HETATM    3  C   UNL     1     -10.185   7.139  70.810  1.00  0.00    -0.197 A  
HETATM    4 CL   UNL     1      -9.858   6.691  72.449  1.00  0.00    -0.163 Cl 
HETATM    5  C   UNL     1      -9.800   6.226  69.823  1.00  0.00    -0.195 A  
HETATM    6  C   UNL     1     -10.011   6.518  68.485  1.00  0.00    -0.148 A  
HETATM    7  C   UNL     1     -10.502   7.773  68.139  1.00  0.00    -0.230 A  
HETATM    8  C   UNL     1     -10.783   8.750  69.114  1.00  0.00    -0.131 A  
ENDROOT
BRANCH   8   9
HETATM    9  N   UNL     1     -11.033  10.104  68.723  1.00  0.00    -0.270 NA 
HETATM   10  H   UNL     1     -11.998  10.375  68.534  1.00  0.00     0.000 HD 
BRANCH   9  11
HETATM   11  C   UNL     1     -10.022  11.096  68.580  1.00  0.00    -0.205 A  
HETATM   12  C   UNL     1      -8.663  10.723  68.607  1.00  0.00    -0.152 A  
HETATM   13  C   UNL     1      -7.650  11.624  68.277  1.00  0.00    -0.120 A  
HETATM   14  C   UNL     1      -7.975  12.934  67.943  1.00  0.00    -0.156 A  
HETATM   15  C   UNL     1      -9.297  13.360  68.036  1.00  0.00    -0.217 A  
HETATM   16  C   UNL     1     -10.310  12.459  68.402  1.00  0.00    -0.236 A  
HETATM   17  C   UNL     1     -11.665  13.013  68.610  1.00  0.00    -0.323 C  
HETATM   18  O   UNL     1     -12.149  13.886  67.914  1.00  0.00    -0.366 OA 
HETATM   19  O   UNL     1     -12.275  12.493  69.696  1.00  0.00    -0.216 OA 
ENDBRANCH   9  11
ENDBRANCH   8   9
TORSDOF 2
ENDMDL
MODEL      208
REMARK 921   NORMALIZED FREE ENERGY PREDICTED BY IDOCK:   -3.56 KCAL/MOL
REMARK 922        TOTAL FREE ENERGY PREDICTED BY IDOCK:   -4.60 KCAL/MOL
REMARK 923 INTER-LIGAND FREE ENERGY PREDICTED BY IDOCK:   -4.07 KCAL/MOL
REMARK 924 INTRA-LIGAND FREE ENERGY PREDICTED BY IDOCK:   -0.53 KCAL/MOL
REMARK 927      BINDING AFFINITY PREDICTED BY RF-SCORE:    0.00 PKD
ROOT
HETATM    1  C   UNL     1      -8.947  11.164  67.285  1.00  0.00    -0.147 C  
HETATM    2  C   UNL     1      -9.711  11.614  66.069  1.00  0.00    -0.257 A  
HETATM    3  C   UNL     1     -10.175  12.938  65.929  1.00  0.00    -0.290 A  
HETATM    4 CL   UNL     1     -10.131  14.070  67.237  1.00  0.00    -0.247 Cl 
HETATM    5  C   UNL     1     -10.739  13.387  64.731  1.00  0.00    -0.403 A  
HETATM    6  C   UNL     1     -10.828  12.534  63.642  1.00  0.00    -0.486 A  
HETATM    7  C   UNL     1     -10.455  11.203  63.796  1.00  0.00    -0.444 A  
HETATM    8  C   UNL     1      -9.996  10.704  65.031  1.00  0.00    -0.305 A  
ENDROOT
BRANCH   8   9
HETATM    9  N   UNL     1      -9.870   9.293  65.233  1.00  0.00    -0.424 NA 
HETATM   10  H   UNL     1     -10.715   8.766  65.454  1.00  0.00     0.000 HD 
BRANCH   9  11
HETATM   11  C   UNL     1      -8.642   8.578  65.148  1.00  0.00    -0.152 A  
HETATM   12  C   UNL     1      -7.798   8.762  64.035  1.00  0.00    -0.140 A  
HETATM   13  C   UNL     1      -6.505   8.239  64.001  1.00  0.00    -0.067 A  
HETATM   14  C   UNL     1      -6.039   7.486  65.073  1.00  0.00    -0.038 A  
HETATM   15  C   UNL     1      -6.897   7.181  66.125  1.00  0.00    -0.057 A  
HETATM   16  C   UNL     1      -8.210   7.682  66.140  1.00  0.00    -0.124 A  
HETATM   17  C   UNL     1      -9.103   7.206  67.218  1.00  0.00    -0.123 C  
HETATM   18  O   UNL     1      -8.738   7.029  68.365  1.00  0.00    -0.125 OA 
HETATM   19  O   UNL     1     -10.346   6.926  66.773  1.00  0.00    -0.237 OA 
ENDBRANCH   9  11
ENDBRANCH   8   9
TORSDOF 2
ENDMDL
MODEL      209
REMARK 921   NORMALIZED FREE ENERGY PREDICTED BY IDOCK:   -3.55 KCAL/MOL
REMARK 922        TOTAL FREE ENERGY PREDICTED BY IDOCK:   -4.58 KCAL/MOL
REMARK 923 INTER-LIGAND FREE ENERGY PREDICTED BY IDOCK:   -4.05 KCAL/MOL
REMARK 924 INTRA-LIGAND FREE ENERGY PREDICTED BY IDOCK:   -0.53 KCAL/MOL
REMARK 927      BINDING AFFINITY PREDICTED BY RF-SCORE:    0.00 PKD
ROOT
HETATM    1  C   UNL     1      -8.290   7.245  68.723  1.00  0.00    -0.129 C  
HETATM    2  C   UNL     1      -9.394   7.725  69.625  1.00  0.00    -0.153 A  
HETATM    3  C   UNL     1     -10.312   6.834  70.217  1.00  0.00    -0.198 A  
HETATM    4 CL   UNL     1     -10.404   5.168  69.756  1.00  0.00    -0.355 Cl 
HETATM    5  C   UNL     1     -11.230   7.269  71.178  1.00  0.00    -0.284 A  
HETATM    6  C   UNL     1     -11.233   8.593  71.587  1.00  0.00    -0.379 A  
HETATM    7  C   UNL     1     -10.392   9.498  70.948  1.00  0.00    -0.372 A  
HETATM    8  C   UNL     1      -9.545   9.101  69.894  1.00  0.00    -0.192 A  
ENDROOT
BRANCH   8   9
HETATM    9  N   UNL     1      -8.892  10.085  69.087  1.00  0.00    -0.157 NA 
HETATM   10  H   UNL     1      -7.873  10.125  69.116  1.00  0.00     0.000 HD 
BRANCH   9  11
HETATM   11  C   UNL     1      -9.572  11.012  68.248  1.00  0.00    -0.171 A  
HETATM   12  C   UNL     1     -10.811  10.663  67.674  1.00  0.00    -0.346 A  
HETATM   13  C   UNL     1     -11.602  11.601  67.011  1.00  0.00    -0.268 A  
HETATM   14  C   UNL     1     -11.151  12.911  66.878  1.00  0.00    -0.312 A  
HETATM   15  C   UNL     1      -9.876  13.248  67.321  1.00  0.00    -0.233 A  
HETATM   16  C   UNL     1      -9.068  12.291  67.958  1.00  0.00    -0.191 A  
HETATM   17  C   UNL     1      -7.680  12.685  68.279  1.00  0.00    -0.135 C  
HETATM   18  O   UNL     1      -7.369  13.790  68.682  1.00  0.00    -0.109 OA 
HETATM   19  O   UNL     1      -6.790  11.705  68.011  1.00  0.00    -0.067 OA 
ENDBRANCH   9  11
ENDBRANCH   8   9
TORSDOF 2
ENDMDL
MODEL      210
REMARK 921   NORMALIZED FREE ENERGY PREDICTED BY IDOCK:   -3.53 KCAL/MOL
REMARK 922        TOTAL FREE ENERGY PREDICTED BY IDOCK:   -4.56 KCAL/MOL
REMARK 923 INTER-LIGAND FREE ENERGY PREDICTED BY IDOCK:   -4.34 KCAL/MOL
REMARK 924 INTRA-LIGAND FREE ENERGY PREDICTED BY IDOCK:   -0.22 KCAL/MOL
REMARK 927      BINDING AFFINITY PREDICTED BY RF-SCORE:    0.00 PKD
ROOT
HETATM    1  C   UNL     1     -11.046   6.010  69.593  1.00  0.00    -0.474 C  
HETATM    2  C   UNL     1     -11.194   7.437  70.046  1.00  0.00    -0.200 A  
HETATM    3  C   UNL     1     -12.197   7.828  70.957  1.00  0.00    -0.215 A  
HETATM    4 CL   UNL     1     -13.481   6.766  71.423  1.00  0.00    -0.224 Cl 
HETATM    5  C   UNL     1     -12.226   9.119  71.494  1.00  0.00    -0.422 A  
HETATM    6  C   UNL     1     -11.243  10.035  71.155  1.00  0.00    -0.339 A  
HETATM    7  C   UNL     1     -10.301   9.688  70.191  1.00  0.00    -0.315 A  
HETATM    8  C   UNL     1     -10.328   8.433  69.551  1.00  0.00    -0.219 A  
ENDROOT
BRANCH   8   9
HETATM    9  N   UNL     1      -9.523   8.201  68.392  1.00  0.00    -0.141 NA 
HETATM   10  H   UNL     1      -8.785   7.500  68.458  1.00  0.00     0.000 HD 
BRANCH   9  11
HETATM   11  C   UNL     1      -9.684   8.884  67.154  1.00  0.00    -0.184 A  
HETATM   12  C   UNL     1     -10.305  10.149  67.126  1.00  0.00    -0.295 A  
HETATM   13  C   UNL     1     -10.309  10.937  65.975  1.00  0.00    -0.304 A  
HETATM   14  C   UNL     1      -9.717  10.460  64.810  1.00  0.00    -0.383 A  
HETATM   15  C   UNL     1      -9.212   9.163  64.777  1.00  0.00    -0.085 A  
HETATM   16  C   UNL     1      -9.241   8.359  65.929  1.00  0.00    -0.217 A  
HETATM   17  C   UNL     1      -8.812   6.952  65.782  1.00  0.00    -0.067 C  
HETATM   18  O   UNL     1      -7.880   6.602  65.082  1.00  0.00    -0.101 OA 
HETATM   19  O   UNL     1      -9.611   6.095  66.453  1.00  0.00    -0.158 OA 
ENDBRANCH   9  11
ENDBRANCH   8   9
TORSDOF 2
ENDMDL
MODEL      211
REMARK 921   NORMALIZED FREE ENERGY PREDICTED BY IDOCK:   -3.51 KCAL/MOL
REMARK 922        TOTAL FREE ENERGY PREDICTED BY IDOCK:   -4.54 KCAL/MOL
REMARK 923 INTER-LIGAND FREE ENERGY PREDICTED BY IDOCK:   -4.53 KCAL/MOL
REMARK 924 INTRA-LIGAND FREE ENERGY PREDICTED BY IDOCK:   -0.01 KCAL/MOL
REMARK 927      BINDING AFFINITY PREDICTED BY RF-SCORE:    0.00 PKD
ROOT
HETATM    1  C   UNL     1     -11.937  12.569  68.282  1.00  0.00    -0.274 C  
HETATM    2  C   UNL     1     -10.969  13.360  67.445  1.00  0.00    -0.287 A  
HETATM    3  C   UNL     1     -11.392  14.117  66.334  1.00  0.00    -0.338 A  
HETATM    4 CL   UNL     1     -12.996  13.995  65.695  1.00  0.00    -0.471 Cl 
HETATM    5  C   UNL     1     -10.514  14.974  65.662  1.00  0.00    -0.368 A  
HETATM    6  C   UNL     1      -9.207  15.113  66.101  1.00  0.00    -0.318 A  
HETATM    7  C   UNL     1      -8.755  14.306  67.140  1.00  0.00    -0.243 A  
HETATM    8  C   UNL     1      -9.593  13.351  67.750  1.00  0.00    -0.213 A  
ENDROOT
BRANCH   8   9
HETATM    9  N   UNL     1      -9.038  12.365  68.626  1.00  0.00    -0.392 NA 
HETATM   10  H   UNL     1      -8.430  12.684  69.379  1.00  0.00     0.000 HD 
BRANCH   9  11
HETATM   11  C   UNL     1      -9.280  10.966  68.512  1.00  0.00    -0.181 A  
HETATM   12  C   UNL     1      -9.999  10.294  69.520  1.00  0.00    -0.252 A  
HETATM   13  C   UNL     1     -10.428   8.977  69.360  1.00  0.00    -0.229 A  
HETATM   14  C   UNL     1     -10.115   8.288  68.192  1.00  0.00    -0.238 A  
HETATM   15  C   UNL     1      -9.296   8.886  67.239  1.00  0.00    -0.173 A  
HETATM   16  C   UNL     1      -8.838  10.202  67.420  1.00  0.00    -0.135 A  
HETATM   17  C   UNL     1      -7.866  10.720  66.434  1.00  0.00    -0.148 C  
HETATM   18  O   UNL     1      -7.927  10.487  65.242  1.00  0.00    -0.152 OA 
HETATM   19  O   UNL     1      -6.868  11.422  67.013  1.00  0.00    -0.115 OA 
ENDBRANCH   9  11
ENDBRANCH   8   9
TORSDOF 2
ENDMDL
MODEL      212
REMARK 921   NORMALIZED FREE ENERGY PREDICTED BY IDOCK:   -3.49 KCAL/MOL
REMARK 922        TOTAL FREE ENERGY PREDICTED BY IDOCK:   -4.52 KCAL/MOL
REMARK 923 INTER-LIGAND FREE ENERGY PREDICTED BY IDOCK:   -4.22 KCAL/MOL
REMARK 924 INTRA-LIGAND FREE ENERGY PREDICTED BY IDOCK:   -0.30 KCAL/MOL
REMARK 927      BINDING AFFINITY PREDICTED BY RF-SCORE:    0.00 PKD
ROOT
HETATM    1  C   UNL     1      -8.479   7.472  66.442  1.00  0.00    -0.131 C  
HETATM    2  C   UNL     1      -9.303   8.644  66.902  1.00  0.00    -0.216 A  
HETATM    3  C   UNL     1      -9.556   9.749  66.064  1.00  0.00    -0.235 A  
HETATM    4 CL   UNL     1      -8.740   9.964  64.553  1.00  0.00    -0.195 Cl 
HETATM    5  C   UNL     1     -10.452  10.754  66.439  1.00  0.00    -0.293 A  
HETATM    6  C   UNL     1     -11.132  10.665  67.644  1.00  0.00    -0.385 A  
HETATM    7  C   UNL     1     -10.824   9.627  68.516  1.00  0.00    -0.202 A  
HETATM    8  C   UNL     1      -9.837   8.670  68.206  1.00  0.00    -0.165 A  
ENDROOT
BRANCH   8   9
HETATM    9  N   UNL     1      -9.358   7.778  69.216  1.00  0.00    -0.149 NA 
HETATM   10  H   UNL     1      -8.626   7.116  68.959  1.00  0.00     0.000 HD 
BRANCH   9  11
HETATM   11  C   UNL     1      -9.838   7.754  70.556  1.00  0.00    -0.182 A  
HETATM   12  C   UNL     1     -11.125   7.251  70.833  1.00  0.00    -0.284 A  
HETATM   13  C   UNL     1     -11.558   7.026  72.139  1.00  0.00    -0.320 A  
HETATM   14  C   UNL     1     -10.720   7.333  73.206  1.00  0.00    -0.428 A  
HETATM   15  C   UNL     1      -9.497   7.952  72.963  1.00  0.00    -0.336 A  
HETATM   16  C   UNL     1      -9.078   8.207  71.647  1.00  0.00    -0.214 A  
HETATM   17  C   UNL     1      -7.833   8.986  71.473  1.00  0.00     0.020 C  
HETATM   18  O   UNL     1      -6.851   8.851  72.178  1.00  0.00    -0.252 OA 
HETATM   19  O   UNL     1      -7.934   9.909  70.493  1.00  0.00    -0.246 OA 
ENDBRANCH   9  11
ENDBRANCH   8   9
TORSDOF 2
ENDMDL
MODEL      213
REMARK 921   NORMALIZED FREE ENERGY PREDICTED BY IDOCK:   -3.49 KCAL/MOL
REMARK 922        TOTAL FREE ENERGY PREDICTED BY IDOCK:   -4.52 KCAL/MOL
REMARK 923 INTER-LIGAND FREE ENERGY PREDICTED BY IDOCK:   -4.12 KCAL/MOL
REMARK 924 INTRA-LIGAND FREE ENERGY PREDICTED BY IDOCK:   -0.40 KCAL/MOL
REMARK 927      BINDING AFFINITY PREDICTED BY RF-SCORE:    0.00 PKD
ROOT
HETATM    1  C   UNL     1      -8.678   9.792  69.907  1.00  0.00    -0.238 C  
HETATM    2  C   UNL     1      -9.448   8.504  69.800  1.00  0.00    -0.166 A  
HETATM    3  C   UNL     1      -9.672   7.676  70.919  1.00  0.00    -0.172 A  
HETATM    4 CL   UNL     1      -8.871   7.937  72.431  1.00  0.00    -0.189 Cl 
HETATM    5  C   UNL     1     -10.522   6.568  70.843  1.00  0.00    -0.263 A  
HETATM    6  C   UNL     1     -11.186   6.281  69.662  1.00  0.00    -0.506 A  
HETATM    7  C   UNL     1     -10.905   7.038  68.529  1.00  0.00    -0.187 A  
HETATM    8  C   UNL     1      -9.961   8.083  68.556  1.00  0.00    -0.192 A  
ENDROOT
BRANCH   8   9
HETATM    9  N   UNL     1      -9.501   8.668  67.334  1.00  0.00    -0.146 NA 
HETATM   10  H   UNL     1      -8.759   8.188  66.825  1.00  0.00     0.000 HD 
BRANCH   9  11
HETATM   11  C   UNL     1     -10.012   9.878  66.783  1.00  0.00    -0.214 A  
HETATM   12  C   UNL     1     -11.131  10.500  67.372  1.00  0.00    -0.322 A  
HETATM   13  C   UNL     1     -11.543  11.777  66.991  1.00  0.00    -0.321 A  
HETATM   14  C   UNL     1     -10.860  12.450  65.983  1.00  0.00    -0.308 A  
HETATM   15  C   UNL     1      -9.835  11.804  65.298  1.00  0.00    -0.267 A  
HETATM   16  C   UNL     1      -9.444  10.505  65.662  1.00  0.00    -0.259 A  
HETATM   17  C   UNL     1      -8.443   9.835  64.804  1.00  0.00    -0.164 C  
HETATM   18  O   UNL     1      -7.490  10.407  64.311  1.00  0.00    -0.108 OA 
HETATM   19  O   UNL     1      -8.743   8.539  64.576  1.00  0.00    -0.094 OA 
ENDBRANCH   9  11
ENDBRANCH   8   9
TORSDOF 2
ENDMDL
MODEL      214
REMARK 921   NORMALIZED FREE ENERGY PREDICTED BY IDOCK:   -3.49 KCAL/MOL
REMARK 922        TOTAL FREE ENERGY PREDICTED BY IDOCK:   -4.51 KCAL/MOL
REMARK 923 INTER-LIGAND FREE ENERGY PREDICTED BY IDOCK:   -4.04 KCAL/MOL
REMARK 924 INTRA-LIGAND FREE ENERGY PREDICTED BY IDOCK:   -0.47 KCAL/MOL
REMARK 927      BINDING AFFINITY PREDICTED BY RF-SCORE:    0.00 PKD
ROOT
HETATM    1  C   UNL     1      -7.369  10.110  69.229  1.00  0.00    -0.098 C  
HETATM    2  C   UNL     1      -8.345   9.765  68.137  1.00  0.00    -0.110 A  
HETATM    3  C   UNL     1      -8.049   9.986  66.777  1.00  0.00    -0.118 A  
HETATM    4 CL   UNL     1      -6.665  10.895  66.273  1.00  0.00    -0.132 Cl 
HETATM    5  C   UNL     1      -8.891   9.515  65.765  1.00  0.00    -0.193 A  
HETATM    6  C   UNL     1     -10.030   8.794  66.087  1.00  0.00    -0.244 A  
HETATM    7  C   UNL     1     -10.378   8.647  67.426  1.00  0.00    -0.353 A  
HETATM    8  C   UNL     1      -9.604   9.217  68.456  1.00  0.00    -0.147 A  
ENDROOT
BRANCH   8   9
HETATM    9  N   UNL     1     -10.117   9.277  69.791  1.00  0.00    -0.193 NA 
HETATM   10  H   UNL     1     -10.079  10.173  70.276  1.00  0.00     0.000 HD 
BRANCH   9  11
HETATM   11  C   UNL     1     -10.674   8.166  70.485  1.00  0.00    -0.225 A  
HETATM   12  C   UNL     1     -10.121   6.881  70.314  1.00  0.00    -0.196 A  
HETATM   13  C   UNL     1     -10.504   5.806  71.116  1.00  0.00    -0.301 A  
HETATM   14  C   UNL     1     -11.480   5.987  72.091  1.00  0.00    -0.356 A  
HETATM   15  C   UNL     1     -12.133   7.212  72.191  1.00  0.00    -0.284 A  
HETATM   16  C   UNL     1     -11.768   8.283  71.359  1.00  0.00    -0.327 A  
HETATM   17  C   UNL     1     -12.595   9.507  71.430  1.00  0.00    -0.359 C  
HETATM   18  O   UNL     1     -13.047   9.954  72.467  1.00  0.00    -0.291 OA 
HETATM   19  O   UNL     1     -12.846  10.032  70.212  1.00  0.00    -0.116 OA 
ENDBRANCH   9  11
ENDBRANCH   8   9
TORSDOF 2
ENDMDL
MODEL      215
REMARK 921   NORMALIZED FREE ENERGY PREDICTED BY IDOCK:   -3.48 KCAL/MOL
REMARK 922        TOTAL FREE ENERGY PREDICTED BY IDOCK:   -4.51 KCAL/MOL
REMARK 923 INTER-LIGAND FREE ENERGY PREDICTED BY IDOCK:   -4.21 KCAL/MOL
REMARK 924 INTRA-LIGAND FREE ENERGY PREDICTED BY IDOCK:   -0.30 KCAL/MOL
REMARK 927      BINDING AFFINITY PREDICTED BY RF-SCORE:    0.00 PKD
ROOT
HETATM    1  C   UNL     1     -10.019   9.481  65.633  1.00  0.00    -0.269 C  
HETATM    2  C   UNL     1      -9.020   9.949  66.656  1.00  0.00    -0.157 A  
HETATM    3  C   UNL     1      -7.730   9.388  66.748  1.00  0.00    -0.098 A  
HETATM    4 CL   UNL     1      -7.284   7.960  65.878  1.00  0.00    -0.071 Cl 
HETATM    5  C   UNL     1      -6.758   9.937  67.589  1.00  0.00    -0.073 A  
HETATM    6  C   UNL     1      -7.042  11.070  68.334  1.00  0.00    -0.074 A  
HETATM    7  C   UNL     1      -8.337  11.579  68.319  1.00  0.00    -0.154 A  
HETATM    8  C   UNL     1      -9.361  10.968  67.569  1.00  0.00    -0.159 A  
ENDROOT
BRANCH   8   9
HETATM    9  N   UNL     1     -10.725  11.348  67.772  1.00  0.00    -0.199 NA 
HETATM   10  H   UNL     1     -11.443  10.842  67.255  1.00  0.00     0.000 HD 
BRANCH   9  11
HETATM   11  C   UNL     1     -11.145  12.387  68.650  1.00  0.00    -0.257 A  
HETATM   12  C   UNL     1     -10.806  13.725  68.367  1.00  0.00    -0.268 A  
HETATM   13  C   UNL     1     -11.356  14.788  69.084  1.00  0.00    -0.302 A  
HETATM   14  C   UNL     1     -12.238  14.531  70.129  1.00  0.00    -0.399 A  
HETATM   15  C   UNL     1     -12.486  13.216  70.511  1.00  0.00    -0.322 A  
HETATM   16  C   UNL     1     -11.903  12.148  69.808  1.00  0.00    -0.397 A  
HETATM   17  C   UNL     1     -12.105  10.789  70.354  1.00  0.00    -0.354 C  
HETATM   18  O   UNL     1     -13.151  10.410  70.846  1.00  0.00    -0.384 OA 
HETATM   19  O   UNL     1     -10.981  10.042  70.308  1.00  0.00    -0.271 OA 
ENDBRANCH   9  11
ENDBRANCH   8   9
TORSDOF 2
ENDMDL
MODEL      216
REMARK 921   NORMALIZED FREE ENERGY PREDICTED BY IDOCK:   -3.48 KCAL/MOL
REMARK 922        TOTAL FREE ENERGY PREDICTED BY IDOCK:   -4.50 KCAL/MOL
REMARK 923 INTER-LIGAND FREE ENERGY PREDICTED BY IDOCK:   -3.95 KCAL/MOL
REMARK 924 INTRA-LIGAND FREE ENERGY PREDICTED BY IDOCK:   -0.55 KCAL/MOL
REMARK 927      BINDING AFFINITY PREDICTED BY RF-SCORE:    0.00 PKD
ROOT
HETATM    1  C   UNL     1     -10.439   7.894  66.748  1.00  0.00    -0.317 C  
HETATM    2  C   UNL     1     -10.455   8.958  67.812  1.00  0.00    -0.300 A  
HETATM    3  C   UNL     1      -9.921  10.243  67.587  1.00  0.00    -0.179 A  
HETATM    4 CL   UNL     1      -8.986  10.617  66.180  1.00  0.00    -0.175 Cl 
HETATM    5  C   UNL     1     -10.084  11.270  68.522  1.00  0.00    -0.210 A  
HETATM    6  C   UNL     1     -10.804  11.044  69.684  1.00  0.00    -0.241 A  
HETATM    7  C   UNL     1     -11.259   9.759  69.956  1.00  0.00    -0.297 A  
HETATM    8  C   UNL     1     -11.000   8.684  69.082  1.00  0.00     0.063 A  
ENDROOT
BRANCH   8   9
HETATM    9  N   UNL     1     -11.246   7.339  69.505  1.00  0.00    -0.461 NA 
HETATM   10  H   UNL     1     -12.187   6.965  69.381  1.00  0.00     0.000 HD 
BRANCH   9  11
HETATM   11  C   UNL     1     -10.263   6.490  70.087  1.00  0.00    -0.192 A  
HETATM   12  C   UNL     1      -9.355   5.798  69.262  1.00  0.00    -0.148 A  
HETATM   13  C   UNL     1      -8.259   5.116  69.790  1.00  0.00    -0.089 A  
HETATM   14  C   UNL     1      -8.066   5.083  71.168  1.00  0.00    -0.109 A  
HETATM   15  C   UNL     1      -9.019   5.648  72.009  1.00  0.00    -0.142 A  
HETATM   16  C   UNL     1     -10.140   6.306  71.474  1.00  0.00    -0.218 A  
HETATM   17  C   UNL     1     -11.175   6.761  72.427  1.00  0.00    -0.264 C  
HETATM   18  O   UNL     1     -10.922   7.240  73.517  1.00  0.00    -0.345 OA 
HETATM   19  O   UNL     1     -12.427   6.523  71.982  1.00  0.00    -0.327 OA 
ENDBRANCH   9  11
ENDBRANCH   8   9
TORSDOF 2
ENDMDL
MODEL      217
REMARK 921   NORMALIZED FREE ENERGY PREDICTED BY IDOCK:   -3.45 KCAL/MOL
REMARK 922        TOTAL FREE ENERGY PREDICTED BY IDOCK:   -4.48 KCAL/MOL
REMARK 923 INTER-LIGAND FREE ENERGY PREDICTED BY IDOCK:   -3.93 KCAL/MOL
REMARK 924 INTRA-LIGAND FREE ENERGY PREDICTED BY IDOCK:   -0.54 KCAL/MOL
REMARK 927      BINDING AFFINITY PREDICTED BY RF-SCORE:    0.00 PKD
ROOT
HETATM    1  C   UNL     1      -9.586  10.839  69.307  1.00  0.00    -0.121 C  
HETATM    2  C   UNL     1      -9.540   9.657  68.377  1.00  0.00    -0.154 A  
HETATM    3  C   UNL     1      -9.953   9.753  67.032  1.00  0.00    -0.203 A  
HETATM    4 CL   UNL     1     -10.775  11.147  66.419  1.00  0.00    -0.315 Cl 
HETATM    5  C   UNL     1      -9.757   8.697  66.136  1.00  0.00    -0.292 A  
HETATM    6  C   UNL     1      -9.122   7.539  66.555  1.00  0.00    -0.201 A  
HETATM    7  C   UNL     1      -8.792   7.399  67.899  1.00  0.00    -0.132 A  
HETATM    8  C   UNL     1      -9.090   8.404  68.840  1.00  0.00    -0.147 A  
ENDROOT
BRANCH   8   9
HETATM    9  N   UNL     1      -8.980   8.133  70.240  1.00  0.00    -0.145 NA 
HETATM   10  H   UNL     1      -8.080   8.302  70.689  1.00  0.00     0.000 HD 
BRANCH   9  11
HETATM   11  C   UNL     1     -10.045   7.640  71.047  1.00  0.00    -0.189 A  
HETATM   12  C   UNL     1     -11.339   7.521  70.504  1.00  0.00    -0.279 A  
HETATM   13  C   UNL     1     -12.363   6.864  71.188  1.00  0.00    -0.419 A  
HETATM   14  C   UNL     1     -12.119   6.339  72.453  1.00  0.00    -0.186 A  
HETATM   15  C   UNL     1     -10.888   6.558  73.064  1.00  0.00    -0.291 A  
HETATM   16  C   UNL     1      -9.871   7.249  72.385  1.00  0.00    -0.188 A  
HETATM   17  C   UNL     1      -8.641   7.560  73.145  1.00  0.00    -0.150 C  
HETATM   18  O   UNL     1      -8.131   6.795  73.942  1.00  0.00    -0.111 OA 
HETATM   19  O   UNL     1      -8.189   8.810  72.908  1.00  0.00    -0.410 OA 
ENDBRANCH   9  11
ENDBRANCH   8   9
TORSDOF 2
ENDMDL
MODEL      218
REMARK 921   NORMALIZED FREE ENERGY PREDICTED BY IDOCK:   -3.44 KCAL/MOL
REMARK 922        TOTAL FREE ENERGY PREDICTED BY IDOCK:   -4.47 KCAL/MOL
REMARK 923 INTER-LIGAND FREE ENERGY PREDICTED BY IDOCK:   -3.98 KCAL/MOL
REMARK 924 INTRA-LIGAND FREE ENERGY PREDICTED BY IDOCK:   -0.48 KCAL/MOL
REMARK 927      BINDING AFFINITY PREDICTED BY RF-SCORE:    0.00 PKD
ROOT
HETATM    1  C   UNL     1     -10.302   8.653  68.183  1.00  0.00    -0.267 C  
HETATM    2  C   UNL     1     -10.654   9.976  67.559  1.00  0.00    -0.336 A  
HETATM    3  C   UNL     1     -11.367  10.967  68.266  1.00  0.00    -0.308 A  
HETATM    4 CL   UNL     1     -12.109  10.649  69.796  1.00  0.00    -0.358 Cl 
HETATM    5  C   UNL     1     -11.547  12.248  67.736  1.00  0.00    -0.416 A  
HETATM    6  C   UNL     1     -10.999  12.575  66.506  1.00  0.00    -0.303 A  
HETATM    7  C   UNL     1     -10.371  11.582  65.762  1.00  0.00    -0.295 A  
HETATM    8  C   UNL     1     -10.285  10.255  66.228  1.00  0.00    -0.221 A  
ENDROOT
BRANCH   8   9
HETATM    9  N   UNL     1      -9.873   9.209  65.343  1.00  0.00    -0.424 NA 
HETATM   10  H   UNL     1     -10.515   8.429  65.195  1.00  0.00     0.000 HD 
BRANCH   9  11
HETATM   11  C   UNL     1      -8.627   9.184  64.656  1.00  0.00    -0.182 A  
HETATM   12  C   UNL     1      -8.420  10.027  63.546  1.00  0.00    -0.187 A  
HETATM   13  C   UNL     1      -7.160  10.180  62.967  1.00  0.00    -0.131 A  
HETATM   14  C   UNL     1      -6.079   9.463  63.469  1.00  0.00    -0.092 A  
HETATM   15  C   UNL     1      -6.284   8.528  64.480  1.00  0.00    -0.066 A  
HETATM   16  C   UNL     1      -7.561   8.352  65.037  1.00  0.00    -0.094 A  
HETATM   17  C   UNL     1      -7.729   7.250  66.008  1.00  0.00    -0.095 C  
HETATM   18  O   UNL     1      -6.893   6.955  66.842  1.00  0.00    -0.060 OA 
HETATM   19  O   UNL     1      -8.878   6.567  65.822  1.00  0.00    -0.148 OA 
ENDBRANCH   9  11
ENDBRANCH   8   9
TORSDOF 2
ENDMDL
MODEL      219
REMARK 921   NORMALIZED FREE ENERGY PREDICTED BY IDOCK:   -3.44 KCAL/MOL
REMARK 922        TOTAL FREE ENERGY PREDICTED BY IDOCK:   -4.47 KCAL/MOL
REMARK 923 INTER-LIGAND FREE ENERGY PREDICTED BY IDOCK:   -3.94 KCAL/MOL
REMARK 924 INTRA-LIGAND FREE ENERGY PREDICTED BY IDOCK:   -0.53 KCAL/MOL
REMARK 927      BINDING AFFINITY PREDICTED BY RF-SCORE:    0.00 PKD
ROOT
HETATM    1  C   UNL     1     -10.727   6.695  68.798  1.00  0.00    -0.302 C  
HETATM    2  C   UNL     1      -9.774   6.783  67.637  1.00  0.00    -0.146 A  
HETATM    3  C   UNL     1      -9.458   5.659  66.847  1.00  0.00    -0.135 A  
HETATM    4 CL   UNL     1      -9.930   4.056  67.298  1.00  0.00    -0.128 Cl 
HETATM    5  C   UNL     1      -8.702   5.783  65.677  1.00  0.00    -0.151 A  
HETATM    6  C   UNL     1      -8.270   7.031  65.258  1.00  0.00    -0.128 A  
HETATM    7  C   UNL     1      -8.500   8.133  66.074  1.00  0.00    -0.150 A  
HETATM    8  C   UNL     1      -9.156   8.008  67.315  1.00  0.00    -0.135 A  
ENDROOT
BRANCH   8   9
HETATM    9  N   UNL     1      -9.149   9.096  68.244  1.00  0.00    -0.133 NA 
HETATM   10  H   UNL     1      -8.553   9.015  69.068  1.00  0.00     0.000 HD 
BRANCH   9  11
HETATM   11  C   UNL     1      -9.920  10.284  68.094  1.00  0.00    -0.146 A  
HETATM   12  C   UNL     1      -9.652  11.164  67.027  1.00  0.00    -0.201 A  
HETATM   13  C   UNL     1     -10.501  12.230  66.726  1.00  0.00    -0.242 A  
HETATM   14  C   UNL     1     -11.625  12.458  67.512  1.00  0.00    -0.431 A  
HETATM   15  C   UNL     1     -11.840  11.683  68.648  1.00  0.00    -0.370 A  
HETATM   16  C   UNL     1     -10.964  10.631  68.967  1.00  0.00    -0.295 A  
HETATM   17  C   UNL     1     -11.178   9.941  70.256  1.00  0.00    -0.301 C  
HETATM   18  O   UNL     1     -12.279   9.684  70.707  1.00  0.00    -0.284 OA 
HETATM   19  O   UNL     1     -10.022   9.689  70.906  1.00  0.00    -0.262 OA 
ENDBRANCH   9  11
ENDBRANCH   8   9
TORSDOF 2
ENDMDL
MODEL      220
REMARK 921   NORMALIZED FREE ENERGY PREDICTED BY IDOCK:   -3.43 KCAL/MOL
REMARK 922        TOTAL FREE ENERGY PREDICTED BY IDOCK:   -4.45 KCAL/MOL
REMARK 923 INTER-LIGAND FREE ENERGY PREDICTED BY IDOCK:   -4.56 KCAL/MOL
REMARK 924 INTRA-LIGAND FREE ENERGY PREDICTED BY IDOCK:    0.11 KCAL/MOL
REMARK 927      BINDING AFFINITY PREDICTED BY RF-SCORE:    0.00 PKD
ROOT
HETATM    1  C   UNL     1      -9.180   8.445  71.862  1.00  0.00    -0.306 C  
HETATM    2  C   UNL     1     -10.604   8.784  71.511  1.00  0.00    -0.379 A  
HETATM    3  C   UNL     1     -11.687   7.997  71.954  1.00  0.00    -0.303 A  
HETATM    4 CL   UNL     1     -11.456   6.457  72.709  1.00  0.00    -0.224 Cl 
HETATM    5  C   UNL     1     -13.009   8.408  71.760  1.00  0.00    -0.368 A  
HETATM    6  C   UNL     1     -13.277   9.621  71.147  1.00  0.00    -0.373 A  
HETATM    7  C   UNL     1     -12.221  10.362  70.627  1.00  0.00    -0.441 A  
HETATM    8  C   UNL     1     -10.890   9.906  70.708  1.00  0.00    -0.317 A  
ENDROOT
BRANCH   8   9
HETATM    9  N   UNL     1      -9.864  10.548  69.946  1.00  0.00    -0.413 NA 
HETATM   10  H   UNL     1      -9.855  11.568  69.921  1.00  0.00     0.000 HD 
BRANCH   9  11
HETATM   11  C   UNL     1      -8.854   9.856  69.219  1.00  0.00    -0.174 A  
HETATM   12  C   UNL     1      -7.503   9.986  69.597  1.00  0.00    -0.134 A  
HETATM   13  C   UNL     1      -6.507   9.180  69.045  1.00  0.00    -0.047 A  
HETATM   14  C   UNL     1      -6.839   8.244  68.071  1.00  0.00    -0.066 A  
HETATM   15  C   UNL     1      -8.143   8.187  67.589  1.00  0.00    -0.127 A  
HETATM   16  C   UNL     1      -9.137   9.023  68.123  1.00  0.00    -0.134 A  
HETATM   17  C   UNL     1     -10.463   9.001  67.470  1.00  0.00    -0.272 C  
HETATM   18  O   UNL     1     -10.988   7.988  67.048  1.00  0.00    -0.191 OA 
HETATM   19  O   UNL     1     -10.991  10.236  67.332  1.00  0.00    -0.293 OA 
ENDBRANCH   9  11
ENDBRANCH   8   9
TORSDOF 2
ENDMDL
MODEL      221
REMARK 921   NORMALIZED FREE ENERGY PREDICTED BY IDOCK:   -3.43 KCAL/MOL
REMARK 922        TOTAL FREE ENERGY PREDICTED BY IDOCK:   -4.45 KCAL/MOL
REMARK 923 INTER-LIGAND FREE ENERGY PREDICTED BY IDOCK:   -4.34 KCAL/MOL
REMARK 924 INTRA-LIGAND FREE ENERGY PREDICTED BY IDOCK:   -0.11 KCAL/MOL
REMARK 927      BINDING AFFINITY PREDICTED BY RF-SCORE:    0.00 PKD
ROOT
HETATM    1  C   UNL     1      -9.107  13.636  67.765  1.00  0.00    -0.199 C  
HETATM    2  C   UNL     1     -10.087  13.096  66.760  1.00  0.00    -0.253 A  
HETATM    3  C   UNL     1     -11.437  13.504  66.743  1.00  0.00    -0.346 A  
HETATM    4 CL   UNL     1     -12.128  14.447  68.018  1.00  0.00    -0.322 Cl 
HETATM    5  C   UNL     1     -12.297  13.122  65.710  1.00  0.00    -0.496 A  
HETATM    6  C   UNL     1     -11.824  12.350  64.661  1.00  0.00    -0.445 A  
HETATM    7  C   UNL     1     -10.520  11.869  64.712  1.00  0.00    -0.333 A  
HETATM    8  C   UNL     1      -9.675  12.145  65.805  1.00  0.00    -0.229 A  
ENDROOT
BRANCH   8   9
HETATM    9  N   UNL     1      -8.443  11.433  65.958  1.00  0.00    -0.337 NA 
HETATM   10  H   UNL     1      -7.771  11.472  65.192  1.00  0.00     0.000 HD 
BRANCH   9  11
HETATM   11  C   UNL     1      -8.096  10.673  67.111  1.00  0.00    -0.121 A  
HETATM   12  C   UNL     1      -7.077  11.128  67.971  1.00  0.00    -0.073 A  
HETATM   13  C   UNL     1      -6.838  10.525  69.206  1.00  0.00    -0.079 A  
HETATM   14  C   UNL     1      -7.597   9.426  69.595  1.00  0.00    -0.095 A  
HETATM   15  C   UNL     1      -8.520   8.879  68.709  1.00  0.00    -0.131 A  
HETATM   16  C   UNL     1      -8.734   9.469  67.452  1.00  0.00    -0.128 A  
HETATM   17  C   UNL     1      -9.628   8.756  66.514  1.00  0.00    -0.237 C  
HETATM   18  O   UNL     1     -10.646   8.185  66.858  1.00  0.00    -0.329 OA 
HETATM   19  O   UNL     1      -9.153   8.751  65.250  1.00  0.00    -0.186 OA 
ENDBRANCH   9  11
ENDBRANCH   8   9
TORSDOF 2
ENDMDL
MODEL      222
REMARK 921   NORMALIZED FREE ENERGY PREDICTED BY IDOCK:   -3.41 KCAL/MOL
REMARK 922        TOTAL FREE ENERGY PREDICTED BY IDOCK:   -4.43 KCAL/MOL
REMARK 923 INTER-LIGAND FREE ENERGY PREDICTED BY IDOCK:   -3.97 KCAL/MOL
REMARK 924 INTRA-LIGAND FREE ENERGY PREDICTED BY IDOCK:   -0.46 KCAL/MOL
REMARK 927      BINDING AFFINITY PREDICTED BY RF-SCORE:    0.00 PKD
ROOT
HETATM    1  C   UNL     1      -9.148   8.647  71.411  1.00  0.00    -0.295 C  
HETATM    2  C   UNL     1     -10.409   9.337  70.968  1.00  0.00    -0.388 A  
HETATM    3  C   UNL     1     -11.640   9.132  71.625  1.00  0.00    -0.379 A  
HETATM    4 CL   UNL     1     -11.853   7.891  72.813  1.00  0.00    -0.356 Cl 
HETATM    5  C   UNL     1     -12.767   9.898  71.311  1.00  0.00    -0.482 A  
HETATM    6  C   UNL     1     -12.683  10.899  70.357  1.00  0.00    -0.326 A  
HETATM    7  C   UNL     1     -11.500  11.051  69.641  1.00  0.00    -0.375 A  
HETATM    8  C   UNL     1     -10.392  10.209  69.861  1.00  0.00    -0.261 A  
ENDROOT
BRANCH   8   9
HETATM    9  N   UNL     1      -9.294  10.214  68.944  1.00  0.00    -0.169 NA 
HETATM   10  H   UNL     1      -9.106   9.358  68.421  1.00  0.00     0.000 HD 
BRANCH   9  11
HETATM   11  C   UNL     1      -8.445  11.334  68.715  1.00  0.00    -0.112 A  
HETATM   12  C   UNL     1      -8.966  12.498  68.117  1.00  0.00    -0.199 A  
HETATM   13  C   UNL     1      -8.230  13.681  68.053  1.00  0.00    -0.162 A  
HETATM   14  C   UNL     1      -6.935  13.715  68.560  1.00  0.00    -0.104 A  
HETATM   15  C   UNL     1      -6.352  12.544  69.037  1.00  0.00    -0.092 A  
HETATM   16  C   UNL     1      -7.086  11.347  69.069  1.00  0.00    -0.117 A  
HETATM   17  C   UNL     1      -6.360  10.120  69.461  1.00  0.00    -0.051 C  
HETATM   18  O   UNL     1      -5.519  10.087  70.340  1.00  0.00    -0.042 OA 
HETATM   19  O   UNL     1      -6.685   9.059  68.692  1.00  0.00    -0.057 OA 
ENDBRANCH   9  11
ENDBRANCH   8   9
TORSDOF 2
ENDMDL
MODEL      223
REMARK 921   NORMALIZED FREE ENERGY PREDICTED BY IDOCK:   -3.40 KCAL/MOL
REMARK 922        TOTAL FREE ENERGY PREDICTED BY IDOCK:   -4.42 KCAL/MOL
REMARK 923 INTER-LIGAND FREE ENERGY PREDICTED BY IDOCK:   -3.89 KCAL/MOL
REMARK 924 INTRA-LIGAND FREE ENERGY PREDICTED BY IDOCK:   -0.54 KCAL/MOL
REMARK 927      BINDING AFFINITY PREDICTED BY RF-SCORE:    0.00 PKD
ROOT
HETATM    1  C   UNL     1      -8.942   4.508  71.693  1.00  0.00    -0.158 C  
HETATM    2  C   UNL     1      -9.629   5.834  71.877  1.00  0.00    -0.172 A  
HETATM    3  C   UNL     1     -10.628   6.026  72.853  1.00  0.00    -0.235 A  
HETATM    4 CL   UNL     1     -11.319   4.705  73.733  1.00  0.00    -0.273 Cl 
HETATM    5  C   UNL     1     -11.143   7.297  73.125  1.00  0.00    -0.336 A  
HETATM    6  C   UNL     1     -10.655   8.403  72.449  1.00  0.00    -0.405 A  
HETATM    7  C   UNL     1      -9.735   8.215  71.423  1.00  0.00    -0.219 A  
HETATM    8  C   UNL     1      -9.293   6.929  71.055  1.00  0.00    -0.156 A  
ENDROOT
BRANCH   8   9
HETATM    9  N   UNL     1      -8.558   6.742  69.842  1.00  0.00    -0.140 NA 
HETATM   10  H   UNL     1      -7.560   6.953  69.852  1.00  0.00     0.000 HD 
BRANCH   9  11
HETATM   11  C   UNL     1      -9.129   6.280  68.623  1.00  0.00    -0.126 A  
HETATM   12  C   UNL     1      -9.032   4.918  68.273  1.00  0.00    -0.126 A  
HETATM   13  C   UNL     1      -9.740   4.387  67.195  1.00  0.00    -0.230 A  
HETATM   14  C   UNL     1     -10.539   5.219  66.418  1.00  0.00    -0.338 A  
HETATM   15  C   UNL     1     -10.548   6.589  66.663  1.00  0.00    -0.241 A  
HETATM   16  C   UNL     1      -9.807   7.126  67.729  1.00  0.00    -0.175 A  
HETATM   17  C   UNL     1      -9.758   8.599  67.845  1.00  0.00    -0.161 C  
HETATM   18  O   UNL     1     -10.711   9.323  67.626  1.00  0.00    -0.269 OA 
HETATM   19  O   UNL     1      -8.524   9.052  68.151  1.00  0.00    -0.127 OA 
ENDBRANCH   9  11
ENDBRANCH   8   9
TORSDOF 2
ENDMDL
MODEL      224
REMARK 921   NORMALIZED FREE ENERGY PREDICTED BY IDOCK:   -3.40 KCAL/MOL
REMARK 922        TOTAL FREE ENERGY PREDICTED BY IDOCK:   -4.42 KCAL/MOL
REMARK 923 INTER-LIGAND FREE ENERGY PREDICTED BY IDOCK:   -4.18 KCAL/MOL
REMARK 924 INTRA-LIGAND FREE ENERGY PREDICTED BY IDOCK:   -0.24 KCAL/MOL
REMARK 927      BINDING AFFINITY PREDICTED BY RF-SCORE:    0.00 PKD
ROOT
HETATM    1  C   UNL     1     -12.002  11.505  70.782  1.00  0.00    -0.317 C  
HETATM    2  C   UNL     1     -12.486  12.928  70.825  1.00  0.00    -0.370 A  
HETATM    3  C   UNL     1     -13.462  13.354  71.750  1.00  0.00    -0.370 A  
HETATM    4 CL   UNL     1     -14.356  12.237  72.723  1.00  0.00     0.868 Cl 
HETATM    5  C   UNL     1     -13.787  14.707  71.891  1.00  0.00    -0.544 A  
HETATM    6  C   UNL     1     -13.128  15.662  71.133  1.00  0.00    -0.523 A  
HETATM    7  C   UNL     1     -12.229  15.246  70.157  1.00  0.00    -0.402 A  
HETATM    8  C   UNL     1     -11.978  13.881  69.919  1.00  0.00    -0.341 A  
ENDROOT
BRANCH   8   9
HETATM    9  N   UNL     1     -11.259  13.475  68.751  1.00  0.00    -0.260 NA 
HETATM   10  H   UNL     1     -11.344  12.504  68.452  1.00  0.00     0.000 HD 
BRANCH   9  11
HETATM   11  C   UNL     1     -10.432  14.340  67.978  1.00  0.00    -0.235 A  
HETATM   12  C   UNL     1     -11.009  15.407  67.262  1.00  0.00    -0.317 A  
HETATM   13  C   UNL     1     -10.226  16.390  66.656  1.00  0.00    -0.296 A  
HETATM   14  C   UNL     1      -8.839  16.307  66.726  1.00  0.00    -0.263 A  
HETATM   15  C   UNL     1      -8.246  15.194  67.316  1.00  0.00    -0.234 A  
HETATM   16  C   UNL     1      -9.038  14.189  67.895  1.00  0.00    -0.189 A  
HETATM   17  C   UNL     1      -8.344  12.977  68.380  1.00  0.00    -0.118 C  
HETATM   18  O   UNL     1      -7.265  12.999  68.943  1.00  0.00    -0.103 OA 
HETATM   19  O   UNL     1      -9.007  11.843  68.069  1.00  0.00    -0.171 OA 
ENDBRANCH   9  11
ENDBRANCH   8   9
TORSDOF 2
ENDMDL
MODEL      225
REMARK 921   NORMALIZED FREE ENERGY PREDICTED BY IDOCK:   -3.38 KCAL/MOL
REMARK 922        TOTAL FREE ENERGY PREDICTED BY IDOCK:   -4.39 KCAL/MOL
REMARK 923 INTER-LIGAND FREE ENERGY PREDICTED BY IDOCK:   -3.96 KCAL/MOL
REMARK 924 INTRA-LIGAND FREE ENERGY PREDICTED BY IDOCK:   -0.43 KCAL/MOL
REMARK 927      BINDING AFFINITY PREDICTED BY RF-SCORE:    0.00 PKD
ROOT
HETATM    1  C   UNL     1     -12.117  11.659  70.399  1.00  0.00    -0.462 C  
HETATM    2  C   UNL     1     -11.655  12.839  69.588  1.00  0.00    -0.322 A  
HETATM    3  C   UNL     1     -12.138  14.142  69.829  1.00  0.00    -0.354 A  
HETATM    4 CL   UNL     1     -13.473  14.446  70.888  1.00  0.00    -0.316 Cl 
HETATM    5  C   UNL     1     -11.586  15.252  69.183  1.00  0.00    -0.349 A  
HETATM    6  C   UNL     1     -10.526  15.089  68.306  1.00  0.00    -0.237 A  
HETATM    7  C   UNL     1     -10.101  13.802  67.994  1.00  0.00    -0.245 A  
HETATM    8  C   UNL     1     -10.724  12.665  68.545  1.00  0.00    -0.248 A  
ENDROOT
BRANCH   8   9
HETATM    9  N   UNL     1     -10.446  11.366  68.014  1.00  0.00    -0.182 NA 
HETATM   10  H   UNL     1     -11.096  10.982  67.328  1.00  0.00     0.000 HD 
BRANCH   9  11
HETATM   11  C   UNL     1      -9.322  10.574  68.383  1.00  0.00    -0.158 A  
HETATM   12  C   UNL     1      -8.191  11.185  68.958  1.00  0.00    -0.066 A  
HETATM   13  C   UNL     1      -7.154  10.434  69.512  1.00  0.00    -0.113 A  
HETATM   14  C   UNL     1      -7.213   9.045  69.472  1.00  0.00    -0.060 A  
HETATM   15  C   UNL     1      -8.255   8.419  68.795  1.00  0.00    -0.119 A  
HETATM   16  C   UNL     1      -9.280   9.181  68.209  1.00  0.00    -0.135 A  
HETATM   17  C   UNL     1     -10.279   8.456  67.393  1.00  0.00    -0.260 C  
HETATM   18  O   UNL     1     -10.723   7.363  67.688  1.00  0.00    -0.237 OA 
HETATM   19  O   UNL     1     -10.589   9.111  66.254  1.00  0.00    -0.101 OA 
ENDBRANCH   9  11
ENDBRANCH   8   9
TORSDOF 2
ENDMDL
MODEL      226
REMARK 921   NORMALIZED FREE ENERGY PREDICTED BY IDOCK:   -3.37 KCAL/MOL
REMARK 922        TOTAL FREE ENERGY PREDICTED BY IDOCK:   -4.38 KCAL/MOL
REMARK 923 INTER-LIGAND FREE ENERGY PREDICTED BY IDOCK:   -4.06 KCAL/MOL
REMARK 924 INTRA-LIGAND FREE ENERGY PREDICTED BY IDOCK:   -0.33 KCAL/MOL
REMARK 927      BINDING AFFINITY PREDICTED BY RF-SCORE:    0.00 PKD
ROOT
HETATM    1  C   UNL     1     -11.648  14.074  65.317  1.00  0.00    -0.339 C  
HETATM    2  C   UNL     1     -10.836  12.809  65.262  1.00  0.00    -0.319 A  
HETATM    3  C   UNL     1     -11.183  11.738  64.413  1.00  0.00    -0.316 A  
HETATM    4 CL   UNL     1     -12.692  11.687  63.568  1.00  0.00    -0.455 Cl 
HETATM    5  C   UNL     1     -10.337  10.637  64.251  1.00  0.00    -0.325 A  
HETATM    6  C   UNL     1      -9.118  10.594  64.908  1.00  0.00    -0.231 A  
HETATM    7  C   UNL     1      -8.806  11.602  65.815  1.00  0.00    -0.004 A  
HETATM    8  C   UNL     1      -9.700  12.658  66.082  1.00  0.00    -0.251 A  
ENDROOT
BRANCH   8   9
HETATM    9  N   UNL     1      -9.474  13.527  67.196  1.00  0.00    -0.235 NA 
HETATM   10  H   UNL     1      -9.969  13.326  68.065  1.00  0.00     0.000 HD 
BRANCH   9  11
HETATM   11  C   UNL     1      -8.603  14.653  67.170  1.00  0.00    -0.223 A  
HETATM   12  C   UNL     1      -8.791  15.664  66.208  1.00  0.00    -0.364 A  
HETATM   13  C   UNL     1      -8.093  16.870  66.266  1.00  0.00    -0.351 A  
HETATM   14  C   UNL     1      -7.160  17.078  67.277  1.00  0.00    -0.193 A  
HETATM   15  C   UNL     1      -6.863  16.045  68.161  1.00  0.00    -0.130 A  
HETATM   16  C   UNL     1      -7.544  14.819  68.078  1.00  0.00    -0.130 A  
HETATM   17  C   UNL     1      -7.081  13.727  68.960  1.00  0.00    -0.088 C  
HETATM   18  O   UNL     1      -6.720  13.898  70.110  1.00  0.00    -0.016 OA 
HETATM   19  O   UNL     1      -7.037  12.535  68.328  1.00  0.00    -0.087 OA 
ENDBRANCH   9  11
ENDBRANCH   8   9
TORSDOF 2
ENDMDL
MODEL      227
REMARK 921   NORMALIZED FREE ENERGY PREDICTED BY IDOCK:   -3.36 KCAL/MOL
REMARK 922        TOTAL FREE ENERGY PREDICTED BY IDOCK:   -4.38 KCAL/MOL
REMARK 923 INTER-LIGAND FREE ENERGY PREDICTED BY IDOCK:   -3.79 KCAL/MOL
REMARK 924 INTRA-LIGAND FREE ENERGY PREDICTED BY IDOCK:   -0.58 KCAL/MOL
REMARK 927      BINDING AFFINITY PREDICTED BY RF-SCORE:    0.00 PKD
ROOT
HETATM    1  C   UNL     1     -11.079   6.025  69.664  1.00  0.00    -0.474 C  
HETATM    2  C   UNL     1     -11.278   7.443  70.127  1.00  0.00    -0.239 A  
HETATM    3  C   UNL     1     -12.104   7.758  71.225  1.00  0.00    -0.306 A  
HETATM    4 CL   UNL     1     -13.145   6.586  71.959  1.00  0.00    -0.145 Cl 
HETATM    5  C   UNL     1     -12.156   9.054  71.747  1.00  0.00    -0.438 A  
HETATM    6  C   UNL     1     -11.366  10.054  71.202  1.00  0.00    -0.397 A  
HETATM    7  C   UNL     1     -10.615   9.776  70.065  1.00  0.00    -0.320 A  
HETATM    8  C   UNL     1     -10.643   8.507  69.454  1.00  0.00    -0.195 A  
ENDROOT
BRANCH   8   9
HETATM    9  N   UNL     1     -10.077   8.322  68.154  1.00  0.00    -0.192 NA 
HETATM   10  H   UNL     1     -10.715   8.170  67.373  1.00  0.00     0.000 HD 
BRANCH   9  11
HETATM   11  C   UNL     1      -8.680   8.337  67.879  1.00  0.00    -0.135 A  
HETATM   12  C   UNL     1      -7.762   7.985  68.888  1.00  0.00    -0.104 A  
HETATM   13  C   UNL     1      -6.408   7.795  68.612  1.00  0.00    -0.044 A  
HETATM   14  C   UNL     1      -5.934   7.988  67.318  1.00  0.00    -0.050 A  
HETATM   15  C   UNL     1      -6.796   8.462  66.334  1.00  0.00    -0.070 A  
HETATM   16  C   UNL     1      -8.153   8.684  66.624  1.00  0.00    -0.100 A  
HETATM   17  C   UNL     1      -8.975   9.314  65.568  1.00  0.00    -0.205 C  
HETATM   18  O   UNL     1      -8.865   9.055  64.385  1.00  0.00    -0.170 OA 
HETATM   19  O   UNL     1      -9.811  10.255  66.057  1.00  0.00    -0.206 OA 
ENDBRANCH   9  11
ENDBRANCH   8   9
TORSDOF 2
ENDMDL
MODEL      228
REMARK 921   NORMALIZED FREE ENERGY PREDICTED BY IDOCK:   -3.34 KCAL/MOL
REMARK 922        TOTAL FREE ENERGY PREDICTED BY IDOCK:   -4.35 KCAL/MOL
REMARK 923 INTER-LIGAND FREE ENERGY PREDICTED BY IDOCK:   -4.40 KCAL/MOL
REMARK 924 INTRA-LIGAND FREE ENERGY PREDICTED BY IDOCK:    0.06 KCAL/MOL
REMARK 927      BINDING AFFINITY PREDICTED BY RF-SCORE:    0.00 PKD
ROOT
HETATM    1  C   UNL     1     -10.100   9.863  65.746  1.00  0.00    -0.317 C  
HETATM    2  C   UNL     1     -10.656  10.700  66.865  1.00  0.00    -0.311 A  
HETATM    3  C   UNL     1     -10.882  12.084  66.718  1.00  0.00    -0.266 A  
HETATM    4 CL   UNL     1     -10.305  12.969  65.347  1.00  0.00    -0.303 Cl 
HETATM    5  C   UNL     1     -11.547  12.820  67.703  1.00  0.00    -0.412 A  
HETATM    6  C   UNL     1     -12.023  12.187  68.841  1.00  0.00    -0.296 A  
HETATM    7  C   UNL     1     -11.729  10.842  69.037  1.00  0.00    -0.391 A  
HETATM    8  C   UNL     1     -10.957  10.113  68.110  1.00  0.00    -0.259 A  
ENDROOT
BRANCH   8   9
HETATM    9  N   UNL     1     -10.453   8.819  68.456  1.00  0.00    -0.286 NA 
HETATM   10  H   UNL     1     -10.560   8.068  67.775  1.00  0.00     0.000 HD 
BRANCH   9  11
HETATM   11  C   UNL     1      -9.811   8.513  69.690  1.00  0.00    -0.183 A  
HETATM   12  C   UNL     1     -10.114   9.263  70.844  1.00  0.00    -0.373 A  
HETATM   13  C   UNL     1      -9.663   8.878  72.106  1.00  0.00    -0.232 A  
HETATM   14  C   UNL     1      -8.867   7.745  72.238  1.00  0.00    -0.180 A  
HETATM   15  C   UNL     1      -8.447   7.063  71.100  1.00  0.00    -0.119 A  
HETATM   16  C   UNL     1      -8.876   7.474  69.826  1.00  0.00    -0.141 A  
HETATM   17  C   UNL     1      -8.283   6.787  68.659  1.00  0.00    -0.120 C  
HETATM   18  O   UNL     1      -8.050   5.593  68.628  1.00  0.00    -0.099 OA 
HETATM   19  O   UNL     1      -7.967   7.641  67.662  1.00  0.00    -0.117 OA 
ENDBRANCH   9  11
ENDBRANCH   8   9
TORSDOF 2
ENDMDL
MODEL      229
REMARK 921   NORMALIZED FREE ENERGY PREDICTED BY IDOCK:   -3.33 KCAL/MOL
REMARK 922        TOTAL FREE ENERGY PREDICTED BY IDOCK:   -4.34 KCAL/MOL
REMARK 923 INTER-LIGAND FREE ENERGY PREDICTED BY IDOCK:   -4.10 KCAL/MOL
REMARK 924 INTRA-LIGAND FREE ENERGY PREDICTED BY IDOCK:   -0.25 KCAL/MOL
REMARK 927      BINDING AFFINITY PREDICTED BY RF-SCORE:    0.00 PKD
ROOT
HETATM    1  C   UNL     1      -7.886   5.249  69.402  1.00  0.00    -0.088 C  
HETATM    2  C   UNL     1      -8.769   5.201  68.185  1.00  0.00    -0.103 A  
HETATM    3  C   UNL     1      -8.613   4.215  67.190  1.00  0.00    -0.104 A  
HETATM    4 CL   UNL     1      -7.250   3.149  67.158  1.00  0.00    -0.058 Cl 
HETATM    5  C   UNL     1      -9.537   4.081  66.149  1.00  0.00    -0.205 A  
HETATM    6  C   UNL     1     -10.647   4.909  66.094  1.00  0.00    -0.322 A  
HETATM    7  C   UNL     1     -10.764   5.942  67.018  1.00  0.00    -0.396 A  
HETATM    8  C   UNL     1      -9.781   6.166  68.003  1.00  0.00    -0.120 A  
ENDROOT
BRANCH   8   9
HETATM    9  N   UNL     1      -9.790   7.377  68.765  1.00  0.00    -0.160 NA 
HETATM   10  H   UNL     1      -9.553   7.318  69.755  1.00  0.00     0.000 HD 
BRANCH   9  11
HETATM   11  C   UNL     1     -10.111   8.657  68.231  1.00  0.00    -0.192 A  
HETATM   12  C   UNL     1      -9.809   8.953  66.887  1.00  0.00    -0.288 A  
HETATM   13  C   UNL     1     -10.277  10.112  66.269  1.00  0.00    -0.288 A  
HETATM   14  C   UNL     1     -11.035  11.024  66.998  1.00  0.00    -0.333 A  
HETATM   15  C   UNL     1     -11.235  10.817  68.359  1.00  0.00    -0.345 A  
HETATM   16  C   UNL     1     -10.733   9.665  68.986  1.00  0.00    -0.232 A  
HETATM   17  C   UNL     1     -10.868   9.581  70.456  1.00  0.00    -0.292 C  
HETATM   18  O   UNL     1     -11.852   9.961  71.064  1.00  0.00    -0.317 OA 
HETATM   19  O   UNL     1      -9.756   9.101  71.051  1.00  0.00    -0.253 OA 
ENDBRANCH   9  11
ENDBRANCH   8   9
TORSDOF 2
ENDMDL
MODEL      230
REMARK 921   NORMALIZED FREE ENERGY PREDICTED BY IDOCK:   -3.32 KCAL/MOL
REMARK 922        TOTAL FREE ENERGY PREDICTED BY IDOCK:   -4.32 KCAL/MOL
REMARK 923 INTER-LIGAND FREE ENERGY PREDICTED BY IDOCK:   -3.67 KCAL/MOL
REMARK 924 INTRA-LIGAND FREE ENERGY PREDICTED BY IDOCK:   -0.66 KCAL/MOL
REMARK 927      BINDING AFFINITY PREDICTED BY RF-SCORE:    0.00 PKD
ROOT
HETATM    1  C   UNL     1      -9.176   6.454  66.706  1.00  0.00    -0.154 C  
HETATM    2  C   UNL     1      -8.525   6.040  67.997  1.00  0.00    -0.115 A  
HETATM    3  C   UNL     1      -7.356   5.251  68.022  1.00  0.00    -0.072 A  
HETATM    4 CL   UNL     1      -6.731   4.489  66.600  1.00  0.00    -0.050 Cl 
HETATM    5  C   UNL     1      -6.670   5.008  69.216  1.00  0.00    -0.052 A  
HETATM    6  C   UNL     1      -7.119   5.567  70.402  1.00  0.00    -0.062 A  
HETATM    7  C   UNL     1      -8.317   6.273  70.404  1.00  0.00    -0.126 A  
HETATM    8  C   UNL     1      -9.084   6.427  69.232  1.00  0.00    -0.136 A  
ENDROOT
BRANCH   8   9
HETATM    9  N   UNL     1     -10.424   6.923  69.310  1.00  0.00    -0.205 NA 
HETATM   10  H   UNL     1     -11.177   6.315  68.989  1.00  0.00     0.000 HD 
BRANCH   9  11
HETATM   11  C   UNL     1     -10.773   8.211  69.806  1.00  0.00    -0.229 A  
HETATM   12  C   UNL     1     -10.099   9.353  69.331  1.00  0.00    -0.204 A  
HETATM   13  C   UNL     1     -10.536  10.642  69.637  1.00  0.00    -0.219 A  
HETATM   14  C   UNL     1     -11.644  10.816  70.459  1.00  0.00    -0.425 A  
HETATM   15  C   UNL     1     -12.247   9.708  71.046  1.00  0.00    -0.409 A  
HETATM   16  C   UNL     1     -11.784   8.413  70.761  1.00  0.00    -0.219 A  
HETATM   17  C   UNL     1     -12.384   7.297  71.523  1.00  0.00    -0.362 C  
HETATM   18  O   UNL     1     -13.565   7.236  71.809  1.00  0.00    -0.356 OA 
HETATM   19  O   UNL     1     -11.466   6.392  71.924  1.00  0.00    -0.275 OA 
ENDBRANCH   9  11
ENDBRANCH   8   9
TORSDOF 2
ENDMDL
MODEL      231
REMARK 921   NORMALIZED FREE ENERGY PREDICTED BY IDOCK:   -3.31 KCAL/MOL
REMARK 922        TOTAL FREE ENERGY PREDICTED BY IDOCK:   -4.32 KCAL/MOL
REMARK 923 INTER-LIGAND FREE ENERGY PREDICTED BY IDOCK:   -3.80 KCAL/MOL
REMARK 924 INTRA-LIGAND FREE ENERGY PREDICTED BY IDOCK:   -0.52 KCAL/MOL
REMARK 927      BINDING AFFINITY PREDICTED BY RF-SCORE:    0.00 PKD
ROOT
HETATM    1  C   UNL     1      -9.934  12.314  65.474  1.00  0.00    -0.264 C  
HETATM    2  C   UNL     1     -10.675  13.489  64.898  1.00  0.00    -0.391 A  
HETATM    3  C   UNL     1     -11.808  13.324  64.074  1.00  0.00    -0.455 A  
HETATM    4 CL   UNL     1     -12.277  11.777  63.457  1.00  0.00    -0.571 Cl 
HETATM    5  C   UNL     1     -12.583  14.417  63.677  1.00  0.00     0.489 A  
HETATM    6  C   UNL     1     -12.262  15.692  64.114  1.00  0.00     0.048 A  
HETATM    7  C   UNL     1     -11.098  15.878  64.853  1.00  0.00    -0.400 A  
HETATM    8  C   UNL     1     -10.240  14.804  65.162  1.00  0.00    -0.377 A  
ENDROOT
BRANCH   8   9
HETATM    9  N   UNL     1      -8.934  15.056  65.689  1.00  0.00    -0.209 NA 
HETATM   10  H   UNL     1      -8.150  15.059  65.037  1.00  0.00     0.000 HD 
BRANCH   9  11
HETATM   11  C   UNL     1      -8.659  15.302  67.064  1.00  0.00    -0.227 A  
HETATM   12  C   UNL     1      -9.370  14.602  68.058  1.00  0.00    -0.198 A  
HETATM   13  C   UNL     1      -9.002  14.664  69.402  1.00  0.00     0.128 A  
HETATM   14  C   UNL     1      -7.927  15.459  69.786  1.00  0.00    -0.041 A  
HETATM   15  C   UNL     1      -7.292  16.260  68.842  1.00  0.00    -0.198 A  
HETATM   16  C   UNL     1      -7.687  16.221  67.495  1.00  0.00    -0.169 A  
HETATM   17  C   UNL     1      -7.059  17.195  66.577  1.00  0.00    -0.268 C  
HETATM   18  O   UNL     1      -5.886  17.511  66.631  1.00  0.00    -0.154 OA 
HETATM   19  O   UNL     1      -7.946  17.743  65.720  1.00  0.00    -0.544 OA 
ENDBRANCH   9  11
ENDBRANCH   8   9
TORSDOF 2
ENDMDL
MODEL      232
REMARK 921   NORMALIZED FREE ENERGY PREDICTED BY IDOCK:   -3.30 KCAL/MOL
REMARK 922        TOTAL FREE ENERGY PREDICTED BY IDOCK:   -4.31 KCAL/MOL
REMARK 923 INTER-LIGAND FREE ENERGY PREDICTED BY IDOCK:   -4.07 KCAL/MOL
REMARK 924 INTRA-LIGAND FREE ENERGY PREDICTED BY IDOCK:   -0.23 KCAL/MOL
REMARK 927      BINDING AFFINITY PREDICTED BY RF-SCORE:    0.00 PKD
ROOT
HETATM    1  C   UNL     1     -10.803   7.163  72.423  1.00  0.00    -0.280 C  
HETATM    2  C   UNL     1     -10.540   6.657  71.031  1.00  0.00    -0.263 A  
HETATM    3  C   UNL     1     -10.240   5.303  70.776  1.00  0.00    -0.246 A  
HETATM    4 CL   UNL     1      -9.900   4.181  72.049  1.00  0.00    -0.231 Cl 
HETATM    5  C   UNL     1     -10.158   4.812  69.470  1.00  0.00    -0.260 A  
HETATM    6  C   UNL     1     -10.398   5.652  68.394  1.00  0.00    -0.258 A  
HETATM    7  C   UNL     1     -10.608   7.006  68.631  1.00  0.00    -0.238 A  
HETATM    8  C   UNL     1     -10.576   7.541  69.934  1.00  0.00    -0.237 A  
ENDROOT
BRANCH   8   9
HETATM    9  N   UNL     1     -10.532   8.958  70.128  1.00  0.00    -0.207 NA 
HETATM   10  H   UNL     1     -10.781   9.321  71.048  1.00  0.00     0.000 HD 
BRANCH   9  11
HETATM   11  C   UNL     1     -10.166   9.894  69.120  1.00  0.00    -0.205 A  
HETATM   12  C   UNL     1     -11.084  10.229  68.105  1.00  0.00    -0.324 A  
HETATM   13  C   UNL     1     -10.845  11.278  67.218  1.00  0.00    -0.317 A  
HETATM   14  C   UNL     1      -9.658  11.998  67.306  1.00  0.00    -0.185 A  
HETATM   15  C   UNL     1      -8.680  11.603  68.213  1.00  0.00    -0.163 A  
HETATM   16  C   UNL     1      -8.911  10.524  69.083  1.00  0.00    -0.161 A  
HETATM   17  C   UNL     1      -7.779  10.078  69.923  1.00  0.00    -0.175 C  
HETATM   18  O   UNL     1      -6.988  10.841  70.446  1.00  0.00    -0.252 OA 
HETATM   19  O   UNL     1      -7.681   8.733  69.988  1.00  0.00    -0.073 OA 
ENDBRANCH   9  11
ENDBRANCH   8   9
TORSDOF 2
ENDMDL
MODEL      233
REMARK 921   NORMALIZED FREE ENERGY PREDICTED BY IDOCK:   -3.22 KCAL/MOL
REMARK 922        TOTAL FREE ENERGY PREDICTED BY IDOCK:   -4.21 KCAL/MOL
REMARK 923 INTER-LIGAND FREE ENERGY PREDICTED BY IDOCK:   -3.53 KCAL/MOL
REMARK 924 INTRA-LIGAND FREE ENERGY PREDICTED BY IDOCK:   -0.68 KCAL/MOL
REMARK 927      BINDING AFFINITY PREDICTED BY RF-SCORE:    0.00 PKD
ROOT
HETATM    1  C   UNL     1      -8.962   8.848  64.536  1.00  0.00     0.001 C  
HETATM    2  C   UNL     1      -9.776   9.951  65.156  1.00  0.00    -0.376 A  
HETATM    3  C   UNL     1     -10.058  11.147  64.464  1.00  0.00    -0.308 A  
HETATM    4 CL   UNL     1      -9.288  11.547  62.967  1.00  0.00    -0.337 Cl 
HETATM    5  C   UNL     1     -10.946  12.094  64.984  1.00  0.00    -0.355 A  
HETATM    6  C   UNL     1     -11.590  11.856  66.188  1.00  0.00    -0.299 A  
HETATM    7  C   UNL     1     -11.252  10.723  66.920  1.00  0.00    -0.109 A  
HETATM    8  C   UNL     1     -10.271   9.818  66.469  1.00  0.00    -0.219 A  
ENDROOT
BRANCH   8   9
HETATM    9  N   UNL     1      -9.759   8.814  67.351  1.00  0.00    -0.164 NA 
HETATM   10  H   UNL     1     -10.136   7.870  67.268  1.00  0.00     0.000 HD 
BRANCH   9  11
HETATM   11  C   UNL     1      -8.760   9.048  68.337  1.00  0.00    -0.130 A  
HETATM   12  C   UNL     1      -7.414   9.203  67.950  1.00  0.00    -0.084 A  
HETATM   13  C   UNL     1      -6.436   9.626  68.851  1.00  0.00    -0.046 A  
HETATM   14  C   UNL     1      -6.781   9.874  70.175  1.00  0.00    -0.112 A  
HETATM   15  C   UNL     1      -8.075   9.604  70.611  1.00  0.00    -0.068 A  
HETATM   16  C   UNL     1      -9.048   9.145  69.708  1.00  0.00    -0.173 A  
HETATM   17  C   UNL     1     -10.359   8.753  70.269  1.00  0.00    -0.203 C  
HETATM   18  O   UNL     1     -10.913   9.354  71.170  1.00  0.00    -0.302 OA 
HETATM   19  O   UNL     1     -10.837   7.617  69.718  1.00  0.00    -0.249 OA 
ENDBRANCH   9  11
ENDBRANCH   8   9
TORSDOF 2
ENDMDL
MODEL      234
REMARK 921   NORMALIZED FREE ENERGY PREDICTED BY IDOCK:   -3.22 KCAL/MOL
REMARK 922        TOTAL FREE ENERGY PREDICTED BY IDOCK:   -4.21 KCAL/MOL
REMARK 923 INTER-LIGAND FREE ENERGY PREDICTED BY IDOCK:   -4.03 KCAL/MOL
REMARK 924 INTRA-LIGAND FREE ENERGY PREDICTED BY IDOCK:   -0.18 KCAL/MOL
REMARK 927      BINDING AFFINITY PREDICTED BY RF-SCORE:    0.00 PKD
ROOT
HETATM    1  C   UNL     1     -12.411  11.042  69.758  1.00  0.00    -0.331 C  
HETATM    2  C   UNL     1     -11.444  10.068  70.374  1.00  0.00    -0.389 A  
HETATM    3  C   UNL     1     -11.797   9.269  71.482  1.00  0.00    -0.374 A  
HETATM    4 CL   UNL     1     -13.259   9.525  72.372  1.00  0.00    -0.494 Cl 
HETATM    5  C   UNL     1     -10.952   8.256  71.944  1.00  0.00    -0.354 A  
HETATM    6  C   UNL     1      -9.754   8.000  71.297  1.00  0.00    -0.199 A  
HETATM    7  C   UNL     1      -9.356   8.838  70.260  1.00  0.00    -0.193 A  
HETATM    8  C   UNL     1     -10.139   9.938  69.858  1.00  0.00    -0.257 A  
ENDROOT
BRANCH   8   9
HETATM    9  N   UNL     1      -9.593  10.926  68.979  1.00  0.00    -0.318 NA 
HETATM   10  H   UNL     1      -9.909  11.889  69.090  1.00  0.00     0.000 HD 
BRANCH   9  11
HETATM   11  C   UNL     1      -8.637  10.651  67.960  1.00  0.00    -0.122 A  
HETATM   12  C   UNL     1      -9.032   9.970  66.792  1.00  0.00    -0.151 A  
HETATM   13  C   UNL     1      -8.185   9.853  65.690  1.00  0.00    -0.138 A  
HETATM   14  C   UNL     1      -6.903  10.390  65.747  1.00  0.00    -0.132 A  
HETATM   15  C   UNL     1      -6.445  10.953  66.935  1.00  0.00    -0.097 A  
HETATM   16  C   UNL     1      -7.290  11.038  68.054  1.00  0.00    -0.088 A  
HETATM   17  C   UNL     1      -6.693  11.523  69.316  1.00  0.00    -0.118 C  
HETATM   18  O   UNL     1      -5.876  12.423  69.373  1.00  0.00    -0.078 OA 
HETATM   19  O   UNL     1      -7.103  10.811  70.388  1.00  0.00    -0.202 OA 
ENDBRANCH   9  11
ENDBRANCH   8   9
TORSDOF 2
ENDMDL
MODEL      235
REMARK 921   NORMALIZED FREE ENERGY PREDICTED BY IDOCK:   -3.22 KCAL/MOL
REMARK 922        TOTAL FREE ENERGY PREDICTED BY IDOCK:   -4.21 KCAL/MOL
REMARK 923 INTER-LIGAND FREE ENERGY PREDICTED BY IDOCK:   -3.55 KCAL/MOL
REMARK 924 INTRA-LIGAND FREE ENERGY PREDICTED BY IDOCK:   -0.66 KCAL/MOL
REMARK 927      BINDING AFFINITY PREDICTED BY RF-SCORE:    0.00 PKD
ROOT
HETATM    1  C   UNL     1      -8.509   7.325  70.318  1.00  0.00    -0.137 C  
HETATM    2  C   UNL     1      -8.611   7.140  68.829  1.00  0.00    -0.125 A  
HETATM    3  C   UNL     1      -7.922   6.108  68.158  1.00  0.00    -0.107 A  
HETATM    4 CL   UNL     1      -6.717   5.146  68.944  1.00  0.00    -0.048 Cl 
HETATM    5  C   UNL     1      -8.149   5.844  66.804  1.00  0.00    -0.102 A  
HETATM    6  C   UNL     1      -9.085   6.584  66.099  1.00  0.00    -0.146 A  
HETATM    7  C   UNL     1      -9.705   7.659  66.726  1.00  0.00    -0.290 A  
HETATM    8  C   UNL     1      -9.400   8.015  68.055  1.00  0.00    -0.138 A  
ENDROOT
BRANCH   8   9
HETATM    9  N   UNL     1      -9.849   9.265  68.586  1.00  0.00    -0.158 NA 
HETATM   10  H   UNL     1     -10.648   9.255  69.220  1.00  0.00     0.000 HD 
BRANCH   9  11
HETATM   11  C   UNL     1      -9.253  10.523  68.285  1.00  0.00    -0.152 A  
HETATM   12  C   UNL     1      -7.956  10.815  68.750  1.00  0.00    -0.136 A  
HETATM   13  C   UNL     1      -7.260  11.944  68.318  1.00  0.00    -0.089 A  
HETATM   14  C   UNL     1      -7.865  12.829  67.432  1.00  0.00    -0.172 A  
HETATM   15  C   UNL     1      -9.191  12.632  67.061  1.00  0.00    -0.212 A  
HETATM   16  C   UNL     1      -9.900  11.511  67.524  1.00  0.00    -0.203 A  
HETATM   17  C   UNL     1     -11.340  11.440  67.198  1.00  0.00    -0.255 C  
HETATM   18  O   UNL     1     -11.805  11.783  66.127  1.00  0.00    -0.477 OA 
HETATM   19  O   UNL     1     -12.086  11.019  68.241  1.00  0.00    -0.604 OA 
ENDBRANCH   9  11
ENDBRANCH   8   9
TORSDOF 2
ENDMDL
MODEL      236
REMARK 921   NORMALIZED FREE ENERGY PREDICTED BY IDOCK:   -3.21 KCAL/MOL
REMARK 922        TOTAL FREE ENERGY PREDICTED BY IDOCK:   -4.20 KCAL/MOL
REMARK 923 INTER-LIGAND FREE ENERGY PREDICTED BY IDOCK:   -4.41 KCAL/MOL
REMARK 924 INTRA-LIGAND FREE ENERGY PREDICTED BY IDOCK:    0.20 KCAL/MOL
REMARK 927      BINDING AFFINITY PREDICTED BY RF-SCORE:    0.00 PKD
ROOT
HETATM    1  C   UNL     1      -8.728  11.158  68.864  1.00  0.00    -0.086 C  
HETATM    2  C   UNL     1      -9.141   9.932  69.632  1.00  0.00    -0.245 A  
HETATM    3  C   UNL     1      -8.283   9.315  70.566  1.00  0.00    -0.191 A  
HETATM    4 CL   UNL     1      -6.616   9.756  70.714  1.00  0.00    -0.107 Cl 
HETATM    5  C   UNL     1      -8.732   8.279  71.390  1.00  0.00    -0.197 A  
HETATM    6  C   UNL     1     -10.049   7.855  71.318  1.00  0.00    -0.210 A  
HETATM    7  C   UNL     1     -10.879   8.395  70.341  1.00  0.00    -0.246 A  
HETATM    8  C   UNL     1     -10.410   9.356  69.424  1.00  0.00    -0.212 A  
ENDROOT
BRANCH   8   9
HETATM    9  N   UNL     1     -11.195   9.698  68.278  1.00  0.00    -0.513 NA 
HETATM   10  H   UNL     1     -12.202   9.801  68.403  1.00  0.00     0.000 HD 
BRANCH   9  11
HETATM   11  C   UNL     1     -10.662   9.905  66.974  1.00  0.00    -0.167 A  
HETATM   12  C   UNL     1     -10.831  11.149  66.335  1.00  0.00    -0.284 A  
HETATM   13  C   UNL     1     -10.163  11.461  65.151  1.00  0.00    -0.328 A  
HETATM   14  C   UNL     1      -9.333  10.516  64.559  1.00  0.00    -0.299 A  
HETATM   15  C   UNL     1      -9.251   9.236  65.100  1.00  0.00    -0.264 A  
HETATM   16  C   UNL     1      -9.952   8.915  66.274  1.00  0.00    -0.337 A  
HETATM   17  C   UNL     1      -9.925   7.503  66.713  1.00  0.00    -0.237 C  
HETATM   18  O   UNL     1      -8.939   6.794  66.638  1.00  0.00    -0.133 OA 
HETATM   19  O   UNL     1     -11.131   7.072  67.139  1.00  0.00    -0.350 OA 
ENDBRANCH   9  11
ENDBRANCH   8   9
TORSDOF 2
ENDMDL
MODEL      237
REMARK 921   NORMALIZED FREE ENERGY PREDICTED BY IDOCK:   -3.21 KCAL/MOL
REMARK 922        TOTAL FREE ENERGY PREDICTED BY IDOCK:   -4.20 KCAL/MOL
REMARK 923 INTER-LIGAND FREE ENERGY PREDICTED BY IDOCK:   -3.66 KCAL/MOL
REMARK 924 INTRA-LIGAND FREE ENERGY PREDICTED BY IDOCK:   -0.54 KCAL/MOL
REMARK 927      BINDING AFFINITY PREDICTED BY RF-SCORE:    0.00 PKD
ROOT
HETATM    1  C   UNL     1      -9.848   5.503  72.390  1.00  0.00    -0.189 C  
HETATM    2  C   UNL     1      -8.922   6.683  72.269  1.00  0.00    -0.134 A  
HETATM    3  C   UNL     1      -7.792   6.829  73.099  1.00  0.00    -0.096 A  
HETATM    4 CL   UNL     1      -7.523   5.815  74.475  1.00  0.00    -0.087 Cl 
HETATM    5  C   UNL     1      -6.852   7.840  72.873  1.00  0.00    -0.083 A  
HETATM    6  C   UNL     1      -7.005   8.705  71.802  1.00  0.00    -0.096 A  
HETATM    7  C   UNL     1      -8.160   8.626  71.031  1.00  0.00    -0.164 A  
HETATM    8  C   UNL     1      -9.175   7.691  71.318  1.00  0.00    -0.145 A  
ENDROOT
BRANCH   8   9
HETATM    9  N   UNL     1     -10.453   7.802  70.683  1.00  0.00    -0.211 NA 
HETATM   10  H   UNL     1     -11.182   7.146  70.963  1.00  0.00     0.000 HD 
BRANCH   9  11
HETATM   11  C   UNL     1     -10.772   8.767  69.686  1.00  0.00    -0.208 A  
HETATM   12  C   UNL     1     -11.229  10.044  70.066  1.00  0.00    -0.345 A  
HETATM   13  C   UNL     1     -11.365  11.078  69.140  1.00  0.00    -0.348 A  
HETATM   14  C   UNL     1     -11.075  10.846  67.799  1.00  0.00    -0.371 A  
HETATM   15  C   UNL     1     -10.747   9.560  67.380  1.00  0.00    -0.297 A  
HETATM   16  C   UNL     1     -10.645   8.513  68.310  1.00  0.00    -0.173 A  
HETATM   17  C   UNL     1     -10.426   7.152  67.775  1.00  0.00    -0.223 C  
HETATM   18  O   UNL     1      -9.699   6.909  66.830  1.00  0.00    -0.155 OA 
HETATM   19  O   UNL     1     -11.174   6.222  68.406  1.00  0.00    -0.335 OA 
ENDBRANCH   9  11
ENDBRANCH   8   9
TORSDOF 2
ENDMDL
MODEL      238
REMARK 921   NORMALIZED FREE ENERGY PREDICTED BY IDOCK:   -3.20 KCAL/MOL
REMARK 922        TOTAL FREE ENERGY PREDICTED BY IDOCK:   -4.19 KCAL/MOL
REMARK 923 INTER-LIGAND FREE ENERGY PREDICTED BY IDOCK:   -3.57 KCAL/MOL
REMARK 924 INTRA-LIGAND FREE ENERGY PREDICTED BY IDOCK:   -0.63 KCAL/MOL
REMARK 927      BINDING AFFINITY PREDICTED BY RF-SCORE:    0.00 PKD
ROOT
HETATM    1  C   UNL     1     -11.830  10.996  69.512  1.00  0.00    -0.404 C  
HETATM    2  C   UNL     1     -10.429  11.126  68.980  1.00  0.00    -0.233 A  
HETATM    3  C   UNL     1     -10.032  12.225  68.191  1.00  0.00    -0.210 A  
HETATM    4 CL   UNL     1     -11.172  13.366  67.563  1.00  0.00    -0.295 Cl 
HETATM    5  C   UNL     1      -8.693  12.419  67.838  1.00  0.00    -0.175 A  
HETATM    6  C   UNL     1      -7.722  11.538  68.286  1.00  0.00    -0.123 A  
HETATM    7  C   UNL     1      -8.113  10.404  68.990  1.00  0.00    -0.138 A  
HETATM    8  C   UNL     1      -9.470  10.130  69.252  1.00  0.00    -0.218 A  
ENDROOT
BRANCH   8   9
HETATM    9  N   UNL     1      -9.862   8.844  69.740  1.00  0.00    -0.176 NA 
HETATM   10  H   UNL     1     -10.130   8.768  70.722  1.00  0.00     0.000 HD 
BRANCH   9  11
HETATM   11  C   UNL     1      -9.901   7.663  68.946  1.00  0.00    -0.164 A  
HETATM   12  C   UNL     1     -10.649   7.645  67.752  1.00  0.00    -0.265 A  
HETATM   13  C   UNL     1     -10.560   6.586  66.848  1.00  0.00    -0.376 A  
HETATM   14  C   UNL     1      -9.740   5.500  67.137  1.00  0.00    -0.155 A  
HETATM   15  C   UNL     1      -9.093   5.435  68.368  1.00  0.00    -0.119 A  
HETATM   16  C   UNL     1      -9.213   6.488  69.290  1.00  0.00    -0.139 A  
HETATM   17  C   UNL     1      -8.609   6.288  70.625  1.00  0.00    -0.139 C  
HETATM   18  O   UNL     1      -7.545   5.728  70.806  1.00  0.00    -0.087 OA 
HETATM   19  O   UNL     1      -9.402   6.735  71.622  1.00  0.00    -0.152 OA 
ENDBRANCH   9  11
ENDBRANCH   8   9
TORSDOF 2
ENDMDL
MODEL      239
REMARK 921   NORMALIZED FREE ENERGY PREDICTED BY IDOCK:   -3.18 KCAL/MOL
REMARK 922        TOTAL FREE ENERGY PREDICTED BY IDOCK:   -4.18 KCAL/MOL
REMARK 923 INTER-LIGAND FREE ENERGY PREDICTED BY IDOCK:   -4.00 KCAL/MOL
REMARK 924 INTRA-LIGAND FREE ENERGY PREDICTED BY IDOCK:   -0.18 KCAL/MOL
REMARK 927      BINDING AFFINITY PREDICTED BY RF-SCORE:    0.00 PKD
ROOT
HETATM    1  C   UNL     1     -12.101  11.861  66.853  1.00  0.00     0.248 C  
HETATM    2  C   UNL     1     -11.769  13.091  66.053  1.00  0.00    -0.442 A  
HETATM    3  C   UNL     1     -12.090  13.197  64.685  1.00  0.00    -0.408 A  
HETATM    4 CL   UNL     1     -12.651  11.844  63.764  1.00  0.00    -0.558 Cl 
HETATM    5  C   UNL     1     -11.924  14.400  63.992  1.00  0.00    -0.288 A  
HETATM    6  C   UNL     1     -11.462  15.526  64.654  1.00  0.00    -0.326 A  
HETATM    7  C   UNL     1     -11.059  15.410  65.980  1.00  0.00    -0.233 A  
HETATM    8  C   UNL     1     -11.107  14.177  66.660  1.00  0.00    -0.312 A  
ENDROOT
BRANCH   8   9
HETATM    9  N   UNL     1     -10.450  14.027  67.923  1.00  0.00    -0.238 NA 
HETATM   10  H   UNL     1     -10.942  13.518  68.658  1.00  0.00     0.000 HD 
BRANCH   9  11
HETATM   11  C   UNL     1      -9.156  14.541  68.219  1.00  0.00    -0.196 A  
HETATM   12  C   UNL     1      -8.954  15.933  68.292  1.00  0.00    -0.184 A  
HETATM   13  C   UNL     1      -7.761  16.476  68.769  1.00  0.00    -0.226 A  
HETATM   14  C   UNL     1      -6.725  15.631  69.154  1.00  0.00    -0.149 A  
HETATM   15  C   UNL     1      -6.852  14.258  68.969  1.00  0.00    -0.109 A  
HETATM   16  C   UNL     1      -8.043  13.717  68.456  1.00  0.00    -0.128 A  
HETATM   17  C   UNL     1      -8.056  12.269  68.161  1.00  0.00    -0.158 C  
HETATM   18  O   UNL     1      -7.517  11.434  68.864  1.00  0.00    -0.111 OA 
HETATM   19  O   UNL     1      -8.671  11.984  66.994  1.00  0.00    -0.175 OA 
ENDBRANCH   9  11
ENDBRANCH   8   9
TORSDOF 2
ENDMDL
MODEL      240
REMARK 921   NORMALIZED FREE ENERGY PREDICTED BY IDOCK:   -3.18 KCAL/MOL
REMARK 922        TOTAL FREE ENERGY PREDICTED BY IDOCK:   -4.18 KCAL/MOL
REMARK 923 INTER-LIGAND FREE ENERGY PREDICTED BY IDOCK:   -3.57 KCAL/MOL
REMARK 924 INTRA-LIGAND FREE ENERGY PREDICTED BY IDOCK:   -0.60 KCAL/MOL
REMARK 927      BINDING AFFINITY PREDICTED BY RF-SCORE:    0.00 PKD
ROOT
HETATM    1  C   UNL     1      -9.008   5.105  71.539  1.00  0.00    -0.154 C  
HETATM    2  C   UNL     1      -9.852   6.348  71.618  1.00  0.00    -0.184 A  
HETATM    3  C   UNL     1     -11.054   6.386  72.353  1.00  0.00    -0.268 A  
HETATM    4 CL   UNL     1     -11.780   4.956  73.004  1.00  0.00    -0.310 Cl 
HETATM    5  C   UNL     1     -11.745   7.585  72.553  1.00  0.00    -0.310 A  
HETATM    6  C   UNL     1     -11.239   8.771  72.048  1.00  0.00    -0.443 A  
HETATM    7  C   UNL     1     -10.102   8.733  71.247  1.00  0.00    -0.336 A  
HETATM    8  C   UNL     1      -9.460   7.518  70.936  1.00  0.00    -0.165 A  
ENDROOT
BRANCH   8   9
HETATM    9  N   UNL     1      -8.463   7.474  69.911  1.00  0.00    -0.137 NA 
HETATM   10  H   UNL     1      -7.545   7.101  70.154  1.00  0.00     0.000 HD 
BRANCH   9  11
HETATM   11  C   UNL     1      -8.668   7.918  68.574  1.00  0.00    -0.131 A  
HETATM   12  C   UNL     1      -9.743   7.404  67.820  1.00  0.00    -0.171 A  
HETATM   13  C   UNL     1     -10.099   7.949  66.587  1.00  0.00    -0.310 A  
HETATM   14  C   UNL     1      -9.361   9.005  66.061  1.00  0.00    -0.305 A  
HETATM   15  C   UNL     1      -8.219   9.443  66.724  1.00  0.00    -0.112 A  
HETATM   16  C   UNL     1      -7.844   8.869  67.950  1.00  0.00    -0.102 A  
HETATM   17  C   UNL     1      -6.549   9.291  68.526  1.00  0.00    -0.054 C  
HETATM   18  O   UNL     1      -6.136  10.435  68.486  1.00  0.00    -0.044 OA 
HETATM   19  O   UNL     1      -5.850   8.256  69.039  1.00  0.00    -0.037 OA 
ENDBRANCH   9  11
ENDBRANCH   8   9
TORSDOF 2
ENDMDL
MODEL      241
REMARK 921   NORMALIZED FREE ENERGY PREDICTED BY IDOCK:   -3.17 KCAL/MOL
REMARK 922        TOTAL FREE ENERGY PREDICTED BY IDOCK:   -4.17 KCAL/MOL
REMARK 923 INTER-LIGAND FREE ENERGY PREDICTED BY IDOCK:   -3.99 KCAL/MOL
REMARK 924 INTRA-LIGAND FREE ENERGY PREDICTED BY IDOCK:   -0.18 KCAL/MOL
REMARK 927      BINDING AFFINITY PREDICTED BY RF-SCORE:    0.00 PKD
ROOT
HETATM    1  C   UNL     1      -8.284  11.411  66.452  1.00  0.00    -0.124 C  
HETATM    2  C   UNL     1      -7.617  12.322  67.446  1.00  0.00    -0.159 A  
HETATM    3  C   UNL     1      -6.313  12.074  67.924  1.00  0.00    -0.073 A  
HETATM    4 CL   UNL     1      -5.486  10.587  67.610  1.00  0.00    -0.043 Cl 
HETATM    5  C   UNL     1      -5.642  13.008  68.719  1.00  0.00    -0.072 A  
HETATM    6  C   UNL     1      -6.245  14.216  69.031  1.00  0.00    -0.094 A  
HETATM    7  C   UNL     1      -7.562  14.433  68.640  1.00  0.00    -0.132 A  
HETATM    8  C   UNL     1      -8.295  13.454  67.940  1.00  0.00    -0.166 A  
ENDROOT
BRANCH   8   9
HETATM    9  N   UNL     1      -9.710  13.593  67.780  1.00  0.00    -0.218 NA 
HETATM   10  H   UNL     1     -10.111  13.372  66.869  1.00  0.00     0.000 HD 
BRANCH   9  11
HETATM   11  C   UNL     1     -10.594  14.020  68.811  1.00  0.00    -0.251 A  
HETATM   12  C   UNL     1     -10.551  15.353  69.266  1.00  0.00    -0.252 A  
HETATM   13  C   UNL     1     -11.521  15.865  70.127  1.00  0.00    -0.366 A  
HETATM   14  C   UNL     1     -12.544  15.039  70.581  1.00  0.00    -0.429 A  
HETATM   15  C   UNL     1     -12.535  13.688  70.250  1.00  0.00    -0.335 A  
HETATM   16  C   UNL     1     -11.537  13.168  69.410  1.00  0.00    -0.360 A  
HETATM   17  C   UNL     1     -11.514  11.703  69.213  1.00  0.00    -0.300 C  
HETATM   18  O   UNL     1     -12.517  11.024  69.096  1.00  0.00    -0.432 OA 
HETATM   19  O   UNL     1     -10.263  11.196  69.246  1.00  0.00    -0.184 OA 
ENDBRANCH   9  11
ENDBRANCH   8   9
TORSDOF 2
ENDMDL
MODEL      242
REMARK 921   NORMALIZED FREE ENERGY PREDICTED BY IDOCK:   -3.17 KCAL/MOL
REMARK 922        TOTAL FREE ENERGY PREDICTED BY IDOCK:   -4.16 KCAL/MOL
REMARK 923 INTER-LIGAND FREE ENERGY PREDICTED BY IDOCK:   -4.54 KCAL/MOL
REMARK 924 INTRA-LIGAND FREE ENERGY PREDICTED BY IDOCK:    0.38 KCAL/MOL
REMARK 927      BINDING AFFINITY PREDICTED BY RF-SCORE:    0.00 PKD
ROOT
HETATM    1  C   UNL     1     -11.281   6.125  69.953  1.00  0.00    -0.484 C  
HETATM    2  C   UNL     1     -11.095   7.610  70.109  1.00  0.00    -0.229 A  
HETATM    3  C   UNL     1     -10.614   8.414  69.056  1.00  0.00    -0.154 A  
HETATM    4 CL   UNL     1      -9.962   7.735  67.604  1.00  0.00    -0.211 Cl 
HETATM    5  C   UNL     1     -10.598   9.809  69.157  1.00  0.00    -0.237 A  
HETATM    6  C   UNL     1     -11.086  10.429  70.296  1.00  0.00    -0.379 A  
HETATM    7  C   UNL     1     -11.480   9.644  71.375  1.00  0.00    -0.455 A  
HETATM    8  C   UNL     1     -11.391   8.238  71.335  1.00  0.00    -0.262 A  
ENDROOT
BRANCH   8   9
HETATM    9  N   UNL     1     -11.552   7.474  72.534  1.00  0.00    -0.429 NA 
HETATM   10  H   UNL     1     -12.273   7.768  73.193  1.00  0.00     0.000 HD 
BRANCH   9  11
HETATM   11  C   UNL     1     -10.771   6.332  72.868  1.00  0.00    -0.247 A  
HETATM   12  C   UNL     1     -11.406   5.118  73.197  1.00  0.00    -0.385 A  
HETATM   13  C   UNL     1     -10.689   3.930  73.337  1.00  0.00    -0.296 A  
HETATM   14  C   UNL     1      -9.306   3.938  73.182  1.00  0.00    -0.127 A  
HETATM   15  C   UNL     1      -8.643   5.145  72.986  1.00  0.00    -0.114 A  
HETATM   16  C   UNL     1      -9.366   6.345  72.879  1.00  0.00    -0.140 A  
HETATM   17  C   UNL     1      -8.587   7.600  72.807  1.00  0.00    -0.131 C  
HETATM   18  O   UNL     1      -7.548   7.712  72.184  1.00  0.00    -0.074 OA 
HETATM   19  O   UNL     1      -9.120   8.583  73.563  1.00  0.00    -0.183 OA 
ENDBRANCH   9  11
ENDBRANCH   8   9
TORSDOF 2
ENDMDL
MODEL      243
REMARK 921   NORMALIZED FREE ENERGY PREDICTED BY IDOCK:   -3.16 KCAL/MOL
REMARK 922        TOTAL FREE ENERGY PREDICTED BY IDOCK:   -4.15 KCAL/MOL
REMARK 923 INTER-LIGAND FREE ENERGY PREDICTED BY IDOCK:   -3.66 KCAL/MOL
REMARK 924 INTRA-LIGAND FREE ENERGY PREDICTED BY IDOCK:   -0.49 KCAL/MOL
REMARK 927      BINDING AFFINITY PREDICTED BY RF-SCORE:    0.00 PKD
ROOT
HETATM    1  C   UNL     1      -8.258  11.934  67.212  1.00  0.00    -0.170 C  
HETATM    2  C   UNL     1      -9.534  12.311  67.913  1.00  0.00    -0.200 A  
HETATM    3  C   UNL     1     -10.253  13.476  67.576  1.00  0.00    -0.234 A  
HETATM    4 CL   UNL     1      -9.601  14.686  66.524  1.00  0.00    -0.291 Cl 
HETATM    5  C   UNL     1     -11.516  13.733  68.118  1.00  0.00    -0.348 A  
HETATM    6  C   UNL     1     -12.098  12.821  68.984  1.00  0.00    -0.188 A  
HETATM    7  C   UNL     1     -11.363  11.713  69.392  1.00  0.00    -0.342 A  
HETATM    8  C   UNL     1     -10.042  11.501  68.949  1.00  0.00    -0.127 A  
ENDROOT
BRANCH   8   9
HETATM    9  N   UNL     1      -9.224  10.510  69.578  1.00  0.00    -0.396 NA 
HETATM   10  H   UNL     1      -8.647  10.799  70.367  1.00  0.00     0.000 HD 
BRANCH   9  11
HETATM   11  C   UNL     1      -9.164   9.146  69.172  1.00  0.00    -0.144 A  
HETATM   12  C   UNL     1      -9.957   8.697  68.098  1.00  0.00    -0.210 A  
HETATM   13  C   UNL     1      -9.787   7.429  67.543  1.00  0.00    -0.203 A  
HETATM   14  C   UNL     1      -8.837   6.564  68.076  1.00  0.00    -0.114 A  
HETATM   15  C   UNL     1      -8.133   6.936  69.218  1.00  0.00    -0.120 A  
HETATM   16  C   UNL     1      -8.331   8.202  69.795  1.00  0.00    -0.124 A  
HETATM   17  C   UNL     1      -7.650   8.473  71.079  1.00  0.00    -0.090 C  
HETATM   18  O   UNL     1      -6.521   8.098  71.334  1.00  0.00    -0.038 OA 
HETATM   19  O   UNL     1      -8.444   9.121  71.957  1.00  0.00    -0.319 OA 
ENDBRANCH   9  11
ENDBRANCH   8   9
TORSDOF 2
ENDMDL
MODEL      244
REMARK 921   NORMALIZED FREE ENERGY PREDICTED BY IDOCK:   -3.15 KCAL/MOL
REMARK 922        TOTAL FREE ENERGY PREDICTED BY IDOCK:   -4.14 KCAL/MOL
REMARK 923 INTER-LIGAND FREE ENERGY PREDICTED BY IDOCK:   -3.61 KCAL/MOL
REMARK 924 INTRA-LIGAND FREE ENERGY PREDICTED BY IDOCK:   -0.54 KCAL/MOL
REMARK 927      BINDING AFFINITY PREDICTED BY RF-SCORE:    0.00 PKD
ROOT
HETATM    1  C   UNL     1      -9.035   8.987  67.230  1.00  0.00    -0.139 C  
HETATM    2  C   UNL     1      -9.305   7.521  67.026  1.00  0.00    -0.186 A  
HETATM    3  C   UNL     1      -8.924   6.852  65.846  1.00  0.00    -0.064 A  
HETATM    4 CL   UNL     1      -8.355   7.701  64.449  1.00  0.00    -0.022 Cl 
HETATM    5  C   UNL     1      -9.034   5.462  65.732  1.00  0.00    -0.161 A  
HETATM    6  C   UNL     1      -9.499   4.712  66.799  1.00  0.00    -0.172 A  
HETATM    7  C   UNL     1      -9.960   5.369  67.935  1.00  0.00    -0.202 A  
HETATM    8  C   UNL     1      -9.969   6.775  68.021  1.00  0.00    -0.144 A  
ENDROOT
BRANCH   8   9
HETATM    9  N   UNL     1     -10.681   7.426  69.078  1.00  0.00    -0.340 NA 
HETATM   10  H   UNL     1     -11.625   7.759  68.881  1.00  0.00     0.000 HD 
BRANCH   9  11
HETATM   11  C   UNL     1     -10.158   7.639  70.385  1.00  0.00    -0.190 A  
HETATM   12  C   UNL     1      -8.771   7.536  70.611  1.00  0.00    -0.141 A  
HETATM   13  C   UNL     1      -8.196   7.926  71.821  1.00  0.00    -0.139 A  
HETATM   14  C   UNL     1      -9.006   8.398  72.848  1.00  0.00    -0.266 A  
HETATM   15  C   UNL     1     -10.389   8.386  72.695  1.00  0.00    -0.314 A  
HETATM   16  C   UNL     1     -10.967   7.960  71.487  1.00  0.00    -0.269 A  
HETATM   17  C   UNL     1     -12.441   7.847  71.446  1.00  0.00    -0.309 C  
HETATM   18  O   UNL     1     -13.192   8.640  71.982  1.00  0.00    -0.342 OA 
HETATM   19  O   UNL     1     -12.855   6.732  70.808  1.00  0.00    -0.205 OA 
ENDBRANCH   9  11
ENDBRANCH   8   9
TORSDOF 2
ENDMDL
MODEL      245
REMARK 921   NORMALIZED FREE ENERGY PREDICTED BY IDOCK:   -3.15 KCAL/MOL
REMARK 922        TOTAL FREE ENERGY PREDICTED BY IDOCK:   -4.13 KCAL/MOL
REMARK 923 INTER-LIGAND FREE ENERGY PREDICTED BY IDOCK:   -3.65 KCAL/MOL
REMARK 924 INTRA-LIGAND FREE ENERGY PREDICTED BY IDOCK:   -0.48 KCAL/MOL
REMARK 927      BINDING AFFINITY PREDICTED BY RF-SCORE:    0.00 PKD
ROOT
HETATM    1  C   UNL     1      -8.614   4.324  69.977  1.00  0.00    -0.101 C  
HETATM    2  C   UNL     1      -9.068   4.818  68.631  1.00  0.00    -0.149 A  
HETATM    3  C   UNL     1      -9.219   3.948  67.531  1.00  0.00    -0.172 A  
HETATM    4 CL   UNL     1      -8.655   2.312  67.569  1.00  0.00    -0.110 Cl 
HETATM    5  C   UNL     1      -9.793   4.384  66.334  1.00  0.00    -0.245 A  
HETATM    6  C   UNL     1     -10.252   5.687  66.217  1.00  0.00    -0.163 A  
HETATM    7  C   UNL     1     -10.029   6.576  67.263  1.00  0.00    -0.189 A  
HETATM    8  C   UNL     1      -9.344   6.185  68.431  1.00  0.00    -0.116 A  
ENDROOT
BRANCH   8   9
HETATM    9  N   UNL     1      -8.901   7.171  69.368  1.00  0.00    -0.137 NA 
HETATM   10  H   UNL     1      -7.904   7.210  69.583  1.00  0.00     0.000 HD 
BRANCH   9  11
HETATM   11  C   UNL     1      -9.760   8.101  70.020  1.00  0.00    -0.172 A  
HETATM   12  C   UNL     1     -10.236   9.227  69.321  1.00  0.00    -0.211 A  
HETATM   13  C   UNL     1     -11.228  10.053  69.850  1.00  0.00    -0.327 A  
HETATM   14  C   UNL     1     -11.745   9.786  71.113  1.00  0.00    -0.465 A  
HETATM   15  C   UNL     1     -11.200   8.757  71.876  1.00  0.00    -0.438 A  
HETATM   16  C   UNL     1     -10.177   7.949  71.353  1.00  0.00    -0.226 A  
HETATM   17  C   UNL     1      -9.557   6.967  72.267  1.00  0.00    -0.146 C  
HETATM   18  O   UNL     1     -10.182   6.324  73.089  1.00  0.00    -0.182 OA 
HETATM   19  O   UNL     1      -8.214   6.914  72.136  1.00  0.00    -0.105 OA 
ENDBRANCH   9  11
ENDBRANCH   8   9
TORSDOF 2
ENDMDL
MODEL      246
REMARK 921   NORMALIZED FREE ENERGY PREDICTED BY IDOCK:   -3.14 KCAL/MOL
REMARK 922        TOTAL FREE ENERGY PREDICTED BY IDOCK:   -4.12 KCAL/MOL
REMARK 923 INTER-LIGAND FREE ENERGY PREDICTED BY IDOCK:   -3.43 KCAL/MOL
REMARK 924 INTRA-LIGAND FREE ENERGY PREDICTED BY IDOCK:   -0.69 KCAL/MOL
REMARK 927      BINDING AFFINITY PREDICTED BY RF-SCORE:    0.00 PKD
ROOT
HETATM    1  C   UNL     1     -10.466   5.545  71.206  1.00  0.00    -0.306 C  
HETATM    2  C   UNL     1     -10.499   6.981  70.759  1.00  0.00    -0.231 A  
HETATM    3  C   UNL     1     -11.603   7.818  71.024  1.00  0.00    -0.283 A  
HETATM    4 CL   UNL     1     -13.095   7.202  71.648  1.00  0.00    -0.427 Cl 
HETATM    5  C   UNL     1     -11.558   9.188  70.748  1.00  0.00    -0.329 A  
HETATM    6  C   UNL     1     -10.405   9.755  70.229  1.00  0.00    -0.348 A  
HETATM    7  C   UNL     1      -9.344   8.926  69.882  1.00  0.00    -0.172 A  
HETATM    8  C   UNL     1      -9.416   7.528  70.042  1.00  0.00    -0.161 A  
ENDROOT
BRANCH   8   9
HETATM    9  N   UNL     1      -8.429   6.684  69.442  1.00  0.00    -0.130 NA 
HETATM   10  H   UNL     1      -7.617   6.427  70.003  1.00  0.00     0.000 HD 
BRANCH   9  11
HETATM   11  C   UNL     1      -8.506   6.181  68.112  1.00  0.00    -0.116 A  
HETATM   12  C   UNL     1      -9.162   4.959  67.861  1.00  0.00    -0.142 A  
HETATM   13  C   UNL     1      -9.432   4.527  66.563  1.00  0.00    -0.180 A  
HETATM   14  C   UNL     1      -9.020   5.297  65.480  1.00  0.00    -0.158 A  
HETATM   15  C   UNL     1      -8.258   6.440  65.700  1.00  0.00    -0.140 A  
HETATM   16  C   UNL     1      -7.958   6.854  67.008  1.00  0.00    -0.116 A  
HETATM   17  C   UNL     1      -7.033   7.998  67.160  1.00  0.00    -0.075 C  
HETATM   18  O   UNL     1      -7.044   8.973  66.433  1.00  0.00    -0.079 OA 
HETATM   19  O   UNL     1      -6.134   7.807  68.149  1.00  0.00    -0.038 OA 
ENDBRANCH   9  11
ENDBRANCH   8   9
TORSDOF 2
ENDMDL
MODEL      247
REMARK 921   NORMALIZED FREE ENERGY PREDICTED BY IDOCK:   -3.12 KCAL/MOL
REMARK 922        TOTAL FREE ENERGY PREDICTED BY IDOCK:   -4.10 KCAL/MOL
REMARK 923 INTER-LIGAND FREE ENERGY PREDICTED BY IDOCK:   -3.53 KCAL/MOL
REMARK 924 INTRA-LIGAND FREE ENERGY PREDICTED BY IDOCK:   -0.57 KCAL/MOL
REMARK 927      BINDING AFFINITY PREDICTED BY RF-SCORE:    0.00 PKD
ROOT
HETATM    1  C   UNL     1      -9.029  10.692  63.237  1.00  0.00    -0.229 C  
HETATM    2  C   UNL     1      -8.146   9.895  64.158  1.00  0.00    -0.152 A  
HETATM    3  C   UNL     1      -7.672   8.614  63.810  1.00  0.00    -0.136 A  
HETATM    4 CL   UNL     1      -8.267   7.757  62.429  1.00  0.00    -0.151 Cl 
HETATM    5  C   UNL     1      -6.725   7.952  64.597  1.00  0.00    -0.059 A  
HETATM    6  C   UNL     1      -6.213   8.564  65.730  1.00  0.00    -0.052 A  
HETATM    7  C   UNL     1      -6.737   9.788  66.130  1.00  0.00    -0.085 A  
HETATM    8  C   UNL     1      -7.777  10.415  65.415  1.00  0.00    -0.136 A  
ENDROOT
BRANCH   8   9
HETATM    9  N   UNL     1      -8.471  11.529  65.984  1.00  0.00    -0.365 NA 
HETATM   10  H   UNL     1      -8.180  12.465  65.704  1.00  0.00     0.000 HD 
BRANCH   9  11
HETATM   11  C   UNL     1      -9.540  11.414  66.917  1.00  0.00    -0.185 A  
HETATM   12  C   UNL     1     -10.260  10.207  67.016  1.00  0.00    -0.290 A  
HETATM   13  C   UNL     1     -11.178   9.984  68.042  1.00  0.00    -0.190 A  
HETATM   14  C   UNL     1     -11.422  10.983  68.978  1.00  0.00    -0.368 A  
HETATM   15  C   UNL     1     -10.821  12.229  68.827  1.00  0.00    -0.266 A  
HETATM   16  C   UNL     1      -9.922  12.461  67.772  1.00  0.00    -0.205 A  
HETATM   17  C   UNL     1      -9.429  13.844  67.597  1.00  0.00    -0.212 C  
HETATM   18  O   UNL     1      -9.145  14.580  68.523  1.00  0.00    -0.182 OA 
HETATM   19  O   UNL     1      -9.396  14.220  66.301  1.00  0.00    -0.272 OA 
ENDBRANCH   9  11
ENDBRANCH   8   9
TORSDOF 2
ENDMDL
MODEL      248
REMARK 921   NORMALIZED FREE ENERGY PREDICTED BY IDOCK:   -3.00 KCAL/MOL
REMARK 922        TOTAL FREE ENERGY PREDICTED BY IDOCK:   -3.97 KCAL/MOL
REMARK 923 INTER-LIGAND FREE ENERGY PREDICTED BY IDOCK:   -3.30 KCAL/MOL
REMARK 924 INTRA-LIGAND FREE ENERGY PREDICTED BY IDOCK:   -0.66 KCAL/MOL
REMARK 927      BINDING AFFINITY PREDICTED BY RF-SCORE:    0.00 PKD
ROOT
HETATM    1  C   UNL     1      -6.197   3.900  69.722  1.00  0.00    -0.027 C  
HETATM    2  C   UNL     1      -7.237   3.650  68.665  1.00  0.00    -0.051 A  
HETATM    3  C   UNL     1      -6.926   2.997  67.454  1.00  0.00    -0.049 A  
HETATM    4 CL   UNL     1      -5.295   2.666  66.981  1.00  0.00    -0.015 Cl 
HETATM    5  C   UNL     1      -7.928   2.626  66.552  1.00  0.00    -0.081 A  
HETATM    6  C   UNL     1      -9.258   2.874  66.849  1.00  0.00    -0.161 A  
HETATM    7  C   UNL     1      -9.569   3.595  67.997  1.00  0.00    -0.172 A  
HETATM    8  C   UNL     1      -8.565   4.081  68.858  1.00  0.00    -0.084 A  
ENDROOT
BRANCH   8   9
HETATM    9  N   UNL     1      -8.891   5.032  69.876  1.00  0.00    -0.100 NA 
HETATM   10  H   UNL     1      -8.476   5.962  69.810  1.00  0.00     0.000 HD 
BRANCH   9  11
HETATM   11  C   UNL     1      -9.754   4.764  70.976  1.00  0.00    -0.187 A  
HETATM   12  C   UNL     1      -9.563   3.604  71.753  1.00  0.00    -0.221 A  
HETATM   13  C   UNL     1     -10.253   3.401  72.948  1.00  0.00    -0.240 A  
HETATM   14  C   UNL     1     -11.180   4.345  73.377  1.00  0.00    -0.386 A  
HETATM   15  C   UNL     1     -11.481   5.433  72.563  1.00  0.00    -0.259 A  
HETATM   16  C   UNL     1     -10.808   5.617  71.344  1.00  0.00    -0.290 A  
HETATM   17  C   UNL     1     -11.275   6.717  70.473  1.00  0.00    -0.334 C  
HETATM   18  O   UNL     1     -11.629   7.802  70.892  1.00  0.00    -0.281 OA 
HETATM   19  O   UNL     1     -11.329   6.359  69.173  1.00  0.00    -0.364 OA 
ENDBRANCH   9  11
ENDBRANCH   8   9
TORSDOF 2
ENDMDL
MODEL      249
REMARK 921   NORMALIZED FREE ENERGY PREDICTED BY IDOCK:   -2.99 KCAL/MOL
REMARK 922        TOTAL FREE ENERGY PREDICTED BY IDOCK:   -3.96 KCAL/MOL
REMARK 923 INTER-LIGAND FREE ENERGY PREDICTED BY IDOCK:   -3.27 KCAL/MOL
REMARK 924 INTRA-LIGAND FREE ENERGY PREDICTED BY IDOCK:   -0.69 KCAL/MOL
REMARK 927      BINDING AFFINITY PREDICTED BY RF-SCORE:    0.00 PKD
ROOT
HETATM    1  C   UNL     1      -6.806  13.292  68.199  1.00  0.00    -0.114 C  
HETATM    2  C   UNL     1      -8.293  13.219  67.982  1.00  0.00    -0.162 A  
HETATM    3  C   UNL     1      -9.134  14.327  68.212  1.00  0.00    -0.188 A  
HETATM    4 CL   UNL     1      -8.569  15.762  68.998  1.00  0.00    -0.219 Cl 
HETATM    5  C   UNL     1     -10.485  14.300  67.855  1.00  0.00    -0.240 A  
HETATM    6  C   UNL     1     -11.018  13.179  67.238  1.00  0.00    -0.288 A  
HETATM    7  C   UNL     1     -10.221  12.049  67.087  1.00  0.00    -0.221 A  
HETATM    8  C   UNL     1      -8.891  12.018  67.550  1.00  0.00    -0.172 A  
ENDROOT
BRANCH   8   9
HETATM    9  N   UNL     1      -8.184  10.776  67.620  1.00  0.00    -0.114 NA 
HETATM   10  H   UNL     1      -7.491  10.581  66.897  1.00  0.00     0.000 HD 
BRANCH   9  11
HETATM   11  C   UNL     1      -8.384   9.796  68.633  1.00  0.00    -0.111 A  
HETATM   12  C   UNL     1      -7.851   9.998  69.921  1.00  0.00    -0.185 A  
HETATM   13  C   UNL     1      -8.185   9.168  70.991  1.00  0.00    -0.186 A  
HETATM   14  C   UNL     1      -9.040   8.090  70.785  1.00  0.00    -0.151 A  
HETATM   15  C   UNL     1      -9.476   7.793  69.497  1.00  0.00    -0.160 A  
HETATM   16  C   UNL     1      -9.109   8.613  68.417  1.00  0.00    -0.138 A  
HETATM   17  C   UNL     1      -9.497   8.160  67.063  1.00  0.00    -0.177 C  
HETATM   18  O   UNL     1     -10.563   7.631  66.810  1.00  0.00    -0.325 OA 
HETATM   19  O   UNL     1      -8.512   8.336  66.158  1.00  0.00    -0.119 OA 
ENDBRANCH   9  11
ENDBRANCH   8   9
TORSDOF 2
ENDMDL
MODEL      250
REMARK 921   NORMALIZED FREE ENERGY PREDICTED BY IDOCK:   -2.98 KCAL/MOL
REMARK 922        TOTAL FREE ENERGY PREDICTED BY IDOCK:   -3.95 KCAL/MOL
REMARK 923 INTER-LIGAND FREE ENERGY PREDICTED BY IDOCK:   -4.01 KCAL/MOL
REMARK 924 INTRA-LIGAND FREE ENERGY PREDICTED BY IDOCK:    0.06 KCAL/MOL
REMARK 927      BINDING AFFINITY PREDICTED BY RF-SCORE:    0.00 PKD
ROOT
HETATM    1  C   UNL     1      -7.033   7.234  67.606  1.00  0.00    -0.076 C  
HETATM    2  C   UNL     1      -8.424   6.929  68.090  1.00  0.00    -0.124 A  
HETATM    3  C   UNL     1      -8.852   5.609  68.340  1.00  0.00    -0.108 A  
HETATM    4 CL   UNL     1      -7.912   4.233  67.872  1.00  0.00    -0.086 Cl 
HETATM    5  C   UNL     1     -10.087   5.348  68.941  1.00  0.00    -0.265 A  
HETATM    6  C   UNL     1     -10.907   6.396  69.328  1.00  0.00    -0.387 A  
HETATM    7  C   UNL     1     -10.535   7.697  69.007  1.00  0.00    -0.214 A  
HETATM    8  C   UNL     1      -9.350   7.971  68.295  1.00  0.00    -0.140 A  
ENDROOT
BRANCH   8   9
HETATM    9  N   UNL     1      -9.123   9.276  67.754  1.00  0.00    -0.127 NA 
HETATM   10  H   UNL     1      -8.182   9.501  67.432  1.00  0.00     0.000 HD 
BRANCH   9  11
HETATM   11  C   UNL     1     -10.125  10.280  67.636  1.00  0.00    -0.191 A  
HETATM   12  C   UNL     1     -10.950  10.582  68.738  1.00  0.00    -0.296 A  
HETATM   13  C   UNL     1     -11.806  11.684  68.732  1.00  0.00    -0.387 A  
HETATM   14  C   UNL     1     -11.880  12.493  67.603  1.00  0.00    -0.381 A  
HETATM   15  C   UNL     1     -11.174  12.140  66.457  1.00  0.00    -0.378 A  
HETATM   16  C   UNL     1     -10.339  11.011  66.455  1.00  0.00    -0.295 A  
HETATM   17  C   UNL     1      -9.728  10.623  65.166  1.00  0.00    -0.271 C  
HETATM   18  O   UNL     1      -9.305  11.424  64.354  1.00  0.00    -0.176 OA 
HETATM   19  O   UNL     1      -9.756   9.289  64.961  1.00  0.00    -0.106 OA 
ENDBRANCH   9  11
ENDBRANCH   8   9
TORSDOF 2
ENDMDL
MODEL      251
REMARK 921   NORMALIZED FREE ENERGY PREDICTED BY IDOCK:   -2.97 KCAL/MOL
REMARK 922        TOTAL FREE ENERGY PREDICTED BY IDOCK:   -3.94 KCAL/MOL
REMARK 923 INTER-LIGAND FREE ENERGY PREDICTED BY IDOCK:   -3.97 KCAL/MOL
REMARK 924 INTRA-LIGAND FREE ENERGY PREDICTED BY IDOCK:    0.02 KCAL/MOL
REMARK 927      BINDING AFFINITY PREDICTED BY RF-SCORE:    0.00 PKD
ROOT
HETATM    1  C   UNL     1      -9.752  15.403  65.502  1.00  0.00    -0.318 C  
HETATM    2  C   UNL     1      -8.835  15.209  66.679  1.00  0.00    -0.321 A  
HETATM    3  C   UNL     1      -8.194  16.295  67.309  1.00  0.00    -0.172 A  
HETATM    4 CL   UNL     1      -8.205  17.888  66.633  1.00  0.00    -0.269 Cl 
HETATM    5  C   UNL     1      -7.475  16.124  68.496  1.00  0.00    -0.167 A  
HETATM    6  C   UNL     1      -7.403  14.875  69.091  1.00  0.00    -0.158 A  
HETATM    7  C   UNL     1      -7.956  13.782  68.433  1.00  0.00    -0.144 A  
HETATM    8  C   UNL     1      -8.581  13.916  67.177  1.00  0.00    -0.203 A  
ENDROOT
BRANCH   8   9
HETATM    9  N   UNL     1      -8.904  12.753  66.408  1.00  0.00    -0.430 NA 
HETATM   10  H   UNL     1      -8.727  12.782  65.404  1.00  0.00     0.000 HD 
BRANCH   9  11
HETATM   11  C   UNL     1      -9.457  11.560  66.953  1.00  0.00    -0.182 A  
HETATM   12  C   UNL     1      -9.888  11.535  68.295  1.00  0.00    -0.203 A  
HETATM   13  C   UNL     1     -10.610  10.460  68.812  1.00  0.00    -0.232 A  
HETATM   14  C   UNL     1     -10.891   9.365  68.001  1.00  0.00    -0.197 A  
HETATM   15  C   UNL     1     -10.366   9.309  66.714  1.00  0.00    -0.296 A  
HETATM   16  C   UNL     1      -9.609  10.379  66.208  1.00  0.00    -0.230 A  
HETATM   17  C   UNL     1      -8.972  10.192  64.887  1.00  0.00    -0.197 C  
HETATM   18  O   UNL     1      -9.507   9.616  63.958  1.00  0.00    -0.177 OA 
HETATM   19  O   UNL     1      -7.710  10.669  64.849  1.00  0.00    -0.069 OA 
ENDBRANCH   9  11
ENDBRANCH   8   9
TORSDOF 2
ENDMDL
MODEL      252
REMARK 921   NORMALIZED FREE ENERGY PREDICTED BY IDOCK:   -2.97 KCAL/MOL
REMARK 922        TOTAL FREE ENERGY PREDICTED BY IDOCK:   -3.94 KCAL/MOL
REMARK 923 INTER-LIGAND FREE ENERGY PREDICTED BY IDOCK:   -3.45 KCAL/MOL
REMARK 924 INTRA-LIGAND FREE ENERGY PREDICTED BY IDOCK:   -0.49 KCAL/MOL
REMARK 927      BINDING AFFINITY PREDICTED BY RF-SCORE:    0.00 PKD
ROOT
HETATM    1  C   UNL     1      -8.265  11.514  66.675  1.00  0.00    -0.156 C  
HETATM    2  C   UNL     1      -7.562  12.134  67.852  1.00  0.00    -0.123 A  
HETATM    3  C   UNL     1      -6.575  11.438  68.580  1.00  0.00    -0.062 A  
HETATM    4 CL   UNL     1      -6.279   9.749  68.346  1.00  0.00    -0.050 Cl 
HETATM    5  C   UNL     1      -5.816  12.076  69.566  1.00  0.00    -0.091 A  
HETATM    6  C   UNL     1      -6.007  13.423  69.826  1.00  0.00    -0.126 A  
HETATM    7  C   UNL     1      -7.036  14.097  69.177  1.00  0.00    -0.099 A  
HETATM    8  C   UNL     1      -7.889  13.440  68.268  1.00  0.00    -0.143 A  
ENDROOT
BRANCH   8   9
HETATM    9  N   UNL     1      -9.088  14.078  67.818  1.00  0.00    -0.184 NA 
HETATM   10  H   UNL     1      -9.899  13.490  67.629  1.00  0.00     0.000 HD 
BRANCH   9  11
HETATM   11  C   UNL     1      -9.221  15.482  67.618  1.00  0.00    -0.190 A  
HETATM   12  C   UNL     1      -8.323  16.158  66.769  1.00  0.00    -0.299 A  
HETATM   13  C   UNL     1      -8.532  17.484  66.390  1.00  0.00    -0.287 A  
HETATM   14  C   UNL     1      -9.633  18.177  66.882  1.00  0.00    -0.299 A  
HETATM   15  C   UNL     1     -10.462  17.572  67.822  1.00  0.00    -0.381 A  
HETATM   16  C   UNL     1     -10.229  16.247  68.227  1.00  0.00    -0.253 A  
HETATM   17  C   UNL     1     -11.067  15.719  69.326  1.00  0.00    -0.297 C  
HETATM   18  O   UNL     1     -12.253  15.962  69.444  1.00  0.00    -0.284 OA 
HETATM   19  O   UNL     1     -10.355  14.996  70.216  1.00  0.00    -0.124 OA 
ENDBRANCH   9  11
ENDBRANCH   8   9
TORSDOF 2
ENDMDL
MODEL      253
REMARK 921   NORMALIZED FREE ENERGY PREDICTED BY IDOCK:   -2.97 KCAL/MOL
REMARK 922        TOTAL FREE ENERGY PREDICTED BY IDOCK:   -3.94 KCAL/MOL
REMARK 923 INTER-LIGAND FREE ENERGY PREDICTED BY IDOCK:   -3.88 KCAL/MOL
REMARK 924 INTRA-LIGAND FREE ENERGY PREDICTED BY IDOCK:   -0.06 KCAL/MOL
REMARK 927      BINDING AFFINITY PREDICTED BY RF-SCORE:    0.00 PKD
ROOT
HETATM    1  C   UNL     1      -9.884  11.829  65.183  1.00  0.00    -0.263 C  
HETATM    2  C   UNL     1     -10.648  13.001  64.628  1.00  0.00    -0.397 A  
HETATM    3  C   UNL     1     -11.705  12.833  63.710  1.00  0.00    -0.493 A  
HETATM    4 CL   UNL     1     -12.037  11.310  62.959  1.00  0.00     0.287 Cl 
HETATM    5  C   UNL     1     -12.510  13.909  63.326  1.00  0.00     0.350 A  
HETATM    6  C   UNL     1     -12.297  15.166  63.869  1.00  0.00     0.156 A  
HETATM    7  C   UNL     1     -11.204  15.361  64.706  1.00  0.00    -0.404 A  
HETATM    8  C   UNL     1     -10.310  14.315  65.010  1.00  0.00    -0.421 A  
ENDROOT
BRANCH   8   9
HETATM    9  N   UNL     1      -9.064  14.598  65.652  1.00  0.00    -0.321 NA 
HETATM   10  H   UNL     1      -8.308  13.920  65.547  1.00  0.00     0.000 HD 
BRANCH   9  11
HETATM   11  C   UNL     1      -8.809  15.764  66.429  1.00  0.00    -0.336 A  
HETATM   12  C   UNL     1      -7.717  16.595  66.111  1.00  0.00    -0.148 A  
HETATM   13  C   UNL     1      -7.545  17.841  66.713  1.00  0.00    -0.248 A  
HETATM   14  C   UNL     1      -8.450  18.271  67.678  1.00  0.00    -0.260 A  
HETATM   15  C   UNL     1      -9.461  17.414  68.102  1.00  0.00    -0.288 A  
HETATM   16  C   UNL     1      -9.611  16.146  67.517  1.00  0.00    -0.229 A  
HETATM   17  C   UNL     1     -10.620  15.242  68.110  1.00  0.00    -0.254 C  
HETATM   18  O   UNL     1     -11.704  15.617  68.515  1.00  0.00    -0.371 OA 
HETATM   19  O   UNL     1     -10.177  13.971  68.215  1.00  0.00    -0.235 OA 
ENDBRANCH   9  11
ENDBRANCH   8   9
TORSDOF 2
ENDMDL
MODEL      254
REMARK 921   NORMALIZED FREE ENERGY PREDICTED BY IDOCK:   -2.97 KCAL/MOL
REMARK 922        TOTAL FREE ENERGY PREDICTED BY IDOCK:   -3.94 KCAL/MOL
REMARK 923 INTER-LIGAND FREE ENERGY PREDICTED BY IDOCK:   -5.43 KCAL/MOL
REMARK 924 INTRA-LIGAND FREE ENERGY PREDICTED BY IDOCK:    1.49 KCAL/MOL
REMARK 927      BINDING AFFINITY PREDICTED BY RF-SCORE:    0.00 PKD
ROOT
HETATM    1  C   UNL     1      -8.181  14.557  68.033  1.00  0.00    -0.145 C  
HETATM    2  C   UNL     1      -9.175  14.462  66.908  1.00  0.00    -0.269 A  
HETATM    3  C   UNL     1      -9.945  13.301  66.691  1.00  0.00    -0.272 A  
HETATM    4 CL   UNL     1      -9.631  11.819  67.528  1.00  0.00    -0.175 Cl 
HETATM    5  C   UNL     1     -10.977  13.280  65.747  1.00  0.00    -0.284 A  
HETATM    6  C   UNL     1     -11.279  14.421  65.022  1.00  0.00    -0.376 A  
HETATM    7  C   UNL     1     -10.470  15.544  65.164  1.00  0.00    -0.431 A  
HETATM    8  C   UNL     1      -9.353  15.544  66.023  1.00  0.00    -0.344 A  
ENDROOT
BRANCH   8   9
HETATM    9  N   UNL     1      -8.396  16.606  65.955  1.00  0.00    -0.437 NA 
HETATM   10  H   UNL     1      -7.873  16.722  65.087  1.00  0.00     0.000 HD 
BRANCH   9  11
HETATM   11  C   UNL     1      -8.125  17.509  67.022  1.00  0.00    -0.217 A  
HETATM   12  C   UNL     1      -7.198  17.157  68.023  1.00  0.00    -0.187 A  
HETATM   13  C   UNL     1      -6.757  18.080  68.970  1.00  0.00    -0.252 A  
HETATM   14  C   UNL     1      -7.263  19.376  68.958  1.00  0.00    -0.397 A  
HETATM   15  C   UNL     1      -8.274  19.710  68.062  1.00  0.00    -0.347 A  
HETATM   16  C   UNL     1      -8.740  18.767  67.131  1.00  0.00    -0.288 A  
HETATM   17  C   UNL     1      -9.906  19.151  66.306  1.00  0.00    -0.383 C  
HETATM   18  O   UNL     1     -10.068  20.266  65.849  1.00  0.00    -0.417 OA 
HETATM   19  O   UNL     1     -10.799  18.147  66.175  1.00  0.00    -0.208 OA 
ENDBRANCH   9  11
ENDBRANCH   8   9
TORSDOF 2
ENDMDL
MODEL      255
REMARK 921   NORMALIZED FREE ENERGY PREDICTED BY IDOCK:   -2.96 KCAL/MOL
REMARK 922        TOTAL FREE ENERGY PREDICTED BY IDOCK:   -3.93 KCAL/MOL
REMARK 923 INTER-LIGAND FREE ENERGY PREDICTED BY IDOCK:   -3.50 KCAL/MOL
REMARK 924 INTRA-LIGAND FREE ENERGY PREDICTED BY IDOCK:   -0.43 KCAL/MOL
REMARK 927      BINDING AFFINITY PREDICTED BY RF-SCORE:    0.00 PKD
ROOT
HETATM    1  C   UNL     1      -7.872   6.504  68.458  1.00  0.00    -0.106 C  
HETATM    2  C   UNL     1      -6.959   7.683  68.251  1.00  0.00    -0.072 A  
HETATM    3  C   UNL     1      -5.997   7.706  67.221  1.00  0.00    -0.047 A  
HETATM    4 CL   UNL     1      -5.616   6.301  66.286  1.00  0.00    -0.013 Cl 
HETATM    5  C   UNL     1      -5.268   8.865  66.935  1.00  0.00    -0.039 A  
HETATM    6  C   UNL     1      -5.501  10.027  67.652  1.00  0.00    -0.038 A  
HETATM    7  C   UNL     1      -6.383   9.991  68.727  1.00  0.00    -0.041 A  
HETATM    8  C   UNL     1      -7.038   8.802  69.104  1.00  0.00    -0.063 A  
ENDROOT
BRANCH   8   9
HETATM    9  N   UNL     1      -7.727   8.727  70.356  1.00  0.00    -0.081 NA 
HETATM   10  H   UNL     1      -7.247   8.283  71.139  1.00  0.00     0.000 HD 
BRANCH   9  11
HETATM   11  C   UNL     1      -9.040   9.232  70.579  1.00  0.00    -0.259 A  
HETATM   12  C   UNL     1      -9.634  10.087  69.630  1.00  0.00    -0.251 A  
HETATM   13  C   UNL     1     -10.979  10.446  69.708  1.00  0.00    -0.345 A  
HETATM   14  C   UNL     1     -11.756   9.980  70.764  1.00  0.00    -0.437 A  
HETATM   15  C   UNL     1     -11.161   9.242  71.782  1.00  0.00    -0.413 A  
HETATM   16  C   UNL     1      -9.797   8.911  71.717  1.00  0.00    -0.386 A  
HETATM   17  C   UNL     1      -9.207   8.243  72.897  1.00  0.00    -0.259 C  
HETATM   18  O   UNL     1      -9.785   7.395  73.550  1.00  0.00    -0.236 OA 
HETATM   19  O   UNL     1      -7.986   8.728  73.208  1.00  0.00    -0.409 OA 
ENDBRANCH   9  11
ENDBRANCH   8   9
TORSDOF 2
ENDMDL
MODEL      256
REMARK 921   NORMALIZED FREE ENERGY PREDICTED BY IDOCK:   -2.94 KCAL/MOL
REMARK 922        TOTAL FREE ENERGY PREDICTED BY IDOCK:   -3.91 KCAL/MOL
REMARK 923 INTER-LIGAND FREE ENERGY PREDICTED BY IDOCK:   -3.36 KCAL/MOL
REMARK 924 INTRA-LIGAND FREE ENERGY PREDICTED BY IDOCK:   -0.55 KCAL/MOL
REMARK 927      BINDING AFFINITY PREDICTED BY RF-SCORE:    0.00 PKD
ROOT
HETATM    1  C   UNL     1      -7.550   7.780  69.645  1.00  0.00    -0.092 C  
HETATM    2  C   UNL     1      -8.813   7.397  68.923  1.00  0.00    -0.131 A  
HETATM    3  C   UNL     1      -8.921   7.475  67.520  1.00  0.00    -0.126 A  
HETATM    4 CL   UNL     1      -7.718   8.250  66.547  1.00  0.00    -0.091 Cl 
HETATM    5  C   UNL     1     -10.037   6.967  66.848  1.00  0.00    -0.296 A  
HETATM    6  C   UNL     1     -11.053   6.348  67.558  1.00  0.00    -0.401 A  
HETATM    7  C   UNL     1     -10.999   6.345  68.948  1.00  0.00    -0.412 A  
HETATM    8  C   UNL     1      -9.940   6.958  69.646  1.00  0.00    -0.171 A  
ENDROOT
BRANCH   8   9
HETATM    9  N   UNL     1     -10.038   7.168  71.058  1.00  0.00    -0.192 NA 
HETATM   10  H   UNL     1     -10.327   8.091  71.383  1.00  0.00     0.000 HD 
BRANCH   9  11
HETATM   11  C   UNL     1      -9.757   6.174  72.038  1.00  0.00    -0.151 A  
HETATM   12  C   UNL     1     -10.474   4.961  72.033  1.00  0.00    -0.245 A  
HETATM   13  C   UNL     1     -10.103   3.888  72.843  1.00  0.00    -0.218 A  
HETATM   14  C   UNL     1      -9.019   4.018  73.705  1.00  0.00    -0.092 A  
HETATM   15  C   UNL     1      -8.377   5.247  73.822  1.00  0.00    -0.111 A  
HETATM   16  C   UNL     1      -8.775   6.336  73.029  1.00  0.00    -0.124 A  
HETATM   17  C   UNL     1      -8.138   7.641  73.305  1.00  0.00    -0.134 C  
HETATM   18  O   UNL     1      -6.961   7.770  73.584  1.00  0.00    -0.083 OA 
HETATM   19  O   UNL     1      -9.021   8.663  73.279  1.00  0.00    -0.288 OA 
ENDBRANCH   9  11
ENDBRANCH   8   9
TORSDOF 2
ENDMDL
MODEL      257
REMARK 921   NORMALIZED FREE ENERGY PREDICTED BY IDOCK:   -2.90 KCAL/MOL
REMARK 922        TOTAL FREE ENERGY PREDICTED BY IDOCK:   -3.86 KCAL/MOL
REMARK 923 INTER-LIGAND FREE ENERGY PREDICTED BY IDOCK:   -3.74 KCAL/MOL
REMARK 924 INTRA-LIGAND FREE ENERGY PREDICTED BY IDOCK:   -0.11 KCAL/MOL
REMARK 927      BINDING AFFINITY PREDICTED BY RF-SCORE:    0.00 PKD
ROOT
HETATM    1  C   UNL     1     -12.101  11.117  69.449  1.00  0.00    -0.396 C  
HETATM    2  C   UNL     1     -11.597   9.700  69.428  1.00  0.00     0.150 A  
HETATM    3  C   UNL     1     -11.708   8.853  70.550  1.00  0.00    -0.111 A  
HETATM    4 CL   UNL     1     -12.192   9.444  72.103  1.00  0.00    -0.385 Cl 
HETATM    5  C   UNL     1     -11.386   7.495  70.470  1.00  0.00    -0.279 A  
HETATM    6  C   UNL     1     -10.972   6.949  69.266  1.00  0.00    -0.260 A  
HETATM    7  C   UNL     1     -10.774   7.791  68.177  1.00  0.00    -0.112 A  
HETATM    8  C   UNL     1     -10.979   9.182  68.272  1.00  0.00     0.046 A  
ENDROOT
BRANCH   8   9
HETATM    9  N   UNL     1     -10.523  10.049  67.229  1.00  0.00    -0.241 NA 
HETATM   10  H   UNL     1     -10.830   9.851  66.277  1.00  0.00     0.000 HD 
BRANCH   9  11
HETATM   11  C   UNL     1      -9.667  11.168  67.435  1.00  0.00    -0.173 A  
HETATM   12  C   UNL     1      -8.594  11.074  68.343  1.00  0.00    -0.149 A  
HETATM   13  C   UNL     1      -7.620  12.068  68.432  1.00  0.00    -0.128 A  
HETATM   14  C   UNL     1      -7.718  13.202  67.631  1.00  0.00    -0.168 A  
HETATM   15  C   UNL     1      -8.837  13.378  66.822  1.00  0.00    -0.145 A  
HETATM   16  C   UNL     1      -9.833  12.389  66.761  1.00  0.00    -0.228 A  
HETATM   17  C   UNL     1     -11.052  12.705  65.987  1.00  0.00    -0.287 C  
HETATM   18  O   UNL     1     -11.042  13.316  64.935  1.00  0.00    -0.306 OA 
HETATM   19  O   UNL     1     -12.179  12.301  66.610  1.00  0.00    -0.574 OA 
ENDBRANCH   9  11
ENDBRANCH   8   9
TORSDOF 2
ENDMDL
MODEL      258
REMARK 921   NORMALIZED FREE ENERGY PREDICTED BY IDOCK:   -2.88 KCAL/MOL
REMARK 922        TOTAL FREE ENERGY PREDICTED BY IDOCK:   -3.83 KCAL/MOL
REMARK 923 INTER-LIGAND FREE ENERGY PREDICTED BY IDOCK:   -3.16 KCAL/MOL
REMARK 924 INTRA-LIGAND FREE ENERGY PREDICTED BY IDOCK:   -0.67 KCAL/MOL
REMARK 927      BINDING AFFINITY PREDICTED BY RF-SCORE:    0.00 PKD
ROOT
HETATM    1  C   UNL     1     -11.010   6.027  70.716  1.00  0.00    -0.364 C  
HETATM    2  C   UNL     1     -10.001   7.067  71.122  1.00  0.00    -0.191 A  
HETATM    3  C   UNL     1      -9.741   7.364  72.475  1.00  0.00    -0.160 A  
HETATM    4 CL   UNL     1     -10.729   6.751  73.757  1.00  0.00    -0.311 Cl 
HETATM    5  C   UNL     1      -8.692   8.212  72.844  1.00  0.00    -0.290 A  
HETATM    6  C   UNL     1      -7.867   8.758  71.875  1.00  0.00    -0.066 A  
HETATM    7  C   UNL     1      -8.168   8.543  70.534  1.00  0.00    -0.116 A  
HETATM    8  C   UNL     1      -9.292   7.790  70.141  1.00  0.00    -0.153 A  
ENDROOT
BRANCH   8   9
HETATM    9  N   UNL     1      -9.725   7.802  68.778  1.00  0.00    -0.155 NA 
HETATM   10  H   UNL     1     -10.620   8.242  68.566  1.00  0.00     0.000 HD 
BRANCH   9  11
HETATM   11  C   UNL     1      -8.987   7.240  67.698  1.00  0.00    -0.126 A  
HETATM   12  C   UNL     1      -8.396   5.968  67.837  1.00  0.00    -0.116 A  
HETATM   13  C   UNL     1      -7.837   5.297  66.750  1.00  0.00    -0.100 A  
HETATM   14  C   UNL     1      -7.825   5.903  65.498  1.00  0.00    -0.103 A  
HETATM   15  C   UNL     1      -8.285   7.210  65.362  1.00  0.00    -0.137 A  
HETATM   16  C   UNL     1      -8.817   7.895  66.467  1.00  0.00    -0.175 A  
HETATM   17  C   UNL     1      -9.158   9.321  66.277  1.00  0.00    -0.171 C  
HETATM   18  O   UNL     1      -9.662   9.764  65.262  1.00  0.00    -0.294 OA 
HETATM   19  O   UNL     1      -8.786  10.085  67.326  1.00  0.00    -0.134 OA 
ENDBRANCH   9  11
ENDBRANCH   8   9
TORSDOF 2
ENDMDL
MODEL      259
REMARK 921   NORMALIZED FREE ENERGY PREDICTED BY IDOCK:   -2.87 KCAL/MOL
REMARK 922        TOTAL FREE ENERGY PREDICTED BY IDOCK:   -3.83 KCAL/MOL
REMARK 923 INTER-LIGAND FREE ENERGY PREDICTED BY IDOCK:   -3.11 KCAL/MOL
REMARK 924 INTRA-LIGAND FREE ENERGY PREDICTED BY IDOCK:   -0.72 KCAL/MOL
REMARK 927      BINDING AFFINITY PREDICTED BY RF-SCORE:    0.00 PKD
ROOT
HETATM    1  C   UNL     1     -11.326   6.890  70.125  1.00  0.00    -0.364 C  
HETATM    2  C   UNL     1      -9.892   7.297  70.331  1.00  0.00    -0.183 A  
HETATM    3  C   UNL     1      -9.350   7.490  71.618  1.00  0.00    -0.145 A  
HETATM    4 CL   UNL     1     -10.341   7.527  73.036  1.00  0.00    -0.339 Cl 
HETATM    5  C   UNL     1      -7.982   7.709  71.805  1.00  0.00    -0.102 A  
HETATM    6  C   UNL     1      -7.124   7.713  70.717  1.00  0.00    -0.054 A  
HETATM    7  C   UNL     1      -7.658   7.611  69.437  1.00  0.00    -0.095 A  
HETATM    8  C   UNL     1      -9.047   7.510  69.223  1.00  0.00    -0.138 A  
ENDROOT
BRANCH   8   9
HETATM    9  N   UNL     1      -9.585   7.670  67.906  1.00  0.00    -0.142 NA 
HETATM   10  H   UNL     1      -9.839   6.828  67.390  1.00  0.00     0.000 HD 
BRANCH   9  11
HETATM   11  C   UNL     1      -9.788   8.928  67.271  1.00  0.00    -0.199 A  
HETATM   12  C   UNL     1     -10.970   9.654  67.513  1.00  0.00    -0.166 A  
HETATM   13  C   UNL     1     -11.126  10.969  67.073  1.00  0.00    -0.311 A  
HETATM   14  C   UNL     1     -10.107  11.577  66.347  1.00  0.00    -0.250 A  
HETATM   15  C   UNL     1      -8.985  10.838  65.985  1.00  0.00    -0.196 A  
HETATM   16  C   UNL     1      -8.847   9.504  66.401  1.00  0.00    -0.164 A  
HETATM   17  C   UNL     1      -7.697   8.744  65.866  1.00  0.00    -0.094 C  
HETATM   18  O   UNL     1      -6.589   9.221  65.709  1.00  0.00    -0.067 OA 
HETATM   19  O   UNL     1      -8.031   7.485  65.508  1.00  0.00    -0.106 OA 
ENDBRANCH   9  11
ENDBRANCH   8   9
TORSDOF 2
ENDMDL
MODEL      260
REMARK 921   NORMALIZED FREE ENERGY PREDICTED BY IDOCK:   -2.87 KCAL/MOL
REMARK 922        TOTAL FREE ENERGY PREDICTED BY IDOCK:   -3.82 KCAL/MOL
REMARK 923 INTER-LIGAND FREE ENERGY PREDICTED BY IDOCK:   -3.75 KCAL/MOL
REMARK 924 INTRA-LIGAND FREE ENERGY PREDICTED BY IDOCK:   -0.07 KCAL/MOL
REMARK 927      BINDING AFFINITY PREDICTED BY RF-SCORE:    0.00 PKD
ROOT
HETATM    1  C   UNL     1      -7.557   5.377  69.650  1.00  0.00    -0.070 C  
HETATM    2  C   UNL     1      -8.537   5.591  70.770  1.00  0.00    -0.128 A  
HETATM    3  C   UNL     1      -8.954   4.535  71.606  1.00  0.00    -0.125 A  
HETATM    4 CL   UNL     1      -8.579   2.882  71.256  1.00  0.00    -0.095 Cl 
HETATM    5  C   UNL     1      -9.737   4.773  72.740  1.00  0.00    -0.171 A  
HETATM    6  C   UNL     1     -10.096   6.068  73.078  1.00  0.00    -0.195 A  
HETATM    7  C   UNL     1      -9.765   7.106  72.214  1.00  0.00    -0.173 A  
HETATM    8  C   UNL     1      -9.080   6.870  71.005  1.00  0.00    -0.155 A  
ENDROOT
BRANCH   8   9
HETATM    9  N   UNL     1      -8.984   7.904  70.021  1.00  0.00    -0.145 NA 
HETATM   10  H   UNL     1      -8.118   7.974  69.486  1.00  0.00     0.000 HD 
BRANCH   9  11
HETATM   11  C   UNL     1     -10.018   8.841  69.740  1.00  0.00    -0.190 A  
HETATM   12  C   UNL     1     -10.595   9.585  70.788  1.00  0.00    -0.387 A  
HETATM   13  C   UNL     1     -11.465  10.647  70.539  1.00  0.00    -0.407 A  
HETATM   14  C   UNL     1     -11.804  10.968  69.229  1.00  0.00    -0.411 A  
HETATM   15  C   UNL     1     -11.350  10.167  68.185  1.00  0.00    -0.171 A  
HETATM   16  C   UNL     1     -10.501   9.078  68.442  1.00  0.00    -0.234 A  
HETATM   17  C   UNL     1     -10.171   8.195  67.303  1.00  0.00    -0.278 C  
HETATM   18  O   UNL     1      -9.956   8.602  66.177  1.00  0.00    -0.260 OA 
HETATM   19  O   UNL     1     -10.201   6.887  67.637  1.00  0.00    -0.157 OA 
ENDBRANCH   9  11
ENDBRANCH   8   9
TORSDOF 2
ENDMDL
MODEL      261
REMARK 921   NORMALIZED FREE ENERGY PREDICTED BY IDOCK:   -2.84 KCAL/MOL
REMARK 922        TOTAL FREE ENERGY PREDICTED BY IDOCK:   -3.79 KCAL/MOL
REMARK 923 INTER-LIGAND FREE ENERGY PREDICTED BY IDOCK:   -3.57 KCAL/MOL
REMARK 924 INTRA-LIGAND FREE ENERGY PREDICTED BY IDOCK:   -0.22 KCAL/MOL
REMARK 927      BINDING AFFINITY PREDICTED BY RF-SCORE:    0.00 PKD
ROOT
HETATM    1  C   UNL     1     -10.961   5.997  69.580  1.00  0.00    -0.467 C  
HETATM    2  C   UNL     1     -10.829   7.494  69.650  1.00  0.00    -0.210 A  
HETATM    3  C   UNL     1     -10.734   8.288  68.489  1.00  0.00    -0.017 A  
HETATM    4 CL   UNL     1     -10.506   7.597  66.918  1.00  0.00    -0.402 Cl 
HETATM    5  C   UNL     1     -10.774   9.684  68.558  1.00  0.00    -0.239 A  
HETATM    6  C   UNL     1     -10.936  10.314  69.782  1.00  0.00    -0.338 A  
HETATM    7  C   UNL     1     -10.941   9.545  70.941  1.00  0.00    -0.407 A  
HETATM    8  C   UNL     1     -10.782   8.146  70.898  1.00  0.00    -0.221 A  
ENDROOT
BRANCH   8   9
HETATM    9  N   UNL     1     -10.530   7.415  72.102  1.00  0.00    -0.204 NA 
HETATM   10  H   UNL     1     -11.198   7.511  72.867  1.00  0.00     0.000 HD 
BRANCH   9  11
HETATM   11  C   UNL     1      -9.407   6.563  72.302  1.00  0.00    -0.137 A  
HETATM   12  C   UNL     1      -8.158   6.905  71.746  1.00  0.00    -0.101 A  
HETATM   13  C   UNL     1      -6.995   6.210  72.077  1.00  0.00    -0.078 A  
HETATM   14  C   UNL     1      -7.062   5.130  72.951  1.00  0.00    -0.087 A  
HETATM   15  C   UNL     1      -8.300   4.693  73.411  1.00  0.00    -0.103 A  
HETATM   16  C   UNL     1      -9.474   5.375  73.049  1.00  0.00    -0.152 A  
HETATM   17  C   UNL     1     -10.760   4.774  73.463  1.00  0.00    -0.273 C  
HETATM   18  O   UNL     1     -10.935   4.237  74.541  1.00  0.00    -0.238 OA 
HETATM   19  O   UNL     1     -11.693   4.827  72.490  1.00  0.00     0.098 OA 
ENDBRANCH   9  11
ENDBRANCH   8   9
TORSDOF 2
ENDMDL
MODEL      262
REMARK 921   NORMALIZED FREE ENERGY PREDICTED BY IDOCK:   -2.83 KCAL/MOL
REMARK 922        TOTAL FREE ENERGY PREDICTED BY IDOCK:   -3.78 KCAL/MOL
REMARK 923 INTER-LIGAND FREE ENERGY PREDICTED BY IDOCK:   -3.40 KCAL/MOL
REMARK 924 INTRA-LIGAND FREE ENERGY PREDICTED BY IDOCK:   -0.38 KCAL/MOL
REMARK 927      BINDING AFFINITY PREDICTED BY RF-SCORE:    0.00 PKD
ROOT
HETATM    1  C   UNL     1      -7.219  11.666  68.701  1.00  0.00    -0.104 C  
HETATM    2  C   UNL     1      -8.639  11.707  68.208  1.00  0.00    -0.162 A  
HETATM    3  C   UNL     1      -9.323  12.924  68.009  1.00  0.00    -0.213 A  
HETATM    4 CL   UNL     1      -8.683  14.438  68.552  1.00  0.00    -0.179 Cl 
HETATM    5  C   UNL     1     -10.581  12.959  67.400  1.00  0.00    -0.242 A  
HETATM    6  C   UNL     1     -11.170  11.787  66.954  1.00  0.00    -0.387 A  
HETATM    7  C   UNL     1     -10.546  10.574  67.225  1.00  0.00    -0.317 A  
HETATM    8  C   UNL     1      -9.335  10.511  67.943  1.00  0.00    -0.143 A  
ENDROOT
BRANCH   8   9
HETATM    9  N   UNL     1      -8.854   9.255  68.431  1.00  0.00    -0.129 NA 
HETATM   10  H   UNL     1      -8.178   9.268  69.194  1.00  0.00     0.000 HD 
BRANCH   9  11
HETATM   11  C   UNL     1      -9.257   7.989  67.918  1.00  0.00    -0.131 A  
HETATM   12  C   UNL     1     -10.522   7.467  68.251  1.00  0.00    -0.231 A  
HETATM   13  C   UNL     1     -11.036   6.333  67.622  1.00  0.00    -0.438 A  
HETATM   14  C   UNL     1     -10.274   5.673  66.663  1.00  0.00    -0.276 A  
HETATM   15  C   UNL     1      -8.971   6.093  66.411  1.00  0.00    -0.156 A  
HETATM   16  C   UNL     1      -8.445   7.215  67.072  1.00  0.00    -0.122 A  
HETATM   17  C   UNL     1      -7.015   7.519  66.855  1.00  0.00    -0.079 C  
HETATM   18  O   UNL     1      -6.457   7.400  65.780  1.00  0.00    -0.043 OA 
HETATM   19  O   UNL     1      -6.383   7.875  67.993  1.00  0.00    -0.048 OA 
ENDBRANCH   9  11
ENDBRANCH   8   9
TORSDOF 2
ENDMDL
MODEL      263
REMARK 921   NORMALIZED FREE ENERGY PREDICTED BY IDOCK:   -2.81 KCAL/MOL
REMARK 922        TOTAL FREE ENERGY PREDICTED BY IDOCK:   -3.76 KCAL/MOL
REMARK 923 INTER-LIGAND FREE ENERGY PREDICTED BY IDOCK:   -3.06 KCAL/MOL
REMARK 924 INTRA-LIGAND FREE ENERGY PREDICTED BY IDOCK:   -0.70 KCAL/MOL
REMARK 927      BINDING AFFINITY PREDICTED BY RF-SCORE:    0.00 PKD
ROOT
HETATM    1  C   UNL     1     -10.910  10.212  67.465  1.00  0.00    -0.349 C  
HETATM    2  C   UNL     1     -10.524   8.777  67.700  1.00  0.00    -0.310 A  
HETATM    3  C   UNL     1     -10.766   8.134  68.931  1.00  0.00    -0.064 A  
HETATM    4 CL   UNL     1     -11.282   9.001  70.336  1.00  0.00    -0.281 Cl 
HETATM    5  C   UNL     1     -10.553   6.761  69.086  1.00  0.00    -0.261 A  
HETATM    6  C   UNL     1     -10.121   5.999  68.012  1.00  0.00    -0.187 A  
HETATM    7  C   UNL     1      -9.796   6.637  66.820  1.00  0.00    -0.227 A  
HETATM    8  C   UNL     1      -9.890   8.036  66.682  1.00  0.00    -0.252 A  
ENDROOT
BRANCH   8   9
HETATM    9  N   UNL     1      -9.308   8.687  65.549  1.00  0.00    -0.436 NA 
HETATM   10  H   UNL     1      -9.904   8.858  64.739  1.00  0.00     0.000 HD 
BRANCH   9  11
HETATM   11  C   UNL     1      -7.951   9.112  65.479  1.00  0.00    -0.104 A  
HETATM   12  C   UNL     1      -7.587  10.383  65.966  1.00  0.00    -0.137 A  
HETATM   13  C   UNL     1      -6.251  10.762  66.098  1.00  0.00    -0.134 A  
HETATM   14  C   UNL     1      -5.244   9.882  65.712  1.00  0.00    -0.041 A  
HETATM   15  C   UNL     1      -5.580   8.674  65.109  1.00  0.00    -0.047 A  
HETATM   16  C   UNL     1      -6.927   8.311  64.946  1.00  0.00    -0.074 A  
HETATM   17  C   UNL     1      -7.207   7.080  64.177  1.00  0.00    -0.069 C  
HETATM   18  O   UNL     1      -6.536   6.068  64.259  1.00  0.00    -0.032 OA 
HETATM   19  O   UNL     1      -8.246   7.226  63.328  1.00  0.00    -0.058 OA 
ENDBRANCH   9  11
ENDBRANCH   8   9
TORSDOF 2
ENDMDL
MODEL      264
REMARK 921   NORMALIZED FREE ENERGY PREDICTED BY IDOCK:   -2.81 KCAL/MOL
REMARK 922        TOTAL FREE ENERGY PREDICTED BY IDOCK:   -3.76 KCAL/MOL
REMARK 923 INTER-LIGAND FREE ENERGY PREDICTED BY IDOCK:   -3.29 KCAL/MOL
REMARK 924 INTRA-LIGAND FREE ENERGY PREDICTED BY IDOCK:   -0.47 KCAL/MOL
REMARK 927      BINDING AFFINITY PREDICTED BY RF-SCORE:    0.00 PKD
ROOT
HETATM    1  C   UNL     1     -11.237   7.573  69.876  1.00  0.00    -0.124 C  
HETATM    2  C   UNL     1     -10.042   7.928  70.718  1.00  0.00    -0.201 A  
HETATM    3  C   UNL     1     -10.069   7.835  72.124  1.00  0.00    -0.210 A  
HETATM    4 CL   UNL     1     -11.535   7.558  73.000  1.00  0.00    -0.315 Cl 
HETATM    5  C   UNL     1      -8.909   8.011  72.886  1.00  0.00    -0.287 A  
HETATM    6  C   UNL     1      -7.697   8.255  72.260  1.00  0.00    -0.168 A  
HETATM    7  C   UNL     1      -7.675   8.435  70.881  1.00  0.00    -0.088 A  
HETATM    8  C   UNL     1      -8.853   8.380  70.110  1.00  0.00    -0.141 A  
ENDROOT
BRANCH   8   9
HETATM    9  N   UNL     1      -8.844   8.824  68.750  1.00  0.00    -0.134 NA 
HETATM   10  H   UNL     1      -8.446   8.200  68.048  1.00  0.00     0.000 HD 
BRANCH   9  11
HETATM   11  C   UNL     1      -9.353  10.080  68.313  1.00  0.00    -0.132 A  
HETATM   12  C   UNL     1     -10.681  10.178  67.853  1.00  0.00    -0.317 A  
HETATM   13  C   UNL     1     -11.280  11.412  67.603  1.00  0.00    -0.346 A  
HETATM   14  C   UNL     1     -10.548  12.582  67.777  1.00  0.00    -0.235 A  
HETATM   15  C   UNL     1      -9.198  12.505  68.105  1.00  0.00    -0.209 A  
HETATM   16  C   UNL     1      -8.588  11.258  68.324  1.00  0.00    -0.153 A  
HETATM   17  C   UNL     1      -7.125  11.249  68.535  1.00  0.00    -0.083 C  
HETATM   18  O   UNL     1      -6.533  12.093  69.181  1.00  0.00    -0.085 OA 
HETATM   19  O   UNL     1      -6.514  10.241  67.875  1.00  0.00    -0.060 OA 
ENDBRANCH   9  11
ENDBRANCH   8   9
TORSDOF 2
ENDMDL
MODEL      265
REMARK 921   NORMALIZED FREE ENERGY PREDICTED BY IDOCK:   -2.80 KCAL/MOL
REMARK 922        TOTAL FREE ENERGY PREDICTED BY IDOCK:   -3.75 KCAL/MOL
REMARK 923 INTER-LIGAND FREE ENERGY PREDICTED BY IDOCK:   -3.13 KCAL/MOL
REMARK 924 INTRA-LIGAND FREE ENERGY PREDICTED BY IDOCK:   -0.62 KCAL/MOL
REMARK 927      BINDING AFFINITY PREDICTED BY RF-SCORE:    0.00 PKD
ROOT
HETATM    1  C   UNL     1     -10.034  12.620  67.793  1.00  0.00    -0.218 C  
HETATM    2  C   UNL     1     -10.552  13.786  68.591  1.00  0.00    -0.263 A  
HETATM    3  C   UNL     1     -11.701  13.682  69.401  1.00  0.00    -0.324 A  
HETATM    4 CL   UNL     1     -12.744  12.302  69.344  1.00  0.00     0.499 Cl 
HETATM    5  C   UNL     1     -12.080  14.717  70.261  1.00  0.00    -0.380 A  
HETATM    6  C   UNL     1     -11.307  15.864  70.350  1.00  0.00    -0.399 A  
HETATM    7  C   UNL     1     -10.222  16.014  69.493  1.00  0.00    -0.274 A  
HETATM    8  C   UNL     1      -9.896  15.032  68.536  1.00  0.00    -0.217 A  
ENDROOT
BRANCH   8   9
HETATM    9  N   UNL     1      -8.950  15.322  67.503  1.00  0.00    -0.181 NA 
HETATM   10  H   UNL     1      -9.041  14.820  66.619  1.00  0.00     0.000 HD 
BRANCH   9  11
HETATM   11  C   UNL     1      -7.891  16.265  67.628  1.00  0.00    -0.145 A  
HETATM   12  C   UNL     1      -8.057  17.576  67.139  1.00  0.00    -0.229 A  
HETATM   13  C   UNL     1      -7.130  18.583  67.412  1.00  0.00    -0.208 A  
HETATM   14  C   UNL     1      -5.993  18.288  68.158  1.00  0.00    -0.174 A  
HETATM   15  C   UNL     1      -5.743  16.974  68.540  1.00  0.00    -0.139 A  
HETATM   16  C   UNL     1      -6.662  15.957  68.234  1.00  0.00    -0.122 A  
HETATM   17  C   UNL     1      -6.265  14.568  68.553  1.00  0.00    -0.089 C  
HETATM   18  O   UNL     1      -5.657  14.257  69.559  1.00  0.00    -0.090 OA 
HETATM   19  O   UNL     1      -6.592  13.699  67.572  1.00  0.00    -0.171 OA 
ENDBRANCH   9  11
ENDBRANCH   8   9
TORSDOF 2
ENDMDL
MODEL      266
REMARK 921   NORMALIZED FREE ENERGY PREDICTED BY IDOCK:   -2.79 KCAL/MOL
REMARK 922        TOTAL FREE ENERGY PREDICTED BY IDOCK:   -3.74 KCAL/MOL
REMARK 923 INTER-LIGAND FREE ENERGY PREDICTED BY IDOCK:   -3.22 KCAL/MOL
REMARK 924 INTRA-LIGAND FREE ENERGY PREDICTED BY IDOCK:   -0.52 KCAL/MOL
REMARK 927      BINDING AFFINITY PREDICTED BY RF-SCORE:    0.00 PKD
ROOT
HETATM    1  C   UNL     1     -10.882   6.630  71.333  1.00  0.00    -0.282 C  
HETATM    2  C   UNL     1     -10.370   5.215  71.303  1.00  0.00    -0.276 A  
HETATM    3  C   UNL     1     -10.478   4.361  72.420  1.00  0.00    -0.149 A  
HETATM    4 CL   UNL     1     -10.967   4.939  73.976  1.00  0.00    -0.313 Cl 
HETATM    5  C   UNL     1     -10.148   3.005  72.331  1.00  0.00    -0.229 A  
HETATM    6  C   UNL     1      -9.730   2.469  71.123  1.00  0.00    -0.180 A  
HETATM    7  C   UNL     1      -9.536   3.319  70.040  1.00  0.00    -0.231 A  
HETATM    8  C   UNL     1      -9.749   4.708  70.144  1.00  0.00    -0.215 A  
ENDROOT
BRANCH   8   9
HETATM    9  N   UNL     1      -9.296   5.584  69.108  1.00  0.00    -0.121 NA 
HETATM   10  H   UNL     1      -9.562   6.567  69.165  1.00  0.00     0.000 HD 
BRANCH   9  11
HETATM   11  C   UNL     1      -8.498   5.173  68.002  1.00  0.00    -0.100 A  
HETATM   12  C   UNL     1      -7.113   4.980  68.169  1.00  0.00    -0.062 A  
HETATM   13  C   UNL     1      -6.330   4.393  67.175  1.00  0.00    -0.041 A  
HETATM   14  C   UNL     1      -6.915   4.014  65.971  1.00  0.00    -0.065 A  
HETATM   15  C   UNL     1      -8.253   4.312  65.733  1.00  0.00    -0.109 A  
HETATM   16  C   UNL     1      -9.031   4.934  66.724  1.00  0.00    -0.110 A  
HETATM   17  C   UNL     1     -10.402   5.341  66.352  1.00  0.00    -0.268 C  
HETATM   18  O   UNL     1     -11.133   4.674  65.643  1.00  0.00    -0.182 OA 
HETATM   19  O   UNL     1     -10.727   6.561  66.828  1.00  0.00    -0.291 OA 
ENDBRANCH   9  11
ENDBRANCH   8   9
TORSDOF 2
ENDMDL
MODEL      267
REMARK 921   NORMALIZED FREE ENERGY PREDICTED BY IDOCK:   -2.79 KCAL/MOL
REMARK 922        TOTAL FREE ENERGY PREDICTED BY IDOCK:   -3.74 KCAL/MOL
REMARK 923 INTER-LIGAND FREE ENERGY PREDICTED BY IDOCK:   -3.20 KCAL/MOL
REMARK 924 INTRA-LIGAND FREE ENERGY PREDICTED BY IDOCK:   -0.54 KCAL/MOL
REMARK 927      BINDING AFFINITY PREDICTED BY RF-SCORE:    0.00 PKD
ROOT
HETATM    1  C   UNL     1      -6.862  12.499  67.572  1.00  0.00    -0.150 C  
HETATM    2  C   UNL     1      -8.286  12.563  67.093  1.00  0.00    -0.179 A  
HETATM    3  C   UNL     1      -8.935  13.790  66.848  1.00  0.00    -0.221 A  
HETATM    4 CL   UNL     1      -8.243  15.305  67.317  1.00  0.00    -0.210 Cl 
HETATM    5  C   UNL     1     -10.199  13.837  66.251  1.00  0.00    -0.298 A  
HETATM    6  C   UNL     1     -10.828  12.665  65.863  1.00  0.00    -0.300 A  
HETATM    7  C   UNL     1     -10.238  11.446  66.179  1.00  0.00    -0.282 A  
HETATM    8  C   UNL     1      -9.021  11.378  66.887  1.00  0.00    -0.171 A  
ENDROOT
BRANCH   8   9
HETATM    9  N   UNL     1      -8.572  10.130  67.424  1.00  0.00    -0.122 NA 
HETATM   10  H   UNL     1      -8.126  10.139  68.341  1.00  0.00     0.000 HD 
BRANCH   9  11
HETATM   11  C   UNL     1      -8.708   8.877  66.762  1.00  0.00    -0.119 A  
HETATM   12  C   UNL     1      -8.193   8.711  65.461  1.00  0.00    -0.135 A  
HETATM   13  C   UNL     1      -8.127   7.457  64.853  1.00  0.00    -0.114 A  
HETATM   14  C   UNL     1      -8.609   6.340  65.526  1.00  0.00    -0.124 A  
HETATM   15  C   UNL     1      -9.240   6.497  66.756  1.00  0.00    -0.163 A  
HETATM   16  C   UNL     1      -9.335   7.766  67.350  1.00  0.00    -0.168 A  
HETATM   17  C   UNL     1     -10.135   7.876  68.589  1.00  0.00    -0.197 C  
HETATM   18  O   UNL     1     -10.137   7.032  69.465  1.00  0.00    -0.167 OA 
HETATM   19  O   UNL     1     -10.913   8.979  68.606  1.00  0.00    -0.078 OA 
ENDBRANCH   9  11
ENDBRANCH   8   9
TORSDOF 2
ENDMDL
MODEL      268
REMARK 921   NORMALIZED FREE ENERGY PREDICTED BY IDOCK:   -2.78 KCAL/MOL
REMARK 922        TOTAL FREE ENERGY PREDICTED BY IDOCK:   -3.73 KCAL/MOL
REMARK 923 INTER-LIGAND FREE ENERGY PREDICTED BY IDOCK:   -5.40 KCAL/MOL
REMARK 924 INTRA-LIGAND FREE ENERGY PREDICTED BY IDOCK:    1.67 KCAL/MOL
REMARK 927      BINDING AFFINITY PREDICTED BY RF-SCORE:    0.00 PKD
ROOT
HETATM    1  C   UNL     1     -12.015  11.633  69.915  1.00  0.00    -0.414 C  
HETATM    2  C   UNL     1     -12.255  13.109  70.083  1.00  0.00    -0.360 A  
HETATM    3  C   UNL     1     -12.853  13.637  71.245  1.00  0.00    -0.344 A  
HETATM    4 CL   UNL     1     -13.585  12.626  72.444  1.00  0.00    -0.580 Cl 
HETATM    5  C   UNL     1     -12.925  15.017  71.462  1.00  0.00    -0.434 A  
HETATM    6  C   UNL     1     -12.378  15.894  70.539  1.00  0.00    -0.280 A  
HETATM    7  C   UNL     1     -11.865  15.388  69.349  1.00  0.00    -0.372 A  
HETATM    8  C   UNL     1     -11.893  14.009  69.061  1.00  0.00    -0.354 A  
ENDROOT
BRANCH   8   9
HETATM    9  N   UNL     1     -11.604  13.546  67.739  1.00  0.00    -0.318 NA 
HETATM   10  H   UNL     1     -12.108  13.975  66.963  1.00  0.00     0.000 HD 
BRANCH   9  11
HETATM   11  C   UNL     1     -10.660  12.524  67.437  1.00  0.00    -0.223 A  
HETATM   12  C   UNL     1     -11.095  11.195  67.265  1.00  0.00    -0.366 A  
HETATM   13  C   UNL     1     -10.243  10.203  66.778  1.00  0.00    -0.289 A  
HETATM   14  C   UNL     1      -8.920  10.515  66.483  1.00  0.00    -0.171 A  
HETATM   15  C   UNL     1      -8.434  11.787  66.766  1.00  0.00    -0.177 A  
HETATM   16  C   UNL     1      -9.286  12.774  67.288  1.00  0.00    -0.203 A  
HETATM   17  C   UNL     1      -8.669  14.057  67.689  1.00  0.00    -0.189 C  
HETATM   18  O   UNL     1      -7.778  14.599  67.064  1.00  0.00    -0.146 OA 
HETATM   19  O   UNL     1      -9.156  14.521  68.860  1.00  0.00    -0.180 OA 
ENDBRANCH   9  11
ENDBRANCH   8   9
TORSDOF 2
ENDMDL
MODEL      269
REMARK 921   NORMALIZED FREE ENERGY PREDICTED BY IDOCK:   -2.77 KCAL/MOL
REMARK 922        TOTAL FREE ENERGY PREDICTED BY IDOCK:   -3.71 KCAL/MOL
REMARK 923 INTER-LIGAND FREE ENERGY PREDICTED BY IDOCK:   -3.04 KCAL/MOL
REMARK 924 INTRA-LIGAND FREE ENERGY PREDICTED BY IDOCK:   -0.67 KCAL/MOL
REMARK 927      BINDING AFFINITY PREDICTED BY RF-SCORE:    0.00 PKD
ROOT
HETATM    1  C   UNL     1      -7.353   6.476  67.217  1.00  0.00    -0.087 C  
HETATM    2  C   UNL     1      -8.714   6.488  67.857  1.00  0.00    -0.116 A  
HETATM    3  C   UNL     1      -9.327   5.307  68.324  1.00  0.00    -0.118 A  
HETATM    4 CL   UNL     1      -8.689   3.738  67.971  1.00  0.00    -0.115 Cl 
HETATM    5  C   UNL     1     -10.515   5.349  69.060  1.00  0.00    -0.252 A  
HETATM    6  C   UNL     1     -11.100   6.566  69.368  1.00  0.00    -0.407 A  
HETATM    7  C   UNL     1     -10.553   7.730  68.838  1.00  0.00    -0.168 A  
HETATM    8  C   UNL     1      -9.424   7.698  67.996  1.00  0.00    -0.143 A  
ENDROOT
BRANCH   8   9
HETATM    9  N   UNL     1      -9.042   8.864  67.261  1.00  0.00    -0.133 NA 
HETATM   10  H   UNL     1      -9.179   8.857  66.250  1.00  0.00     0.000 HD 
BRANCH   9  11
HETATM   11  C   UNL     1      -8.484  10.035  67.849  1.00  0.00    -0.118 A  
HETATM   12  C   UNL     1      -7.421   9.921  68.766  1.00  0.00    -0.079 A  
HETATM   13  C   UNL     1      -6.717  11.039  69.214  1.00  0.00    -0.099 A  
HETATM   14  C   UNL     1      -7.087  12.306  68.777  1.00  0.00    -0.107 A  
HETATM   15  C   UNL     1      -8.214  12.455  67.974  1.00  0.00    -0.168 A  
HETATM   16  C   UNL     1      -8.941  11.330  67.552  1.00  0.00    -0.140 A  
HETATM   17  C   UNL     1     -10.199  11.574  66.817  1.00  0.00    -0.219 C  
HETATM   18  O   UNL     1     -10.337  12.460  65.994  1.00  0.00    -0.241 OA 
HETATM   19  O   UNL     1     -11.195  10.752  67.209  1.00  0.00    -0.324 OA 
ENDBRANCH   9  11
ENDBRANCH   8   9
TORSDOF 2
ENDMDL
MODEL      270
REMARK 921   NORMALIZED FREE ENERGY PREDICTED BY IDOCK:   -2.74 KCAL/MOL
REMARK 922        TOTAL FREE ENERGY PREDICTED BY IDOCK:   -3.68 KCAL/MOL
REMARK 923 INTER-LIGAND FREE ENERGY PREDICTED BY IDOCK:   -3.40 KCAL/MOL
REMARK 924 INTRA-LIGAND FREE ENERGY PREDICTED BY IDOCK:   -0.29 KCAL/MOL
REMARK 927      BINDING AFFINITY PREDICTED BY RF-SCORE:    0.00 PKD
ROOT
HETATM    1  C   UNL     1     -11.711   6.462  71.558  1.00  0.00    -0.369 C  
HETATM    2  C   UNL     1     -10.778   5.300  71.351  1.00  0.00    -0.203 A  
HETATM    3  C   UNL     1     -10.490   4.384  72.383  1.00  0.00    -0.149 A  
HETATM    4 CL   UNL     1     -10.973   4.663  74.021  1.00  0.00    -0.329 Cl 
HETATM    5  C   UNL     1      -9.754   3.221  72.137  1.00  0.00    -0.230 A  
HETATM    6  C   UNL     1      -9.314   2.935  70.854  1.00  0.00    -0.220 A  
HETATM    7  C   UNL     1      -9.516   3.873  69.848  1.00  0.00    -0.267 A  
HETATM    8  C   UNL     1     -10.151   5.105  70.103  1.00  0.00    -0.272 A  
ENDROOT
BRANCH   8   9
HETATM    9  N   UNL     1     -10.114   6.149  69.126  1.00  0.00    -0.159 NA 
HETATM   10  H   UNL     1     -10.630   6.007  68.257  1.00  0.00     0.000 HD 
BRANCH   9  11
HETATM   11  C   UNL     1      -9.403   7.372  69.287  1.00  0.00    -0.154 A  
HETATM   12  C   UNL     1     -10.108   8.566  69.536  1.00  0.00    -0.200 A  
HETATM   13  C   UNL     1      -9.451   9.743  69.894  1.00  0.00    -0.264 A  
HETATM   14  C   UNL     1      -8.062   9.759  69.977  1.00  0.00    -0.203 A  
HETATM   15  C   UNL     1      -7.338   8.629  69.610  1.00  0.00    -0.056 A  
HETATM   16  C   UNL     1      -8.003   7.455  69.218  1.00  0.00    -0.118 A  
HETATM   17  C   UNL     1      -7.169   6.343  68.713  1.00  0.00    -0.085 C  
HETATM   18  O   UNL     1      -6.090   6.042  69.187  1.00  0.00    -0.026 OA 
HETATM   19  O   UNL     1      -7.707   5.745  67.629  1.00  0.00    -0.095 OA 
ENDBRANCH   9  11
ENDBRANCH   8   9
TORSDOF 2
ENDMDL
MODEL      271
REMARK 921   NORMALIZED FREE ENERGY PREDICTED BY IDOCK:   -2.74 KCAL/MOL
REMARK 922        TOTAL FREE ENERGY PREDICTED BY IDOCK:   -3.68 KCAL/MOL
REMARK 923 INTER-LIGAND FREE ENERGY PREDICTED BY IDOCK:   -3.03 KCAL/MOL
REMARK 924 INTRA-LIGAND FREE ENERGY PREDICTED BY IDOCK:   -0.65 KCAL/MOL
REMARK 927      BINDING AFFINITY PREDICTED BY RF-SCORE:    0.00 PKD
ROOT
HETATM    1  C   UNL     1     -11.434  10.848  69.849  1.00  0.00    -0.402 C  
HETATM    2  C   UNL     1     -10.223  10.886  68.957  1.00  0.00    -0.219 A  
HETATM    3  C   UNL     1     -10.216  11.602  67.743  1.00  0.00    -0.186 A  
HETATM    4 CL   UNL     1     -11.659  12.272  67.062  1.00  0.00    -0.416 Cl 
HETATM    5  C   UNL     1      -9.040  11.764  67.003  1.00  0.00    -0.187 A  
HETATM    6  C   UNL     1      -7.846  11.240  67.472  1.00  0.00    -0.123 A  
HETATM    7  C   UNL     1      -7.859  10.458  68.622  1.00  0.00    -0.108 A  
HETATM    8  C   UNL     1      -9.054  10.184  69.315  1.00  0.00    -0.198 A  
ENDROOT
BRANCH   8   9
HETATM    9  N   UNL     1      -9.082   9.176  70.330  1.00  0.00    -0.198 NA 
HETATM   10  H   UNL     1      -9.458   9.429  71.243  1.00  0.00     0.000 HD 
BRANCH   9  11
HETATM   11  C   UNL     1      -8.616   7.843  70.147  1.00  0.00    -0.134 A  
HETATM   12  C   UNL     1      -9.399   6.918  69.429  1.00  0.00    -0.146 A  
HETATM   13  C   UNL     1      -8.902   5.669  69.058  1.00  0.00    -0.106 A  
HETATM   14  C   UNL     1      -7.612   5.303  69.430  1.00  0.00    -0.069 A  
HETATM   15  C   UNL     1      -6.868   6.145  70.250  1.00  0.00    -0.054 A  
HETATM   16  C   UNL     1      -7.385   7.389  70.649  1.00  0.00    -0.070 A  
HETATM   17  C   UNL     1      -6.595   8.167  71.627  1.00  0.00    -0.058 C  
HETATM   18  O   UNL     1      -5.381   8.237  71.607  1.00  0.00    -0.033 OA 
HETATM   19  O   UNL     1      -7.366   8.734  72.579  1.00  0.00    -0.323 OA 
ENDBRANCH   9  11
ENDBRANCH   8   9
TORSDOF 2
ENDMDL
MODEL      272
REMARK 921   NORMALIZED FREE ENERGY PREDICTED BY IDOCK:   -2.72 KCAL/MOL
REMARK 922        TOTAL FREE ENERGY PREDICTED BY IDOCK:   -3.66 KCAL/MOL
REMARK 923 INTER-LIGAND FREE ENERGY PREDICTED BY IDOCK:   -3.17 KCAL/MOL
REMARK 924 INTRA-LIGAND FREE ENERGY PREDICTED BY IDOCK:   -0.49 KCAL/MOL
REMARK 927      BINDING AFFINITY PREDICTED BY RF-SCORE:    0.00 PKD
ROOT
HETATM    1  C   UNL     1     -10.823   6.712  68.799  1.00  0.00    -0.321 C  
HETATM    2  C   UNL     1     -10.559   6.039  70.119  1.00  0.00    -0.341 A  
HETATM    3  C   UNL     1     -11.399   6.231  71.234  1.00  0.00    -0.297 A  
HETATM    4 CL   UNL     1     -12.638   7.439  71.254  1.00  0.00    -0.382 Cl 
HETATM    5  C   UNL     1     -11.239   5.479  72.402  1.00  0.00    -0.305 A  
HETATM    6  C   UNL     1     -10.257   4.504  72.471  1.00  0.00    -0.246 A  
HETATM    7  C   UNL     1      -9.367   4.367  71.412  1.00  0.00    -0.206 A  
HETATM    8  C   UNL     1      -9.439   5.198  70.276  1.00  0.00    -0.172 A  
ENDROOT
BRANCH   8   9
HETATM    9  N   UNL     1      -8.366   5.214  69.329  1.00  0.00    -0.087 NA 
HETATM   10  H   UNL     1      -7.565   5.815  69.526  1.00  0.00     0.000 HD 
BRANCH   9  11
HETATM   11  C   UNL     1      -8.344   4.448  68.129  1.00  0.00    -0.093 A  
HETATM   12  C   UNL     1      -9.072   3.244  68.052  1.00  0.00    -0.214 A  
HETATM   13  C   UNL     1      -9.239   2.566  66.845  1.00  0.00    -0.102 A  
HETATM   14  C   UNL     1      -8.650   3.064  65.687  1.00  0.00    -0.115 A  
HETATM   15  C   UNL     1      -7.820   4.178  65.763  1.00  0.00    -0.090 A  
HETATM   16  C   UNL     1      -7.626   4.839  66.987  1.00  0.00    -0.087 A  
HETATM   17  C   UNL     1      -6.628   5.930  67.016  1.00  0.00    -0.056 C  
HETATM   18  O   UNL     1      -6.479   6.729  66.111  1.00  0.00    -0.047 OA 
HETATM   19  O   UNL     1      -5.859   5.896  68.125  1.00  0.00    -0.011 OA 
ENDBRANCH   9  11
ENDBRANCH   8   9
TORSDOF 2
ENDMDL
MODEL      273
REMARK 921   NORMALIZED FREE ENERGY PREDICTED BY IDOCK:   -2.72 KCAL/MOL
REMARK 922        TOTAL FREE ENERGY PREDICTED BY IDOCK:   -3.65 KCAL/MOL
REMARK 923 INTER-LIGAND FREE ENERGY PREDICTED BY IDOCK:   -3.17 KCAL/MOL
REMARK 924 INTRA-LIGAND FREE ENERGY PREDICTED BY IDOCK:   -0.49 KCAL/MOL
REMARK 927      BINDING AFFINITY PREDICTED BY RF-SCORE:    0.00 PKD
ROOT
HETATM    1  C   UNL     1     -10.687   6.340  70.626  1.00  0.00    -0.321 C  
HETATM    2  C   UNL     1      -9.906   6.959  71.753  1.00  0.00    -0.170 A  
HETATM    3  C   UNL     1     -10.003   6.482  73.076  1.00  0.00    -0.172 A  
HETATM    4 CL   UNL     1     -11.205   5.332  73.553  1.00  0.00    -0.318 Cl 
HETATM    5  C   UNL     1      -9.155   6.955  74.082  1.00  0.00    -0.238 A  
HETATM    6  C   UNL     1      -8.178   7.891  73.785  1.00  0.00    -0.277 A  
HETATM    7  C   UNL     1      -8.131   8.433  72.505  1.00  0.00    -0.177 A  
HETATM    8  C   UNL     1      -9.055   8.056  71.510  1.00  0.00    -0.143 A  
ENDROOT
BRANCH   8   9
HETATM    9  N   UNL     1      -9.151   8.808  70.296  1.00  0.00    -0.159 NA 
HETATM   10  H   UNL     1      -9.888   9.510  70.228  1.00  0.00     0.000 HD 
BRANCH   9  11
HETATM   11  C   UNL     1      -8.286   8.641  69.179  1.00  0.00    -0.117 A  
HETATM   12  C   UNL     1      -6.890   8.621  69.368  1.00  0.00    -0.049 A  
HETATM   13  C   UNL     1      -6.016   8.266  68.341  1.00  0.00    -0.041 A  
HETATM   14  C   UNL     1      -6.522   7.952  67.083  1.00  0.00    -0.056 A  
HETATM   15  C   UNL     1      -7.885   8.090  66.836  1.00  0.00    -0.103 A  
HETATM   16  C   UNL     1      -8.758   8.481  67.865  1.00  0.00    -0.138 A  
HETATM   17  C   UNL     1     -10.166   8.737  67.496  1.00  0.00    -0.246 C  
HETATM   18  O   UNL     1     -10.784   8.063  66.693  1.00  0.00    -0.215 OA 
HETATM   19  O   UNL     1     -10.666   9.838  68.096  1.00  0.00    -0.227 OA 
ENDBRANCH   9  11
ENDBRANCH   8   9
TORSDOF 2
ENDMDL
MODEL      274
REMARK 921   NORMALIZED FREE ENERGY PREDICTED BY IDOCK:   -2.70 KCAL/MOL
REMARK 922        TOTAL FREE ENERGY PREDICTED BY IDOCK:   -3.63 KCAL/MOL
REMARK 923 INTER-LIGAND FREE ENERGY PREDICTED BY IDOCK:   -4.25 KCAL/MOL
REMARK 924 INTRA-LIGAND FREE ENERGY PREDICTED BY IDOCK:    0.61 KCAL/MOL
REMARK 927      BINDING AFFINITY PREDICTED BY RF-SCORE:    0.00 PKD
ROOT
HETATM    1  C   UNL     1     -11.688  13.221  67.968  1.00  0.00    -0.394 C  
HETATM    2  C   UNL     1     -11.015  14.537  68.250  1.00  0.00    -0.258 A  
HETATM    3  C   UNL     1     -11.571  15.481  69.138  1.00  0.00    -0.362 A  
HETATM    4 CL   UNL     1     -13.175  15.319  69.767  1.00  0.00     0.328 Cl 
HETATM    5  C   UNL     1     -10.863  16.626  69.517  1.00  0.00    -0.285 A  
HETATM    6  C   UNL     1      -9.579  16.838  69.041  1.00  0.00    -0.230 A  
HETATM    7  C   UNL     1      -9.056  15.960  68.097  1.00  0.00    -0.182 A  
HETATM    8  C   UNL     1      -9.802  14.867  67.614  1.00  0.00    -0.217 A  
ENDROOT
BRANCH   8   9
HETATM    9  N   UNL     1      -9.350  14.140  66.467  1.00  0.00    -0.363 NA 
HETATM   10  H   UNL     1      -8.346  14.094  66.297  1.00  0.00     0.000 HD 
BRANCH   9  11
HETATM   11  C   UNL     1     -10.213  13.478  65.547  1.00  0.00    -0.295 A  
HETATM   12  C   UNL     1     -10.091  12.089  65.347  1.00  0.00    -0.285 A  
HETATM   13  C   UNL     1     -11.034  11.369  64.612  1.00  0.00    -0.324 A  
HETATM   14  C   UNL     1     -12.107  12.035  64.029  1.00  0.00    -0.506 A  
HETATM   15  C   UNL     1     -12.178  13.423  64.104  1.00  0.00    -0.457 A  
HETATM   16  C   UNL     1     -11.208  14.148  64.817  1.00  0.00    -0.379 A  
HETATM   17  C   UNL     1     -11.273  15.622  64.738  1.00  0.00    -0.382 C  
HETATM   18  O   UNL     1     -12.314  16.252  64.744  1.00  0.00     0.480 OA 
HETATM   19  O   UNL     1     -10.055  16.186  64.591  1.00  0.00    -0.136 OA 
ENDBRANCH   9  11
ENDBRANCH   8   9
TORSDOF 2
ENDMDL
MODEL      275
REMARK 921   NORMALIZED FREE ENERGY PREDICTED BY IDOCK:   -2.69 KCAL/MOL
REMARK 922        TOTAL FREE ENERGY PREDICTED BY IDOCK:   -3.63 KCAL/MOL
REMARK 923 INTER-LIGAND FREE ENERGY PREDICTED BY IDOCK:   -3.14 KCAL/MOL
REMARK 924 INTRA-LIGAND FREE ENERGY PREDICTED BY IDOCK:   -0.49 KCAL/MOL
REMARK 927      BINDING AFFINITY PREDICTED BY RF-SCORE:    0.00 PKD
ROOT
HETATM    1  C   UNL     1      -7.192   6.816  69.428  1.00  0.00    -0.089 C  
HETATM    2  C   UNL     1      -8.463   7.575  69.698  1.00  0.00    -0.135 A  
HETATM    3  C   UNL     1      -8.459   8.957  69.978  1.00  0.00    -0.139 A  
HETATM    4 CL   UNL     1      -6.996   9.829  70.284  1.00  0.00    -0.119 Cl 
HETATM    5  C   UNL     1      -9.651   9.682  70.067  1.00  0.00    -0.281 A  
HETATM    6  C   UNL     1     -10.866   9.052  69.853  1.00  0.00    -0.228 A  
HETATM    7  C   UNL     1     -10.887   7.674  69.664  1.00  0.00    -0.195 A  
HETATM    8  C   UNL     1      -9.705   6.908  69.690  1.00  0.00    -0.155 A  
ENDROOT
BRANCH   8   9
HETATM    9  N   UNL     1      -9.775   5.481  69.755  1.00  0.00    -0.164 NA 
HETATM   10  H   UNL     1      -9.637   4.957  68.891  1.00  0.00     0.000 HD 
BRANCH   9  11
HETATM   11  C   UNL     1     -10.025   4.744  70.948  1.00  0.00    -0.213 A  
HETATM   12  C   UNL     1     -10.487   5.410  72.100  1.00  0.00    -0.273 A  
HETATM   13  C   UNL     1     -10.930   4.710  73.223  1.00  0.00    -0.381 A  
HETATM   14  C   UNL     1     -10.889   3.320  73.228  1.00  0.00    -0.283 A  
HETATM   15  C   UNL     1     -10.317   2.645  72.154  1.00  0.00    -0.080 A  
HETATM   16  C   UNL     1      -9.840   3.355  71.040  1.00  0.00    -0.136 A  
HETATM   17  C   UNL     1      -9.125   2.583  70.001  1.00  0.00    -0.113 C  
HETATM   18  O   UNL     1      -9.457   1.468  69.643  1.00  0.00    -0.103 OA 
HETATM   19  O   UNL     1      -8.027   3.222  69.547  1.00  0.00    -0.049 OA 
ENDBRANCH   9  11
ENDBRANCH   8   9
TORSDOF 2
ENDMDL
MODEL      276
REMARK 921   NORMALIZED FREE ENERGY PREDICTED BY IDOCK:   -2.67 KCAL/MOL
REMARK 922        TOTAL FREE ENERGY PREDICTED BY IDOCK:   -3.61 KCAL/MOL
REMARK 923 INTER-LIGAND FREE ENERGY PREDICTED BY IDOCK:   -3.90 KCAL/MOL
REMARK 924 INTRA-LIGAND FREE ENERGY PREDICTED BY IDOCK:    0.30 KCAL/MOL
REMARK 927      BINDING AFFINITY PREDICTED BY RF-SCORE:    0.00 PKD
ROOT
HETATM    1  C   UNL     1     -10.043   6.042  69.324  1.00  0.00    -0.235 C  
HETATM    2  C   UNL     1     -10.193   7.399  68.693  1.00  0.00    -0.203 A  
HETATM    3  C   UNL     1     -10.121   7.584  67.297  1.00  0.00    -0.231 A  
HETATM    4 CL   UNL     1      -9.605   6.324  66.229  1.00  0.00    -0.157 Cl 
HETATM    5  C   UNL     1     -10.422   8.818  66.712  1.00  0.00    -0.283 A  
HETATM    6  C   UNL     1     -10.824   9.882  67.502  1.00  0.00    -0.307 A  
HETATM    7  C   UNL     1     -10.814   9.737  68.885  1.00  0.00    -0.220 A  
HETATM    8  C   UNL     1     -10.399   8.538  69.498  1.00  0.00    -0.218 A  
ENDROOT
BRANCH   8   9
HETATM    9  N   UNL     1     -10.149   8.500  70.906  1.00  0.00    -0.193 NA 
HETATM   10  H   UNL     1      -9.611   9.265  71.315  1.00  0.00     0.000 HD 
BRANCH   9  11
HETATM   11  C   UNL     1     -10.601   7.465  71.773  1.00  0.00    -0.201 A  
HETATM   12  C   UNL     1     -11.953   7.071  71.750  1.00  0.00    -0.361 A  
HETATM   13  C   UNL     1     -12.398   5.938  72.432  1.00  0.00     0.038 A  
HETATM   14  C   UNL     1     -11.498   5.190  73.185  1.00  0.00    -0.348 A  
HETATM   15  C   UNL     1     -10.186   5.633  73.328  1.00  0.00    -0.217 A  
HETATM   16  C   UNL     1      -9.751   6.793  72.666  1.00  0.00    -0.164 A  
HETATM   17  C   UNL     1      -8.387   7.274  72.973  1.00  0.00    -0.110 C  
HETATM   18  O   UNL     1      -7.434   6.536  73.138  1.00  0.00    -0.089 OA 
HETATM   19  O   UNL     1      -8.333   8.615  73.117  1.00  0.00    -0.405 OA 
ENDBRANCH   9  11
ENDBRANCH   8   9
TORSDOF 2
ENDMDL
MODEL      277
REMARK 921   NORMALIZED FREE ENERGY PREDICTED BY IDOCK:   -2.66 KCAL/MOL
REMARK 922        TOTAL FREE ENERGY PREDICTED BY IDOCK:   -3.59 KCAL/MOL
REMARK 923 INTER-LIGAND FREE ENERGY PREDICTED BY IDOCK:   -3.00 KCAL/MOL
REMARK 924 INTRA-LIGAND FREE ENERGY PREDICTED BY IDOCK:   -0.60 KCAL/MOL
REMARK 927      BINDING AFFINITY PREDICTED BY RF-SCORE:    0.00 PKD
ROOT
HETATM    1  C   UNL     1      -8.893   4.316  67.295  1.00  0.00    -0.121 C  
HETATM    2  C   UNL     1      -7.903   4.539  68.406  1.00  0.00    -0.079 A  
HETATM    3  C   UNL     1      -7.061   3.508  68.871  1.00  0.00    -0.050 A  
HETATM    4 CL   UNL     1      -7.272   1.860  68.387  1.00  0.00    -0.043 Cl 
HETATM    5  C   UNL     1      -6.037   3.765  69.788  1.00  0.00    -0.023 A  
HETATM    6  C   UNL     1      -5.815   5.057  70.238  1.00  0.00    -0.017 A  
HETATM    7  C   UNL     1      -6.694   6.065  69.855  1.00  0.00    -0.052 A  
HETATM    8  C   UNL     1      -7.803   5.801  69.027  1.00  0.00    -0.094 A  
ENDROOT
BRANCH   8   9
HETATM    9  N   UNL     1      -8.828   6.786  68.862  1.00  0.00    -0.129 NA 
HETATM   10  H   UNL     1      -8.850   7.309  67.987  1.00  0.00     0.000 HD 
BRANCH   9  11
HETATM   11  C   UNL     1      -9.818   7.083  69.842  1.00  0.00    -0.170 A  
HETATM   12  C   UNL     1     -11.084   6.469  69.769  1.00  0.00    -0.430 A  
HETATM   13  C   UNL     1     -12.010   6.576  70.806  1.00  0.00    -0.351 A  
HETATM   14  C   UNL     1     -11.700   7.332  71.931  1.00  0.00    -0.323 A  
HETATM   15  C   UNL     1     -10.511   8.053  71.969  1.00  0.00    -0.308 A  
HETATM   16  C   UNL     1      -9.594   7.970  70.908  1.00  0.00    -0.179 A  
HETATM   17  C   UNL     1      -8.419   8.866  70.957  1.00  0.00    -0.198 C  
HETATM   18  O   UNL     1      -7.812   9.124  71.979  1.00  0.00    -0.325 OA 
HETATM   19  O   UNL     1      -8.139   9.418  69.757  1.00  0.00    -0.104 OA 
ENDBRANCH   9  11
ENDBRANCH   8   9
TORSDOF 2
ENDMDL
MODEL      278
REMARK 921   NORMALIZED FREE ENERGY PREDICTED BY IDOCK:   -2.66 KCAL/MOL
REMARK 922        TOTAL FREE ENERGY PREDICTED BY IDOCK:   -3.59 KCAL/MOL
REMARK 923 INTER-LIGAND FREE ENERGY PREDICTED BY IDOCK:   -2.97 KCAL/MOL
REMARK 924 INTRA-LIGAND FREE ENERGY PREDICTED BY IDOCK:   -0.62 KCAL/MOL
REMARK 927      BINDING AFFINITY PREDICTED BY RF-SCORE:    0.00 PKD
ROOT
HETATM    1  C   UNL     1      -6.194   8.888  68.406  1.00  0.00    -0.054 C  
HETATM    2  C   UNL     1      -7.338   9.664  67.814  1.00  0.00    -0.086 A  
HETATM    3  C   UNL     1      -7.129  10.711  66.892  1.00  0.00    -0.109 A  
HETATM    4 CL   UNL     1      -5.554  11.350  66.568  1.00  0.00    -0.139 Cl 
HETATM    5  C   UNL     1      -8.199  11.316  66.227  1.00  0.00    -0.126 A  
HETATM    6  C   UNL     1      -9.494  10.874  66.446  1.00  0.00    -0.214 A  
HETATM    7  C   UNL     1      -9.720   9.904  67.418  1.00  0.00    -0.199 A  
HETATM    8  C   UNL     1      -8.665   9.368  68.183  1.00  0.00    -0.124 A  
ENDROOT
BRANCH   8   9
HETATM    9  N   UNL     1      -8.949   8.576  69.340  1.00  0.00    -0.148 NA 
HETATM   10  H   UNL     1      -8.774   8.990  70.256  1.00  0.00     0.000 HD 
BRANCH   9  11
HETATM   11  C   UNL     1      -9.457   7.247  69.297  1.00  0.00    -0.153 A  
HETATM   12  C   UNL     1      -9.136   6.407  68.212  1.00  0.00    -0.114 A  
HETATM   13  C   UNL     1      -9.446   5.047  68.222  1.00  0.00    -0.173 A  
HETATM   14  C   UNL     1     -10.118   4.501  69.311  1.00  0.00    -0.102 A  
HETATM   15  C   UNL     1     -10.560   5.334  70.334  1.00  0.00    -0.278 A  
HETATM   16  C   UNL     1     -10.276   6.709  70.304  1.00  0.00    -0.215 A  
HETATM   17  C   UNL     1     -10.892   7.550  71.353  1.00  0.00    -0.229 C  
HETATM   18  O   UNL     1     -11.012   7.199  72.512  1.00  0.00    -0.243 OA 
HETATM   19  O   UNL     1     -11.367   8.717  70.868  1.00  0.00    -0.263 OA 
ENDBRANCH   9  11
ENDBRANCH   8   9
TORSDOF 2
ENDMDL
MODEL      279
REMARK 921   NORMALIZED FREE ENERGY PREDICTED BY IDOCK:   -2.62 KCAL/MOL
REMARK 922        TOTAL FREE ENERGY PREDICTED BY IDOCK:   -3.54 KCAL/MOL
REMARK 923 INTER-LIGAND FREE ENERGY PREDICTED BY IDOCK:   -3.05 KCAL/MOL
REMARK 924 INTRA-LIGAND FREE ENERGY PREDICTED BY IDOCK:   -0.49 KCAL/MOL
REMARK 927      BINDING AFFINITY PREDICTED BY RF-SCORE:    0.00 PKD
ROOT
HETATM    1  C   UNL     1     -10.134   4.596  70.148  1.00  0.00    -0.283 C  
HETATM    2  C   UNL     1     -10.027   5.827  69.288  1.00  0.00    -0.238 A  
HETATM    3  C   UNL     1     -10.729   7.011  69.594  1.00  0.00    -0.241 A  
HETATM    4 CL   UNL     1     -11.954   7.064  70.815  1.00  0.00    -0.399 Cl 
HETATM    5  C   UNL     1     -10.500   8.194  68.885  1.00  0.00    -0.202 A  
HETATM    6  C   UNL     1      -9.548   8.228  67.878  1.00  0.00    -0.176 A  
HETATM    7  C   UNL     1      -8.914   7.046  67.511  1.00  0.00    -0.117 A  
HETATM    8  C   UNL     1      -9.219   5.820  68.133  1.00  0.00    -0.109 A  
ENDROOT
BRANCH   8   9
HETATM    9  N   UNL     1      -8.753   4.591  67.568  1.00  0.00    -0.103 NA 
HETATM   10  H   UNL     1      -7.989   4.108  68.041  1.00  0.00     0.000 HD 
BRANCH   9  11
HETATM   11  C   UNL     1      -9.286   3.999  66.388  1.00  0.00    -0.177 A  
HETATM   12  C   UNL     1     -10.455   4.526  65.804  1.00  0.00    -0.268 A  
HETATM   13  C   UNL     1     -10.900   4.108  64.550  1.00  0.00    -0.128 A  
HETATM   14  C   UNL     1     -10.199   3.123  63.863  1.00  0.00    -0.194 A  
HETATM   15  C   UNL     1      -9.117   2.496  64.474  1.00  0.00    -0.128 A  
HETATM   16  C   UNL     1      -8.692   2.896  65.752  1.00  0.00    -0.128 A  
HETATM   17  C   UNL     1      -7.626   2.096  66.391  1.00  0.00    -0.070 C  
HETATM   18  O   UNL     1      -6.674   1.639  65.787  1.00  0.00    -0.029 OA 
HETATM   19  O   UNL     1      -7.862   1.873  67.701  1.00  0.00    -0.059 OA 
ENDBRANCH   9  11
ENDBRANCH   8   9
TORSDOF 2
ENDMDL
MODEL      280
REMARK 921   NORMALIZED FREE ENERGY PREDICTED BY IDOCK:   -2.57 KCAL/MOL
REMARK 922        TOTAL FREE ENERGY PREDICTED BY IDOCK:   -3.49 KCAL/MOL
REMARK 923 INTER-LIGAND FREE ENERGY PREDICTED BY IDOCK:   -2.90 KCAL/MOL
REMARK 924 INTRA-LIGAND FREE ENERGY PREDICTED BY IDOCK:   -0.59 KCAL/MOL
REMARK 927      BINDING AFFINITY PREDICTED BY RF-SCORE:    0.00 PKD
ROOT
HETATM    1  C   UNL     1      -5.754   8.374  67.946  1.00  0.00    -0.039 C  
HETATM    2  C   UNL     1      -6.904   9.324  67.747  1.00  0.00    -0.079 A  
HETATM    3  C   UNL     1      -6.711  10.636  67.270  1.00  0.00    -0.078 A  
HETATM    4 CL   UNL     1      -5.136  11.339  67.121  1.00  0.00    -0.052 Cl 
HETATM    5  C   UNL     1      -7.795  11.454  66.936  1.00  0.00    -0.158 A  
HETATM    6  C   UNL     1      -9.089  10.971  67.045  1.00  0.00    -0.154 A  
HETATM    7  C   UNL     1      -9.294   9.711  67.597  1.00  0.00    -0.144 A  
HETATM    8  C   UNL     1      -8.220   8.920  68.051  1.00  0.00    -0.110 A  
ENDROOT
BRANCH   8   9
HETATM    9  N   UNL     1      -8.469   7.757  68.845  1.00  0.00    -0.128 NA 
HETATM   10  H   UNL     1      -8.487   6.853  68.373  1.00  0.00     0.000 HD 
BRANCH   9  11
HETATM   11  C   UNL     1      -8.695   7.779  70.250  1.00  0.00    -0.143 A  
HETATM   12  C   UNL     1      -7.742   8.368  71.105  1.00  0.00    -0.107 A  
HETATM   13  C   UNL     1      -8.007   8.588  72.457  1.00  0.00    -0.105 A  
HETATM   14  C   UNL     1      -9.228   8.191  72.993  1.00  0.00    -0.343 A  
HETATM   15  C   UNL     1     -10.132   7.491  72.200  1.00  0.00    -0.235 A  
HETATM   16  C   UNL     1      -9.847   7.241  70.847  1.00  0.00    -0.184 A  
HETATM   17  C   UNL     1     -10.791   6.378  70.105  1.00  0.00    -0.296 C  
HETATM   18  O   UNL     1     -11.998   6.421  70.250  1.00  0.00    -0.361 OA 
HETATM   19  O   UNL     1     -10.161   5.492  69.304  1.00  0.00    -0.182 OA 
ENDBRANCH   9  11
ENDBRANCH   8   9
TORSDOF 2
ENDMDL
MODEL      281
REMARK 921   NORMALIZED FREE ENERGY PREDICTED BY IDOCK:   -2.54 KCAL/MOL
REMARK 922        TOTAL FREE ENERGY PREDICTED BY IDOCK:   -3.46 KCAL/MOL
REMARK 923 INTER-LIGAND FREE ENERGY PREDICTED BY IDOCK:   -2.97 KCAL/MOL
REMARK 924 INTRA-LIGAND FREE ENERGY PREDICTED BY IDOCK:   -0.48 KCAL/MOL
REMARK 927      BINDING AFFINITY PREDICTED BY RF-SCORE:    0.00 PKD
ROOT
HETATM    1  C   UNL     1      -9.715  12.266  64.625  1.00  0.00    -0.022 C  
HETATM    2  C   UNL     1      -8.825  11.084  64.898  1.00  0.00    -0.066 A  
HETATM    3  C   UNL     1      -8.670  10.038  63.965  1.00  0.00    -0.208 A  
HETATM    4 CL   UNL     1      -9.672   9.902  62.561  1.00  0.00    -0.031 Cl 
HETATM    5  C   UNL     1      -7.721   9.029  64.158  1.00  0.00    -0.124 A  
HETATM    6  C   UNL     1      -6.892   9.057  65.268  1.00  0.00    -0.072 A  
HETATM    7  C   UNL     1      -7.097  10.033  66.238  1.00  0.00    -0.105 A  
HETATM    8  C   UNL     1      -8.127  10.987  66.119  1.00  0.00    -0.141 A  
ENDROOT
BRANCH   8   9
HETATM    9  N   UNL     1      -8.481  11.805  67.238  1.00  0.00    -0.153 NA 
HETATM   10  H   UNL     1      -7.881  12.600  67.456  1.00  0.00     0.000 HD 
BRANCH   9  11
HETATM   11  C   UNL     1      -9.617  11.580  68.067  1.00  0.00    -0.180 A  
HETATM   12  C   UNL     1     -10.792  12.331  67.867  1.00  0.00    -0.252 A  
HETATM   13  C   UNL     1     -11.984  12.013  68.518  1.00  0.00    -0.273 A  
HETATM   14  C   UNL     1     -12.017  10.950  69.415  1.00  0.00    -0.393 A  
HETATM   15  C   UNL     1     -10.840  10.276  69.726  1.00  0.00    -0.332 A  
HETATM   16  C   UNL     1      -9.634  10.621  69.094  1.00  0.00    -0.193 A  
HETATM   17  C   UNL     1      -8.404   9.955  69.573  1.00  0.00    -0.168 C  
HETATM   18  O   UNL     1      -8.356   8.783  69.896  1.00  0.00    -0.115 OA 
HETATM   19  O   UNL     1      -7.362  10.807  69.678  1.00  0.00    -0.145 OA 
ENDBRANCH   9  11
ENDBRANCH   8   9
TORSDOF 2
ENDMDL
MODEL      282
REMARK 921   NORMALIZED FREE ENERGY PREDICTED BY IDOCK:   -2.43 KCAL/MOL
REMARK 922        TOTAL FREE ENERGY PREDICTED BY IDOCK:   -3.34 KCAL/MOL
REMARK 923 INTER-LIGAND FREE ENERGY PREDICTED BY IDOCK:   -2.80 KCAL/MOL
REMARK 924 INTRA-LIGAND FREE ENERGY PREDICTED BY IDOCK:   -0.54 KCAL/MOL
REMARK 927      BINDING AFFINITY PREDICTED BY RF-SCORE:    0.00 PKD
ROOT
HETATM    1  C   UNL     1      -7.599   6.098  66.331  1.00  0.00    -0.094 C  
HETATM    2  C   UNL     1      -7.330   4.648  66.629  1.00  0.00    -0.081 A  
HETATM    3  C   UNL     1      -6.213   3.974  66.095  1.00  0.00    -0.032 A  
HETATM    4 CL   UNL     1      -5.216   4.675  64.866  1.00  0.00    -0.012 Cl 
HETATM    5  C   UNL     1      -5.883   2.678  66.504  1.00  0.00    -0.023 A  
HETATM    6  C   UNL     1      -6.643   2.040  67.471  1.00  0.00    -0.031 A  
HETATM    7  C   UNL     1      -7.797   2.660  67.939  1.00  0.00    -0.059 A  
HETATM    8  C   UNL     1      -8.210   3.915  67.450  1.00  0.00    -0.094 A  
ENDROOT
BRANCH   8   9
HETATM    9  N   UNL     1      -9.520   4.407  67.749  1.00  0.00    -0.153 NA 
HETATM   10  H   UNL     1     -10.234   4.332  67.024  1.00  0.00     0.000 HD 
BRANCH   9  11
HETATM   11  C   UNL     1      -9.891   4.994  68.992  1.00  0.00    -0.182 A  
HETATM   12  C   UNL     1      -9.845   4.227  70.173  1.00  0.00    -0.271 A  
HETATM   13  C   UNL     1     -10.008   4.808  71.430  1.00  0.00    -0.267 A  
HETATM   14  C   UNL     1     -10.256   6.174  71.531  1.00  0.00    -0.243 A  
HETATM   15  C   UNL     1     -10.435   6.928  70.376  1.00  0.00    -0.229 A  
HETATM   16  C   UNL     1     -10.304   6.332  69.110  1.00  0.00    -0.262 A  
HETATM   17  C   UNL     1     -10.640   7.162  67.934  1.00  0.00    -0.208 C  
HETATM   18  O   UNL     1     -10.362   8.343  67.842  1.00  0.00    -0.211 OA 
HETATM   19  O   UNL     1     -11.349   6.482  67.007  1.00  0.00    -0.342 OA 
ENDBRANCH   9  11
ENDBRANCH   8   9
TORSDOF 2
ENDMDL
MODEL      283
REMARK 921   NORMALIZED FREE ENERGY PREDICTED BY IDOCK:   -2.41 KCAL/MOL
REMARK 922        TOTAL FREE ENERGY PREDICTED BY IDOCK:   -3.31 KCAL/MOL
REMARK 923 INTER-LIGAND FREE ENERGY PREDICTED BY IDOCK:   -2.81 KCAL/MOL
REMARK 924 INTRA-LIGAND FREE ENERGY PREDICTED BY IDOCK:   -0.50 KCAL/MOL
REMARK 927      BINDING AFFINITY PREDICTED BY RF-SCORE:    0.00 PKD
ROOT
HETATM    1  C   UNL     1      -8.278  11.501  66.582  1.00  0.00    -0.156 C  
HETATM    2  C   UNL     1      -7.377  12.358  67.428  1.00  0.00    -0.149 A  
HETATM    3  C   UNL     1      -6.324  11.807  68.188  1.00  0.00    -0.051 A  
HETATM    4 CL   UNL     1      -6.145  10.100  68.409  1.00  0.00    -0.045 Cl 
HETATM    5  C   UNL     1      -5.395  12.624  68.840  1.00  0.00    -0.066 A  
HETATM    6  C   UNL     1      -5.481  14.002  68.727  1.00  0.00    -0.082 A  
HETATM    7  C   UNL     1      -6.565  14.557  68.055  1.00  0.00    -0.156 A  
HETATM    8  C   UNL     1      -7.576  13.752  67.493  1.00  0.00    -0.173 A  
ENDROOT
BRANCH   8   9
HETATM    9  N   UNL     1      -8.798  14.343  67.043  1.00  0.00    -0.230 NA 
HETATM   10  H   UNL     1      -8.818  14.739  66.103  1.00  0.00     0.000 HD 
BRANCH   9  11
HETATM   11  C   UNL     1      -9.988  14.415  67.821  1.00  0.00    -0.226 A  
HETATM   12  C   UNL     1      -9.906  14.453  69.227  1.00  0.00     0.042 A  
HETATM   13  C   UNL     1     -11.022  14.720  70.020  1.00  0.00    -0.189 A  
HETATM   14  C   UNL     1     -12.261  14.923  69.419  1.00  0.00    -0.240 A  
HETATM   15  C   UNL     1     -12.392  14.762  68.043  1.00  0.00     0.135 A  
HETATM   16  C   UNL     1     -11.271  14.460  67.252  1.00  0.00    -0.334 A  
HETATM   17  C   UNL     1     -11.511  14.171  65.822  1.00  0.00    -0.327 C  
HETATM   18  O   UNL     1     -12.321  14.772  65.141  1.00  0.00    -0.282 OA 
HETATM   19  O   UNL     1     -10.783  13.125  65.376  1.00  0.00    -0.283 OA 
ENDBRANCH   9  11
ENDBRANCH   8   9
TORSDOF 2
ENDMDL
MODEL      284
REMARK 921   NORMALIZED FREE ENERGY PREDICTED BY IDOCK:   -2.37 KCAL/MOL
REMARK 922        TOTAL FREE ENERGY PREDICTED BY IDOCK:   -3.27 KCAL/MOL
REMARK 923 INTER-LIGAND FREE ENERGY PREDICTED BY IDOCK:   -2.77 KCAL/MOL
REMARK 924 INTRA-LIGAND FREE ENERGY PREDICTED BY IDOCK:   -0.49 KCAL/MOL
REMARK 927      BINDING AFFINITY PREDICTED BY RF-SCORE:    0.00 PKD
ROOT
HETATM    1  C   UNL     1      -8.002   5.692  66.513  1.00  0.00    -0.101 C  
HETATM    2  C   UNL     1      -7.625   4.748  67.623  1.00  0.00    -0.079 A  
HETATM    3  C   UNL     1      -6.569   3.823  67.486  1.00  0.00    -0.042 A  
HETATM    4 CL   UNL     1      -5.801   3.523  65.964  1.00  0.00    -0.022 Cl 
HETATM    5  C   UNL     1      -6.123   3.066  68.573  1.00  0.00    -0.025 A  
HETATM    6  C   UNL     1      -6.699   3.235  69.821  1.00  0.00    -0.034 A  
HETATM    7  C   UNL     1      -7.798   4.078  69.948  1.00  0.00    -0.052 A  
HETATM    8  C   UNL     1      -8.337   4.759  68.838  1.00  0.00    -0.082 A  
ENDROOT
BRANCH   8   9
HETATM    9  N   UNL     1      -9.609   5.406  68.941  1.00  0.00    -0.132 NA 
HETATM   10  H   UNL     1     -10.425   4.914  68.575  1.00  0.00     0.000 HD 
BRANCH   9  11
HETATM   11  C   UNL     1      -9.810   6.691  69.520  1.00  0.00    -0.152 A  
HETATM   12  C   UNL     1      -9.670   6.864  70.912  1.00  0.00    -0.183 A  
HETATM   13  C   UNL     1      -9.663   8.131  71.495  1.00  0.00    -0.230 A  
HETATM   14  C   UNL     1      -9.831   9.258  70.697  1.00  0.00    -0.332 A  
HETATM   15  C   UNL     1     -10.101   9.106  69.341  1.00  0.00    -0.198 A  
HETATM   16  C   UNL     1     -10.141   7.826  68.762  1.00  0.00    -0.205 A  
HETATM   17  C   UNL     1     -10.566   7.736  67.349  1.00  0.00    -0.275 C  
HETATM   18  O   UNL     1     -10.243   8.541  66.496  1.00  0.00    -0.289 OA 
HETATM   19  O   UNL     1     -11.406   6.702  67.127  1.00  0.00    -0.343 OA 
ENDBRANCH   9  11
ENDBRANCH   8   9
TORSDOF 2
ENDMDL
MODEL      285
REMARK 921   NORMALIZED FREE ENERGY PREDICTED BY IDOCK:   -2.25 KCAL/MOL
REMARK 922        TOTAL FREE ENERGY PREDICTED BY IDOCK:   -3.14 KCAL/MOL
REMARK 923 INTER-LIGAND FREE ENERGY PREDICTED BY IDOCK:   -2.71 KCAL/MOL
REMARK 924 INTRA-LIGAND FREE ENERGY PREDICTED BY IDOCK:   -0.43 KCAL/MOL
REMARK 927      BINDING AFFINITY PREDICTED BY RF-SCORE:    0.00 PKD
ROOT
HETATM    1  C   UNL     1     -10.592   8.820  67.596  1.00  0.00    -0.281 C  
HETATM    2  C   UNL     1      -9.531   8.614  66.549  1.00  0.00    -0.278 A  
HETATM    3  C   UNL     1      -9.424   9.456  65.423  1.00  0.00    -0.253 A  
HETATM    4 CL   UNL     1     -10.643  10.618  65.024  1.00  0.00    -0.274 Cl 
HETATM    5  C   UNL     1      -8.342   9.357  64.543  1.00  0.00    -0.167 A  
HETATM    6  C   UNL     1      -7.333   8.437  64.783  1.00  0.00    -0.088 A  
HETATM    7  C   UNL     1      -7.473   7.544  65.840  1.00  0.00    -0.082 A  
HETATM    8  C   UNL     1      -8.614   7.550  66.666  1.00  0.00    -0.130 A  
ENDROOT
BRANCH   8   9
HETATM    9  N   UNL     1      -8.854   6.467  67.569  1.00  0.00    -0.112 NA 
HETATM   10  H   UNL     1      -8.901   6.679  68.566  1.00  0.00     0.000 HD 
BRANCH   9  11
HETATM   11  C   UNL     1      -9.029   5.112  67.167  1.00  0.00    -0.112 A  
HETATM   12  C   UNL     1      -9.425   4.817  65.848  1.00  0.00    -0.171 A  
HETATM   13  C   UNL     1      -9.418   3.512  65.356  1.00  0.00    -0.152 A  
HETATM   14  C   UNL     1      -9.045   2.463  66.190  1.00  0.00    -0.079 A  
HETATM   15  C   UNL     1      -8.775   2.714  67.532  1.00  0.00    -0.138 A  
HETATM   16  C   UNL     1      -8.816   4.026  68.032  1.00  0.00    -0.132 A  
HETATM   17  C   UNL     1      -8.651   4.199  69.491  1.00  0.00    -0.072 C  
HETATM   18  O   UNL     1      -7.873   3.547  70.162  1.00  0.00    -0.047 OA 
HETATM   19  O   UNL     1      -9.507   5.108  70.004  1.00  0.00    -0.140 OA 
ENDBRANCH   9  11
ENDBRANCH   8   9
TORSDOF 2
ENDMDL
MODEL      286
REMARK 921   NORMALIZED FREE ENERGY PREDICTED BY IDOCK:   -1.82 KCAL/MOL
REMARK 922        TOTAL FREE ENERGY PREDICTED BY IDOCK:   -2.66 KCAL/MOL
REMARK 923 INTER-LIGAND FREE ENERGY PREDICTED BY IDOCK:   -2.18 KCAL/MOL
REMARK 924 INTRA-LIGAND FREE ENERGY PREDICTED BY IDOCK:   -0.48 KCAL/MOL
REMARK 927      BINDING AFFINITY PREDICTED BY RF-SCORE:    0.00 PKD
ROOT
HETATM    1  C   UNL     1      -8.090   9.893  66.836  1.00  0.00    -0.113 C  
HETATM    2  C   UNL     1      -7.512   8.637  66.244  1.00  0.00    -0.090 A  
HETATM    3  C   UNL     1      -6.798   8.647  65.029  1.00  0.00    -0.072 A  
HETATM    4 CL   UNL     1      -6.749  10.039  64.003  1.00  0.00    -0.128 Cl 
HETATM    5  C   UNL     1      -6.129   7.507  64.570  1.00  0.00    -0.038 A  
HETATM    6  C   UNL     1      -6.137   6.346  65.326  1.00  0.00    -0.030 A  
HETATM    7  C   UNL     1      -6.910   6.298  66.481  1.00  0.00    -0.062 A  
HETATM    8  C   UNL     1      -7.686   7.399  66.895  1.00  0.00    -0.110 A  
ENDROOT
BRANCH   8   9
HETATM    9  N   UNL     1      -8.665   7.240  67.927  1.00  0.00    -0.123 NA 
HETATM   10  H   UNL     1      -9.617   7.004  67.649  1.00  0.00     0.000 HD 
BRANCH   9  11
HETATM   11  C   UNL     1      -8.395   7.391  69.317  1.00  0.00    -0.132 A  
HETATM   12  C   UNL     1      -7.064   7.379  69.779  1.00  0.00    -0.068 A  
HETATM   13  C   UNL     1      -6.743   7.717  71.094  1.00  0.00    -0.041 A  
HETATM   14  C   UNL     1      -7.756   8.044  71.989  1.00  0.00    -0.124 A  
HETATM   15  C   UNL     1      -9.086   7.936  71.592  1.00  0.00    -0.175 A  
HETATM   16  C   UNL     1      -9.407   7.563  70.276  1.00  0.00    -0.161 A  
HETATM   17  C   UNL     1     -10.835   7.339  69.967  1.00  0.00    -0.253 C  
HETATM   18  O   UNL     1     -11.736   8.027  70.409  1.00  0.00    -0.154 OA 
HETATM   19  O   UNL     1     -11.032   6.247  69.196  1.00  0.00    -0.306 OA 
ENDBRANCH   9  11
ENDBRANCH   8   9
TORSDOF 2
ENDMDL
MODEL      287
REMARK 921   NORMALIZED FREE ENERGY PREDICTED BY IDOCK:   -1.81 KCAL/MOL
REMARK 922        TOTAL FREE ENERGY PREDICTED BY IDOCK:   -2.64 KCAL/MOL
REMARK 923 INTER-LIGAND FREE ENERGY PREDICTED BY IDOCK:   -2.01 KCAL/MOL
REMARK 924 INTRA-LIGAND FREE ENERGY PREDICTED BY IDOCK:   -0.63 KCAL/MOL
REMARK 927      BINDING AFFINITY PREDICTED BY RF-SCORE:    0.00 PKD
ROOT
HETATM    1  C   UNL     1      -5.707   8.806  67.930  1.00  0.00    -0.035 C  
HETATM    2  C   UNL     1      -7.203   8.891  68.063  1.00  0.00    -0.083 A  
HETATM    3  C   UNL     1      -7.838  10.023  68.613  1.00  0.00    -0.091 A  
HETATM    4 CL   UNL     1      -6.951  11.280  69.406  1.00  0.00    -0.119 Cl 
HETATM    5  C   UNL     1      -9.229  10.161  68.584  1.00  0.00    -0.157 A  
HETATM    6  C   UNL     1     -10.012   9.188  67.983  1.00  0.00    -0.213 A  
HETATM    7  C   UNL     1      -9.404   8.027  67.517  1.00  0.00    -0.171 A  
HETATM    8  C   UNL     1      -8.016   7.818  67.646  1.00  0.00    -0.124 A  
ENDROOT
BRANCH   8   9
HETATM    9  N   UNL     1      -7.459   6.523  67.401  1.00  0.00    -0.090 NA 
HETATM   10  H   UNL     1      -6.598   6.275  67.888  1.00  0.00     0.000 HD 
BRANCH   9  11
HETATM   11  C   UNL     1      -8.028   5.560  66.520  1.00  0.00    -0.101 A  
HETATM   12  C   UNL     1      -8.784   4.492  67.042  1.00  0.00    -0.104 A  
HETATM   13  C   UNL     1      -9.520   3.642  66.216  1.00  0.00    -0.177 A  
HETATM   14  C   UNL     1      -9.487   3.824  64.837  1.00  0.00    -0.167 A  
HETATM   15  C   UNL     1      -8.646   4.789  64.291  1.00  0.00    -0.141 A  
HETATM   16  C   UNL     1      -7.881   5.620  65.125  1.00  0.00    -0.099 A  
HETATM   17  C   UNL     1      -6.913   6.527  64.471  1.00  0.00    -0.051 C  
HETATM   18  O   UNL     1      -7.139   7.117  63.431  1.00  0.00    -0.058 OA 
HETATM   19  O   UNL     1      -5.729   6.573  65.119  1.00  0.00    -0.024 OA 
ENDBRANCH   9  11
ENDBRANCH   8   9
TORSDOF 2
ENDMDL
MODEL      288
REMARK 921   NORMALIZED FREE ENERGY PREDICTED BY IDOCK:   -1.70 KCAL/MOL
REMARK 922        TOTAL FREE ENERGY PREDICTED BY IDOCK:   -2.52 KCAL/MOL
REMARK 923 INTER-LIGAND FREE ENERGY PREDICTED BY IDOCK:   -3.30 KCAL/MOL
REMARK 924 INTRA-LIGAND FREE ENERGY PREDICTED BY IDOCK:    0.78 KCAL/MOL
REMARK 927      BINDING AFFINITY PREDICTED BY RF-SCORE:    0.00 PKD
ROOT
HETATM    1  C   UNL     1      -7.580  16.370  66.398  1.00  0.00    -0.193 C  
HETATM    2  C   UNL     1      -8.989  15.974  66.049  1.00  0.00    -0.345 A  
HETATM    3  C   UNL     1      -9.991  16.933  65.797  1.00  0.00    -0.184 A  
HETATM    4 CL   UNL     1      -9.753  18.617  66.116  1.00  0.00    -0.304 Cl 
HETATM    5  C   UNL     1     -11.250  16.559  65.317  1.00  0.00     0.049 A  
HETATM    6  C   UNL     1     -11.525  15.227  65.055  1.00  0.00    -0.300 A  
HETATM    7  C   UNL     1     -10.576  14.265  65.383  1.00  0.00    -0.367 A  
HETATM    8  C   UNL     1      -9.348  14.613  65.978  1.00  0.00    -0.181 A  
ENDROOT
BRANCH   8   9
HETATM    9  N   UNL     1      -8.509  13.599  66.540  1.00  0.00    -0.392 NA 
HETATM   10  H   UNL     1      -8.486  12.690  66.079  1.00  0.00     0.000 HD 
BRANCH   9  11
HETATM   11  C   UNL     1      -7.704  13.778  67.701  1.00  0.00    -0.179 A  
HETATM   12  C   UNL     1      -6.346  13.404  67.679  1.00  0.00    -0.162 A  
HETATM   13  C   UNL     1      -5.477  13.738  68.717  1.00  0.00    -0.081 A  
HETATM   14  C   UNL     1      -5.960  14.431  69.823  1.00  0.00    -0.119 A  
HETATM   15  C   UNL     1      -7.321  14.697  69.928  1.00  0.00     0.052 A  
HETATM   16  C   UNL     1      -8.199  14.328  68.895  1.00  0.00    -0.053 A  
HETATM   17  C   UNL     1      -9.645  14.522  69.135  1.00  0.00    -0.027 C  
HETATM   18  O   UNL     1     -10.108  15.485  69.717  1.00  0.00    -0.270 OA 
HETATM   19  O   UNL     1     -10.386  13.481  68.699  1.00  0.00    -0.241 OA 
ENDBRANCH   9  11
ENDBRANCH   8   9
TORSDOF 2
ENDMDL
MODEL      289
REMARK 921   NORMALIZED FREE ENERGY PREDICTED BY IDOCK:   -1.65 KCAL/MOL
REMARK 922        TOTAL FREE ENERGY PREDICTED BY IDOCK:   -2.46 KCAL/MOL
REMARK 923 INTER-LIGAND FREE ENERGY PREDICTED BY IDOCK:   -1.91 KCAL/MOL
REMARK 924 INTRA-LIGAND FREE ENERGY PREDICTED BY IDOCK:   -0.55 KCAL/MOL
REMARK 927      BINDING AFFINITY PREDICTED BY RF-SCORE:    0.00 PKD
ROOT
HETATM    1  C   UNL     1      -5.836   8.769  68.493  1.00  0.00    -0.045 C  
HETATM    2  C   UNL     1      -7.233   9.301  68.326  1.00  0.00    -0.077 A  
HETATM    3  C   UNL     1      -7.486  10.670  68.100  1.00  0.00    -0.090 A  
HETATM    4 CL   UNL     1      -6.248  11.870  68.250  1.00  0.00    -0.049 Cl 
HETATM    5  C   UNL     1      -8.769  11.129  67.787  1.00  0.00    -0.132 A  
HETATM    6  C   UNL     1      -9.818  10.232  67.667  1.00  0.00    -0.199 A  
HETATM    7  C   UNL     1      -9.599   8.893  67.975  1.00  0.00    -0.167 A  
HETATM    8  C   UNL     1      -8.339   8.432  68.408  1.00  0.00    -0.131 A  
ENDROOT
BRANCH   8   9
HETATM    9  N   UNL     1      -8.207   7.120  68.963  1.00  0.00    -0.124 NA 
HETATM   10  H   UNL     1      -7.982   6.354  68.328  1.00  0.00     0.000 HD 
BRANCH   9  11
HETATM   11  C   UNL     1      -8.368   6.815  70.344  1.00  0.00    -0.130 A  
HETATM   12  C   UNL     1      -9.114   7.677  71.172  1.00  0.00    -0.152 A  
HETATM   13  C   UNL     1      -9.462   7.322  72.475  1.00  0.00    -0.180 A  
HETATM   14  C   UNL     1      -9.039   6.102  72.993  1.00  0.00    -0.130 A  
HETATM   15  C   UNL     1      -8.193   5.292  72.242  1.00  0.00    -0.118 A  
HETATM   16  C   UNL     1      -7.816   5.669  70.942  1.00  0.00    -0.105 A  
HETATM   17  C   UNL     1      -6.811   4.828  70.258  1.00  0.00    -0.037 C  
HETATM   18  O   UNL     1      -6.782   3.615  70.338  1.00  0.00    -0.032 OA 
HETATM   19  O   UNL     1      -5.890   5.560  69.595  1.00  0.00    -0.015 OA 
ENDBRANCH   9  11
ENDBRANCH   8   9
TORSDOF 2
ENDMDL
MODEL      290
REMARK 921   NORMALIZED FREE ENERGY PREDICTED BY IDOCK:   -1.57 KCAL/MOL
REMARK 922        TOTAL FREE ENERGY PREDICTED BY IDOCK:   -2.38 KCAL/MOL
REMARK 923 INTER-LIGAND FREE ENERGY PREDICTED BY IDOCK:   -1.89 KCAL/MOL
REMARK 924 INTRA-LIGAND FREE ENERGY PREDICTED BY IDOCK:   -0.48 KCAL/MOL
REMARK 927      BINDING AFFINITY PREDICTED BY RF-SCORE:    0.00 PKD
ROOT
HETATM    1  C   UNL     1      -9.661   8.238  67.340  1.00  0.00    -0.225 C  
HETATM    2  C   UNL     1      -8.539   8.290  66.339  1.00  0.00    -0.144 A  
HETATM    3  C   UNL     1      -8.465   9.297  65.355  1.00  0.00    -0.145 A  
HETATM    4 CL   UNL     1      -9.775  10.387  65.055  1.00  0.00    -0.334 Cl 
HETATM    5  C   UNL     1      -7.340   9.431  64.536  1.00  0.00    -0.105 A  
HETATM    6  C   UNL     1      -6.256   8.584  64.701  1.00  0.00    -0.065 A  
HETATM    7  C   UNL     1      -6.352   7.534  65.608  1.00  0.00    -0.042 A  
HETATM    8  C   UNL     1      -7.525   7.311  66.356  1.00  0.00    -0.084 A  
ENDROOT
BRANCH   8   9
HETATM    9  N   UNL     1      -7.695   6.087  67.077  1.00  0.00    -0.099 NA 
HETATM   10  H   UNL     1      -8.078   5.286  66.574  1.00  0.00     0.000 HD 
BRANCH   9  11
HETATM   11  C   UNL     1      -7.365   5.915  68.452  1.00  0.00    -0.084 A  
HETATM   12  C   UNL     1      -6.449   6.789  69.069  1.00  0.00    -0.036 A  
HETATM   13  C   UNL     1      -6.246   6.783  70.449  1.00  0.00    -0.035 A  
HETATM   14  C   UNL     1      -6.935   5.872  71.242  1.00  0.00    -0.068 A  
HETATM   15  C   UNL     1      -7.746   4.913  70.642  1.00  0.00    -0.066 A  
HETATM   16  C   UNL     1      -7.922   4.901  69.249  1.00  0.00    -0.075 A  
HETATM   17  C   UNL     1      -8.687   3.774  68.673  1.00  0.00    -0.101 C  
HETATM   18  O   UNL     1      -9.675   3.294  69.197  1.00  0.00    -0.108 OA 
HETATM   19  O   UNL     1      -8.128   3.295  67.542  1.00  0.00    -0.080 OA 
ENDBRANCH   9  11
ENDBRANCH   8   9
TORSDOF 2
ENDMDL
MODEL      291
REMARK 921   NORMALIZED FREE ENERGY PREDICTED BY IDOCK:   17.42 KCAL/MOL
REMARK 922        TOTAL FREE ENERGY PREDICTED BY IDOCK:   18.84 KCAL/MOL
REMARK 923 INTER-LIGAND FREE ENERGY PREDICTED BY IDOCK:   15.17 KCAL/MOL
REMARK 924 INTRA-LIGAND FREE ENERGY PREDICTED BY IDOCK:    3.67 KCAL/MOL
REMARK 927      BINDING AFFINITY PREDICTED BY RF-SCORE:    0.00 PKD
ROOT
HETATM    1  C   UNL     1      -7.841  16.719  67.675  1.00  0.00    -0.189 C  
HETATM    2  C   UNL     1      -9.114  17.189  67.026  1.00  0.00    -0.242 A  
HETATM    3  C   UNL     1      -9.108  18.104  65.953  1.00  0.00     0.205 A  
HETATM    4 CL   UNL     1      -7.676  18.946  65.470  1.00  0.00     0.135 Cl 
HETATM    5  C   UNL     1     -10.279  18.409  65.253  1.00  0.00     0.864 A  
HETATM    6  C   UNL     1     -11.472  17.790  65.591  1.00  0.00     1.608 A  
HETATM    7  C   UNL     1     -11.507  16.955  66.703  1.00  0.00     0.985 A  
HETATM    8  C   UNL     1     -10.362  16.729  67.492  1.00  0.00    -0.301 A  
ENDROOT
BRANCH   8   9
HETATM    9  N   UNL     1     -10.482  16.085  68.764  1.00  0.00    -0.235 NA 
HETATM   10  H   UNL     1     -11.418  15.956  69.146  1.00  0.00     0.000 HD 
BRANCH   9  11
HETATM   11  C   UNL     1      -9.378  15.613  69.530  1.00  0.00    -0.263 A  
HETATM   12  C   UNL     1      -9.209  14.231  69.741  1.00  0.00     0.893 A  
HETATM   13  C   UNL     1      -8.047  13.713  70.312  1.00  0.00     2.682 A  
HETATM   14  C   UNL     1      -7.035  14.578  70.719  1.00  0.00     0.633 A  
HETATM   15  C   UNL     1      -7.233  15.953  70.641  1.00  0.00     1.568 A  
HETATM   16  C   UNL     1      -8.420  16.471  70.096  1.00  0.00     1.802 A  
HETATM   17  C   UNL     1      -8.615  17.935  70.170  1.00  0.00     2.619 C  
HETATM   18  O   UNL     1      -7.721  18.742  70.001  1.00  0.00     0.698 OA 
HETATM   19  O   UNL     1      -9.877  18.271  70.513  1.00  0.00     1.713 OA 
ENDBRANCH   9  11
ENDBRANCH   8   9
TORSDOF 2
ENDMDL
