MODEL        1
REMARK 921   NORMALIZED FREE ENERGY PREDICTED BY IDOCK:   -6.18 KCAL/MOL
REMARK 922        TOTAL FREE ENERGY PREDICTED BY IDOCK:   -7.91 KCAL/MOL
REMARK 923 INTER-LIGAND FREE ENERGY PREDICTED BY IDOCK:   -7.27 KCAL/MOL
REMARK 924 INTRA-LIGAND FREE ENERGY PREDICTED BY IDOCK:   -0.64 KCAL/MOL
REMARK 927      BINDING AFFINITY PREDICTED BY RF-SCORE:    0.00 PKD
ROOT
HETATM    1  C   UNL     1      -9.677  13.544  67.043  1.00  0.00    -0.251 C  
HETATM    2  N   UNL     1      -9.848  12.221  66.470  1.00  0.00    -0.224 NA 
HETATM    3  C   UNL     1     -10.237  11.967  65.163  1.00  0.00    -0.277 A  
HETATM    4  C   UNL     1     -10.284  10.596  65.008  1.00  0.00    -0.380 A  
HETATM    5  C   UNL     1      -9.671  11.023  67.157  1.00  0.00    -0.174 A  
HETATM    6  C   UNL     1      -9.962  10.014  66.249  1.00  0.00    -0.310 A  
ENDROOT
BRANCH   3   7
HETATM    7  C   UNL     1     -10.647  13.025  64.168  1.00  0.00    -0.421 C  
HETATM    8  O   UNL     1     -12.593  13.965  63.111  1.00  0.00    -0.775 OA 
HETATM    9  O   UNL     1     -12.958  12.567  64.829  1.00  0.00    -0.827 OA 
HETATM   10  C   UNL     1     -12.140  13.225  63.980  1.00  0.00    -0.447 C  
ENDBRANCH   3   7
BRANCH   5  11
HETATM   11  C   UNL     1      -9.323  10.881  68.576  1.00  0.00    -0.181 C  
HETATM   12  O   UNL     1      -8.185  11.062  69.002  1.00  0.00    -0.150 OA 
BRANCH  11  13
HETATM   13  C   UNL     1     -10.391  10.499  69.563  1.00  0.00    -0.251 A  
HETATM   14  C   UNL     1     -10.165   9.468  70.486  1.00  0.00    -0.349 A  
HETATM   15  C   UNL     1     -11.171   9.093  71.393  1.00  0.00    -0.419 A  
HETATM   16  C   UNL     1     -12.415   9.736  71.379  1.00  0.00    -0.482 A  
HETATM   17  C   UNL     1     -13.516   9.352  72.326  1.00  0.00    -0.539 C  
HETATM   18  C   UNL     1     -12.634  10.766  70.458  1.00  0.00    -0.421 A  
HETATM   19  C   UNL     1     -11.640  11.129  69.547  1.00  0.00    -0.392 A  
ENDBRANCH  11  13
ENDBRANCH   5  11
TORSDOF 3
ENDMDL
MODEL        2
REMARK 921   NORMALIZED FREE ENERGY PREDICTED BY IDOCK:   -6.12 KCAL/MOL
REMARK 922        TOTAL FREE ENERGY PREDICTED BY IDOCK:   -7.83 KCAL/MOL
REMARK 923 INTER-LIGAND FREE ENERGY PREDICTED BY IDOCK:   -7.20 KCAL/MOL
REMARK 924 INTRA-LIGAND FREE ENERGY PREDICTED BY IDOCK:   -0.63 KCAL/MOL
REMARK 927      BINDING AFFINITY PREDICTED BY RF-SCORE:    0.00 PKD
ROOT
HETATM    1  C   UNL     1      -7.416  17.572  66.114  1.00  0.00    -0.299 C  
HETATM    2  N   UNL     1      -8.541  18.469  66.315  1.00  0.00    -0.441 NA 
HETATM    3  C   UNL     1      -8.435  19.814  66.639  1.00  0.00    -0.333 A  
HETATM    4  C   UNL     1      -9.717  20.313  66.742  1.00  0.00    -0.571 A  
HETATM    5  C   UNL     1      -9.881  18.101  66.236  1.00  0.00    -0.310 A  
HETATM    6  C   UNL     1     -10.611  19.247  66.522  1.00  0.00    -0.538 A  
ENDROOT
BRANCH   3   7
HETATM    7  C   UNL     1      -7.138  20.525  66.939  1.00  0.00    -0.344 C  
HETATM    8  O   UNL     1      -5.665  21.068  68.761  1.00  0.00    -0.345 OA 
HETATM    9  O   UNL     1      -7.296  19.588  69.193  1.00  0.00    -0.361 OA 
HETATM   10  C   UNL     1      -6.637  20.428  68.369  1.00  0.00    -0.280 C  
ENDBRANCH   3   7
BRANCH   5  11
HETATM   11  C   UNL     1     -10.395  16.751  65.978  1.00  0.00    -0.335 C  
HETATM   12  O   UNL     1     -10.471  16.273  64.849  1.00  0.00    -0.624 OA 
BRANCH  11  13
HETATM   13  C   UNL     1     -10.853  15.903  67.132  1.00  0.00    -0.267 A  
HETATM   14  C   UNL     1     -11.558  14.712  66.900  1.00  0.00    -0.374 A  
HETATM   15  C   UNL     1     -12.008  13.932  67.978  1.00  0.00    -0.390 A  
HETATM   16  C   UNL     1     -11.769  14.337  69.297  1.00  0.00    -0.363 A  
HETATM   17  C   UNL     1     -12.246  13.533  70.473  1.00  0.00    -0.433 C  
HETATM   18  C   UNL     1     -11.063  15.523  69.523  1.00  0.00    -0.286 A  
HETATM   19  C   UNL     1     -10.628  16.308  68.453  1.00  0.00    -0.301 A  
ENDBRANCH  11  13
ENDBRANCH   5  11
TORSDOF 3
ENDMDL
MODEL        3
REMARK 921   NORMALIZED FREE ENERGY PREDICTED BY IDOCK:   -6.09 KCAL/MOL
REMARK 922        TOTAL FREE ENERGY PREDICTED BY IDOCK:   -7.80 KCAL/MOL
REMARK 923 INTER-LIGAND FREE ENERGY PREDICTED BY IDOCK:   -7.15 KCAL/MOL
REMARK 924 INTRA-LIGAND FREE ENERGY PREDICTED BY IDOCK:   -0.65 KCAL/MOL
REMARK 927      BINDING AFFINITY PREDICTED BY RF-SCORE:    0.00 PKD
ROOT
HETATM    1  C   UNL     1     -12.013  15.836  69.487  1.00  0.00    -0.310 C  
HETATM    2  N   UNL     1     -12.169  14.493  70.017  1.00  0.00    -0.329 NA 
HETATM    3  C   UNL     1     -12.957  14.158  71.109  1.00  0.00    -0.349 A  
HETATM    4  C   UNL     1     -12.840  12.796  71.296  1.00  0.00    -0.355 A  
HETATM    5  C   UNL     1     -11.531  13.360  69.522  1.00  0.00    -0.244 A  
HETATM    6  C   UNL     1     -11.935  12.307  70.333  1.00  0.00    -0.349 A  
ENDROOT
BRANCH   3   7
HETATM    7  C   UNL     1     -13.686  15.152  71.979  1.00  0.00    -0.576 C  
HETATM    8  O   UNL     1     -13.403  16.488  73.959  1.00  0.00    -0.533 OA 
HETATM    9  O   UNL     1     -11.562  15.501  73.140  1.00  0.00    -0.414 OA 
HETATM   10  C   UNL     1     -12.884  15.766  73.112  1.00  0.00    -0.522 C  
ENDBRANCH   3   7
BRANCH   5  11
HETATM   11  C   UNL     1     -10.568  13.321  68.416  1.00  0.00    -0.252 C  
HETATM   12  O   UNL     1      -9.372  13.562  68.566  1.00  0.00    -0.185 OA 
BRANCH  11  13
HETATM   13  C   UNL     1     -11.046  12.973  67.033  1.00  0.00    -0.311 A  
HETATM   14  C   UNL     1     -12.136  13.653  66.469  1.00  0.00    -0.469 A  
HETATM   15  C   UNL     1     -12.600  13.312  65.188  1.00  0.00    -0.512 A  
HETATM   16  C   UNL     1     -11.988  12.283  64.461  1.00  0.00    -0.459 A  
HETATM   17  C   UNL     1     -12.466  11.885  63.094  1.00  0.00    -0.363 C  
HETATM   18  C   UNL     1     -10.899  11.610  65.026  1.00  0.00    -0.346 A  
HETATM   19  C   UNL     1     -10.447  11.938  66.306  1.00  0.00    -0.274 A  
ENDBRANCH  11  13
ENDBRANCH   5  11
TORSDOF 3
ENDMDL
MODEL        4
REMARK 921   NORMALIZED FREE ENERGY PREDICTED BY IDOCK:   -6.08 KCAL/MOL
REMARK 922        TOTAL FREE ENERGY PREDICTED BY IDOCK:   -7.78 KCAL/MOL
REMARK 923 INTER-LIGAND FREE ENERGY PREDICTED BY IDOCK:   -7.22 KCAL/MOL
REMARK 924 INTRA-LIGAND FREE ENERGY PREDICTED BY IDOCK:   -0.56 KCAL/MOL
REMARK 927      BINDING AFFINITY PREDICTED BY RF-SCORE:    0.00 PKD
ROOT
HETATM    1  C   UNL     1      -7.785  17.364  66.560  1.00  0.00    -0.284 C  
HETATM    2  N   UNL     1      -8.874  18.207  67.021  1.00  0.00    -0.256 NA 
HETATM    3  C   UNL     1      -8.756  19.203  67.978  1.00  0.00    -0.310 A  
HETATM    4  C   UNL     1     -10.003  19.771  68.136  1.00  0.00    -0.557 A  
HETATM    5  C   UNL     1     -10.193  18.117  66.585  1.00  0.00    -0.381 A  
HETATM    6  C   UNL     1     -10.898  19.080  67.296  1.00  0.00    -0.494 A  
ENDROOT
BRANCH   3   7
HETATM    7  C   UNL     1      -7.502  19.491  68.768  1.00  0.00    -0.387 C  
HETATM    8  O   UNL     1      -5.521  20.855  68.729  1.00  0.00    -0.310 OA 
HETATM    9  O   UNL     1      -7.118  21.357  67.234  1.00  0.00    -0.565 OA 
HETATM   10  C   UNL     1      -6.624  20.614  68.245  1.00  0.00    -0.254 C  
ENDBRANCH   3   7
BRANCH   5  11
HETATM   11  C   UNL     1     -10.724  17.143  65.624  1.00  0.00    -0.136 C  
HETATM   12  O   UNL     1     -11.083  17.454  64.491  1.00  0.00    -1.008 OA 
BRANCH  11  13
HETATM   13  C   UNL     1     -10.842  15.699  66.027  1.00  0.00    -0.276 A  
HETATM   14  C   UNL     1     -10.981  15.350  67.378  1.00  0.00    -0.312 A  
HETATM   15  C   UNL     1     -11.066  14.000  67.758  1.00  0.00    -0.284 A  
HETATM   16  C   UNL     1     -11.003  12.985  66.794  1.00  0.00    -0.299 A  
HETATM   17  C   UNL     1     -11.078  11.532  67.166  1.00  0.00    -0.355 C  
HETATM   18  C   UNL     1     -10.868  13.339  65.447  1.00  0.00    -0.304 A  
HETATM   19  C   UNL     1     -10.768  14.680  65.070  1.00  0.00    -0.448 A  
ENDBRANCH  11  13
ENDBRANCH   5  11
TORSDOF 3
ENDMDL
MODEL        5
REMARK 921   NORMALIZED FREE ENERGY PREDICTED BY IDOCK:   -6.06 KCAL/MOL
REMARK 922        TOTAL FREE ENERGY PREDICTED BY IDOCK:   -7.76 KCAL/MOL
REMARK 923 INTER-LIGAND FREE ENERGY PREDICTED BY IDOCK:   -7.30 KCAL/MOL
REMARK 924 INTRA-LIGAND FREE ENERGY PREDICTED BY IDOCK:   -0.47 KCAL/MOL
REMARK 927      BINDING AFFINITY PREDICTED BY RF-SCORE:    0.00 PKD
ROOT
HETATM    1  C   UNL     1      -9.427  12.801  67.393  1.00  0.00    -0.190 C  
HETATM    2  N   UNL     1     -10.668  13.070  66.688  1.00  0.00    -0.272 NA 
HETATM    3  C   UNL     1     -11.204  12.268  65.691  1.00  0.00    -0.333 A  
HETATM    4  C   UNL     1     -12.380  12.859  65.277  1.00  0.00    -0.544 A  
HETATM    5  C   UNL     1     -11.481  14.181  66.896  1.00  0.00    -0.357 A  
HETATM    6  C   UNL     1     -12.536  14.057  66.002  1.00  0.00    -0.489 A  
ENDROOT
BRANCH   3   7
HETATM    7  C   UNL     1     -10.524  11.052  65.109  1.00  0.00    -0.329 C  
HETATM    8  O   UNL     1      -9.545  10.236  63.070  1.00  0.00    -0.315 OA 
HETATM    9  O   UNL     1     -10.037  12.424  63.143  1.00  0.00    -0.359 OA 
HETATM   10  C   UNL     1     -10.001  11.192  63.691  1.00  0.00    -0.363 C  
ENDBRANCH   3   7
BRANCH   5  11
HETATM   11  C   UNL     1     -11.216  15.287  67.823  1.00  0.00    -0.326 C  
HETATM   12  O   UNL     1     -10.709  16.348  67.465  1.00  0.00    -0.325 OA 
BRANCH  11  13
HETATM   13  C   UNL     1     -11.572  15.134  69.276  1.00  0.00    -0.344 A  
HETATM   14  C   UNL     1     -12.275  14.003  69.717  1.00  0.00    -0.396 A  
HETATM   15  C   UNL     1     -12.631  13.870  71.069  1.00  0.00    -0.444 A  
HETATM   16  C   UNL     1     -12.298  14.870  71.993  1.00  0.00    -0.419 A  
HETATM   17  C   UNL     1     -12.673  14.766  73.443  1.00  0.00    -0.588 C  
HETATM   18  C   UNL     1     -11.594  15.995  71.548  1.00  0.00    -0.529 A  
HETATM   19  C   UNL     1     -11.254  16.135  70.201  1.00  0.00    -0.374 A  
ENDBRANCH  11  13
ENDBRANCH   5  11
TORSDOF 3
ENDMDL
MODEL        6
REMARK 921   NORMALIZED FREE ENERGY PREDICTED BY IDOCK:   -6.05 KCAL/MOL
REMARK 922        TOTAL FREE ENERGY PREDICTED BY IDOCK:   -7.75 KCAL/MOL
REMARK 923 INTER-LIGAND FREE ENERGY PREDICTED BY IDOCK:   -7.40 KCAL/MOL
REMARK 924 INTRA-LIGAND FREE ENERGY PREDICTED BY IDOCK:   -0.35 KCAL/MOL
REMARK 927      BINDING AFFINITY PREDICTED BY RF-SCORE:    0.00 PKD
ROOT
HETATM    1  C   UNL     1     -13.247   8.996  71.964  1.00  0.00    -0.429 C  
HETATM    2  N   UNL     1     -11.851   9.111  71.577  1.00  0.00    -0.331 NA 
HETATM    3  C   UNL     1     -10.824   8.323  72.074  1.00  0.00    -0.301 A  
HETATM    4  C   UNL     1      -9.657   8.738  71.464  1.00  0.00    -0.354 A  
HETATM    5  C   UNL     1     -11.347  10.042  70.674  1.00  0.00    -0.348 A  
HETATM    6  C   UNL     1      -9.977   9.820  70.621  1.00  0.00    -0.215 A  
ENDROOT
BRANCH   3   7
HETATM    7  C   UNL     1     -10.980   7.301  73.173  1.00  0.00    -0.384 C  
HETATM    8  O   UNL     1     -11.398   4.958  73.523  1.00  0.00    -0.329 OA 
HETATM    9  O   UNL     1     -10.959   5.598  71.417  1.00  0.00    -0.250 OA 
HETATM   10  C   UNL     1     -11.138   5.858  72.729  1.00  0.00    -0.281 C  
ENDBRANCH   3   7
BRANCH   5  11
HETATM   11  C   UNL     1     -12.114  11.088  69.988  1.00  0.00    -0.364 C  
HETATM   12  O   UNL     1     -12.492  10.979  68.824  1.00  0.00    -0.468 OA 
BRANCH  11  13
HETATM   13  C   UNL     1     -12.460  12.352  70.724  1.00  0.00    -0.356 A  
HETATM   14  C   UNL     1     -11.926  13.581  70.311  1.00  0.00    -0.386 A  
HETATM   15  C   UNL     1     -12.229  14.760  71.013  1.00  0.00    -0.393 A  
HETATM   16  C   UNL     1     -13.059  14.721  72.140  1.00  0.00    -0.426 A  
HETATM   17  C   UNL     1     -13.394  15.960  72.921  1.00  0.00    -0.635 C  
HETATM   18  C   UNL     1     -13.592  13.493  72.547  1.00  0.00    -0.674 A  
HETATM   19  C   UNL     1     -13.279  12.319  71.858  1.00  0.00    -0.481 A  
ENDBRANCH  11  13
ENDBRANCH   5  11
TORSDOF 3
ENDMDL
MODEL        7
REMARK 921   NORMALIZED FREE ENERGY PREDICTED BY IDOCK:   -6.00 KCAL/MOL
REMARK 922        TOTAL FREE ENERGY PREDICTED BY IDOCK:   -7.70 KCAL/MOL
REMARK 923 INTER-LIGAND FREE ENERGY PREDICTED BY IDOCK:   -7.07 KCAL/MOL
REMARK 924 INTRA-LIGAND FREE ENERGY PREDICTED BY IDOCK:   -0.63 KCAL/MOL
REMARK 927      BINDING AFFINITY PREDICTED BY RF-SCORE:    0.00 PKD
ROOT
HETATM    1  C   UNL     1     -10.296  12.262  66.703  1.00  0.00    -0.215 C  
HETATM    2  N   UNL     1     -10.509  13.636  66.281  1.00  0.00    -0.286 NA 
HETATM    3  C   UNL     1     -10.899  14.023  65.007  1.00  0.00    -0.392 A  
HETATM    4  C   UNL     1     -10.991  15.400  65.007  1.00  0.00    -0.450 A  
HETATM    5  C   UNL     1     -10.326  14.757  67.086  1.00  0.00    -0.255 A  
HETATM    6  C   UNL     1     -10.609  15.855  66.284  1.00  0.00    -0.301 A  
ENDROOT
BRANCH   3   7
HETATM    7  C   UNL     1     -11.057  13.085  63.836  1.00  0.00    -0.411 C  
HETATM    8  O   UNL     1     -12.524  11.390  62.962  1.00  0.00    -0.106 OA 
HETATM    9  O   UNL     1     -13.288  12.581  64.704  1.00  0.00    -0.804 OA 
HETATM   10  C   UNL     1     -12.340  12.274  63.795  1.00  0.00    -0.538 C  
ENDBRANCH   3   7
BRANCH   5  11
HETATM   11  C   UNL     1      -9.855  14.758  68.476  1.00  0.00    -0.218 C  
HETATM   12  O   UNL     1      -8.666  14.672  68.774  1.00  0.00    -0.174 OA 
BRANCH  11  13
HETATM   13  C   UNL     1     -10.854  14.869  69.594  1.00  0.00    -0.269 A  
HETATM   14  C   UNL     1     -11.826  13.874  69.775  1.00  0.00    -0.390 A  
HETATM   15  C   UNL     1     -12.776  13.988  70.804  1.00  0.00    -0.396 A  
HETATM   16  C   UNL     1     -12.771  15.101  71.655  1.00  0.00    -0.429 A  
HETATM   17  C   UNL     1     -13.779  15.261  72.757  1.00  0.00    -0.584 C  
HETATM   18  C   UNL     1     -11.797  16.089  71.472  1.00  0.00    -0.554 A  
HETATM   19  C   UNL     1     -10.862  15.983  70.440  1.00  0.00    -0.295 A  
ENDBRANCH  11  13
ENDBRANCH   5  11
TORSDOF 3
ENDMDL
MODEL        8
REMARK 921   NORMALIZED FREE ENERGY PREDICTED BY IDOCK:   -5.94 KCAL/MOL
REMARK 922        TOTAL FREE ENERGY PREDICTED BY IDOCK:   -7.62 KCAL/MOL
REMARK 923 INTER-LIGAND FREE ENERGY PREDICTED BY IDOCK:   -6.94 KCAL/MOL
REMARK 924 INTRA-LIGAND FREE ENERGY PREDICTED BY IDOCK:   -0.68 KCAL/MOL
REMARK 927      BINDING AFFINITY PREDICTED BY RF-SCORE:    0.00 PKD
ROOT
HETATM    1  C   UNL     1     -10.660  10.756  65.957  1.00  0.00    -0.156 C  
HETATM    2  N   UNL     1     -10.321  11.983  66.656  1.00  0.00    -0.206 NA 
HETATM    3  C   UNL     1     -10.375  13.253  66.100  1.00  0.00    -0.290 A  
HETATM    4  C   UNL     1      -9.981  14.145  67.076  1.00  0.00    -0.260 A  
HETATM    5  C   UNL     1      -9.871  12.056  67.971  1.00  0.00    -0.199 A  
HETATM    6  C   UNL     1      -9.641  13.402  68.224  1.00  0.00    -0.220 A  
ENDROOT
BRANCH   3   7
HETATM    7  C   UNL     1     -10.689  13.544  64.653  1.00  0.00    -0.429 C  
HETATM    8  O   UNL     1     -12.541  13.791  63.138  1.00  0.00    -0.793 OA 
HETATM    9  O   UNL     1     -13.036  13.697  65.326  1.00  0.00    -0.719 OA 
HETATM   10  C   UNL     1     -12.159  13.680  64.300  1.00  0.00    -0.434 C  
ENDBRANCH   3   7
BRANCH   5  11
HETATM   11  C   UNL     1      -9.623  10.920  68.866  1.00  0.00    -0.181 C  
HETATM   12  O   UNL     1      -8.563  10.298  68.872  1.00  0.00    -0.131 OA 
BRANCH  11  13
HETATM   13  C   UNL     1     -10.698  10.485  69.822  1.00  0.00    -0.314 A  
HETATM   14  C   UNL     1     -10.425   9.521  70.804  1.00  0.00    -0.384 A  
HETATM   15  C   UNL     1     -11.436   9.095  71.682  1.00  0.00    -0.451 A  
HETATM   16  C   UNL     1     -12.731   9.619  71.582  1.00  0.00    -0.499 A  
HETATM   17  C   UNL     1     -13.838   9.177  72.496  1.00  0.00    -0.485 C  
HETATM   18  C   UNL     1     -12.997  10.582  70.603  1.00  0.00    -0.362 A  
HETATM   19  C   UNL     1     -11.998  10.995  69.720  1.00  0.00    -0.428 A  
ENDBRANCH  11  13
ENDBRANCH   5  11
TORSDOF 3
ENDMDL
MODEL        9
REMARK 921   NORMALIZED FREE ENERGY PREDICTED BY IDOCK:   -5.92 KCAL/MOL
REMARK 922        TOTAL FREE ENERGY PREDICTED BY IDOCK:   -7.60 KCAL/MOL
REMARK 923 INTER-LIGAND FREE ENERGY PREDICTED BY IDOCK:   -7.03 KCAL/MOL
REMARK 924 INTRA-LIGAND FREE ENERGY PREDICTED BY IDOCK:   -0.57 KCAL/MOL
REMARK 927      BINDING AFFINITY PREDICTED BY RF-SCORE:    0.00 PKD
ROOT
HETATM    1  C   UNL     1      -9.986  15.905  65.680  1.00  0.00    -0.334 C  
HETATM    2  N   UNL     1     -10.681  15.456  66.874  1.00  0.00    -0.311 NA 
HETATM    3  C   UNL     1     -10.442  15.929  68.156  1.00  0.00    -0.270 A  
HETATM    4  C   UNL     1     -11.299  15.260  69.006  1.00  0.00    -0.311 A  
HETATM    5  C   UNL     1     -11.666  14.473  66.903  1.00  0.00    -0.382 A  
HETATM    6  C   UNL     1     -12.035  14.339  68.235  1.00  0.00    -0.346 A  
ENDROOT
BRANCH   3   7
HETATM    7  C   UNL     1      -9.348  16.902  68.522  1.00  0.00    -0.259 C  
HETATM    8  O   UNL     1      -8.765  19.230  68.361  1.00  0.00    -0.332 OA 
HETATM    9  O   UNL     1     -10.873  18.682  67.820  1.00  0.00    -0.390 OA 
HETATM   10  C   UNL     1      -9.625  18.365  68.224  1.00  0.00    -0.334 C  
ENDBRANCH   3   7
BRANCH   5  11
HETATM   11  C   UNL     1     -12.146  13.693  65.756  1.00  0.00    -0.428 C  
HETATM   12  O   UNL     1     -13.232  13.899  65.220  1.00  0.00    -0.774 OA 
BRANCH  11  13
HETATM   13  C   UNL     1     -11.286  12.591  65.201  1.00  0.00    -0.352 A  
HETATM   14  C   UNL     1     -10.826  11.563  66.038  1.00  0.00    -0.330 A  
HETATM   15  C   UNL     1     -10.002  10.547  65.526  1.00  0.00    -0.342 A  
HETATM   16  C   UNL     1      -9.622  10.551  64.178  1.00  0.00    -0.369 A  
HETATM   17  C   UNL     1      -8.732   9.487  63.601  1.00  0.00    -0.239 C  
HETATM   18  C   UNL     1     -10.086  11.577  63.348  1.00  0.00    -0.454 A  
HETATM   19  C   UNL     1     -10.892  12.596  63.858  1.00  0.00    -0.468 A  
ENDBRANCH  11  13
ENDBRANCH   5  11
TORSDOF 3
ENDMDL
MODEL       10
REMARK 921   NORMALIZED FREE ENERGY PREDICTED BY IDOCK:   -5.89 KCAL/MOL
REMARK 922        TOTAL FREE ENERGY PREDICTED BY IDOCK:   -7.57 KCAL/MOL
REMARK 923 INTER-LIGAND FREE ENERGY PREDICTED BY IDOCK:   -6.95 KCAL/MOL
REMARK 924 INTRA-LIGAND FREE ENERGY PREDICTED BY IDOCK:   -0.62 KCAL/MOL
REMARK 927      BINDING AFFINITY PREDICTED BY RF-SCORE:    0.00 PKD
ROOT
HETATM    1  C   UNL     1     -10.049  15.534  65.391  1.00  0.00    -0.352 C  
HETATM    2  N   UNL     1     -10.685  15.314  66.678  1.00  0.00    -0.306 NA 
HETATM    3  C   UNL     1     -11.319  14.141  67.059  1.00  0.00    -0.332 A  
HETATM    4  C   UNL     1     -11.790  14.326  68.343  1.00  0.00    -0.373 A  
HETATM    5  C   UNL     1     -10.768  16.255  67.700  1.00  0.00    -0.311 A  
HETATM    6  C   UNL     1     -11.474  15.644  68.728  1.00  0.00    -0.382 A  
ENDROOT
BRANCH   3   7
HETATM    7  C   UNL     1     -11.542  12.953  66.155  1.00  0.00    -0.423 C  
HETATM    8  O   UNL     1     -13.071  12.101  64.504  1.00  0.00    -0.720 OA 
HETATM    9  O   UNL     1     -13.345  14.242  65.120  1.00  0.00    -0.626 OA 
HETATM   10  C   UNL     1     -12.716  13.051  65.197  1.00  0.00    -0.397 C  
ENDBRANCH   3   7
BRANCH   5  11
HETATM   11  C   UNL     1     -10.272  17.636  67.650  1.00  0.00    -0.351 C  
HETATM   12  O   UNL     1     -10.905  18.551  67.129  1.00  0.00    -0.391 OA 
BRANCH  11  13
HETATM   13  C   UNL     1      -8.935  17.962  68.255  1.00  0.00    -0.277 A  
HETATM   14  C   UNL     1      -8.019  16.939  68.542  1.00  0.00    -0.242 A  
HETATM   15  C   UNL     1      -6.780  17.239  69.130  1.00  0.00    -0.243 A  
HETATM   16  C   UNL     1      -6.446  18.562  69.448  1.00  0.00    -0.257 A  
HETATM   17  C   UNL     1      -5.135  18.918  70.089  1.00  0.00    -0.201 C  
HETATM   18  C   UNL     1      -7.362  19.579  69.158  1.00  0.00    -0.364 A  
HETATM   19  C   UNL     1      -8.601  19.280  68.586  1.00  0.00    -0.401 A  
ENDBRANCH  11  13
ENDBRANCH   5  11
TORSDOF 3
ENDMDL
MODEL       11
REMARK 921   NORMALIZED FREE ENERGY PREDICTED BY IDOCK:   -5.87 KCAL/MOL
REMARK 922        TOTAL FREE ENERGY PREDICTED BY IDOCK:   -7.54 KCAL/MOL
REMARK 923 INTER-LIGAND FREE ENERGY PREDICTED BY IDOCK:   -6.94 KCAL/MOL
REMARK 924 INTRA-LIGAND FREE ENERGY PREDICTED BY IDOCK:   -0.60 KCAL/MOL
REMARK 927      BINDING AFFINITY PREDICTED BY RF-SCORE:    0.00 PKD
ROOT
HETATM    1  C   UNL     1     -10.060  16.028  65.668  1.00  0.00    -0.354 C  
HETATM    2  N   UNL     1     -10.721  15.784  66.938  1.00  0.00    -0.315 NA 
HETATM    3  C   UNL     1     -10.499  16.508  68.100  1.00  0.00    -0.313 A  
HETATM    4  C   UNL     1     -11.311  15.973  69.079  1.00  0.00    -0.363 A  
HETATM    5  C   UNL     1     -11.650  14.775  67.175  1.00  0.00    -0.359 A  
HETATM    6  C   UNL     1     -12.001  14.882  68.514  1.00  0.00    -0.275 A  
ENDROOT
BRANCH   3   7
HETATM    7  C   UNL     1      -9.457  17.589  68.251  1.00  0.00    -0.296 C  
HETATM    8  O   UNL     1      -9.056  19.905  67.740  1.00  0.00    -0.321 OA 
HETATM    9  O   UNL     1     -11.149  19.156  67.435  1.00  0.00    -0.426 OA 
HETATM   10  C   UNL     1      -9.858  18.977  67.783  1.00  0.00    -0.336 C  
ENDBRANCH   3   7
BRANCH   5  11
HETATM   11  C   UNL     1     -12.096  13.763  66.210  1.00  0.00    -0.446 C  
HETATM   12  O   UNL     1     -13.049  13.939  65.455  1.00  0.00    -0.752 OA 
BRANCH  11  13
HETATM   13  C   UNL     1     -11.367  12.450  66.127  1.00  0.00    -0.398 A  
HETATM   14  C   UNL     1     -10.770  12.046  64.924  1.00  0.00    -0.346 A  
HETATM   15  C   UNL     1     -10.110  10.809  64.839  1.00  0.00    -0.387 A  
HETATM   16  C   UNL     1     -10.049   9.958  65.950  1.00  0.00    -0.316 A  
HETATM   17  C   UNL     1      -9.363   8.623  65.890  1.00  0.00    -0.262 C  
HETATM   18  C   UNL     1     -10.645  10.367  67.148  1.00  0.00    -0.319 A  
HETATM   19  C   UNL     1     -11.314  11.590  67.230  1.00  0.00    -0.359 A  
ENDBRANCH  11  13
ENDBRANCH   5  11
TORSDOF 3
ENDMDL
MODEL       12
REMARK 921   NORMALIZED FREE ENERGY PREDICTED BY IDOCK:   -5.87 KCAL/MOL
REMARK 922        TOTAL FREE ENERGY PREDICTED BY IDOCK:   -7.54 KCAL/MOL
REMARK 923 INTER-LIGAND FREE ENERGY PREDICTED BY IDOCK:   -7.03 KCAL/MOL
REMARK 924 INTRA-LIGAND FREE ENERGY PREDICTED BY IDOCK:   -0.51 KCAL/MOL
REMARK 927      BINDING AFFINITY PREDICTED BY RF-SCORE:    0.00 PKD
ROOT
HETATM    1  C   UNL     1      -9.096  15.710  69.452  1.00  0.00    -0.278 C  
HETATM    2  N   UNL     1     -10.032  15.323  68.411  1.00  0.00    -0.216 NA 
HETATM    3  C   UNL     1      -9.757  15.339  67.052  1.00  0.00    -0.226 A  
HETATM    4  C   UNL     1     -10.893  14.906  66.399  1.00  0.00    -0.325 A  
HETATM    5  C   UNL     1     -11.342  14.907  68.629  1.00  0.00    -0.292 A  
HETATM    6  C   UNL     1     -11.882  14.667  67.372  1.00  0.00    -0.374 A  
ENDROOT
BRANCH   3   7
HETATM    7  C   UNL     1      -8.481  15.864  66.440  1.00  0.00    -0.348 C  
HETATM    8  O   UNL     1      -7.475  17.893  65.630  1.00  0.00    -0.544 OA 
HETATM    9  O   UNL     1      -9.402  18.107  66.761  1.00  0.00    -0.269 OA 
HETATM   10  C   UNL     1      -8.406  17.366  66.233  1.00  0.00    -0.236 C  
ENDBRANCH   3   7
BRANCH   5  11
HETATM   11  C   UNL     1     -12.020  14.822  69.928  1.00  0.00    -0.328 C  
HETATM   12  O   UNL     1     -12.339  15.815  70.577  1.00  0.00    -0.402 OA 
BRANCH  11  13
HETATM   13  C   UNL     1     -12.346  13.472  70.503  1.00  0.00    -0.412 A  
HETATM   14  C   UNL     1     -11.846  12.307  69.903  1.00  0.00    -0.383 A  
HETATM   15  C   UNL     1     -12.170  11.044  70.425  1.00  0.00    -0.461 A  
HETATM   16  C   UNL     1     -13.005  10.930  71.544  1.00  0.00    -0.556 A  
HETATM   17  C   UNL     1     -13.382   9.595  72.120  1.00  0.00    -0.545 C  
HETATM   18  C   UNL     1     -13.500  12.095  72.140  1.00  0.00    -0.383 A  
HETATM   19  C   UNL     1     -13.190  13.351  71.613  1.00  0.00    -0.449 A  
ENDBRANCH  11  13
ENDBRANCH   5  11
TORSDOF 3
ENDMDL
MODEL       13
REMARK 921   NORMALIZED FREE ENERGY PREDICTED BY IDOCK:   -5.83 KCAL/MOL
REMARK 922        TOTAL FREE ENERGY PREDICTED BY IDOCK:   -7.50 KCAL/MOL
REMARK 923 INTER-LIGAND FREE ENERGY PREDICTED BY IDOCK:   -6.89 KCAL/MOL
REMARK 924 INTRA-LIGAND FREE ENERGY PREDICTED BY IDOCK:   -0.61 KCAL/MOL
REMARK 927      BINDING AFFINITY PREDICTED BY RF-SCORE:    0.00 PKD
ROOT
HETATM    1  C   UNL     1     -11.259  16.023  64.589  1.00  0.00    -0.330 C  
HETATM    2  N   UNL     1     -10.690  15.046  65.502  1.00  0.00    -0.334 NA 
HETATM    3  C   UNL     1     -10.550  13.693  65.228  1.00  0.00    -0.346 A  
HETATM    4  C   UNL     1      -9.973  13.108  66.337  1.00  0.00    -0.282 A  
HETATM    5  C   UNL     1     -10.231  15.324  66.786  1.00  0.00    -0.272 A  
HETATM    6  C   UNL     1      -9.802  14.112  67.311  1.00  0.00    -0.238 A  
ENDROOT
BRANCH   3   7
HETATM    7  C   UNL     1     -11.065  13.010  63.985  1.00  0.00    -0.433 C  
HETATM    8  O   UNL     1     -13.010  11.890  63.119  1.00  0.00    -0.640 OA 
HETATM    9  O   UNL     1     -13.255  12.962  65.075  1.00  0.00    -0.765 OA 
HETATM   10  C   UNL     1     -12.516  12.565  64.018  1.00  0.00    -0.435 C  
ENDBRANCH   3   7
BRANCH   5  11
HETATM   11  C   UNL     1     -10.272  16.628  67.458  1.00  0.00    -0.289 C  
HETATM   12  O   UNL     1     -11.104  16.906  68.318  1.00  0.00    -0.349 OA 
BRANCH  11  13
HETATM   13  C   UNL     1      -9.263  17.680  67.090  1.00  0.00    -0.245 A  
HETATM   14  C   UNL     1      -8.047  17.317  66.492  1.00  0.00    -0.313 A  
HETATM   15  C   UNL     1      -7.093  18.296  66.170  1.00  0.00    -0.304 A  
HETATM   16  C   UNL     1      -7.338  19.647  66.452  1.00  0.00    -0.266 A  
HETATM   17  C   UNL     1      -6.335  20.718  66.133  1.00  0.00    -0.296 C  
HETATM   18  C   UNL     1      -8.554  20.004  67.046  1.00  0.00    -0.399 A  
HETATM   19  C   UNL     1      -9.497  19.029  67.379  1.00  0.00    -0.347 A  
ENDBRANCH  11  13
ENDBRANCH   5  11
TORSDOF 3
ENDMDL
MODEL       14
REMARK 921   NORMALIZED FREE ENERGY PREDICTED BY IDOCK:   -5.82 KCAL/MOL
REMARK 922        TOTAL FREE ENERGY PREDICTED BY IDOCK:   -7.48 KCAL/MOL
REMARK 923 INTER-LIGAND FREE ENERGY PREDICTED BY IDOCK:   -7.04 KCAL/MOL
REMARK 924 INTRA-LIGAND FREE ENERGY PREDICTED BY IDOCK:   -0.45 KCAL/MOL
REMARK 927      BINDING AFFINITY PREDICTED BY RF-SCORE:    0.00 PKD
ROOT
HETATM    1  C   UNL     1     -11.910  13.010  68.884  1.00  0.00    -0.316 C  
HETATM    2  N   UNL     1     -11.448  14.236  68.257  1.00  0.00    -0.287 NA 
HETATM    3  C   UNL     1     -10.854  15.295  68.929  1.00  0.00    -0.247 A  
HETATM    4  C   UNL     1     -10.561  16.263  67.990  1.00  0.00    -0.308 A  
HETATM    5  C   UNL     1     -11.558  14.532  66.902  1.00  0.00    -0.385 A  
HETATM    6  C   UNL     1     -11.023  15.803  66.741  1.00  0.00    -0.192 A  
ENDROOT
BRANCH   3   7
HETATM    7  C   UNL     1     -10.696  15.381  70.427  1.00  0.00    -0.312 C  
HETATM    8  O   UNL     1     -11.903  15.989  72.417  1.00  0.00    -0.468 OA 
HETATM    9  O   UNL     1     -13.099  15.829  70.525  1.00  0.00    -0.461 OA 
HETATM   10  C   UNL     1     -11.939  15.765  71.210  1.00  0.00    -0.434 C  
ENDBRANCH   3   7
BRANCH   5  11
HETATM   11  C   UNL     1     -12.188  13.688  65.879  1.00  0.00    -0.461 C  
HETATM   12  O   UNL     1     -13.365  13.811  65.549  1.00  0.00    -0.613 OA 
BRANCH  11  13
HETATM   13  C   UNL     1     -11.375  12.623  65.197  1.00  0.00    -0.343 A  
HETATM   14  C   UNL     1     -10.982  11.474  65.899  1.00  0.00    -0.301 A  
HETATM   15  C   UNL     1     -10.201  10.490  65.271  1.00  0.00    -0.352 A  
HETATM   16  C   UNL     1      -9.795  10.648  63.939  1.00  0.00    -0.398 A  
HETATM   17  C   UNL     1      -8.950   9.622  63.241  1.00  0.00    -0.251 C  
HETATM   18  C   UNL     1     -10.192  11.795  63.243  1.00  0.00    -0.452 A  
HETATM   19  C   UNL     1     -10.956  12.781  63.871  1.00  0.00    -0.458 A  
ENDBRANCH  11  13
ENDBRANCH   5  11
TORSDOF 3
ENDMDL
MODEL       15
REMARK 921   NORMALIZED FREE ENERGY PREDICTED BY IDOCK:   -5.81 KCAL/MOL
REMARK 922        TOTAL FREE ENERGY PREDICTED BY IDOCK:   -7.47 KCAL/MOL
REMARK 923 INTER-LIGAND FREE ENERGY PREDICTED BY IDOCK:   -6.94 KCAL/MOL
REMARK 924 INTRA-LIGAND FREE ENERGY PREDICTED BY IDOCK:   -0.53 KCAL/MOL
REMARK 927      BINDING AFFINITY PREDICTED BY RF-SCORE:    0.00 PKD
ROOT
HETATM    1  C   UNL     1     -11.658  15.365  68.712  1.00  0.00    -0.368 C  
HETATM    2  N   UNL     1     -10.865  15.632  67.526  1.00  0.00    -0.313 NA 
HETATM    3  C   UNL     1      -9.935  16.655  67.408  1.00  0.00    -0.265 A  
HETATM    4  C   UNL     1      -9.398  16.576  66.139  1.00  0.00    -0.339 A  
HETATM    5  C   UNL     1     -10.943  14.918  66.334  1.00  0.00    -0.336 A  
HETATM    6  C   UNL     1     -10.043  15.520  65.465  1.00  0.00    -0.406 A  
ENDROOT
BRANCH   3   7
HETATM    7  C   UNL     1      -9.684  17.713  68.454  1.00  0.00    -0.321 C  
HETATM    8  O   UNL     1     -10.040  20.051  68.894  1.00  0.00    -0.398 OA 
HETATM    9  O   UNL     1     -11.114  19.185  67.124  1.00  0.00    -0.396 OA 
HETATM   10  C   UNL     1     -10.282  19.081  68.180  1.00  0.00    -0.396 C  
ENDBRANCH   3   7
BRANCH   5  11
HETATM   11  C   UNL     1     -11.857  13.805  66.049  1.00  0.00    -0.390 C  
HETATM   12  O   UNL     1     -12.972  13.969  65.560  1.00  0.00    -0.681 OA 
BRANCH  11  13
HETATM   13  C   UNL     1     -11.427  12.399  66.362  1.00  0.00    -0.427 A  
HETATM   14  C   UNL     1     -11.656  11.855  67.635  1.00  0.00    -0.382 A  
HETATM   15  C   UNL     1     -11.233  10.550  67.937  1.00  0.00    -0.358 A  
HETATM   16  C   UNL     1     -10.567   9.779  66.976  1.00  0.00    -0.269 A  
HETATM   17  C   UNL     1     -10.091   8.385  67.269  1.00  0.00    -0.321 C  
HETATM   18  C   UNL     1     -10.344  10.324  65.707  1.00  0.00    -0.236 A  
HETATM   19  C   UNL     1     -10.751  11.627  65.410  1.00  0.00    -0.341 A  
ENDBRANCH  11  13
ENDBRANCH   5  11
TORSDOF 3
ENDMDL
MODEL       16
REMARK 921   NORMALIZED FREE ENERGY PREDICTED BY IDOCK:   -5.81 KCAL/MOL
REMARK 922        TOTAL FREE ENERGY PREDICTED BY IDOCK:   -7.46 KCAL/MOL
REMARK 923 INTER-LIGAND FREE ENERGY PREDICTED BY IDOCK:   -6.76 KCAL/MOL
REMARK 924 INTRA-LIGAND FREE ENERGY PREDICTED BY IDOCK:   -0.70 KCAL/MOL
REMARK 927      BINDING AFFINITY PREDICTED BY RF-SCORE:    0.00 PKD
ROOT
HETATM    1  C   UNL     1     -10.773  18.826  67.346  1.00  0.00    -0.424 C  
HETATM    2  N   UNL     1      -9.698  18.032  67.915  1.00  0.00    -0.287 NA 
HETATM    3  C   UNL     1      -8.393  18.469  68.084  1.00  0.00    -0.296 A  
HETATM    4  C   UNL     1      -7.682  17.431  68.651  1.00  0.00    -0.273 A  
HETATM    5  C   UNL     1      -9.820  16.715  68.347  1.00  0.00    -0.252 A  
HETATM    6  C   UNL     1      -8.559  16.336  68.786  1.00  0.00    -0.240 A  
ENDROOT
BRANCH   3   7
HETATM    7  C   UNL     1      -7.863  19.798  67.602  1.00  0.00    -0.326 C  
HETATM    8  O   UNL     1      -6.696  20.804  65.755  1.00  0.00    -0.208 OA 
HETATM    9  O   UNL     1      -7.419  18.699  65.462  1.00  0.00    -0.505 OA 
HETATM   10  C   UNL     1      -7.270  19.816  66.205  1.00  0.00    -0.279 C  
ENDBRANCH   3   7
BRANCH   5  11
HETATM   11  C   UNL     1     -11.029  15.886  68.271  1.00  0.00    -0.329 C  
HETATM   12  O   UNL     1     -11.896  15.893  69.142  1.00  0.00    -0.389 OA 
BRANCH  11  13
HETATM   13  C   UNL     1     -11.233  14.985  67.084  1.00  0.00    -0.336 A  
HETATM   14  C   UNL     1     -10.684  15.320  65.838  1.00  0.00    -0.340 A  
HETATM   15  C   UNL     1     -10.894  14.492  64.723  1.00  0.00    -0.410 A  
HETATM   16  C   UNL     1     -11.663  13.327  64.838  1.00  0.00    -0.375 A  
HETATM   17  C   UNL     1     -11.919  12.426  63.664  1.00  0.00    -0.626 C  
HETATM   18  C   UNL     1     -12.207  12.996  66.084  1.00  0.00    -0.428 A  
HETATM   19  C   UNL     1     -12.011  13.826  67.190  1.00  0.00    -0.442 A  
ENDBRANCH  11  13
ENDBRANCH   5  11
TORSDOF 3
ENDMDL
MODEL       17
REMARK 921   NORMALIZED FREE ENERGY PREDICTED BY IDOCK:   -5.79 KCAL/MOL
REMARK 922        TOTAL FREE ENERGY PREDICTED BY IDOCK:   -7.45 KCAL/MOL
REMARK 923 INTER-LIGAND FREE ENERGY PREDICTED BY IDOCK:   -6.77 KCAL/MOL
REMARK 924 INTRA-LIGAND FREE ENERGY PREDICTED BY IDOCK:   -0.68 KCAL/MOL
REMARK 927      BINDING AFFINITY PREDICTED BY RF-SCORE:    0.00 PKD
ROOT
HETATM    1  C   UNL     1     -12.630  14.093  66.431  1.00  0.00    -0.198 C  
HETATM    2  N   UNL     1     -11.251  14.201  66.874  1.00  0.00    -0.308 NA 
HETATM    3  C   UNL     1     -10.142  14.083  66.050  1.00  0.00    -0.315 A  
HETATM    4  C   UNL     1      -9.023  14.245  66.842  1.00  0.00    -0.255 A  
HETATM    5  C   UNL     1     -10.849  14.411  68.190  1.00  0.00    -0.244 A  
HETATM    6  C   UNL     1      -9.460  14.419  68.170  1.00  0.00    -0.204 A  
ENDROOT
BRANCH   3   7
HETATM    7  C   UNL     1     -10.194  13.717  64.587  1.00  0.00    -0.338 C  
HETATM    8  O   UNL     1     -10.149  11.813  63.117  1.00  0.00    -0.418 OA 
HETATM    9  O   UNL     1     -10.385  11.387  65.309  1.00  0.00    -0.259 OA 
HETATM   10  C   UNL     1     -10.232  12.233  64.268  1.00  0.00    -0.330 C  
ENDBRANCH   3   7
BRANCH   5  11
HETATM   11  C   UNL     1     -11.730  14.522  69.358  1.00  0.00    -0.318 C  
HETATM   12  O   UNL     1     -12.143  15.599  69.779  1.00  0.00    -0.361 OA 
BRANCH  11  13
HETATM   13  C   UNL     1     -12.153  13.275  70.084  1.00  0.00    -0.403 A  
HETATM   14  C   UNL     1     -12.818  13.364  71.316  1.00  0.00    -0.407 A  
HETATM   15  C   UNL     1     -13.192  12.199  72.007  1.00  0.00    -0.496 A  
HETATM   16  C   UNL     1     -12.898  10.935  71.480  1.00  0.00    -0.560 A  
HETATM   17  C   UNL     1     -13.272   9.670  72.198  1.00  0.00    -0.535 C  
HETATM   18  C   UNL     1     -12.237  10.852  70.249  1.00  0.00    -0.432 A  
HETATM   19  C   UNL     1     -11.851  12.009  69.569  1.00  0.00    -0.390 A  
ENDBRANCH  11  13
ENDBRANCH   5  11
TORSDOF 3
ENDMDL
MODEL       18
REMARK 921   NORMALIZED FREE ENERGY PREDICTED BY IDOCK:   -5.78 KCAL/MOL
REMARK 922        TOTAL FREE ENERGY PREDICTED BY IDOCK:   -7.43 KCAL/MOL
REMARK 923 INTER-LIGAND FREE ENERGY PREDICTED BY IDOCK:   -7.56 KCAL/MOL
REMARK 924 INTRA-LIGAND FREE ENERGY PREDICTED BY IDOCK:    0.13 KCAL/MOL
REMARK 927      BINDING AFFINITY PREDICTED BY RF-SCORE:    0.00 PKD
ROOT
HETATM    1  C   UNL     1     -11.723  14.616  68.669  1.00  0.00    -0.329 C  
HETATM    2  N   UNL     1     -11.518  13.293  68.105  1.00  0.00    -0.291 NA 
HETATM    3  C   UNL     1     -11.196  13.037  66.780  1.00  0.00    -0.298 A  
HETATM    4  C   UNL     1     -11.088  11.668  66.642  1.00  0.00    -0.364 A  
HETATM    5  C   UNL     1     -11.640  12.098  68.807  1.00  0.00    -0.327 A  
HETATM    6  C   UNL     1     -11.391  11.086  67.888  1.00  0.00    -0.381 A  
ENDROOT
BRANCH   3   7
HETATM    7  C   UNL     1     -11.118  14.085  65.697  1.00  0.00    -0.302 C  
HETATM    8  O   UNL     1     -12.420  15.075  63.934  1.00  0.00    -0.790 OA 
HETATM    9  O   UNL     1     -13.516  13.737  65.364  1.00  0.00    -0.620 OA 
HETATM   10  C   UNL     1     -12.395  14.340  64.917  1.00  0.00    -0.425 C  
ENDBRANCH   3   7
BRANCH   5  11
HETATM   11  C   UNL     1     -12.031  11.955  70.214  1.00  0.00    -0.330 C  
HETATM   12  O   UNL     1     -12.496  12.882  70.872  1.00  0.00    -0.367 OA 
BRANCH  11  13
HETATM   13  C   UNL     1     -11.861  10.626  70.896  1.00  0.00    -0.433 A  
HETATM   14  C   UNL     1     -12.869  10.126  71.734  1.00  0.00    -0.554 A  
HETATM   15  C   UNL     1     -12.702   8.896  72.391  1.00  0.00    -0.436 A  
HETATM   16  C   UNL     1     -11.522   8.157  72.227  1.00  0.00    -0.435 A  
HETATM   17  C   UNL     1     -11.305   6.845  72.924  1.00  0.00    -0.199 C  
HETATM   18  C   UNL     1     -10.521   8.659  71.388  1.00  0.00    -0.327 A  
HETATM   19  C   UNL     1     -10.681   9.889  70.746  1.00  0.00    -0.350 A  
ENDBRANCH  11  13
ENDBRANCH   5  11
TORSDOF 3
ENDMDL
MODEL       19
REMARK 921   NORMALIZED FREE ENERGY PREDICTED BY IDOCK:   -5.72 KCAL/MOL
REMARK 922        TOTAL FREE ENERGY PREDICTED BY IDOCK:   -7.36 KCAL/MOL
REMARK 923 INTER-LIGAND FREE ENERGY PREDICTED BY IDOCK:   -6.73 KCAL/MOL
REMARK 924 INTRA-LIGAND FREE ENERGY PREDICTED BY IDOCK:   -0.63 KCAL/MOL
REMARK 927      BINDING AFFINITY PREDICTED BY RF-SCORE:    0.00 PKD
ROOT
HETATM    1  C   UNL     1      -9.186  13.987  66.233  1.00  0.00    -0.102 C  
HETATM    2  N   UNL     1     -10.186  13.740  67.257  1.00  0.00    -0.251 NA 
HETATM    3  C   UNL     1     -11.267  12.881  67.119  1.00  0.00    -0.289 A  
HETATM    4  C   UNL     1     -11.977  12.922  68.301  1.00  0.00    -0.297 A  
HETATM    5  C   UNL     1     -10.215  14.347  68.509  1.00  0.00    -0.243 A  
HETATM    6  C   UNL     1     -11.343  13.851  69.150  1.00  0.00    -0.331 A  
ENDROOT
BRANCH   3   7
HETATM    7  C   UNL     1     -11.630  12.156  65.846  1.00  0.00    -0.425 C  
HETATM    8  O   UNL     1     -13.078  12.318  63.932  1.00  0.00    -0.772 OA 
HETATM    9  O   UNL     1     -12.942  14.132  65.247  1.00  0.00    -0.725 OA 
HETATM   10  C   UNL     1     -12.613  12.863  64.930  1.00  0.00    -0.458 C  
ENDBRANCH   3   7
BRANCH   5  11
HETATM   11  C   UNL     1      -9.278  15.363  69.002  1.00  0.00    -0.235 C  
HETATM   12  O   UNL     1      -8.418  15.121  69.845  1.00  0.00    -0.074 OA 
BRANCH  11  13
HETATM   13  C   UNL     1      -9.358  16.765  68.464  1.00  0.00    -0.246 A  
HETATM   14  C   UNL     1      -8.229  17.596  68.481  1.00  0.00    -0.292 A  
HETATM   15  C   UNL     1      -8.309  18.914  68.002  1.00  0.00    -0.325 A  
HETATM   16  C   UNL     1      -9.519  19.419  67.509  1.00  0.00    -0.395 A  
HETATM   17  C   UNL     1      -9.643  20.826  67.000  1.00  0.00    -0.411 C  
HETATM   18  C   UNL     1     -10.642  18.584  67.491  1.00  0.00    -0.461 A  
HETATM   19  C   UNL     1     -10.568  17.279  67.982  1.00  0.00    -0.394 A  
ENDBRANCH  11  13
ENDBRANCH   5  11
TORSDOF 3
ENDMDL
MODEL       20
REMARK 921   NORMALIZED FREE ENERGY PREDICTED BY IDOCK:   -5.72 KCAL/MOL
REMARK 922        TOTAL FREE ENERGY PREDICTED BY IDOCK:   -7.36 KCAL/MOL
REMARK 923 INTER-LIGAND FREE ENERGY PREDICTED BY IDOCK:   -6.76 KCAL/MOL
REMARK 924 INTRA-LIGAND FREE ENERGY PREDICTED BY IDOCK:   -0.60 KCAL/MOL
REMARK 927      BINDING AFFINITY PREDICTED BY RF-SCORE:    0.00 PKD
ROOT
HETATM    1  C   UNL     1      -9.334  13.830  66.587  1.00  0.00    -0.264 C  
HETATM    2  N   UNL     1     -10.311  14.378  67.511  1.00  0.00    -0.250 NA 
HETATM    3  C   UNL     1     -10.339  15.694  67.948  1.00  0.00    -0.259 A  
HETATM    4  C   UNL     1     -11.409  15.818  68.810  1.00  0.00    -0.362 A  
HETATM    5  C   UNL     1     -11.340  13.655  68.108  1.00  0.00    -0.288 A  
HETATM    6  C   UNL     1     -12.010  14.550  68.932  1.00  0.00    -0.326 A  
ENDROOT
BRANCH   3   7
HETATM    7  C   UNL     1      -9.294  16.731  67.615  1.00  0.00    -0.228 C  
HETATM    8  O   UNL     1      -8.585  18.189  65.838  1.00  0.00    -0.507 OA 
HETATM    9  O   UNL     1     -10.570  17.174  65.575  1.00  0.00    -0.563 OA 
HETATM   10  C   UNL     1      -9.441  17.422  66.271  1.00  0.00    -0.226 C  
ENDBRANCH   3   7
BRANCH   5  11
HETATM   11  C   UNL     1     -11.598  12.219  67.946  1.00  0.00    -0.354 C  
HETATM   12  O   UNL     1     -12.075  11.742  66.919  1.00  0.00    -0.566 OA 
BRANCH  11  13
HETATM   13  C   UNL     1     -11.271  11.279  69.072  1.00  0.00    -0.321 A  
HETATM   14  C   UNL     1     -10.022  10.640  69.122  1.00  0.00    -0.228 A  
HETATM   15  C   UNL     1      -9.724   9.742  70.160  1.00  0.00    -0.299 A  
HETATM   16  C   UNL     1     -10.673   9.464  71.153  1.00  0.00    -0.417 A  
HETATM   17  C   UNL     1     -10.392   8.500  72.270  1.00  0.00    -0.402 C  
HETATM   18  C   UNL     1     -11.915  10.106  71.100  1.00  0.00    -0.480 A  
HETATM   19  C   UNL     1     -12.218  10.987  70.061  1.00  0.00    -0.418 A  
ENDBRANCH  11  13
ENDBRANCH   5  11
TORSDOF 3
ENDMDL
MODEL       21
REMARK 921   NORMALIZED FREE ENERGY PREDICTED BY IDOCK:   -5.71 KCAL/MOL
REMARK 922        TOTAL FREE ENERGY PREDICTED BY IDOCK:   -7.35 KCAL/MOL
REMARK 923 INTER-LIGAND FREE ENERGY PREDICTED BY IDOCK:   -7.65 KCAL/MOL
REMARK 924 INTRA-LIGAND FREE ENERGY PREDICTED BY IDOCK:    0.30 KCAL/MOL
REMARK 927      BINDING AFFINITY PREDICTED BY RF-SCORE:    0.00 PKD
ROOT
HETATM    1  C   UNL     1     -13.363  12.415  71.728  1.00  0.00    -0.270 C  
HETATM    2  N   UNL     1     -12.598  13.162  70.745  1.00  0.00    -0.300 NA 
HETATM    3  C   UNL     1     -12.496  14.545  70.703  1.00  0.00    -0.343 A  
HETATM    4  C   UNL     1     -11.688  14.864  69.632  1.00  0.00    -0.356 A  
HETATM    5  C   UNL     1     -11.881  12.598  69.693  1.00  0.00    -0.311 A  
HETATM    6  C   UNL     1     -11.331  13.662  68.990  1.00  0.00    -0.333 A  
ENDROOT
BRANCH   3   7
HETATM    7  C   UNL     1     -13.253  15.489  71.606  1.00  0.00    -0.575 C  
HETATM    8  O   UNL     1     -13.235  16.381  73.840  1.00  0.00    -0.662 OA 
HETATM    9  O   UNL     1     -11.418  15.228  73.202  1.00  0.00    -0.346 OA 
HETATM   10  C   UNL     1     -12.647  15.734  72.976  1.00  0.00    -0.483 C  
ENDBRANCH   3   7
BRANCH   5  11
HETATM   11  C   UNL     1     -11.801  11.170  69.367  1.00  0.00    -0.345 C  
HETATM   12  O   UNL     1     -11.974  10.737  68.230  1.00  0.00    -0.520 OA 
BRANCH  11  13
HETATM   13  C   UNL     1     -11.494  10.180  70.456  1.00  0.00    -0.417 A  
HETATM   14  C   UNL     1     -10.172   9.781  70.699  1.00  0.00    -0.290 A  
HETATM   15  C   UNL     1      -9.886   8.837  71.699  1.00  0.00    -0.378 A  
HETATM   16  C   UNL     1     -10.919   8.274  72.461  1.00  0.00    -0.424 A  
HETATM   17  C   UNL     1     -10.651   7.254  73.530  1.00  0.00    -0.408 C  
HETATM   18  C   UNL     1     -12.236   8.678  72.216  1.00  0.00    -0.447 A  
HETATM   19  C   UNL     1     -12.523   9.605  71.212  1.00  0.00    -0.445 A  
ENDBRANCH  11  13
ENDBRANCH   5  11
TORSDOF 3
ENDMDL
MODEL       22
REMARK 921   NORMALIZED FREE ENERGY PREDICTED BY IDOCK:   -5.70 KCAL/MOL
REMARK 922        TOTAL FREE ENERGY PREDICTED BY IDOCK:   -7.34 KCAL/MOL
REMARK 923 INTER-LIGAND FREE ENERGY PREDICTED BY IDOCK:   -6.68 KCAL/MOL
REMARK 924 INTRA-LIGAND FREE ENERGY PREDICTED BY IDOCK:   -0.66 KCAL/MOL
REMARK 927      BINDING AFFINITY PREDICTED BY RF-SCORE:    0.00 PKD
ROOT
HETATM    1  C   UNL     1     -10.947  15.678  65.101  1.00  0.00    -0.398 C  
HETATM    2  N   UNL     1     -11.324  15.038  66.350  1.00  0.00    -0.317 NA 
HETATM    3  C   UNL     1     -11.145  15.590  67.609  1.00  0.00    -0.311 A  
HETATM    4  C   UNL     1     -11.626  14.680  68.528  1.00  0.00    -0.346 A  
HETATM    5  C   UNL     1     -11.892  13.772  66.459  1.00  0.00    -0.407 A  
HETATM    6  C   UNL     1     -12.062  13.544  67.818  1.00  0.00    -0.316 A  
ENDROOT
BRANCH   3   7
HETATM    7  C   UNL     1     -10.433  16.892  67.883  1.00  0.00    -0.344 C  
HETATM    8  O   UNL     1      -8.288  17.767  68.531  1.00  0.00    -0.290 OA 
HETATM    9  O   UNL     1      -8.365  15.589  67.995  1.00  0.00    -0.139 OA 
HETATM   10  C   UNL     1      -8.945  16.794  68.172  1.00  0.00    -0.224 C  
ENDBRANCH   3   7
BRANCH   5  11
HETATM   11  C   UNL     1     -12.175  12.850  65.352  1.00  0.00    -0.478 C  
HETATM   12  O   UNL     1     -13.271  12.791  64.800  1.00  0.00    -0.812 OA 
BRANCH  11  13
HETATM   13  C   UNL     1     -11.090  11.932  64.861  1.00  0.00    -0.363 A  
HETATM   14  C   UNL     1     -10.693  11.962  63.516  1.00  0.00    -0.504 A  
HETATM   15  C   UNL     1      -9.697  11.087  63.050  1.00  0.00    -0.381 A  
HETATM   16  C   UNL     1      -9.095  10.168  63.919  1.00  0.00    -0.293 A  
HETATM   17  C   UNL     1      -8.037   9.211  63.452  1.00  0.00    -0.162 C  
HETATM   18  C   UNL     1      -9.493  10.145  65.260  1.00  0.00    -0.306 A  
HETATM   19  C   UNL     1     -10.493  11.003  65.721  1.00  0.00    -0.290 A  
ENDBRANCH  11  13
ENDBRANCH   5  11
TORSDOF 3
ENDMDL
MODEL       23
REMARK 921   NORMALIZED FREE ENERGY PREDICTED BY IDOCK:   -5.68 KCAL/MOL
REMARK 922        TOTAL FREE ENERGY PREDICTED BY IDOCK:   -7.32 KCAL/MOL
REMARK 923 INTER-LIGAND FREE ENERGY PREDICTED BY IDOCK:   -6.74 KCAL/MOL
REMARK 924 INTRA-LIGAND FREE ENERGY PREDICTED BY IDOCK:   -0.57 KCAL/MOL
REMARK 927      BINDING AFFINITY PREDICTED BY RF-SCORE:    0.00 PKD
ROOT
HETATM    1  C   UNL     1      -9.346  13.619  67.800  1.00  0.00    -0.218 C  
HETATM    2  N   UNL     1     -10.387  14.082  68.702  1.00  0.00    -0.239 NA 
HETATM    3  C   UNL     1     -10.432  15.342  69.279  1.00  0.00    -0.258 A  
HETATM    4  C   UNL     1     -11.566  15.392  70.064  1.00  0.00    -0.343 A  
HETATM    5  C   UNL     1     -11.469  13.319  69.132  1.00  0.00    -0.305 A  
HETATM    6  C   UNL     1     -12.191  14.132  69.996  1.00  0.00    -0.418 A  
ENDROOT
BRANCH   3   7
HETATM    7  C   UNL     1      -9.352  16.387  69.146  1.00  0.00    -0.224 C  
HETATM    8  O   UNL     1      -8.651  18.205  67.735  1.00  0.00    -0.248 OA 
HETATM    9  O   UNL     1     -10.695  17.363  67.350  1.00  0.00    -0.333 OA 
HETATM   10  C   UNL     1      -9.524  17.390  68.019  1.00  0.00    -0.281 C  
ENDBRANCH   3   7
BRANCH   5  11
HETATM   11  C   UNL     1     -11.731  11.916  68.790  1.00  0.00    -0.321 C  
HETATM   12  O   UNL     1     -12.091  11.561  67.671  1.00  0.00    -0.623 OA 
BRANCH  11  13
HETATM   13  C   UNL     1     -11.557  10.856  69.842  1.00  0.00    -0.410 A  
HETATM   14  C   UNL     1     -12.583  10.595  70.761  1.00  0.00    -0.479 A  
HETATM   15  C   UNL     1     -12.413   9.622  71.760  1.00  0.00    -0.487 A  
HETATM   16  C   UNL     1     -11.212   8.907  71.857  1.00  0.00    -0.447 A  
HETATM   17  C   UNL     1     -10.991   7.869  72.920  1.00  0.00    -0.452 C  
HETATM   18  C   UNL     1     -10.192   9.169  70.936  1.00  0.00    -0.351 A  
HETATM   19  C   UNL     1     -10.355  10.146  69.952  1.00  0.00    -0.308 A  
ENDBRANCH  11  13
ENDBRANCH   5  11
TORSDOF 3
ENDMDL
MODEL       24
REMARK 921   NORMALIZED FREE ENERGY PREDICTED BY IDOCK:   -5.68 KCAL/MOL
REMARK 922        TOTAL FREE ENERGY PREDICTED BY IDOCK:   -7.31 KCAL/MOL
REMARK 923 INTER-LIGAND FREE ENERGY PREDICTED BY IDOCK:   -6.72 KCAL/MOL
REMARK 924 INTRA-LIGAND FREE ENERGY PREDICTED BY IDOCK:   -0.59 KCAL/MOL
REMARK 927      BINDING AFFINITY PREDICTED BY RF-SCORE:    0.00 PKD
ROOT
HETATM    1  C   UNL     1      -9.096  12.808  67.025  1.00  0.00    -0.220 C  
HETATM    2  N   UNL     1     -10.352  12.883  66.300  1.00  0.00    -0.263 NA 
HETATM    3  C   UNL     1     -10.729  12.025  65.277  1.00  0.00    -0.288 A  
HETATM    4  C   UNL     1     -11.980  12.421  64.850  1.00  0.00    -0.458 A  
HETATM    5  C   UNL     1     -11.341  13.838  66.512  1.00  0.00    -0.325 A  
HETATM    6  C   UNL     1     -12.346  13.560  65.594  1.00  0.00    -0.522 A  
ENDROOT
BRANCH   3   7
HETATM    7  C   UNL     1      -9.847  10.952  64.688  1.00  0.00    -0.350 C  
HETATM    8  O   UNL     1      -8.913   8.793  65.189  1.00  0.00    -0.184 OA 
HETATM    9  O   UNL     1     -10.494   9.555  66.589  1.00  0.00    -0.231 OA 
HETATM   10  C   UNL     1      -9.701   9.681  65.505  1.00  0.00    -0.301 C  
ENDBRANCH   3   7
BRANCH   5  11
HETATM   11  C   UNL     1     -11.281  14.953  67.464  1.00  0.00    -0.328 C  
HETATM   12  O   UNL     1     -10.862  16.067  67.158  1.00  0.00    -0.310 OA 
BRANCH  11  13
HETATM   13  C   UNL     1     -11.745  14.742  68.878  1.00  0.00    -0.340 A  
HETATM   14  C   UNL     1     -11.951  13.444  69.369  1.00  0.00    -0.369 A  
HETATM   15  C   UNL     1     -12.409  13.245  70.682  1.00  0.00    -0.416 A  
HETATM   16  C   UNL     1     -12.677  14.340  71.515  1.00  0.00    -0.425 A  
HETATM   17  C   UNL     1     -13.179  14.164  72.919  1.00  0.00    -0.553 C  
HETATM   18  C   UNL     1     -12.467  15.632  71.021  1.00  0.00    -0.501 A  
HETATM   19  C   UNL     1     -12.026  15.831  69.711  1.00  0.00    -0.337 A  
ENDBRANCH  11  13
ENDBRANCH   5  11
TORSDOF 3
ENDMDL
MODEL       25
REMARK 921   NORMALIZED FREE ENERGY PREDICTED BY IDOCK:   -5.63 KCAL/MOL
REMARK 922        TOTAL FREE ENERGY PREDICTED BY IDOCK:   -7.26 KCAL/MOL
REMARK 923 INTER-LIGAND FREE ENERGY PREDICTED BY IDOCK:   -6.90 KCAL/MOL
REMARK 924 INTRA-LIGAND FREE ENERGY PREDICTED BY IDOCK:   -0.36 KCAL/MOL
REMARK 927      BINDING AFFINITY PREDICTED BY RF-SCORE:    0.00 PKD
ROOT
HETATM    1  C   UNL     1      -8.931  14.495  68.644  1.00  0.00    -0.181 C  
HETATM    2  N   UNL     1     -10.043  14.505  67.710  1.00  0.00    -0.224 NA 
HETATM    3  C   UNL     1     -10.041  15.148  66.480  1.00  0.00    -0.269 A  
HETATM    4  C   UNL     1     -11.271  14.924  65.898  1.00  0.00    -0.328 A  
HETATM    5  C   UNL     1     -11.275  13.894  67.927  1.00  0.00    -0.278 A  
HETATM    6  C   UNL     1     -12.044  14.173  66.805  1.00  0.00    -0.474 A  
ENDROOT
BRANCH   3   7
HETATM    7  C   UNL     1      -8.923  16.026  65.973  1.00  0.00    -0.345 C  
HETATM    8  O   UNL     1      -8.195  18.318  65.938  1.00  0.00    -0.506 OA 
HETATM    9  O   UNL     1      -9.909  17.828  67.302  1.00  0.00    -0.293 OA 
HETATM   10  C   UNL     1      -8.976  17.485  66.390  1.00  0.00    -0.238 C  
ENDBRANCH   3   7
BRANCH   5  11
HETATM   11  C   UNL     1     -11.682  13.172  69.138  1.00  0.00    -0.325 C  
HETATM   12  O   UNL     1     -11.773  11.947  69.183  1.00  0.00    -0.273 OA 
BRANCH  11  13
HETATM   13  C   UNL     1     -12.008  13.947  70.384  1.00  0.00    -0.393 A  
HETATM   14  C   UNL     1     -12.730  13.343  71.425  1.00  0.00    -0.411 A  
HETATM   15  C   UNL     1     -13.056  14.074  72.580  1.00  0.00    -0.547 A  
HETATM   16  C   UNL     1     -12.674  15.416  72.703  1.00  0.00    -0.488 A  
HETATM   17  C   UNL     1     -13.016  16.229  73.919  1.00  0.00    -0.417 C  
HETATM   18  C   UNL     1     -11.951  16.012  71.664  1.00  0.00    -0.569 A  
HETATM   19  C   UNL     1     -11.639  15.291  70.509  1.00  0.00    -0.340 A  
ENDBRANCH  11  13
ENDBRANCH   5  11
TORSDOF 3
ENDMDL
MODEL       26
REMARK 921   NORMALIZED FREE ENERGY PREDICTED BY IDOCK:   -5.62 KCAL/MOL
REMARK 922        TOTAL FREE ENERGY PREDICTED BY IDOCK:   -7.25 KCAL/MOL
REMARK 923 INTER-LIGAND FREE ENERGY PREDICTED BY IDOCK:   -7.00 KCAL/MOL
REMARK 924 INTRA-LIGAND FREE ENERGY PREDICTED BY IDOCK:   -0.24 KCAL/MOL
REMARK 927      BINDING AFFINITY PREDICTED BY RF-SCORE:    0.00 PKD
ROOT
HETATM    1  C   UNL     1     -10.913  14.289  66.654  1.00  0.00    -0.310 C  
HETATM    2  N   UNL     1     -11.392  14.478  68.012  1.00  0.00    -0.291 NA 
HETATM    3  C   UNL     1     -11.444  15.697  68.672  1.00  0.00    -0.375 A  
HETATM    4  C   UNL     1     -11.955  15.460  69.932  1.00  0.00    -0.384 A  
HETATM    5  C   UNL     1     -11.843  13.462  68.850  1.00  0.00    -0.334 A  
HETATM    6  C   UNL     1     -12.174  14.074  70.052  1.00  0.00    -0.414 A  
ENDROOT
BRANCH   3   7
HETATM    7  C   UNL     1     -10.909  16.996  68.120  1.00  0.00    -0.338 C  
HETATM    8  O   UNL     1      -8.981  18.431  68.213  1.00  0.00    -0.296 OA 
HETATM    9  O   UNL     1      -8.768  16.399  69.143  1.00  0.00    -0.245 OA 
HETATM   10  C   UNL     1      -9.480  17.346  68.497  1.00  0.00    -0.297 C  
ENDBRANCH   3   7
BRANCH   5  11
HETATM   11  C   UNL     1     -11.878  12.029  68.533  1.00  0.00    -0.311 C  
HETATM   12  O   UNL     1     -12.147  11.603  67.413  1.00  0.00    -0.605 OA 
BRANCH  11  13
HETATM   13  C   UNL     1     -11.573  11.027  69.612  1.00  0.00    -0.390 A  
HETATM   14  C   UNL     1     -10.318  10.403  69.665  1.00  0.00    -0.261 A  
HETATM   15  C   UNL     1     -10.041   9.448  70.657  1.00  0.00    -0.356 A  
HETATM   16  C   UNL     1     -11.017   9.099  71.600  1.00  0.00    -0.445 A  
HETATM   17  C   UNL     1     -10.759   8.074  72.667  1.00  0.00    -0.426 C  
HETATM   18  C   UNL     1     -12.266   9.727  71.545  1.00  0.00    -0.493 A  
HETATM   19  C   UNL     1     -12.548  10.665  70.549  1.00  0.00    -0.433 A  
ENDBRANCH  11  13
ENDBRANCH   5  11
TORSDOF 3
ENDMDL
MODEL       27
REMARK 921   NORMALIZED FREE ENERGY PREDICTED BY IDOCK:   -5.59 KCAL/MOL
REMARK 922        TOTAL FREE ENERGY PREDICTED BY IDOCK:   -7.21 KCAL/MOL
REMARK 923 INTER-LIGAND FREE ENERGY PREDICTED BY IDOCK:   -7.03 KCAL/MOL
REMARK 924 INTRA-LIGAND FREE ENERGY PREDICTED BY IDOCK:   -0.17 KCAL/MOL
REMARK 927      BINDING AFFINITY PREDICTED BY RF-SCORE:    0.00 PKD
ROOT
HETATM    1  C   UNL     1      -9.200  13.617  67.288  1.00  0.00    -0.232 C  
HETATM    2  N   UNL     1     -10.478  13.618  66.597  1.00  0.00    -0.270 NA 
HETATM    3  C   UNL     1     -11.183  14.757  66.237  1.00  0.00    -0.343 A  
HETATM    4  C   UNL     1     -12.337  14.341  65.605  1.00  0.00    -0.416 A  
HETATM    5  C   UNL     1     -11.184  12.479  66.223  1.00  0.00    -0.315 A  
HETATM    6  C   UNL     1     -12.352  12.932  65.622  1.00  0.00    -0.482 A  
ENDROOT
BRANCH   3   7
HETATM    7  C   UNL     1     -10.786  16.165  66.604  1.00  0.00    -0.226 C  
HETATM    8  O   UNL     1     -10.356  18.319  65.622  1.00  0.00    -0.607 OA 
HETATM    9  O   UNL     1     -11.287  16.773  64.288  1.00  0.00    -1.170 OA 
HETATM   10  C   UNL     1     -10.781  17.177  65.472  1.00  0.00    -0.117 C  
ENDBRANCH   3   7
BRANCH   5  11
HETATM   11  C   UNL     1     -10.793  11.090  66.488  1.00  0.00    -0.209 C  
HETATM   12  O   UNL     1     -10.355  10.344  65.616  1.00  0.00    -0.255 OA 
BRANCH  11  13
HETATM   13  C   UNL     1     -10.928  10.539  67.881  1.00  0.00    -0.352 A  
HETATM   14  C   UNL     1     -10.277   9.349  68.238  1.00  0.00    -0.229 A  
HETATM   15  C   UNL     1     -10.422   8.819  69.531  1.00  0.00    -0.222 A  
HETATM   16  C   UNL     1     -11.227   9.467  70.477  1.00  0.00    -0.329 A  
HETATM   17  C   UNL     1     -11.414   8.922  71.864  1.00  0.00    -0.442 C  
HETATM   18  C   UNL     1     -11.873  10.654  70.117  1.00  0.00    -0.421 A  
HETATM   19  C   UNL     1     -11.741  11.173  68.827  1.00  0.00    -0.394 A  
ENDBRANCH  11  13
ENDBRANCH   5  11
TORSDOF 3
ENDMDL
MODEL       28
REMARK 921   NORMALIZED FREE ENERGY PREDICTED BY IDOCK:   -5.57 KCAL/MOL
REMARK 922        TOTAL FREE ENERGY PREDICTED BY IDOCK:   -7.19 KCAL/MOL
REMARK 923 INTER-LIGAND FREE ENERGY PREDICTED BY IDOCK:   -6.96 KCAL/MOL
REMARK 924 INTRA-LIGAND FREE ENERGY PREDICTED BY IDOCK:   -0.23 KCAL/MOL
REMARK 927      BINDING AFFINITY PREDICTED BY RF-SCORE:    0.00 PKD
ROOT
HETATM    1  C   UNL     1      -9.704   9.372  70.089  1.00  0.00    -0.235 C  
HETATM    2  N   UNL     1     -10.951   9.079  70.773  1.00  0.00    -0.241 NA 
HETATM    3  C   UNL     1     -11.194   7.938  71.524  1.00  0.00    -0.249 A  
HETATM    4  C   UNL     1     -12.484   8.032  72.006  1.00  0.00    -0.357 A  
HETATM    5  C   UNL     1     -12.084   9.887  70.752  1.00  0.00    -0.308 A  
HETATM    6  C   UNL     1     -13.043   9.223  71.504  1.00  0.00    -0.430 A  
ENDROOT
BRANCH   3   7
HETATM    7  C   UNL     1     -10.240   6.776  71.655  1.00  0.00    -0.208 C  
HETATM    8  O   UNL     1      -9.780   4.602  70.733  1.00  0.00    -0.169 OA 
HETATM    9  O   UNL     1     -11.278   5.863  69.637  1.00  0.00    -0.395 OA 
HETATM   10  C   UNL     1     -10.412   5.652  70.649  1.00  0.00    -0.270 C  
ENDBRANCH   3   7
BRANCH   5  11
HETATM   11  C   UNL     1     -12.237  11.146  70.012  1.00  0.00    -0.326 C  
HETATM   12  O   UNL     1     -12.144  11.213  68.789  1.00  0.00    -0.522 OA 
BRANCH  11  13
HETATM   13  C   UNL     1     -12.518  12.415  70.766  1.00  0.00    -0.356 A  
HETATM   14  C   UNL     1     -12.020  13.641  70.300  1.00  0.00    -0.397 A  
HETATM   15  C   UNL     1     -12.260  14.825  71.017  1.00  0.00    -0.393 A  
HETATM   16  C   UNL     1     -12.992  14.796  72.211  1.00  0.00    -0.423 A  
HETATM   17  C   UNL     1     -13.258  16.040  73.009  1.00  0.00    -0.590 C  
HETATM   18  C   UNL     1     -13.490  13.571  72.670  1.00  0.00    -0.572 A  
HETATM   19  C   UNL     1     -13.238  12.392  71.966  1.00  0.00    -0.514 A  
ENDBRANCH  11  13
ENDBRANCH   5  11
TORSDOF 3
ENDMDL
MODEL       29
REMARK 921   NORMALIZED FREE ENERGY PREDICTED BY IDOCK:   -5.54 KCAL/MOL
REMARK 922        TOTAL FREE ENERGY PREDICTED BY IDOCK:   -7.15 KCAL/MOL
REMARK 923 INTER-LIGAND FREE ENERGY PREDICTED BY IDOCK:   -6.78 KCAL/MOL
REMARK 924 INTRA-LIGAND FREE ENERGY PREDICTED BY IDOCK:   -0.36 KCAL/MOL
REMARK 927      BINDING AFFINITY PREDICTED BY RF-SCORE:    0.00 PKD
ROOT
HETATM    1  C   UNL     1      -9.078   9.956  69.899  1.00  0.00    -0.210 C  
HETATM    2  N   UNL     1     -10.084   9.389  70.779  1.00  0.00    -0.285 NA 
HETATM    3  C   UNL     1      -9.873   8.324  71.643  1.00  0.00    -0.199 A  
HETATM    4  C   UNL     1     -11.062   8.087  72.300  1.00  0.00    -0.393 A  
HETATM    5  C   UNL     1     -11.406   9.817  70.863  1.00  0.00    -0.365 A  
HETATM    6  C   UNL     1     -12.018   8.991  71.797  1.00  0.00    -0.438 A  
ENDROOT
BRANCH   3   7
HETATM    7  C   UNL     1      -8.597   7.521  71.720  1.00  0.00    -0.127 C  
HETATM    8  O   UNL     1      -6.504   7.418  72.900  1.00  0.00    -0.058 OA 
HETATM    9  O   UNL     1      -8.053   8.819  73.721  1.00  0.00    -0.381 OA 
HETATM   10  C   UNL     1      -7.625   7.913  72.818  1.00  0.00    -0.113 C  
ENDBRANCH   3   7
BRANCH   5  11
HETATM   11  C   UNL     1     -12.026  10.877  70.060  1.00  0.00    -0.350 C  
HETATM   12  O   UNL     1     -12.207  10.774  68.849  1.00  0.00    -0.447 OA 
BRANCH  11  13
HETATM   13  C   UNL     1     -12.465  12.149  70.730  1.00  0.00    -0.362 A  
HETATM   14  C   UNL     1     -12.130  13.394  70.176  1.00  0.00    -0.415 A  
HETATM   15  C   UNL     1     -12.518  14.583  70.815  1.00  0.00    -0.420 A  
HETATM   16  C   UNL     1     -13.235  14.543  72.018  1.00  0.00    -0.446 A  
HETATM   17  C   UNL     1     -13.655  15.795  72.733  1.00  0.00    -0.662 C  
HETATM   18  C   UNL     1     -13.570  13.299  72.564  1.00  0.00    -0.637 A  
HETATM   19  C   UNL     1     -13.171  12.116  71.938  1.00  0.00    -0.474 A  
ENDBRANCH  11  13
ENDBRANCH   5  11
TORSDOF 3
ENDMDL
MODEL       30
REMARK 921   NORMALIZED FREE ENERGY PREDICTED BY IDOCK:   -5.51 KCAL/MOL
REMARK 922        TOTAL FREE ENERGY PREDICTED BY IDOCK:   -7.12 KCAL/MOL
REMARK 923 INTER-LIGAND FREE ENERGY PREDICTED BY IDOCK:   -6.59 KCAL/MOL
REMARK 924 INTRA-LIGAND FREE ENERGY PREDICTED BY IDOCK:   -0.53 KCAL/MOL
REMARK 927      BINDING AFFINITY PREDICTED BY RF-SCORE:    0.00 PKD
ROOT
HETATM    1  C   UNL     1     -11.250  16.072  69.064  1.00  0.00    -0.347 C  
HETATM    2  N   UNL     1     -10.537  15.723  67.847  1.00  0.00    -0.274 NA 
HETATM    3  C   UNL     1     -10.275  14.428  67.426  1.00  0.00    -0.247 A  
HETATM    4  C   UNL     1      -9.583  14.516  66.235  1.00  0.00    -0.328 A  
HETATM    5  C   UNL     1      -9.996  16.637  66.948  1.00  0.00    -0.271 A  
HETATM    6  C   UNL     1      -9.385  15.882  65.955  1.00  0.00    -0.385 A  
ENDROOT
BRANCH   3   7
HETATM    7  C   UNL     1     -10.594  13.185  68.220  1.00  0.00    -0.260 C  
HETATM    8  O   UNL     1     -12.176  11.377  68.338  1.00  0.00    -0.571 OA 
HETATM    9  O   UNL     1     -12.266  12.675  66.509  1.00  0.00    -0.538 OA 
HETATM   10  C   UNL     1     -11.745  12.338  67.707  1.00  0.00    -0.337 C  
ENDBRANCH   3   7
BRANCH   5  11
HETATM   11  C   UNL     1     -10.011  18.098  67.082  1.00  0.00    -0.336 C  
HETATM   12  O   UNL     1     -11.016  18.774  66.875  1.00  0.00    -0.305 OA 
BRANCH  11  13
HETATM   13  C   UNL     1      -8.754  18.815  67.489  1.00  0.00    -0.292 A  
HETATM   14  C   UNL     1      -8.094  18.469  68.677  1.00  0.00    -0.336 A  
HETATM   15  C   UNL     1      -6.933  19.154  69.071  1.00  0.00    -0.371 A  
HETATM   16  C   UNL     1      -6.425  20.199  68.289  1.00  0.00    -0.326 A  
HETATM   17  C   UNL     1      -5.193  20.961  68.686  1.00  0.00    -0.354 C  
HETATM   18  C   UNL     1      -7.085  20.539  67.103  1.00  0.00    -0.359 A  
HETATM   19  C   UNL     1      -8.248  19.868  66.718  1.00  0.00    -0.357 A  
ENDBRANCH  11  13
ENDBRANCH   5  11
TORSDOF 3
ENDMDL
MODEL       31
REMARK 921   NORMALIZED FREE ENERGY PREDICTED BY IDOCK:   -5.51 KCAL/MOL
REMARK 922        TOTAL FREE ENERGY PREDICTED BY IDOCK:   -7.11 KCAL/MOL
REMARK 923 INTER-LIGAND FREE ENERGY PREDICTED BY IDOCK:   -6.67 KCAL/MOL
REMARK 924 INTRA-LIGAND FREE ENERGY PREDICTED BY IDOCK:   -0.44 KCAL/MOL
REMARK 927      BINDING AFFINITY PREDICTED BY RF-SCORE:    0.00 PKD
ROOT
HETATM    1  C   UNL     1     -12.030  15.444  68.400  1.00  0.00    -0.132 C  
HETATM    2  N   UNL     1     -10.980  15.164  67.437  1.00  0.00    -0.307 NA 
HETATM    3  C   UNL     1     -10.073  16.097  66.958  1.00  0.00    -0.270 A  
HETATM    4  C   UNL     1      -9.244  15.445  66.069  1.00  0.00    -0.333 A  
HETATM    5  C   UNL     1     -10.752  13.927  66.841  1.00  0.00    -0.284 A  
HETATM    6  C   UNL     1      -9.683  14.109  65.974  1.00  0.00    -0.297 A  
ENDROOT
BRANCH   3   7
HETATM    7  C   UNL     1     -10.106  17.571  67.281  1.00  0.00    -0.327 C  
HETATM    8  O   UNL     1     -10.393  19.722  66.243  1.00  0.00    -0.450 OA 
HETATM    9  O   UNL     1     -10.868  17.926  64.984  1.00  0.00    -0.767 OA 
HETATM   10  C   UNL     1     -10.457  18.500  66.133  1.00  0.00    -0.413 C  
ENDBRANCH   3   7
BRANCH   5  11
HETATM   11  C   UNL     1     -11.544  12.708  67.043  1.00  0.00    -0.365 C  
HETATM   12  O   UNL     1     -12.487  12.399  66.318  1.00  0.00    -0.462 OA 
BRANCH  11  13
HETATM   13  C   UNL     1     -11.203  11.787  68.182  1.00  0.00    -0.320 A  
HETATM   14  C   UNL     1     -10.003  11.061  68.170  1.00  0.00    -0.190 A  
HETATM   15  C   UNL     1      -9.695  10.181  69.221  1.00  0.00    -0.238 A  
HETATM   16  C   UNL     1     -10.586  10.009  70.288  1.00  0.00    -0.354 A  
HETATM   17  C   UNL     1     -10.293   9.067  71.421  1.00  0.00    -0.396 C  
HETATM   18  C   UNL     1     -11.780  10.737  70.296  1.00  0.00    -0.442 A  
HETATM   19  C   UNL     1     -12.095  11.601  69.245  1.00  0.00    -0.323 A  
ENDBRANCH  11  13
ENDBRANCH   5  11
TORSDOF 3
ENDMDL
MODEL       32
REMARK 921   NORMALIZED FREE ENERGY PREDICTED BY IDOCK:   -5.49 KCAL/MOL
REMARK 922        TOTAL FREE ENERGY PREDICTED BY IDOCK:   -7.09 KCAL/MOL
REMARK 923 INTER-LIGAND FREE ENERGY PREDICTED BY IDOCK:   -6.54 KCAL/MOL
REMARK 924 INTRA-LIGAND FREE ENERGY PREDICTED BY IDOCK:   -0.54 KCAL/MOL
REMARK 927      BINDING AFFINITY PREDICTED BY RF-SCORE:    0.00 PKD
ROOT
HETATM    1  C   UNL     1     -10.444   9.084  71.764  1.00  0.00    -0.348 C  
HETATM    2  N   UNL     1     -11.823   8.637  71.680  1.00  0.00    -0.302 NA 
HETATM    3  C   UNL     1     -12.229   7.310  71.702  1.00  0.00    -0.343 A  
HETATM    4  C   UNL     1     -13.605   7.301  71.601  1.00  0.00    -0.435 A  
HETATM    5  C   UNL     1     -12.928   9.472  71.541  1.00  0.00    -0.386 A  
HETATM    6  C   UNL     1     -14.035   8.636  71.472  1.00  0.00    -0.405 A  
ENDROOT
BRANCH   3   7
HETATM    7  C   UNL     1     -11.294   6.126  71.705  1.00  0.00    -0.346 C  
HETATM    8  O   UNL     1     -10.190   4.592  70.218  1.00  0.00    -0.219 OA 
HETATM    9  O   UNL     1     -11.184   6.369  69.273  1.00  0.00    -0.357 OA 
HETATM   10  C   UNL     1     -10.846   5.622  70.345  1.00  0.00    -0.256 C  
ENDBRANCH   3   7
BRANCH   5  11
HETATM   11  C   UNL     1     -12.898  10.934  71.416  1.00  0.00    -0.449 C  
HETATM   12  O   UNL     1     -13.290  11.685  72.306  1.00  0.00    -0.443 OA 
BRANCH  11  13
HETATM   13  C   UNL     1     -12.371  11.556  70.153  1.00  0.00    -0.323 A  
HETATM   14  C   UNL     1     -12.155  12.940  70.082  1.00  0.00    -0.373 A  
HETATM   15  C   UNL     1     -11.686  13.526  68.894  1.00  0.00    -0.379 A  
HETATM   16  C   UNL     1     -11.438  12.738  67.763  1.00  0.00    -0.376 A  
HETATM   17  C   UNL     1     -10.948  13.333  66.474  1.00  0.00    -0.299 C  
HETATM   18  C   UNL     1     -11.652  11.357  67.840  1.00  0.00    -0.337 A  
HETATM   19  C   UNL     1     -12.133  10.776  69.015  1.00  0.00    -0.170 A  
ENDBRANCH  11  13
ENDBRANCH   5  11
TORSDOF 3
ENDMDL
MODEL       33
REMARK 921   NORMALIZED FREE ENERGY PREDICTED BY IDOCK:   -5.48 KCAL/MOL
REMARK 922        TOTAL FREE ENERGY PREDICTED BY IDOCK:   -7.07 KCAL/MOL
REMARK 923 INTER-LIGAND FREE ENERGY PREDICTED BY IDOCK:   -6.57 KCAL/MOL
REMARK 924 INTRA-LIGAND FREE ENERGY PREDICTED BY IDOCK:   -0.51 KCAL/MOL
REMARK 927      BINDING AFFINITY PREDICTED BY RF-SCORE:    0.00 PKD
ROOT
HETATM    1  C   UNL     1     -11.009  11.599  65.780  1.00  0.00    -0.274 C  
HETATM    2  N   UNL     1     -11.198  12.550  66.862  1.00  0.00    -0.285 NA 
HETATM    3  C   UNL     1     -11.965  13.703  66.779  1.00  0.00    -0.414 A  
HETATM    4  C   UNL     1     -11.894  14.332  68.005  1.00  0.00    -0.379 A  
HETATM    5  C   UNL     1     -10.618  12.451  68.123  1.00  0.00    -0.216 A  
HETATM    6  C   UNL     1     -11.037  13.573  68.826  1.00  0.00    -0.298 A  
ENDROOT
BRANCH   3   7
HETATM    7  C   UNL     1     -12.631  14.202  65.520  1.00  0.00    -0.501 C  
HETATM    8  O   UNL     1     -12.316  15.755  63.710  1.00  0.00    -0.698 OA 
HETATM    9  O   UNL     1     -10.549  15.395  65.046  1.00  0.00    -0.414 OA 
HETATM   10  C   UNL     1     -11.832  15.186  64.685  1.00  0.00    -0.332 C  
ENDBRANCH   3   7
BRANCH   5  11
HETATM   11  C   UNL     1      -9.691  11.406  68.572  1.00  0.00    -0.197 C  
HETATM   12  O   UNL     1      -8.563  11.272  68.103  1.00  0.00    -0.137 OA 
BRANCH  11  13
HETATM   13  C   UNL     1     -10.122  10.449  69.648  1.00  0.00    -0.226 A  
HETATM   14  C   UNL     1     -11.480  10.318  69.977  1.00  0.00    -0.367 A  
HETATM   15  C   UNL     1     -11.882   9.443  70.999  1.00  0.00    -0.396 A  
HETATM   16  C   UNL     1     -10.933   8.699  71.712  1.00  0.00    -0.396 A  
HETATM   17  C   UNL     1     -11.327   7.764  72.819  1.00  0.00    -0.446 C  
HETATM   18  C   UNL     1      -9.581   8.831  71.378  1.00  0.00    -0.337 A  
HETATM   19  C   UNL     1      -9.178   9.712  70.372  1.00  0.00    -0.258 A  
ENDBRANCH  11  13
ENDBRANCH   5  11
TORSDOF 3
ENDMDL
MODEL       34
REMARK 921   NORMALIZED FREE ENERGY PREDICTED BY IDOCK:   -5.45 KCAL/MOL
REMARK 922        TOTAL FREE ENERGY PREDICTED BY IDOCK:   -7.05 KCAL/MOL
REMARK 923 INTER-LIGAND FREE ENERGY PREDICTED BY IDOCK:   -6.54 KCAL/MOL
REMARK 924 INTRA-LIGAND FREE ENERGY PREDICTED BY IDOCK:   -0.50 KCAL/MOL
REMARK 927      BINDING AFFINITY PREDICTED BY RF-SCORE:    0.00 PKD
ROOT
HETATM    1  C   UNL     1      -9.710   9.721  69.723  1.00  0.00    -0.229 C  
HETATM    2  N   UNL     1     -10.940  10.099  70.397  1.00  0.00    -0.307 NA 
HETATM    3  C   UNL     1     -11.406   9.531  71.574  1.00  0.00    -0.385 A  
HETATM    4  C   UNL     1     -12.595  10.158  71.889  1.00  0.00    -0.437 A  
HETATM    5  C   UNL     1     -11.834  11.066  69.946  1.00  0.00    -0.353 A  
HETATM    6  C   UNL     1     -12.873  11.086  70.866  1.00  0.00    -0.393 A  
ENDROOT
BRANCH   3   7
HETATM    7  C   UNL     1     -10.764   8.359  72.275  1.00  0.00    -0.417 C  
HETATM    8  O   UNL     1     -10.953   5.973  72.514  1.00  0.00    -0.231 OA 
HETATM    9  O   UNL     1     -12.187   6.922  70.898  1.00  0.00    -0.381 OA 
HETATM   10  C   UNL     1     -11.307   6.987  71.918  1.00  0.00    -0.257 C  
ENDBRANCH   3   7
BRANCH   5  11
HETATM   11  C   UNL     1     -11.720  11.839  68.704  1.00  0.00    -0.330 C  
HETATM   12  O   UNL     1     -11.927  11.351  67.596  1.00  0.00    -0.630 OA 
BRANCH  11  13
HETATM   13  C   UNL     1     -11.335  13.291  68.772  1.00  0.00    -0.331 A  
HETATM   14  C   UNL     1     -12.141  14.206  69.464  1.00  0.00    -0.388 A  
HETATM   15  C   UNL     1     -11.796  15.567  69.508  1.00  0.00    -0.390 A  
HETATM   16  C   UNL     1     -10.648  16.030  68.851  1.00  0.00    -0.257 A  
HETATM   17  C   UNL     1     -10.256  17.480  68.866  1.00  0.00    -0.353 C  
HETATM   18  C   UNL     1      -9.846  15.113  68.164  1.00  0.00    -0.218 A  
HETATM   19  C   UNL     1     -10.196  13.762  68.107  1.00  0.00    -0.253 A  
ENDBRANCH  11  13
ENDBRANCH   5  11
TORSDOF 3
ENDMDL
MODEL       35
REMARK 921   NORMALIZED FREE ENERGY PREDICTED BY IDOCK:   -5.43 KCAL/MOL
REMARK 922        TOTAL FREE ENERGY PREDICTED BY IDOCK:   -7.02 KCAL/MOL
REMARK 923 INTER-LIGAND FREE ENERGY PREDICTED BY IDOCK:   -6.87 KCAL/MOL
REMARK 924 INTRA-LIGAND FREE ENERGY PREDICTED BY IDOCK:   -0.16 KCAL/MOL
REMARK 927      BINDING AFFINITY PREDICTED BY RF-SCORE:    0.00 PKD
ROOT
HETATM    1  C   UNL     1     -11.173  15.709  68.200  1.00  0.00    -0.345 C  
HETATM    2  N   UNL     1     -10.766  14.771  67.169  1.00  0.00    -0.293 NA 
HETATM    3  C   UNL     1     -10.530  13.420  67.375  1.00  0.00    -0.243 A  
HETATM    4  C   UNL     1     -10.166  12.878  66.159  1.00  0.00    -0.286 A  
HETATM    5  C   UNL     1     -10.532  15.100  65.837  1.00  0.00    -0.336 A  
HETATM    6  C   UNL     1     -10.139  13.922  65.214  1.00  0.00    -0.328 A  
ENDROOT
BRANCH   3   7
HETATM    7  C   UNL     1     -10.553  12.740  68.721  1.00  0.00    -0.216 C  
HETATM    8  O   UNL     1     -11.782  11.104  69.986  1.00  0.00    -0.298 OA 
HETATM    9  O   UNL     1     -12.268  11.259  67.800  1.00  0.00    -0.504 OA 
HETATM   10  C   UNL     1     -11.585  11.641  68.899  1.00  0.00    -0.314 C  
ENDBRANCH   3   7
BRANCH   5  11
HETATM   11  C   UNL     1     -10.614  16.442  65.248  1.00  0.00    -0.299 C  
HETATM   12  O   UNL     1     -11.315  16.698  64.272  1.00  0.00    -1.116 OA 
BRANCH  11  13
HETATM   13  C   UNL     1      -9.812  17.562  65.850  1.00  0.00    -0.113 A  
HETATM   14  C   UNL     1     -10.373  18.840  65.986  1.00  0.00    -0.467 A  
HETATM   15  C   UNL     1      -9.617  19.894  66.526  1.00  0.00    -0.534 A  
HETATM   16  C   UNL     1      -8.290  19.685  66.925  1.00  0.00    -0.333 A  
HETATM   17  C   UNL     1      -7.450  20.792  67.494  1.00  0.00    -0.337 C  
HETATM   18  C   UNL     1      -7.736  18.408  66.789  1.00  0.00    -0.248 A  
HETATM   19  C   UNL     1      -8.482  17.363  66.239  1.00  0.00    -0.260 A  
ENDBRANCH  11  13
ENDBRANCH   5  11
TORSDOF 3
ENDMDL
MODEL       36
REMARK 921   NORMALIZED FREE ENERGY PREDICTED BY IDOCK:   -5.40 KCAL/MOL
REMARK 922        TOTAL FREE ENERGY PREDICTED BY IDOCK:   -6.98 KCAL/MOL
REMARK 923 INTER-LIGAND FREE ENERGY PREDICTED BY IDOCK:   -6.40 KCAL/MOL
REMARK 924 INTRA-LIGAND FREE ENERGY PREDICTED BY IDOCK:   -0.58 KCAL/MOL
REMARK 927      BINDING AFFINITY PREDICTED BY RF-SCORE:    0.00 PKD
ROOT
HETATM    1  C   UNL     1      -9.044  13.113  66.525  1.00  0.00    -0.124 C  
HETATM    2  N   UNL     1     -10.436  13.180  66.117  1.00  0.00    -0.276 NA 
HETATM    3  C   UNL     1     -10.970  12.534  65.012  1.00  0.00    -0.294 A  
HETATM    4  C   UNL     1     -12.314  12.844  64.965  1.00  0.00    -0.541 A  
HETATM    5  C   UNL     1     -11.423  13.920  66.761  1.00  0.00    -0.352 A  
HETATM    6  C   UNL     1     -12.587  13.724  66.030  1.00  0.00    -0.458 A  
ENDROOT
BRANCH   3   7
HETATM    7  C   UNL     1     -10.165  11.752  64.002  1.00  0.00    -0.387 C  
HETATM    8  O   UNL     1      -8.979   9.676  63.737  1.00  0.00    -0.230 OA 
HETATM    9  O   UNL     1     -10.254   9.879  65.573  1.00  0.00    -0.273 OA 
HETATM   10  C   UNL     1      -9.740  10.356  64.421  1.00  0.00    -0.333 C  
ENDBRANCH   3   7
BRANCH   5  11
HETATM   11  C   UNL     1     -11.233  14.787  67.930  1.00  0.00    -0.306 C  
HETATM   12  O   UNL     1     -11.432  14.404  69.081  1.00  0.00    -0.260 OA 
BRANCH  11  13
HETATM   13  C   UNL     1     -10.775  16.205  67.730  1.00  0.00    -0.325 A  
HETATM   14  C   UNL     1     -10.577  17.047  68.834  1.00  0.00    -0.328 A  
HETATM   15  C   UNL     1     -10.173  18.380  68.648  1.00  0.00    -0.370 A  
HETATM   16  C   UNL     1      -9.974  18.888  67.358  1.00  0.00    -0.392 A  
HETATM   17  C   UNL     1      -9.555  20.311  67.122  1.00  0.00    -0.580 C  
HETATM   18  C   UNL     1     -10.171  18.043  66.260  1.00  0.00    -0.381 A  
HETATM   19  C   UNL     1     -10.586  16.722  66.443  1.00  0.00    -0.192 A  
ENDBRANCH  11  13
ENDBRANCH   5  11
TORSDOF 3
ENDMDL
MODEL       37
REMARK 921   NORMALIZED FREE ENERGY PREDICTED BY IDOCK:   -5.39 KCAL/MOL
REMARK 922        TOTAL FREE ENERGY PREDICTED BY IDOCK:   -6.98 KCAL/MOL
REMARK 923 INTER-LIGAND FREE ENERGY PREDICTED BY IDOCK:   -6.59 KCAL/MOL
REMARK 924 INTRA-LIGAND FREE ENERGY PREDICTED BY IDOCK:   -0.39 KCAL/MOL
REMARK 927      BINDING AFFINITY PREDICTED BY RF-SCORE:    0.00 PKD
ROOT
HETATM    1  C   UNL     1     -10.735  13.856  64.822  1.00  0.00    -0.423 C  
HETATM    2  N   UNL     1     -11.017  14.356  66.156  1.00  0.00    -0.315 NA 
HETATM    3  C   UNL     1     -11.375  13.567  67.239  1.00  0.00    -0.315 A  
HETATM    4  C   UNL     1     -11.556  14.408  68.318  1.00  0.00    -0.359 A  
HETATM    5  C   UNL     1     -10.993  15.697  66.529  1.00  0.00    -0.206 A  
HETATM    6  C   UNL     1     -11.348  15.728  67.871  1.00  0.00    -0.277 A  
ENDROOT
BRANCH   3   7
HETATM    7  C   UNL     1     -11.634  12.081  67.171  1.00  0.00    -0.387 C  
HETATM    8  O   UNL     1     -10.536   9.962  67.469  1.00  0.00    -0.220 OA 
HETATM    9  O   UNL     1      -9.415  11.781  68.157  1.00  0.00    -0.181 OA 
HETATM   10  C   UNL     1     -10.488  11.182  67.600  1.00  0.00    -0.196 C  
ENDBRANCH   3   7
BRANCH   5  11
HETATM   11  C   UNL     1     -10.720  16.837  65.647  1.00  0.00    -0.192 C  
HETATM   12  O   UNL     1     -11.221  16.948  64.530  1.00  0.00    -1.057 OA 
BRANCH  11  13
HETATM   13  C   UNL     1      -9.792  17.925  66.112  1.00  0.00    -0.256 A  
HETATM   14  C   UNL     1      -8.500  17.610  66.558  1.00  0.00    -0.294 A  
HETATM   15  C   UNL     1      -7.640  18.622  67.016  1.00  0.00    -0.235 A  
HETATM   16  C   UNL     1      -8.065  19.957  67.043  1.00  0.00    -0.345 A  
HETATM   17  C   UNL     1      -7.177  21.062  67.538  1.00  0.00    -0.320 C  
HETATM   18  C   UNL     1      -9.354  20.266  66.595  1.00  0.00    -0.460 A  
HETATM   19  C   UNL     1     -10.215  19.258  66.153  1.00  0.00    -0.549 A  
ENDBRANCH  11  13
ENDBRANCH   5  11
TORSDOF 3
ENDMDL
MODEL       38
REMARK 921   NORMALIZED FREE ENERGY PREDICTED BY IDOCK:   -5.39 KCAL/MOL
REMARK 922        TOTAL FREE ENERGY PREDICTED BY IDOCK:   -6.97 KCAL/MOL
REMARK 923 INTER-LIGAND FREE ENERGY PREDICTED BY IDOCK:   -6.37 KCAL/MOL
REMARK 924 INTRA-LIGAND FREE ENERGY PREDICTED BY IDOCK:   -0.60 KCAL/MOL
REMARK 927      BINDING AFFINITY PREDICTED BY RF-SCORE:    0.00 PKD
ROOT
HETATM    1  C   UNL     1      -9.089  14.242  67.160  1.00  0.00    -0.228 C  
HETATM    2  N   UNL     1     -10.035  14.736  66.174  1.00  0.00    -0.287 NA 
HETATM    3  C   UNL     1     -10.139  16.058  65.767  1.00  0.00    -0.366 A  
HETATM    4  C   UNL     1     -11.146  16.120  64.826  1.00  0.00    -0.345 A  
HETATM    5  C   UNL     1     -10.985  13.958  65.518  1.00  0.00    -0.302 A  
HETATM    6  C   UNL     1     -11.688  14.827  64.694  1.00  0.00    -0.426 A  
ENDROOT
BRANCH   3   7
HETATM    7  C   UNL     1      -9.360  17.204  66.366  1.00  0.00    -0.286 C  
HETATM    8  O   UNL     1      -9.475  18.848  68.118  1.00  0.00    -0.306 OA 
HETATM    9  O   UNL     1     -11.012  17.214  68.171  1.00  0.00    -0.361 OA 
HETATM   10  C   UNL     1      -9.950  17.833  67.616  1.00  0.00    -0.322 C  
ENDBRANCH   3   7
BRANCH   5  11
HETATM   11  C   UNL     1     -11.228  12.526  65.728  1.00  0.00    -0.320 C  
HETATM   12  O   UNL     1     -12.038  12.103  66.549  1.00  0.00    -0.627 OA 
BRANCH  11  13
HETATM   13  C   UNL     1     -10.463  11.520  64.914  1.00  0.00    -0.345 A  
HETATM   14  C   UNL     1     -10.012  10.329  65.501  1.00  0.00    -0.364 A  
HETATM   15  C   UNL     1      -9.275   9.399  64.748  1.00  0.00    -0.220 A  
HETATM   16  C   UNL     1      -8.972   9.655  63.405  1.00  0.00    -0.246 A  
HETATM   17  C   UNL     1      -8.176   8.689  62.574  1.00  0.00    -0.194 C  
HETATM   18  C   UNL     1      -9.426  10.843  62.823  1.00  0.00    -0.359 A  
HETATM   19  C   UNL     1     -10.145  11.775  63.574  1.00  0.00    -0.463 A  
ENDBRANCH  11  13
ENDBRANCH   5  11
TORSDOF 3
ENDMDL
MODEL       39
REMARK 921   NORMALIZED FREE ENERGY PREDICTED BY IDOCK:   -5.38 KCAL/MOL
REMARK 922        TOTAL FREE ENERGY PREDICTED BY IDOCK:   -6.96 KCAL/MOL
REMARK 923 INTER-LIGAND FREE ENERGY PREDICTED BY IDOCK:   -6.66 KCAL/MOL
REMARK 924 INTRA-LIGAND FREE ENERGY PREDICTED BY IDOCK:   -0.30 KCAL/MOL
REMARK 927      BINDING AFFINITY PREDICTED BY RF-SCORE:    0.00 PKD
ROOT
HETATM    1  C   UNL     1     -10.262  11.884  63.948  1.00  0.00    -0.389 C  
HETATM    2  N   UNL     1     -10.831  12.153  65.257  1.00  0.00    -0.284 NA 
HETATM    3  C   UNL     1     -11.730  13.172  65.536  1.00  0.00    -0.357 A  
HETATM    4  C   UNL     1     -12.031  13.096  66.881  1.00  0.00    -0.421 A  
HETATM    5  C   UNL     1     -10.537  11.444  66.418  1.00  0.00    -0.263 A  
HETATM    6  C   UNL     1     -11.270  12.046  67.432  1.00  0.00    -0.368 A  
ENDROOT
BRANCH   3   7
HETATM    7  C   UNL     1     -12.170  14.224  64.548  1.00  0.00    -0.476 C  
HETATM    8  O   UNL     1     -11.672  16.468  63.837  1.00  0.00    -1.148 OA 
HETATM    9  O   UNL     1     -10.198  15.502  65.228  1.00  0.00    -0.360 OA 
HETATM   10  C   UNL     1     -11.339  15.494  64.508  1.00  0.00    -0.314 C  
ENDBRANCH   3   7
BRANCH   5  11
HETATM   11  C   UNL     1      -9.581  10.336  66.538  1.00  0.00    -0.181 C  
HETATM   12  O   UNL     1      -8.484  10.342  65.984  1.00  0.00    -0.132 OA 
BRANCH  11  13
HETATM   13  C   UNL     1      -9.942   9.137  67.370  1.00  0.00    -0.262 A  
HETATM   14  C   UNL     1      -9.773   9.164  68.762  1.00  0.00    -0.167 A  
HETATM   15  C   UNL     1     -10.086   8.036  69.538  1.00  0.00    -0.196 A  
HETATM   16  C   UNL     1     -10.561   6.866  68.931  1.00  0.00    -0.244 A  
HETATM   17  C   UNL     1     -10.894   5.637  69.728  1.00  0.00    -0.370 C  
HETATM   18  C   UNL     1     -10.731   6.845  67.542  1.00  0.00    -0.368 A  
HETATM   19  C   UNL     1     -10.405   7.961  66.768  1.00  0.00    -0.357 A  
ENDBRANCH  11  13
ENDBRANCH   5  11
TORSDOF 3
ENDMDL
MODEL       40
REMARK 921   NORMALIZED FREE ENERGY PREDICTED BY IDOCK:   -5.34 KCAL/MOL
REMARK 922        TOTAL FREE ENERGY PREDICTED BY IDOCK:   -6.91 KCAL/MOL
REMARK 923 INTER-LIGAND FREE ENERGY PREDICTED BY IDOCK:   -6.24 KCAL/MOL
REMARK 924 INTRA-LIGAND FREE ENERGY PREDICTED BY IDOCK:   -0.67 KCAL/MOL
REMARK 927      BINDING AFFINITY PREDICTED BY RF-SCORE:    0.00 PKD
ROOT
HETATM    1  C   UNL     1      -8.975  13.446  67.500  1.00  0.00    -0.207 C  
HETATM    2  N   UNL     1     -10.244  13.461  66.794  1.00  0.00    -0.255 NA 
HETATM    3  C   UNL     1     -10.890  14.605  66.348  1.00  0.00    -0.315 A  
HETATM    4  C   UNL     1     -12.056  14.203  65.730  1.00  0.00    -0.433 A  
HETATM    5  C   UNL     1     -11.001  12.334  66.486  1.00  0.00    -0.279 A  
HETATM    6  C   UNL     1     -12.139  12.801  65.841  1.00  0.00    -0.485 A  
ENDROOT
BRANCH   3   7
HETATM    7  C   UNL     1     -10.428  16.015  66.626  1.00  0.00    -0.304 C  
HETATM    8  O   UNL     1     -10.766  17.843  68.153  1.00  0.00    -0.367 OA 
HETATM    9  O   UNL     1     -11.671  15.871  68.728  1.00  0.00    -0.387 OA 
HETATM   10  C   UNL     1     -10.970  16.661  67.889  1.00  0.00    -0.276 C  
ENDBRANCH   3   7
BRANCH   5  11
HETATM   11  C   UNL     1     -10.681  10.949  66.850  1.00  0.00    -0.264 C  
HETATM   12  O   UNL     1     -10.122  10.172  66.079  1.00  0.00    -0.246 OA 
BRANCH  11  13
HETATM   13  C   UNL     1     -11.044  10.442  68.217  1.00  0.00    -0.338 A  
HETATM   14  C   UNL     1     -11.893  11.189  69.047  1.00  0.00    -0.418 A  
HETATM   15  C   UNL     1     -12.214  10.729  70.335  1.00  0.00    -0.437 A  
HETATM   16  C   UNL     1     -11.682   9.523  70.811  1.00  0.00    -0.370 A  
HETATM   17  C   UNL     1     -11.994   9.008  72.187  1.00  0.00    -0.395 C  
HETATM   18  C   UNL     1     -10.839   8.780  69.979  1.00  0.00    -0.231 A  
HETATM   19  C   UNL     1     -10.507   9.244  68.704  1.00  0.00    -0.236 A  
ENDBRANCH  11  13
ENDBRANCH   5  11
TORSDOF 3
ENDMDL
MODEL       41
REMARK 921   NORMALIZED FREE ENERGY PREDICTED BY IDOCK:   -5.30 KCAL/MOL
REMARK 922        TOTAL FREE ENERGY PREDICTED BY IDOCK:   -6.87 KCAL/MOL
REMARK 923 INTER-LIGAND FREE ENERGY PREDICTED BY IDOCK:   -6.20 KCAL/MOL
REMARK 924 INTRA-LIGAND FREE ENERGY PREDICTED BY IDOCK:   -0.66 KCAL/MOL
REMARK 927      BINDING AFFINITY PREDICTED BY RF-SCORE:    0.00 PKD
ROOT
HETATM    1  C   UNL     1     -10.914  11.135  67.049  1.00  0.00    -0.289 C  
HETATM    2  N   UNL     1     -10.694  11.364  65.631  1.00  0.00    -0.261 NA 
HETATM    3  C   UNL     1      -9.905  10.569  64.813  1.00  0.00    -0.323 A  
HETATM    4  C   UNL     1      -9.951  11.113  63.545  1.00  0.00    -0.425 A  
HETATM    5  C   UNL     1     -11.222  12.425  64.902  1.00  0.00    -0.311 A  
HETATM    6  C   UNL     1     -10.742  12.277  63.607  1.00  0.00    -0.513 A  
ENDROOT
BRANCH   3   7
HETATM    7  C   UNL     1      -9.067   9.409  65.292  1.00  0.00    -0.287 C  
HETATM    8  O   UNL     1      -6.879   8.890  66.145  1.00  0.00    -0.072 OA 
HETATM    9  O   UNL     1      -7.417  11.065  66.012  1.00  0.00    -0.123 OA 
HETATM   10  C   UNL     1      -7.696   9.756  65.843  1.00  0.00    -0.105 C  
ENDBRANCH   3   7
BRANCH   5  11
HETATM   11  C   UNL     1     -12.053  13.512  65.432  1.00  0.00    -0.415 C  
HETATM   12  O   UNL     1     -13.277  13.528  65.322  1.00  0.00    -0.688 OA 
BRANCH  11  13
HETATM   13  C   UNL     1     -11.397  14.664  66.141  1.00  0.00    -0.350 A  
HETATM   14  C   UNL     1     -10.667  15.618  65.417  1.00  0.00    -0.424 A  
HETATM   15  C   UNL     1     -10.032  16.681  66.081  1.00  0.00    -0.356 A  
HETATM   16  C   UNL     1     -10.111  16.796  67.475  1.00  0.00    -0.276 A  
HETATM   17  C   UNL     1      -9.435  17.913  68.217  1.00  0.00    -0.300 C  
HETATM   18  C   UNL     1     -10.843  15.844  68.192  1.00  0.00    -0.317 A  
HETATM   19  C   UNL     1     -11.462  14.779  67.534  1.00  0.00    -0.369 A  
ENDBRANCH  11  13
ENDBRANCH   5  11
TORSDOF 3
ENDMDL
MODEL       42
REMARK 921   NORMALIZED FREE ENERGY PREDICTED BY IDOCK:   -5.29 KCAL/MOL
REMARK 922        TOTAL FREE ENERGY PREDICTED BY IDOCK:   -6.85 KCAL/MOL
REMARK 923 INTER-LIGAND FREE ENERGY PREDICTED BY IDOCK:   -6.83 KCAL/MOL
REMARK 924 INTRA-LIGAND FREE ENERGY PREDICTED BY IDOCK:   -0.02 KCAL/MOL
REMARK 927      BINDING AFFINITY PREDICTED BY RF-SCORE:    0.00 PKD
ROOT
HETATM    1  C   UNL     1     -10.122  11.121  67.291  1.00  0.00    -0.188 C  
HETATM    2  N   UNL     1     -10.890  12.340  67.103  1.00  0.00    -0.236 NA 
HETATM    3  C   UNL     1     -10.813  13.162  65.989  1.00  0.00    -0.272 A  
HETATM    4  C   UNL     1     -11.690  14.208  66.189  1.00  0.00    -0.402 A  
HETATM    5  C   UNL     1     -11.792  12.866  68.024  1.00  0.00    -0.343 A  
HETATM    6  C   UNL     1     -12.274  14.040  67.460  1.00  0.00    -0.258 A  
ENDROOT
BRANCH   3   7
HETATM    7  C   UNL     1      -9.839  12.977  64.851  1.00  0.00    -0.048 C  
HETATM    8  O   UNL     1      -9.596  11.839  62.745  1.00  0.00    -0.318 OA 
HETATM    9  O   UNL     1     -11.643  11.824  63.666  1.00  0.00    -0.434 OA 
HETATM   10  C   UNL     1     -10.337  12.163  63.670  1.00  0.00    -0.452 C  
ENDBRANCH   3   7
BRANCH   5  11
HETATM   11  C   UNL     1     -12.097  12.316  69.350  1.00  0.00    -0.176 C  
HETATM   12  O   UNL     1     -12.213  11.111  69.559  1.00  0.00    -0.323 OA 
BRANCH  11  13
HETATM   13  C   UNL     1     -12.280  13.251  70.512  1.00  0.00    -0.416 A  
HETATM   14  C   UNL     1     -13.090  12.883  71.597  1.00  0.00    -0.430 A  
HETATM   15  C   UNL     1     -13.282  13.766  72.673  1.00  0.00    -0.571 A  
HETATM   16  C   UNL     1     -12.677  15.029  72.672  1.00  0.00    -0.466 A  
HETATM   17  C   UNL     1     -12.871  16.002  73.799  1.00  0.00    -0.690 C  
HETATM   18  C   UNL     1     -11.868  15.391  71.589  1.00  0.00    -0.468 A  
HETATM   19  C   UNL     1     -11.689  14.520  70.512  1.00  0.00    -0.338 A  
ENDBRANCH  11  13
ENDBRANCH   5  11
TORSDOF 3
ENDMDL
MODEL       43
REMARK 921   NORMALIZED FREE ENERGY PREDICTED BY IDOCK:   -5.28 KCAL/MOL
REMARK 922        TOTAL FREE ENERGY PREDICTED BY IDOCK:   -6.84 KCAL/MOL
REMARK 923 INTER-LIGAND FREE ENERGY PREDICTED BY IDOCK:   -6.20 KCAL/MOL
REMARK 924 INTRA-LIGAND FREE ENERGY PREDICTED BY IDOCK:   -0.64 KCAL/MOL
REMARK 927      BINDING AFFINITY PREDICTED BY RF-SCORE:    0.00 PKD
ROOT
HETATM    1  C   UNL     1     -10.337  17.619  66.236  1.00  0.00    -0.342 C  
HETATM    2  N   UNL     1      -9.361  16.635  66.668  1.00  0.00    -0.237 NA 
HETATM    3  C   UNL     1      -7.987  16.825  66.659  1.00  0.00    -0.271 A  
HETATM    4  C   UNL     1      -7.410  15.667  67.140  1.00  0.00    -0.247 A  
HETATM    5  C   UNL     1      -9.664  15.356  67.127  1.00  0.00    -0.216 A  
HETATM    6  C   UNL     1      -8.445  14.749  67.401  1.00  0.00    -0.218 A  
ENDROOT
BRANCH   3   7
HETATM    7  C   UNL     1      -7.291  18.040  66.098  1.00  0.00    -0.317 C  
HETATM    8  O   UNL     1      -6.742  20.318  66.643  1.00  0.00    -0.213 OA 
HETATM    9  O   UNL     1      -7.544  19.049  68.312  1.00  0.00    -0.274 OA 
HETATM   10  C   UNL     1      -7.173  19.234  67.028  1.00  0.00    -0.208 C  
ENDBRANCH   3   7
BRANCH   5  11
HETATM   11  C   UNL     1     -11.003  14.763  67.219  1.00  0.00    -0.318 C  
HETATM   12  O   UNL     1     -11.663  14.454  66.230  1.00  0.00    -0.370 OA 
BRANCH  11  13
HETATM   13  C   UNL     1     -11.609  14.517  68.573  1.00  0.00    -0.344 A  
HETATM   14  C   UNL     1     -12.021  15.595  69.371  1.00  0.00    -0.349 A  
HETATM   15  C   UNL     1     -12.564  15.368  70.646  1.00  0.00    -0.491 A  
HETATM   16  C   UNL     1     -12.693  14.064  71.142  1.00  0.00    -0.436 A  
HETATM   17  C   UNL     1     -13.258  13.786  72.505  1.00  0.00    -0.599 C  
HETATM   18  C   UNL     1     -12.283  12.992  70.341  1.00  0.00    -0.386 A  
HETATM   19  C   UNL     1     -11.729  13.218  69.079  1.00  0.00    -0.368 A  
ENDBRANCH  11  13
ENDBRANCH   5  11
TORSDOF 3
ENDMDL
MODEL       44
REMARK 921   NORMALIZED FREE ENERGY PREDICTED BY IDOCK:   -5.27 KCAL/MOL
REMARK 922        TOTAL FREE ENERGY PREDICTED BY IDOCK:   -6.83 KCAL/MOL
REMARK 923 INTER-LIGAND FREE ENERGY PREDICTED BY IDOCK:   -6.27 KCAL/MOL
REMARK 924 INTRA-LIGAND FREE ENERGY PREDICTED BY IDOCK:   -0.56 KCAL/MOL
REMARK 927      BINDING AFFINITY PREDICTED BY RF-SCORE:    0.00 PKD
ROOT
HETATM    1  C   UNL     1     -10.062   8.150  69.383  1.00  0.00    -0.194 C  
HETATM    2  N   UNL     1     -10.942   9.137  69.984  1.00  0.00    -0.232 NA 
HETATM    3  C   UNL     1     -11.935   8.854  70.910  1.00  0.00    -0.213 A  
HETATM    4  C   UNL     1     -12.545  10.048  71.236  1.00  0.00    -0.495 A  
HETATM    5  C   UNL     1     -10.930  10.499  69.698  1.00  0.00    -0.283 A  
HETATM    6  C   UNL     1     -11.942  11.061  70.464  1.00  0.00    -0.474 A  
ENDROOT
BRANCH   3   7
HETATM    7  C   UNL     1     -12.327   7.465  71.352  1.00  0.00    -0.394 C  
HETATM    8  O   UNL     1     -11.620   5.679  72.800  1.00  0.00    -0.297 OA 
HETATM    9  O   UNL     1     -10.564   7.645  73.040  1.00  0.00    -0.314 OA 
HETATM   10  C   UNL     1     -11.477   6.846  72.448  1.00  0.00    -0.259 C  
ENDBRANCH   3   7
BRANCH   5  11
HETATM   11  C   UNL     1     -10.065  11.171  68.721  1.00  0.00    -0.201 C  
HETATM   12  O   UNL     1      -8.889  11.442  68.950  1.00  0.00    -0.116 OA 
BRANCH  11  13
HETATM   13  C   UNL     1     -10.625  11.553  67.379  1.00  0.00    -0.252 A  
HETATM   14  C   UNL     1     -10.180  10.908  66.216  1.00  0.00    -0.300 A  
HETATM   15  C   UNL     1     -10.684  11.281  64.959  1.00  0.00    -0.322 A  
HETATM   16  C   UNL     1     -11.630  12.308  64.849  1.00  0.00    -0.395 A  
HETATM   17  C   UNL     1     -12.181  12.740  63.520  1.00  0.00    -0.613 C  
HETATM   18  C   UNL     1     -12.074  12.946  66.013  1.00  0.00    -0.484 A  
HETATM   19  C   UNL     1     -11.562  12.587  67.261  1.00  0.00    -0.434 A  
ENDBRANCH  11  13
ENDBRANCH   5  11
TORSDOF 3
ENDMDL
MODEL       45
REMARK 921   NORMALIZED FREE ENERGY PREDICTED BY IDOCK:   -5.27 KCAL/MOL
REMARK 922        TOTAL FREE ENERGY PREDICTED BY IDOCK:   -6.83 KCAL/MOL
REMARK 923 INTER-LIGAND FREE ENERGY PREDICTED BY IDOCK:   -6.90 KCAL/MOL
REMARK 924 INTRA-LIGAND FREE ENERGY PREDICTED BY IDOCK:    0.06 KCAL/MOL
REMARK 927      BINDING AFFINITY PREDICTED BY RF-SCORE:    0.00 PKD
ROOT
HETATM    1  C   UNL     1     -13.026  12.496  71.235  1.00  0.00    -0.208 C  
HETATM    2  N   UNL     1     -12.511  13.492  70.312  1.00  0.00    -0.278 NA 
HETATM    3  C   UNL     1     -12.658  14.863  70.462  1.00  0.00    -0.360 A  
HETATM    4  C   UNL     1     -12.036  15.462  69.386  1.00  0.00    -0.351 A  
HETATM    5  C   UNL     1     -11.822  13.211  69.136  1.00  0.00    -0.314 A  
HETATM    6  C   UNL     1     -11.544  14.439  68.551  1.00  0.00    -0.347 A  
ENDROOT
BRANCH   3   7
HETATM    7  C   UNL     1     -13.468  15.526  71.549  1.00  0.00    -0.582 C  
HETATM    8  O   UNL     1     -13.337  16.192  73.857  1.00  0.00    -0.602 OA 
HETATM    9  O   UNL     1     -11.420  15.541  72.887  1.00  0.00    -0.412 OA 
HETATM   10  C   UNL     1     -12.748  15.776  72.862  1.00  0.00    -0.468 C  
ENDBRANCH   3   7
BRANCH   5  11
HETATM   11  C   UNL     1     -11.528  11.876  68.601  1.00  0.00    -0.294 C  
HETATM   12  O   UNL     1     -11.558  10.861  69.293  1.00  0.00    -0.267 OA 
BRANCH  11  13
HETATM   13  C   UNL     1     -11.175  11.725  67.148  1.00  0.00    -0.375 A  
HETATM   14  C   UNL     1     -10.039  10.993  66.767  1.00  0.00    -0.260 A  
HETATM   15  C   UNL     1      -9.693  10.872  65.411  1.00  0.00    -0.287 A  
HETATM   16  C   UNL     1     -10.471  11.488  64.422  1.00  0.00    -0.380 A  
HETATM   17  C   UNL     1     -10.123  11.389  62.964  1.00  0.00    -0.333 C  
HETATM   18  C   UNL     1     -11.603  12.214  64.806  1.00  0.00    -0.380 A  
HETATM   19  C   UNL     1     -11.940  12.348  66.155  1.00  0.00    -0.397 A  
ENDBRANCH  11  13
ENDBRANCH   5  11
TORSDOF 3
ENDMDL
MODEL       46
REMARK 921   NORMALIZED FREE ENERGY PREDICTED BY IDOCK:   -5.27 KCAL/MOL
REMARK 922        TOTAL FREE ENERGY PREDICTED BY IDOCK:   -6.83 KCAL/MOL
REMARK 923 INTER-LIGAND FREE ENERGY PREDICTED BY IDOCK:   -6.39 KCAL/MOL
REMARK 924 INTRA-LIGAND FREE ENERGY PREDICTED BY IDOCK:   -0.44 KCAL/MOL
REMARK 927      BINDING AFFINITY PREDICTED BY RF-SCORE:    0.00 PKD
ROOT
HETATM    1  C   UNL     1     -10.423  14.878  64.935  1.00  0.00    -0.359 C  
HETATM    2  N   UNL     1     -10.688  14.047  66.097  1.00  0.00    -0.287 NA 
HETATM    3  C   UNL     1     -11.705  13.107  66.183  1.00  0.00    -0.381 A  
HETATM    4  C   UNL     1     -11.626  12.531  67.435  1.00  0.00    -0.434 A  
HETATM    5  C   UNL     1      -9.977  14.093  67.292  1.00  0.00    -0.249 A  
HETATM    6  C   UNL     1     -10.576  13.162  68.131  1.00  0.00    -0.257 A  
ENDROOT
BRANCH   3   7
HETATM    7  C   UNL     1     -12.758  12.881  65.126  1.00  0.00    -0.443 C  
HETATM    8  O   UNL     1     -13.075  11.870  62.967  1.00  0.00    -0.500 OA 
HETATM    9  O   UNL     1     -11.152  11.401  64.025  1.00  0.00    -0.374 OA 
HETATM   10  C   UNL     1     -12.349  12.019  63.945  1.00  0.00    -0.450 C  
ENDBRANCH   3   7
BRANCH   5  11
HETATM   11  C   UNL     1      -8.872  15.005  67.608  1.00  0.00    -0.179 C  
HETATM   12  O   UNL     1      -7.756  14.609  67.937  1.00  0.00    -0.116 OA 
BRANCH  11  13
HETATM   13  C   UNL     1      -9.095  16.490  67.531  1.00  0.00    -0.200 A  
HETATM   14  C   UNL     1     -10.139  17.087  68.254  1.00  0.00    -0.306 A  
HETATM   15  C   UNL     1     -10.364  18.471  68.164  1.00  0.00    -0.391 A  
HETATM   16  C   UNL     1      -9.557  19.271  67.344  1.00  0.00    -0.389 A  
HETATM   17  C   UNL     1      -9.778  20.751  67.214  1.00  0.00    -0.487 C  
HETATM   18  C   UNL     1      -8.516  18.670  66.628  1.00  0.00    -0.301 A  
HETATM   19  C   UNL     1      -8.300  17.293  66.705  1.00  0.00    -0.291 A  
ENDBRANCH  11  13
ENDBRANCH   5  11
TORSDOF 3
ENDMDL
MODEL       47
REMARK 921   NORMALIZED FREE ENERGY PREDICTED BY IDOCK:   -5.26 KCAL/MOL
REMARK 922        TOTAL FREE ENERGY PREDICTED BY IDOCK:   -6.82 KCAL/MOL
REMARK 923 INTER-LIGAND FREE ENERGY PREDICTED BY IDOCK:   -6.45 KCAL/MOL
REMARK 924 INTRA-LIGAND FREE ENERGY PREDICTED BY IDOCK:   -0.38 KCAL/MOL
REMARK 927      BINDING AFFINITY PREDICTED BY RF-SCORE:    0.00 PKD
ROOT
HETATM    1  C   UNL     1     -11.204  13.971  68.093  1.00  0.00    -0.275 C  
HETATM    2  N   UNL     1     -10.892  13.087  66.984  1.00  0.00    -0.258 NA 
HETATM    3  C   UNL     1     -10.492  13.507  65.724  1.00  0.00    -0.291 A  
HETATM    4  C   UNL     1     -10.293  12.376  64.959  1.00  0.00    -0.319 A  
HETATM    5  C   UNL     1     -10.973  11.699  67.021  1.00  0.00    -0.288 A  
HETATM    6  C   UNL     1     -10.618  11.259  65.753  1.00  0.00    -0.306 A  
ENDROOT
BRANCH   3   7
HETATM    7  C   UNL     1     -10.426  14.948  65.280  1.00  0.00    -0.427 C  
HETATM    8  O   UNL     1     -11.613  16.568  63.955  1.00  0.00    -1.175 OA 
HETATM    9  O   UNL     1     -12.678  14.638  64.375  1.00  0.00    -0.636 OA 
HETATM   10  C   UNL     1     -11.610  15.456  64.476  1.00  0.00    -0.296 C  
ENDBRANCH   3   7
BRANCH   5  11
HETATM   11  C   UNL     1     -11.421  10.887  68.159  1.00  0.00    -0.295 C  
HETATM   12  O   UNL     1     -12.530  11.016  68.672  1.00  0.00    -0.462 OA 
BRANCH  11  13
HETATM   13  C   UNL     1     -10.498   9.849  68.734  1.00  0.00    -0.234 A  
HETATM   14  C   UNL     1      -9.828  10.088  69.943  1.00  0.00    -0.266 A  
HETATM   15  C   UNL     1      -8.946   9.130  70.469  1.00  0.00    -0.274 A  
HETATM   16  C   UNL     1      -8.716   7.927  69.788  1.00  0.00    -0.137 A  
HETATM   17  C   UNL     1      -7.771   6.886  70.315  1.00  0.00    -0.100 C  
HETATM   18  C   UNL     1      -9.389   7.692  68.584  1.00  0.00    -0.147 A  
HETATM   19  C   UNL     1     -10.254   8.650  68.053  1.00  0.00    -0.261 A  
ENDBRANCH  11  13
ENDBRANCH   5  11
TORSDOF 3
ENDMDL
MODEL       48
REMARK 921   NORMALIZED FREE ENERGY PREDICTED BY IDOCK:   -5.26 KCAL/MOL
REMARK 922        TOTAL FREE ENERGY PREDICTED BY IDOCK:   -6.82 KCAL/MOL
REMARK 923 INTER-LIGAND FREE ENERGY PREDICTED BY IDOCK:   -6.42 KCAL/MOL
REMARK 924 INTRA-LIGAND FREE ENERGY PREDICTED BY IDOCK:   -0.40 KCAL/MOL
REMARK 927      BINDING AFFINITY PREDICTED BY RF-SCORE:    0.00 PKD
ROOT
HETATM    1  C   UNL     1     -13.285   7.360  71.448  1.00  0.00    -0.339 C  
HETATM    2  N   UNL     1     -11.902   7.805  71.418  1.00  0.00    -0.290 NA 
HETATM    3  C   UNL     1     -10.799   6.966  71.463  1.00  0.00    -0.230 A  
HETATM    4  C   UNL     1      -9.674   7.764  71.413  1.00  0.00    -0.194 A  
HETATM    5  C   UNL     1     -11.491   9.133  71.365  1.00  0.00    -0.350 A  
HETATM    6  C   UNL     1     -10.103   9.106  71.382  1.00  0.00    -0.392 A  
ENDROOT
BRANCH   3   7
HETATM    7  C   UNL     1     -10.863   5.471  71.660  1.00  0.00    -0.271 C  
HETATM    8  O   UNL     1     -10.662   3.784  73.363  1.00  0.00    -0.175 OA 
HETATM    9  O   UNL     1     -10.769   5.914  74.064  1.00  0.00    -0.239 OA 
HETATM   10  C   UNL     1     -10.749   4.979  73.092  1.00  0.00    -0.257 C  
ENDBRANCH   3   7
BRANCH   5  11
HETATM   11  C   UNL     1     -12.365  10.312  71.371  1.00  0.00    -0.401 C  
HETATM   12  O   UNL     1     -13.265  10.469  72.193  1.00  0.00    -0.458 OA 
BRANCH  11  13
HETATM   13  C   UNL     1     -12.166  11.383  70.334  1.00  0.00    -0.450 A  
HETATM   14  C   UNL     1     -12.362  12.732  70.663  1.00  0.00    -0.381 A  
HETATM   15  C   UNL     1     -12.201  13.732  69.690  1.00  0.00    -0.359 A  
HETATM   16  C   UNL     1     -11.853  13.394  68.375  1.00  0.00    -0.401 A  
HETATM   17  C   UNL     1     -11.685  14.436  67.307  1.00  0.00    -0.429 C  
HETATM   18  C   UNL     1     -11.656  12.047  68.053  1.00  0.00    -0.407 A  
HETATM   19  C   UNL     1     -11.831  11.051  69.016  1.00  0.00    -0.399 A  
ENDBRANCH  11  13
ENDBRANCH   5  11
TORSDOF 3
ENDMDL
MODEL       49
REMARK 921   NORMALIZED FREE ENERGY PREDICTED BY IDOCK:   -5.25 KCAL/MOL
REMARK 922        TOTAL FREE ENERGY PREDICTED BY IDOCK:   -6.81 KCAL/MOL
REMARK 923 INTER-LIGAND FREE ENERGY PREDICTED BY IDOCK:   -6.21 KCAL/MOL
REMARK 924 INTRA-LIGAND FREE ENERGY PREDICTED BY IDOCK:   -0.60 KCAL/MOL
REMARK 927      BINDING AFFINITY PREDICTED BY RF-SCORE:    0.00 PKD
ROOT
HETATM    1  C   UNL     1     -10.570   9.038  71.811  1.00  0.00    -0.356 C  
HETATM    2  N   UNL     1     -11.944   8.585  71.677  1.00  0.00    -0.297 NA 
HETATM    3  C   UNL     1     -13.052   9.417  71.620  1.00  0.00    -0.394 A  
HETATM    4  C   UNL     1     -14.165   8.611  71.493  1.00  0.00    -0.412 A  
HETATM    5  C   UNL     1     -12.343   7.253  71.613  1.00  0.00    -0.352 A  
HETATM    6  C   UNL     1     -13.728   7.272  71.518  1.00  0.00    -0.451 A  
ENDROOT
BRANCH   3   7
HETATM    7  C   UNL     1     -13.010  10.915  71.798  1.00  0.00    -0.557 C  
HETATM    8  O   UNL     1     -12.340  12.930  70.668  1.00  0.00    -0.358 OA 
HETATM    9  O   UNL     1     -12.355  11.048  69.445  1.00  0.00    -0.348 OA 
HETATM   10  C   UNL     1     -12.535  11.719  70.601  1.00  0.00    -0.274 C  
ENDBRANCH   3   7
BRANCH   5  11
HETATM   11  C   UNL     1     -11.466   6.080  71.707  1.00  0.00    -0.253 C  
HETATM   12  O   UNL     1     -11.288   5.466  72.757  1.00  0.00    -0.288 OA 
BRANCH  11  13
HETATM   13  C   UNL     1     -10.749   5.594  70.479  1.00  0.00    -0.344 A  
HETATM   14  C   UNL     1     -11.021   6.167  69.227  1.00  0.00    -0.450 A  
HETATM   15  C   UNL     1     -10.369   5.698  68.075  1.00  0.00    -0.258 A  
HETATM   16  C   UNL     1      -9.448   4.646  68.158  1.00  0.00    -0.195 A  
HETATM   17  C   UNL     1      -8.743   4.111  66.944  1.00  0.00    -0.114 C  
HETATM   18  C   UNL     1      -9.178   4.080  69.409  1.00  0.00    -0.216 A  
HETATM   19  C   UNL     1      -9.836   4.536  70.553  1.00  0.00    -0.297 A  
ENDBRANCH  11  13
ENDBRANCH   5  11
TORSDOF 3
ENDMDL
MODEL       50
REMARK 921   NORMALIZED FREE ENERGY PREDICTED BY IDOCK:   -5.25 KCAL/MOL
REMARK 922        TOTAL FREE ENERGY PREDICTED BY IDOCK:   -6.81 KCAL/MOL
REMARK 923 INTER-LIGAND FREE ENERGY PREDICTED BY IDOCK:   -6.30 KCAL/MOL
REMARK 924 INTRA-LIGAND FREE ENERGY PREDICTED BY IDOCK:   -0.51 KCAL/MOL
REMARK 927      BINDING AFFINITY PREDICTED BY RF-SCORE:    0.00 PKD
ROOT
HETATM    1  C   UNL     1     -11.288  10.874  67.903  1.00  0.00    -0.308 C  
HETATM    2  N   UNL     1     -10.694  10.703  66.588  1.00  0.00    -0.217 NA 
HETATM    3  C   UNL     1      -9.728   9.760  66.271  1.00  0.00    -0.234 A  
HETATM    4  C   UNL     1      -9.427   9.916  64.934  1.00  0.00    -0.355 A  
HETATM    5  C   UNL     1     -10.993  11.476  65.470  1.00  0.00    -0.229 A  
HETATM    6  C   UNL     1     -10.187  10.996  64.446  1.00  0.00    -0.409 A  
ENDROOT
BRANCH   3   7
HETATM    7  C   UNL     1      -9.066   8.840  67.268  1.00  0.00    -0.151 C  
HETATM    8  O   UNL     1      -9.465   6.837  68.538  1.00  0.00    -0.133 OA 
HETATM    9  O   UNL     1     -10.965   7.332  66.944  1.00  0.00    -0.343 OA 
HETATM   10  C   UNL     1      -9.843   7.592  67.647  1.00  0.00    -0.164 C  
ENDBRANCH   3   7
BRANCH   5  11
HETATM   11  C   UNL     1     -11.918  12.614  65.425  1.00  0.00    -0.446 C  
HETATM   12  O   UNL     1     -13.038  12.542  64.924  1.00  0.00    -0.833 OA 
BRANCH  11  13
HETATM   13  C   UNL     1     -11.496  13.932  66.013  1.00  0.00    -0.345 A  
HETATM   14  C   UNL     1     -11.904  14.295  67.305  1.00  0.00    -0.444 A  
HETATM   15  C   UNL     1     -11.531  15.537  67.846  1.00  0.00    -0.276 A  
HETATM   16  C   UNL     1     -10.756  16.433  67.098  1.00  0.00    -0.233 A  
HETATM   17  C   UNL     1     -10.350  17.773  67.641  1.00  0.00    -0.375 C  
HETATM   18  C   UNL     1     -10.349  16.065  65.811  1.00  0.00    -0.398 A  
HETATM   19  C   UNL     1     -10.732  14.837  65.267  1.00  0.00    -0.406 A  
ENDBRANCH  11  13
ENDBRANCH   5  11
TORSDOF 3
ENDMDL
MODEL       51
REMARK 921   NORMALIZED FREE ENERGY PREDICTED BY IDOCK:   -5.22 KCAL/MOL
REMARK 922        TOTAL FREE ENERGY PREDICTED BY IDOCK:   -6.77 KCAL/MOL
REMARK 923 INTER-LIGAND FREE ENERGY PREDICTED BY IDOCK:   -6.26 KCAL/MOL
REMARK 924 INTRA-LIGAND FREE ENERGY PREDICTED BY IDOCK:   -0.52 KCAL/MOL
REMARK 927      BINDING AFFINITY PREDICTED BY RF-SCORE:    0.00 PKD
ROOT
HETATM    1  C   UNL     1     -11.808  14.951  69.076  1.00  0.00    -0.301 C  
HETATM    2  N   UNL     1     -10.656  14.634  68.250  1.00  0.00    -0.231 NA 
HETATM    3  C   UNL     1      -9.668  15.537  67.888  1.00  0.00    -0.211 A  
HETATM    4  C   UNL     1      -8.756  14.855  67.107  1.00  0.00    -0.240 A  
HETATM    5  C   UNL     1     -10.397  13.388  67.686  1.00  0.00    -0.238 A  
HETATM    6  C   UNL     1      -9.223  13.534  66.958  1.00  0.00    -0.248 A  
ENDROOT
BRANCH   3   7
HETATM    7  C   UNL     1      -9.693  17.012  68.205  1.00  0.00    -0.275 C  
HETATM    8  O   UNL     1      -9.952  19.161  67.156  1.00  0.00    -0.325 OA 
HETATM    9  O   UNL     1     -10.426  17.364  65.898  1.00  0.00    -0.442 OA 
HETATM   10  C   UNL     1     -10.024  17.940  67.050  1.00  0.00    -0.324 C  
ENDBRANCH   3   7
BRANCH   5  11
HETATM   11  C   UNL     1     -11.246  12.196  67.788  1.00  0.00    -0.275 C  
HETATM   12  O   UNL     1     -12.123  11.932  66.968  1.00  0.00    -0.600 OA 
BRANCH  11  13
HETATM   13  C   UNL     1     -11.051  11.247  68.937  1.00  0.00    -0.295 A  
HETATM   14  C   UNL     1     -12.071  11.059  69.882  1.00  0.00    -0.435 A  
HETATM   15  C   UNL     1     -11.880  10.192  70.970  1.00  0.00    -0.475 A  
HETATM   16  C   UNL     1     -10.666   9.511  71.132  1.00  0.00    -0.408 A  
HETATM   17  C   UNL     1     -10.425   8.586  72.290  1.00  0.00    -0.402 C  
HETATM   18  C   UNL     1      -9.654   9.699  70.185  1.00  0.00    -0.300 A  
HETATM   19  C   UNL     1      -9.836  10.573  69.112  1.00  0.00    -0.233 A  
ENDBRANCH  11  13
ENDBRANCH   5  11
TORSDOF 3
ENDMDL
MODEL       52
REMARK 921   NORMALIZED FREE ENERGY PREDICTED BY IDOCK:   -5.19 KCAL/MOL
REMARK 922        TOTAL FREE ENERGY PREDICTED BY IDOCK:   -6.74 KCAL/MOL
REMARK 923 INTER-LIGAND FREE ENERGY PREDICTED BY IDOCK:   -6.10 KCAL/MOL
REMARK 924 INTRA-LIGAND FREE ENERGY PREDICTED BY IDOCK:   -0.64 KCAL/MOL
REMARK 927      BINDING AFFINITY PREDICTED BY RF-SCORE:    0.00 PKD
ROOT
HETATM    1  C   UNL     1     -10.233  12.206  63.712  1.00  0.00    -0.424 C  
HETATM    2  N   UNL     1     -10.462  11.637  65.029  1.00  0.00    -0.273 NA 
HETATM    3  C   UNL     1      -9.974  10.413  65.460  1.00  0.00    -0.282 A  
HETATM    4  C   UNL     1     -10.406  10.233  66.758  1.00  0.00    -0.288 A  
HETATM    5  C   UNL     1     -11.223  12.229  66.033  1.00  0.00    -0.332 A  
HETATM    6  C   UNL     1     -11.202  11.343  67.102  1.00  0.00    -0.363 A  
ENDROOT
BRANCH   3   7
HETATM    7  C   UNL     1      -9.222   9.434  64.591  1.00  0.00    -0.185 C  
HETATM    8  O   UNL     1      -7.011   8.945  63.781  1.00  0.00    -0.088 OA 
HETATM    9  O   UNL     1      -7.169  10.484  65.407  1.00  0.00    -0.138 OA 
HETATM   10  C   UNL     1      -7.714   9.598  64.547  1.00  0.00    -0.131 C  
ENDBRANCH   3   7
BRANCH   5  11
HETATM   11  C   UNL     1     -11.955  13.497  65.933  1.00  0.00    -0.406 C  
HETATM   12  O   UNL     1     -13.005  13.610  65.306  1.00  0.00    -0.719 OA 
BRANCH  11  13
HETATM   13  C   UNL     1     -11.412  14.719  66.621  1.00  0.00    -0.339 A  
HETATM   14  C   UNL     1     -11.673  14.941  67.981  1.00  0.00    -0.344 A  
HETATM   15  C   UNL     1     -11.187  16.095  68.618  1.00  0.00    -0.369 A  
HETATM   16  C   UNL     1     -10.445  17.043  67.902  1.00  0.00    -0.354 A  
HETATM   17  C   UNL     1      -9.921  18.293  68.550  1.00  0.00    -0.413 C  
HETATM   18  C   UNL     1     -10.184  16.815  66.547  1.00  0.00    -0.319 A  
HETATM   19  C   UNL     1     -10.680  15.676  65.908  1.00  0.00    -0.336 A  
ENDBRANCH  11  13
ENDBRANCH   5  11
TORSDOF 3
ENDMDL
MODEL       53
REMARK 921   NORMALIZED FREE ENERGY PREDICTED BY IDOCK:   -5.18 KCAL/MOL
REMARK 922        TOTAL FREE ENERGY PREDICTED BY IDOCK:   -6.73 KCAL/MOL
REMARK 923 INTER-LIGAND FREE ENERGY PREDICTED BY IDOCK:   -6.23 KCAL/MOL
REMARK 924 INTRA-LIGAND FREE ENERGY PREDICTED BY IDOCK:   -0.50 KCAL/MOL
REMARK 927      BINDING AFFINITY PREDICTED BY RF-SCORE:    0.00 PKD
ROOT
HETATM    1  C   UNL     1      -9.412  15.145  65.946  1.00  0.00    -0.299 C  
HETATM    2  N   UNL     1     -10.108  15.618  67.130  1.00  0.00    -0.251 NA 
HETATM    3  C   UNL     1      -9.717  16.704  67.899  1.00  0.00    -0.244 A  
HETATM    4  C   UNL     1     -10.630  16.829  68.926  1.00  0.00    -0.350 A  
HETATM    5  C   UNL     1     -11.249  15.033  67.673  1.00  0.00    -0.326 A  
HETATM    6  C   UNL     1     -11.560  15.778  68.803  1.00  0.00    -0.401 A  
ENDROOT
BRANCH   3   7
HETATM    7  C   UNL     1      -8.449  17.494  67.687  1.00  0.00    -0.215 C  
HETATM    8  O   UNL     1      -7.470  19.131  66.222  1.00  0.00    -0.247 OA 
HETATM    9  O   UNL     1      -9.669  18.751  65.980  1.00  0.00    -0.477 OA 
HETATM   10  C   UNL     1      -8.477  18.520  66.569  1.00  0.00    -0.277 C  
ENDBRANCH   3   7
BRANCH   5  11
HETATM   11  C   UNL     1     -11.924  13.827  67.180  1.00  0.00    -0.405 C  
HETATM   12  O   UNL     1     -12.733  13.849  66.255  1.00  0.00    -0.399 OA 
BRANCH  11  13
HETATM   13  C   UNL     1     -11.625  12.500  67.820  1.00  0.00    -0.401 A  
HETATM   14  C   UNL     1     -11.768  12.334  69.205  1.00  0.00    -0.388 A  
HETATM   15  C   UNL     1     -11.466  11.102  69.809  1.00  0.00    -0.388 A  
HETATM   16  C   UNL     1     -11.007  10.027  69.037  1.00  0.00    -0.249 A  
HETATM   17  C   UNL     1     -10.662   8.700  69.650  1.00  0.00    -0.204 C  
HETATM   18  C   UNL     1     -10.868  10.197  67.655  1.00  0.00    -0.346 A  
HETATM   19  C   UNL     1     -11.154  11.425  67.056  1.00  0.00    -0.364 A  
ENDBRANCH  11  13
ENDBRANCH   5  11
TORSDOF 3
ENDMDL
MODEL       54
REMARK 921   NORMALIZED FREE ENERGY PREDICTED BY IDOCK:   -5.17 KCAL/MOL
REMARK 922        TOTAL FREE ENERGY PREDICTED BY IDOCK:   -6.71 KCAL/MOL
REMARK 923 INTER-LIGAND FREE ENERGY PREDICTED BY IDOCK:   -6.12 KCAL/MOL
REMARK 924 INTRA-LIGAND FREE ENERGY PREDICTED BY IDOCK:   -0.60 KCAL/MOL
REMARK 927      BINDING AFFINITY PREDICTED BY RF-SCORE:    0.00 PKD
ROOT
HETATM    1  C   UNL     1      -7.865  14.440  67.569  1.00  0.00    -0.190 C  
HETATM    2  N   UNL     1      -8.989  14.959  66.810  1.00  0.00    -0.255 NA 
HETATM    3  C   UNL     1      -8.998  16.169  66.133  1.00  0.00    -0.337 A  
HETATM    4  C   UNL     1     -10.238  16.300  65.542  1.00  0.00    -0.326 A  
HETATM    5  C   UNL     1     -10.222  14.327  66.676  1.00  0.00    -0.272 A  
HETATM    6  C   UNL     1     -11.005  15.174  65.902  1.00  0.00    -0.339 A  
ENDROOT
BRANCH   3   7
HETATM    7  C   UNL     1      -7.881  17.183  66.172  1.00  0.00    -0.303 C  
HETATM    8  O   UNL     1      -7.188  19.182  67.317  1.00  0.00    -0.215 OA 
HETATM    9  O   UNL     1      -8.932  18.074  68.194  1.00  0.00    -0.268 OA 
HETATM   10  C   UNL     1      -7.968  18.235  67.264  1.00  0.00    -0.224 C  
ENDBRANCH   3   7
BRANCH   5  11
HETATM   11  C   UNL     1     -10.620  13.060  67.300  1.00  0.00    -0.242 C  
HETATM   12  O   UNL     1     -10.382  11.966  66.794  1.00  0.00    -0.204 OA 
BRANCH  11  13
HETATM   13  C   UNL     1     -11.350  13.082  68.614  1.00  0.00    -0.329 A  
HETATM   14  C   UNL     1     -11.554  11.893  69.331  1.00  0.00    -0.388 A  
HETATM   15  C   UNL     1     -12.257  11.908  70.546  1.00  0.00    -0.426 A  
HETATM   16  C   UNL     1     -12.774  13.108  71.054  1.00  0.00    -0.361 A  
HETATM   17  C   UNL     1     -13.542  13.158  72.344  1.00  0.00    -0.667 C  
HETATM   18  C   UNL     1     -12.566  14.291  70.336  1.00  0.00    -0.405 A  
HETATM   19  C   UNL     1     -11.879  14.274  69.120  1.00  0.00    -0.368 A  
ENDBRANCH  11  13
ENDBRANCH   5  11
TORSDOF 3
ENDMDL
MODEL       55
REMARK 921   NORMALIZED FREE ENERGY PREDICTED BY IDOCK:   -5.15 KCAL/MOL
REMARK 922        TOTAL FREE ENERGY PREDICTED BY IDOCK:   -6.70 KCAL/MOL
REMARK 923 INTER-LIGAND FREE ENERGY PREDICTED BY IDOCK:   -6.07 KCAL/MOL
REMARK 924 INTRA-LIGAND FREE ENERGY PREDICTED BY IDOCK:   -0.62 KCAL/MOL
REMARK 927      BINDING AFFINITY PREDICTED BY RF-SCORE:    0.00 PKD
ROOT
HETATM    1  C   UNL     1     -12.098  14.350  67.231  1.00  0.00    -0.323 C  
HETATM    2  N   UNL     1     -10.706  14.374  67.645  1.00  0.00    -0.260 NA 
HETATM    3  C   UNL     1      -9.958  15.525  67.842  1.00  0.00    -0.218 A  
HETATM    4  C   UNL     1      -8.693  15.131  68.227  1.00  0.00    -0.171 A  
HETATM    5  C   UNL     1      -9.922  13.248  67.877  1.00  0.00    -0.233 A  
HETATM    6  C   UNL     1      -8.662  13.722  68.220  1.00  0.00    -0.179 A  
ENDROOT
BRANCH   3   7
HETATM    7  C   UNL     1     -10.442  16.925  67.552  1.00  0.00    -0.328 C  
HETATM    8  O   UNL     1     -10.514  18.568  65.797  1.00  0.00    -0.598 OA 
HETATM    9  O   UNL     1      -9.869  16.499  65.212  1.00  0.00    -0.488 OA 
HETATM   10  C   UNL     1     -10.274  17.408  66.123  1.00  0.00    -0.328 C  
ENDBRANCH   3   7
BRANCH   5  11
HETATM   11  C   UNL     1     -10.339  11.851  67.709  1.00  0.00    -0.198 C  
HETATM   12  O   UNL     1     -10.453  11.319  66.608  1.00  0.00    -0.229 OA 
BRANCH  11  13
HETATM   13  C   UNL     1     -10.645  11.022  68.925  1.00  0.00    -0.239 A  
HETATM   14  C   UNL     1      -9.720  10.072  69.385  1.00  0.00    -0.240 A  
HETATM   15  C   UNL     1     -10.014   9.279  70.507  1.00  0.00    -0.307 A  
HETATM   16  C   UNL     1     -11.238   9.418  71.174  1.00  0.00    -0.427 A  
HETATM   17  C   UNL     1     -11.590   8.578  72.368  1.00  0.00    -0.425 C  
HETATM   18  C   UNL     1     -12.156  10.368  70.713  1.00  0.00    -0.463 A  
HETATM   19  C   UNL     1     -11.871  11.147  69.589  1.00  0.00    -0.419 A  
ENDBRANCH  11  13
ENDBRANCH   5  11
TORSDOF 3
ENDMDL
MODEL       56
REMARK 921   NORMALIZED FREE ENERGY PREDICTED BY IDOCK:   -5.15 KCAL/MOL
REMARK 922        TOTAL FREE ENERGY PREDICTED BY IDOCK:   -6.69 KCAL/MOL
REMARK 923 INTER-LIGAND FREE ENERGY PREDICTED BY IDOCK:   -6.52 KCAL/MOL
REMARK 924 INTRA-LIGAND FREE ENERGY PREDICTED BY IDOCK:   -0.17 KCAL/MOL
REMARK 927      BINDING AFFINITY PREDICTED BY RF-SCORE:    0.00 PKD
ROOT
HETATM    1  C   UNL     1     -11.458  15.246  67.277  1.00  0.00    -0.224 C  
HETATM    2  N   UNL     1     -11.628  13.962  67.935  1.00  0.00    -0.322 NA 
HETATM    3  C   UNL     1     -11.513  13.750  69.301  1.00  0.00    -0.293 A  
HETATM    4  C   UNL     1     -11.743  12.409  69.529  1.00  0.00    -0.388 A  
HETATM    5  C   UNL     1     -11.905  12.762  67.287  1.00  0.00    -0.350 A  
HETATM    6  C   UNL     1     -11.957  11.793  68.280  1.00  0.00    -0.236 A  
ENDROOT
BRANCH   3   7
HETATM    7  C   UNL     1     -11.085  14.798  70.299  1.00  0.00    -0.185 C  
HETATM    8  O   UNL     1     -11.981  16.485  71.762  1.00  0.00    -0.372 OA 
HETATM    9  O   UNL     1     -13.456  15.068  70.837  1.00  0.00    -0.394 OA 
HETATM   10  C   UNL     1     -12.202  15.529  71.023  1.00  0.00    -0.396 C  
ENDBRANCH   3   7
BRANCH   5  11
HETATM   11  C   UNL     1     -12.035  12.569  65.838  1.00  0.00    -0.409 C  
HETATM   12  O   UNL     1     -12.921  13.101  65.173  1.00  0.00    -0.695 OA 
BRANCH  11  13
HETATM   13  C   UNL     1     -11.052  11.687  65.119  1.00  0.00    -0.300 A  
HETATM   14  C   UNL     1     -10.858  11.822  63.737  1.00  0.00    -0.490 A  
HETATM   15  C   UNL     1      -9.959  10.982  63.060  1.00  0.00    -0.333 A  
HETATM   16  C   UNL     1      -9.251   9.992  63.755  1.00  0.00    -0.314 A  
HETATM   17  C   UNL     1      -8.290   9.069  63.061  1.00  0.00    -0.197 C  
HETATM   18  C   UNL     1      -9.445   9.864  65.134  1.00  0.00    -0.338 A  
HETATM   19  C   UNL     1     -10.351  10.689  65.805  1.00  0.00    -0.287 A  
ENDBRANCH  11  13
ENDBRANCH   5  11
TORSDOF 3
ENDMDL
MODEL       57
REMARK 921   NORMALIZED FREE ENERGY PREDICTED BY IDOCK:   -5.13 KCAL/MOL
REMARK 922        TOTAL FREE ENERGY PREDICTED BY IDOCK:   -6.67 KCAL/MOL
REMARK 923 INTER-LIGAND FREE ENERGY PREDICTED BY IDOCK:   -6.04 KCAL/MOL
REMARK 924 INTRA-LIGAND FREE ENERGY PREDICTED BY IDOCK:   -0.63 KCAL/MOL
REMARK 927      BINDING AFFINITY PREDICTED BY RF-SCORE:    0.00 PKD
ROOT
HETATM    1  C   UNL     1     -10.233  12.206  63.712  1.00  0.00    -0.424 C  
HETATM    2  N   UNL     1     -10.462  11.637  65.029  1.00  0.00    -0.273 NA 
HETATM    3  C   UNL     1      -9.974  10.413  65.460  1.00  0.00    -0.282 A  
HETATM    4  C   UNL     1     -10.406  10.233  66.758  1.00  0.00    -0.288 A  
HETATM    5  C   UNL     1     -11.223  12.229  66.033  1.00  0.00    -0.332 A  
HETATM    6  C   UNL     1     -11.202  11.343  67.102  1.00  0.00    -0.363 A  
ENDROOT
BRANCH   3   7
HETATM    7  C   UNL     1      -9.222   9.434  64.591  1.00  0.00    -0.185 C  
HETATM    8  O   UNL     1      -7.011   8.945  63.781  1.00  0.00    -0.088 OA 
HETATM    9  O   UNL     1      -7.169  10.484  65.407  1.00  0.00    -0.138 OA 
HETATM   10  C   UNL     1      -7.714   9.598  64.547  1.00  0.00    -0.131 C  
ENDBRANCH   3   7
BRANCH   5  11
HETATM   11  C   UNL     1     -11.955  13.497  65.933  1.00  0.00    -0.406 C  
HETATM   12  O   UNL     1     -13.005  13.610  65.306  1.00  0.00    -0.719 OA 
BRANCH  11  13
HETATM   13  C   UNL     1     -11.412  14.719  66.621  1.00  0.00    -0.339 A  
HETATM   14  C   UNL     1     -10.706  15.687  65.891  1.00  0.00    -0.336 A  
HETATM   15  C   UNL     1     -10.176  16.817  66.536  1.00  0.00    -0.319 A  
HETATM   16  C   UNL     1     -10.336  16.986  67.918  1.00  0.00    -0.338 A  
HETATM   17  C   UNL     1      -9.772  18.175  68.641  1.00  0.00    -0.367 C  
HETATM   18  C   UNL     1     -11.044  16.019  68.640  1.00  0.00    -0.349 A  
HETATM   19  C   UNL     1     -11.557  14.888  68.002  1.00  0.00    -0.363 A  
ENDBRANCH  11  13
ENDBRANCH   5  11
TORSDOF 3
ENDMDL
MODEL       58
REMARK 921   NORMALIZED FREE ENERGY PREDICTED BY IDOCK:   -5.11 KCAL/MOL
REMARK 922        TOTAL FREE ENERGY PREDICTED BY IDOCK:   -6.64 KCAL/MOL
REMARK 923 INTER-LIGAND FREE ENERGY PREDICTED BY IDOCK:   -6.01 KCAL/MOL
REMARK 924 INTRA-LIGAND FREE ENERGY PREDICTED BY IDOCK:   -0.63 KCAL/MOL
REMARK 927      BINDING AFFINITY PREDICTED BY RF-SCORE:    0.00 PKD
ROOT
HETATM    1  C   UNL     1      -8.030  16.448  68.464  1.00  0.00    -0.203 C  
HETATM    2  N   UNL     1      -8.881  17.502  67.939  1.00  0.00    -0.242 NA 
HETATM    3  C   UNL     1      -8.451  18.780  67.613  1.00  0.00    -0.272 A  
HETATM    4  C   UNL     1      -9.549  19.476  67.152  1.00  0.00    -0.430 A  
HETATM    5  C   UNL     1     -10.249  17.385  67.713  1.00  0.00    -0.345 A  
HETATM    6  C   UNL     1     -10.667  18.623  67.241  1.00  0.00    -0.449 A  
ENDROOT
BRANCH   3   7
HETATM    7  C   UNL     1      -7.058  19.306  67.857  1.00  0.00    -0.273 C  
HETATM    8  O   UNL     1      -5.714  20.372  69.543  1.00  0.00    -0.288 OA 
HETATM    9  O   UNL     1      -7.713  19.588  70.197  1.00  0.00     0.372 OA 
HETATM   10  C   UNL     1      -6.767  19.808  69.260  1.00  0.00    -0.348 C  
ENDBRANCH   3   7
BRANCH   5  11
HETATM   11  C   UNL     1     -11.077  16.207  67.996  1.00  0.00    -0.317 C  
HETATM   12  O   UNL     1     -11.641  16.036  69.074  1.00  0.00    -0.367 OA 
BRANCH  11  13
HETATM   13  C   UNL     1     -11.254  15.157  66.936  1.00  0.00    -0.292 A  
HETATM   14  C   UNL     1     -12.065  14.037  67.176  1.00  0.00    -0.436 A  
HETATM   15  C   UNL     1     -12.211  13.042  66.195  1.00  0.00    -0.428 A  
HETATM   16  C   UNL     1     -11.542  13.150  64.969  1.00  0.00    -0.354 A  
HETATM   17  C   UNL     1     -11.666  12.099  63.903  1.00  0.00    -0.546 C  
HETATM   18  C   UNL     1     -10.737  14.269  64.733  1.00  0.00    -0.435 A  
HETATM   19  C   UNL     1     -10.579  15.252  65.713  1.00  0.00    -0.359 A  
ENDBRANCH  11  13
ENDBRANCH   5  11
TORSDOF 3
ENDMDL
MODEL       59
REMARK 921   NORMALIZED FREE ENERGY PREDICTED BY IDOCK:   -5.10 KCAL/MOL
REMARK 922        TOTAL FREE ENERGY PREDICTED BY IDOCK:   -6.63 KCAL/MOL
REMARK 923 INTER-LIGAND FREE ENERGY PREDICTED BY IDOCK:   -6.43 KCAL/MOL
REMARK 924 INTRA-LIGAND FREE ENERGY PREDICTED BY IDOCK:   -0.20 KCAL/MOL
REMARK 927      BINDING AFFINITY PREDICTED BY RF-SCORE:    0.00 PKD
ROOT
HETATM    1  C   UNL     1     -12.850   9.796  71.528  1.00  0.00    -0.405 C  
HETATM    2  N   UNL     1     -11.495   9.723  71.008  1.00  0.00    -0.352 NA 
HETATM    3  C   UNL     1     -10.572   8.741  71.336  1.00  0.00    -0.279 A  
HETATM    4  C   UNL     1      -9.413   9.020  70.642  1.00  0.00    -0.286 A  
HETATM    5  C   UNL     1     -10.926  10.640  70.129  1.00  0.00    -0.222 A  
HETATM    6  C   UNL     1      -9.622  10.211  69.918  1.00  0.00    -0.172 A  
ENDROOT
BRANCH   3   7
HETATM    7  C   UNL     1     -10.796   7.661  72.366  1.00  0.00    -0.341 C  
HETATM    8  O   UNL     1     -11.809   5.496  72.637  1.00  0.00    -0.274 OA 
HETATM    9  O   UNL     1     -11.639   6.272  70.538  1.00  0.00    -0.363 OA 
HETATM   10  C   UNL     1     -11.462   6.390  71.870  1.00  0.00    -0.304 C  
ENDBRANCH   3   7
BRANCH   5  11
HETATM   11  C   UNL     1     -11.567  11.852  69.606  1.00  0.00    -0.317 C  
HETATM   12  O   UNL     1     -12.121  12.677  70.329  1.00  0.00    -0.349 OA 
BRANCH  11  13
HETATM   13  C   UNL     1     -11.556  12.112  68.125  1.00  0.00    -0.397 A  
HETATM   14  C   UNL     1     -12.032  13.329  67.616  1.00  0.00    -0.366 A  
HETATM   15  C   UNL     1     -12.045  13.564  66.231  1.00  0.00    -0.476 A  
HETATM   16  C   UNL     1     -11.594  12.582  65.340  1.00  0.00    -0.416 A  
HETATM   17  C   UNL     1     -11.606  12.795  63.853  1.00  0.00    -0.518 C  
HETATM   18  C   UNL     1     -11.118  11.371  65.853  1.00  0.00    -0.225 A  
HETATM   19  C   UNL     1     -11.118  11.130  67.228  1.00  0.00    -0.366 A  
ENDBRANCH  11  13
ENDBRANCH   5  11
TORSDOF 3
ENDMDL
MODEL       60
REMARK 921   NORMALIZED FREE ENERGY PREDICTED BY IDOCK:   -5.05 KCAL/MOL
REMARK 922        TOTAL FREE ENERGY PREDICTED BY IDOCK:   -6.58 KCAL/MOL
REMARK 923 INTER-LIGAND FREE ENERGY PREDICTED BY IDOCK:   -6.67 KCAL/MOL
REMARK 924 INTRA-LIGAND FREE ENERGY PREDICTED BY IDOCK:    0.09 KCAL/MOL
REMARK 927      BINDING AFFINITY PREDICTED BY RF-SCORE:    0.00 PKD
ROOT
HETATM    1  C   UNL     1     -11.122  11.886  66.553  1.00  0.00    -0.306 C  
HETATM    2  N   UNL     1     -11.209  11.304  67.881  1.00  0.00    -0.266 NA 
HETATM    3  C   UNL     1     -10.954   9.975  68.183  1.00  0.00    -0.235 A  
HETATM    4  C   UNL     1     -11.144   9.819  69.541  1.00  0.00    -0.226 A  
HETATM    5  C   UNL     1     -11.584  11.992  69.031  1.00  0.00    -0.313 A  
HETATM    6  C   UNL     1     -11.562  11.060  70.060  1.00  0.00    -0.427 A  
ENDROOT
BRANCH   3   7
HETATM    7  C   UNL     1     -10.654   8.905  67.162  1.00  0.00    -0.301 C  
HETATM    8  O   UNL     1      -8.850   8.005  65.850  1.00  0.00    -0.160 OA 
HETATM    9  O   UNL     1      -8.291   9.461  67.464  1.00  0.00    -0.120 OA 
HETATM   10  C   UNL     1      -9.198   8.752  66.760  1.00  0.00    -0.169 C  
ENDBRANCH   3   7
BRANCH   5  11
HETATM   11  C   UNL     1     -11.993  13.400  69.105  1.00  0.00    -0.317 C  
HETATM   12  O   UNL     1     -12.197  14.086  68.107  1.00  0.00    -0.325 OA 
BRANCH  11  13
HETATM   13  C   UNL     1     -12.175  14.046  70.450  1.00  0.00    -0.433 A  
HETATM   14  C   UNL     1     -11.355  15.116  70.839  1.00  0.00    -0.345 A  
HETATM   15  C   UNL     1     -11.507  15.704  72.106  1.00  0.00    -0.479 A  
HETATM   16  C   UNL     1     -12.472  15.224  73.001  1.00  0.00    -0.532 A  
HETATM   17  C   UNL     1     -12.654  15.821  74.367  1.00  0.00    -0.693 C  
HETATM   18  C   UNL     1     -13.290  14.159  72.607  1.00  0.00    -0.638 A  
HETATM   19  C   UNL     1     -13.129  13.563  71.354  1.00  0.00    -0.385 A  
ENDBRANCH  11  13
ENDBRANCH   5  11
TORSDOF 3
ENDMDL
MODEL       61
REMARK 921   NORMALIZED FREE ENERGY PREDICTED BY IDOCK:   -5.02 KCAL/MOL
REMARK 922        TOTAL FREE ENERGY PREDICTED BY IDOCK:   -6.54 KCAL/MOL
REMARK 923 INTER-LIGAND FREE ENERGY PREDICTED BY IDOCK:   -5.92 KCAL/MOL
REMARK 924 INTRA-LIGAND FREE ENERGY PREDICTED BY IDOCK:   -0.62 KCAL/MOL
REMARK 927      BINDING AFFINITY PREDICTED BY RF-SCORE:    0.00 PKD
ROOT
HETATM    1  C   UNL     1      -9.442  15.515  65.926  1.00  0.00    -0.342 C  
HETATM    2  N   UNL     1     -10.209  15.661  67.151  1.00  0.00    -0.264 NA 
HETATM    3  C   UNL     1      -9.898  16.535  68.182  1.00  0.00    -0.244 A  
HETATM    4  C   UNL     1     -10.860  16.376  69.159  1.00  0.00    -0.329 A  
HETATM    5  C   UNL     1     -11.347  14.928  67.474  1.00  0.00    -0.342 A  
HETATM    6  C   UNL     1     -11.739  15.361  68.733  1.00  0.00    -0.369 A  
ENDROOT
BRANCH   3   7
HETATM    7  C   UNL     1      -8.655  17.389  68.238  1.00  0.00    -0.260 C  
HETATM    8  O   UNL     1      -6.437  17.431  69.167  1.00  0.00    -0.217 OA 
HETATM    9  O   UNL     1      -7.553  15.490  69.316  1.00  0.00    -0.188 OA 
HETATM   10  C   UNL     1      -7.458  16.784  68.949  1.00  0.00    -0.240 C  
ENDBRANCH   3   7
BRANCH   5  11
HETATM   11  C   UNL     1     -11.949  13.861  66.665  1.00  0.00    -0.442 C  
HETATM   12  O   UNL     1     -12.821  14.075  65.825  1.00  0.00    -0.516 OA 
BRANCH  11  13
HETATM   13  C   UNL     1     -11.493  12.442  66.857  1.00  0.00    -0.423 A  
HETATM   14  C   UNL     1     -11.416  11.891  68.145  1.00  0.00    -0.384 A  
HETATM   15  C   UNL     1     -10.966  10.573  68.329  1.00  0.00    -0.314 A  
HETATM   16  C   UNL     1     -10.578   9.795  67.230  1.00  0.00    -0.320 A  
HETATM   17  C   UNL     1     -10.080   8.387  67.392  1.00  0.00    -0.301 C  
HETATM   18  C   UNL     1     -10.659  10.348  65.948  1.00  0.00    -0.114 A  
HETATM   19  C   UNL     1     -11.092  11.663  65.765  1.00  0.00    -0.313 A  
ENDBRANCH  11  13
ENDBRANCH   5  11
TORSDOF 3
ENDMDL
MODEL       62
REMARK 921   NORMALIZED FREE ENERGY PREDICTED BY IDOCK:   -5.02 KCAL/MOL
REMARK 922        TOTAL FREE ENERGY PREDICTED BY IDOCK:   -6.54 KCAL/MOL
REMARK 923 INTER-LIGAND FREE ENERGY PREDICTED BY IDOCK:   -6.13 KCAL/MOL
REMARK 924 INTRA-LIGAND FREE ENERGY PREDICTED BY IDOCK:   -0.41 KCAL/MOL
REMARK 927      BINDING AFFINITY PREDICTED BY RF-SCORE:    0.00 PKD
ROOT
HETATM    1  C   UNL     1     -11.233  10.480  67.845  1.00  0.00    -0.289 C  
HETATM    2  N   UNL     1     -11.537  11.592  68.729  1.00  0.00    -0.287 NA 
HETATM    3  C   UNL     1     -11.261  12.923  68.453  1.00  0.00    -0.270 A  
HETATM    4  C   UNL     1     -11.698  13.665  69.531  1.00  0.00    -0.380 A  
HETATM    5  C   UNL     1     -12.124  11.476  69.986  1.00  0.00    -0.331 A  
HETATM    6  C   UNL     1     -12.205  12.767  70.491  1.00  0.00    -0.389 A  
ENDROOT
BRANCH   3   7
HETATM    7  C   UNL     1     -10.504  13.409  67.241  1.00  0.00    -0.248 C  
HETATM    8  O   UNL     1     -10.831  14.043  64.944  1.00  0.00    -0.364 OA 
HETATM    9  O   UNL     1     -12.681  13.764  66.183  1.00  0.00    -0.407 OA 
HETATM   10  C   UNL     1     -11.341  13.758  66.024  1.00  0.00    -0.314 C  
ENDBRANCH   3   7
BRANCH   5  11
HETATM   11  C   UNL     1     -12.501  10.225  70.654  1.00  0.00    -0.318 C  
HETATM   12  O   UNL     1     -13.661   9.822  70.704  1.00  0.00    -0.152 OA 
BRANCH  11  13
HETATM   13  C   UNL     1     -11.438   9.391  71.312  1.00  0.00    -0.433 A  
HETATM   14  C   UNL     1     -11.770   8.514  72.356  1.00  0.00    -0.429 A  
HETATM   15  C   UNL     1     -10.774   7.752  72.988  1.00  0.00    -0.446 A  
HETATM   16  C   UNL     1      -9.435   7.864  72.592  1.00  0.00    -0.284 A  
HETATM   17  C   UNL     1      -8.343   7.074  73.254  1.00  0.00    -0.138 C  
HETATM   18  C   UNL     1      -9.109   8.738  71.549  1.00  0.00    -0.322 A  
HETATM   19  C   UNL     1     -10.096   9.507  70.930  1.00  0.00    -0.330 A  
ENDBRANCH  11  13
ENDBRANCH   5  11
TORSDOF 3
ENDMDL
MODEL       63
REMARK 921   NORMALIZED FREE ENERGY PREDICTED BY IDOCK:   -5.00 KCAL/MOL
REMARK 922        TOTAL FREE ENERGY PREDICTED BY IDOCK:   -6.52 KCAL/MOL
REMARK 923 INTER-LIGAND FREE ENERGY PREDICTED BY IDOCK:   -5.86 KCAL/MOL
REMARK 924 INTRA-LIGAND FREE ENERGY PREDICTED BY IDOCK:   -0.66 KCAL/MOL
REMARK 927      BINDING AFFINITY PREDICTED BY RF-SCORE:    0.00 PKD
ROOT
HETATM    1  C   UNL     1     -11.997  13.976  66.619  1.00  0.00    -0.445 C  
HETATM    2  N   UNL     1     -10.630  13.852  67.093  1.00  0.00    -0.276 NA 
HETATM    3  C   UNL     1      -9.733  14.903  67.210  1.00  0.00    -0.228 A  
HETATM    4  C   UNL     1      -8.550  14.381  67.692  1.00  0.00    -0.189 A  
HETATM    5  C   UNL     1     -10.021  12.659  67.473  1.00  0.00    -0.205 A  
HETATM    6  C   UNL     1      -8.719  12.989  67.826  1.00  0.00    -0.188 A  
ENDROOT
BRANCH   3   7
HETATM    7  C   UNL     1     -10.004  16.318  66.759  1.00  0.00    -0.268 C  
HETATM    8  O   UNL     1     -10.904  18.406  67.544  1.00  0.00    -0.408 OA 
HETATM    9  O   UNL     1     -10.546  16.820  69.091  1.00  0.00    -0.316 OA 
HETATM   10  C   UNL     1     -10.529  17.269  67.819  1.00  0.00    -0.371 C  
ENDBRANCH   3   7
BRANCH   5  11
HETATM   11  C   UNL     1     -10.626  11.323  67.426  1.00  0.00    -0.224 C  
HETATM   12  O   UNL     1     -10.780  10.699  66.379  1.00  0.00    -0.214 OA 
BRANCH  11  13
HETATM   13  C   UNL     1     -11.085  10.676  68.703  1.00  0.00    -0.315 A  
HETATM   14  C   UNL     1     -11.941  11.361  69.577  1.00  0.00    -0.409 A  
HETATM   15  C   UNL     1     -12.350  10.767  70.783  1.00  0.00    -0.480 A  
HETATM   16  C   UNL     1     -11.900   9.487  71.133  1.00  0.00    -0.436 A  
HETATM   17  C   UNL     1     -12.308   8.828  72.419  1.00  0.00    -0.414 C  
HETATM   18  C   UNL     1     -11.049   8.807  70.256  1.00  0.00    -0.240 A  
HETATM   19  C   UNL     1     -10.629   9.402  69.065  1.00  0.00    -0.233 A  
ENDBRANCH  11  13
ENDBRANCH   5  11
TORSDOF 3
ENDMDL
MODEL       64
REMARK 921   NORMALIZED FREE ENERGY PREDICTED BY IDOCK:   -5.00 KCAL/MOL
REMARK 922        TOTAL FREE ENERGY PREDICTED BY IDOCK:   -6.52 KCAL/MOL
REMARK 923 INTER-LIGAND FREE ENERGY PREDICTED BY IDOCK:   -5.86 KCAL/MOL
REMARK 924 INTRA-LIGAND FREE ENERGY PREDICTED BY IDOCK:   -0.65 KCAL/MOL
REMARK 927      BINDING AFFINITY PREDICTED BY RF-SCORE:    0.00 PKD
ROOT
HETATM    1  C   UNL     1     -11.523   6.511  69.708  1.00  0.00    -0.379 C  
HETATM    2  N   UNL     1     -11.103   6.836  71.060  1.00  0.00    -0.260 NA 
HETATM    3  C   UNL     1     -10.064   6.217  71.739  1.00  0.00    -0.186 A  
HETATM    4  C   UNL     1      -9.981   6.803  72.985  1.00  0.00    -0.199 A  
HETATM    5  C   UNL     1     -11.700   7.796  71.873  1.00  0.00    -0.292 A  
HETATM    6  C   UNL     1     -11.011   7.759  73.078  1.00  0.00    -0.442 A  
ENDROOT
BRANCH   3   7
HETATM    7  C   UNL     1      -9.281   5.037  71.217  1.00  0.00    -0.186 C  
HETATM    8  O   UNL     1      -7.431   4.488  69.781  1.00  0.00    -0.050 OA 
HETATM    9  O   UNL     1      -7.705   6.658  70.284  1.00  0.00    -0.094 OA 
HETATM   10  C   UNL     1      -8.069   5.362  70.363  1.00  0.00    -0.101 C  
ENDBRANCH   3   7
BRANCH   5  11
HETATM   11  C   UNL     1     -12.870   8.614  71.533  1.00  0.00    -0.319 C  
HETATM   12  O   UNL     1     -14.008   8.155  71.476  1.00  0.00    -0.367 OA 
BRANCH  11  13
HETATM   13  C   UNL     1     -12.686  10.077  71.238  1.00  0.00    -0.500 A  
HETATM   14  C   UNL     1     -13.263  11.045  72.074  1.00  0.00    -0.447 A  
HETATM   15  C   UNL     1     -13.113  12.412  71.786  1.00  0.00    -0.446 A  
HETATM   16  C   UNL     1     -12.396  12.826  70.656  1.00  0.00    -0.381 A  
HETATM   17  C   UNL     1     -12.227  14.278  70.312  1.00  0.00    -0.407 C  
HETATM   18  C   UNL     1     -11.820  11.857  69.828  1.00  0.00    -0.411 A  
HETATM   19  C   UNL     1     -11.981  10.497  70.105  1.00  0.00    -0.398 A  
ENDBRANCH  11  13
ENDBRANCH   5  11
TORSDOF 3
ENDMDL
MODEL       65
REMARK 921   NORMALIZED FREE ENERGY PREDICTED BY IDOCK:   -4.93 KCAL/MOL
REMARK 922        TOTAL FREE ENERGY PREDICTED BY IDOCK:   -6.43 KCAL/MOL
REMARK 923 INTER-LIGAND FREE ENERGY PREDICTED BY IDOCK:   -6.00 KCAL/MOL
REMARK 924 INTRA-LIGAND FREE ENERGY PREDICTED BY IDOCK:   -0.43 KCAL/MOL
REMARK 927      BINDING AFFINITY PREDICTED BY RF-SCORE:    0.00 PKD
ROOT
HETATM    1  C   UNL     1      -9.489   9.835  70.146  1.00  0.00    -0.229 C  
HETATM    2  N   UNL     1     -10.889   9.749  70.524  1.00  0.00    -0.300 NA 
HETATM    3  C   UNL     1     -11.474   8.659  71.152  1.00  0.00    -0.280 A  
HETATM    4  C   UNL     1     -12.807   8.962  71.341  1.00  0.00    -0.335 A  
HETATM    5  C   UNL     1     -11.843  10.735  70.289  1.00  0.00    -0.349 A  
HETATM    6  C   UNL     1     -13.041  10.234  70.781  1.00  0.00    -0.360 A  
ENDROOT
BRANCH   3   7
HETATM    7  C   UNL     1     -10.773   7.354  71.438  1.00  0.00    -0.239 C  
HETATM    8  O   UNL     1     -10.485   5.135  70.555  1.00  0.00    -0.258 OA 
HETATM    9  O   UNL     1     -11.486   6.630  69.213  1.00  0.00    -0.280 OA 
HETATM   10  C   UNL     1     -10.905   6.276  70.377  1.00  0.00    -0.299 C  
ENDBRANCH   3   7
BRANCH   5  11
HETATM   11  C   UNL     1     -11.622  12.006  69.590  1.00  0.00    -0.301 C  
HETATM   12  O   UNL     1     -11.436  13.066  70.183  1.00  0.00    -0.119 OA 
BRANCH  11  13
HETATM   13  C   UNL     1     -11.619  12.031  68.087  1.00  0.00    -0.403 A  
HETATM   14  C   UNL     1     -11.049  10.974  67.362  1.00  0.00    -0.370 A  
HETATM   15  C   UNL     1     -11.024  11.008  65.958  1.00  0.00    -0.136 A  
HETATM   16  C   UNL     1     -11.558  12.101  65.264  1.00  0.00    -0.376 A  
HETATM   17  C   UNL     1     -11.536  12.175  63.764  1.00  0.00    -0.557 C  
HETATM   18  C   UNL     1     -12.128  13.151  65.991  1.00  0.00    -0.495 A  
HETATM   19  C   UNL     1     -12.140  13.126  67.388  1.00  0.00    -0.316 A  
ENDBRANCH  11  13
ENDBRANCH   5  11
TORSDOF 3
ENDMDL
MODEL       66
REMARK 921   NORMALIZED FREE ENERGY PREDICTED BY IDOCK:   -4.92 KCAL/MOL
REMARK 922        TOTAL FREE ENERGY PREDICTED BY IDOCK:   -6.42 KCAL/MOL
REMARK 923 INTER-LIGAND FREE ENERGY PREDICTED BY IDOCK:   -5.80 KCAL/MOL
REMARK 924 INTRA-LIGAND FREE ENERGY PREDICTED BY IDOCK:   -0.62 KCAL/MOL
REMARK 927      BINDING AFFINITY PREDICTED BY RF-SCORE:    0.00 PKD
ROOT
HETATM    1  C   UNL     1      -8.012  17.050  68.847  1.00  0.00    -0.217 C  
HETATM    2  N   UNL     1      -9.044  17.243  67.842  1.00  0.00    -0.235 NA 
HETATM    3  C   UNL     1      -9.264  18.423  67.148  1.00  0.00    -0.264 A  
HETATM    4  C   UNL     1     -10.323  18.204  66.292  1.00  0.00    -0.407 A  
HETATM    5  C   UNL     1      -9.970  16.280  67.453  1.00  0.00    -0.249 A  
HETATM    6  C   UNL     1     -10.779  16.888  66.502  1.00  0.00    -0.087 A  
ENDROOT
BRANCH   3   7
HETATM    7  C   UNL     1      -8.537  19.720  67.408  1.00  0.00    -0.374 C  
HETATM    8  O   UNL     1      -6.447  20.830  66.974  1.00  0.00    -0.237 OA 
HETATM    9  O   UNL     1      -6.830  18.928  65.846  1.00  0.00    -0.237 OA 
HETATM   10  C   UNL     1      -7.184  19.876  66.737  1.00  0.00    -0.233 C  
ENDBRANCH   3   7
BRANCH   5  11
HETATM   11  C   UNL     1     -10.099  14.927  68.007  1.00  0.00    -0.221 C  
HETATM   12  O   UNL     1      -9.457  13.970  67.580  1.00  0.00    -0.200 OA 
BRANCH  11  13
HETATM   13  C   UNL     1     -11.051  14.683  69.145  1.00  0.00    -0.285 A  
HETATM   14  C   UNL     1     -11.297  13.377  69.594  1.00  0.00    -0.206 A  
HETATM   15  C   UNL     1     -12.205  13.145  70.641  1.00  0.00    -0.402 A  
HETATM   16  C   UNL     1     -12.885  14.213  71.242  1.00  0.00    -0.429 A  
HETATM   17  C   UNL     1     -13.871  13.999  72.354  1.00  0.00    -0.653 C  
HETATM   18  C   UNL     1     -12.633  15.513  70.792  1.00  0.00    -0.505 A  
HETATM   19  C   UNL     1     -11.742  15.743  69.742  1.00  0.00    -0.355 A  
ENDBRANCH  11  13
ENDBRANCH   5  11
TORSDOF 3
ENDMDL
MODEL       67
REMARK 921   NORMALIZED FREE ENERGY PREDICTED BY IDOCK:   -4.90 KCAL/MOL
REMARK 922        TOTAL FREE ENERGY PREDICTED BY IDOCK:   -6.40 KCAL/MOL
REMARK 923 INTER-LIGAND FREE ENERGY PREDICTED BY IDOCK:   -6.00 KCAL/MOL
REMARK 924 INTRA-LIGAND FREE ENERGY PREDICTED BY IDOCK:   -0.40 KCAL/MOL
REMARK 927      BINDING AFFINITY PREDICTED BY RF-SCORE:    0.00 PKD
ROOT
HETATM    1  C   UNL     1      -8.748   9.879  69.767  1.00  0.00    -0.212 C  
HETATM    2  N   UNL     1      -9.598  10.331  68.679  1.00  0.00    -0.161 NA 
HETATM    3  C   UNL     1      -9.169  10.555  67.379  1.00  0.00    -0.142 A  
HETATM    4  C   UNL     1     -10.265  10.973  66.652  1.00  0.00    -0.280 A  
HETATM    5  C   UNL     1     -10.953  10.627  68.793  1.00  0.00    -0.246 A  
HETATM    6  C   UNL     1     -11.362  11.046  67.534  1.00  0.00    -0.332 A  
ENDROOT
BRANCH   3   7
HETATM    7  C   UNL     1      -7.734  10.469  66.921  1.00  0.00    -0.114 C  
HETATM    8  O   UNL     1      -5.783  11.831  66.568  1.00  0.00    -0.232 OA 
HETATM    9  O   UNL     1      -7.492  12.786  67.666  1.00  0.00    -0.118 OA 
HETATM   10  C   UNL     1      -6.919  11.746  67.025  1.00  0.00    -0.135 C  
ENDBRANCH   3   7
BRANCH   5  11
HETATM   11  C   UNL     1     -11.751  10.575  70.024  1.00  0.00    -0.312 C  
HETATM   12  O   UNL     1     -11.994   9.526  70.615  1.00  0.00    -0.263 OA 
BRANCH  11  13
HETATM   13  C   UNL     1     -12.302  11.850  70.600  1.00  0.00    -0.405 A  
HETATM   14  C   UNL     1     -11.964  13.087  70.033  1.00  0.00    -0.383 A  
HETATM   15  C   UNL     1     -12.459  14.281  70.585  1.00  0.00    -0.428 A  
HETATM   16  C   UNL     1     -13.287  14.251  71.715  1.00  0.00    -0.450 A  
HETATM   17  C   UNL     1     -13.822  15.508  72.339  1.00  0.00    -0.662 C  
HETATM   18  C   UNL     1     -13.623  13.014  72.275  1.00  0.00    -0.643 A  
HETATM   19  C   UNL     1     -13.120  11.828  71.736  1.00  0.00    -0.480 A  
ENDBRANCH  11  13
ENDBRANCH   5  11
TORSDOF 3
ENDMDL
MODEL       68
REMARK 921   NORMALIZED FREE ENERGY PREDICTED BY IDOCK:   -4.90 KCAL/MOL
REMARK 922        TOTAL FREE ENERGY PREDICTED BY IDOCK:   -6.39 KCAL/MOL
REMARK 923 INTER-LIGAND FREE ENERGY PREDICTED BY IDOCK:   -5.79 KCAL/MOL
REMARK 924 INTRA-LIGAND FREE ENERGY PREDICTED BY IDOCK:   -0.60 KCAL/MOL
REMARK 927      BINDING AFFINITY PREDICTED BY RF-SCORE:    0.00 PKD
ROOT
HETATM    1  C   UNL     1     -10.773   9.461  70.491  1.00  0.00    -0.276 C  
HETATM    2  N   UNL     1     -10.791   8.393  69.507  1.00  0.00    -0.173 NA 
HETATM    3  C   UNL     1     -11.329   7.132  69.717  1.00  0.00    -0.123 A  
HETATM    4  C   UNL     1     -11.152   6.412  68.552  1.00  0.00    -0.385 A  
HETATM    5  C   UNL     1     -10.250   8.476  68.228  1.00  0.00    -0.205 A  
HETATM    6  C   UNL     1     -10.459   7.234  67.642  1.00  0.00    -0.310 A  
ENDROOT
BRANCH   3   7
HETATM    7  C   UNL     1     -11.879   6.640  71.033  1.00  0.00    -0.427 C  
HETATM    8  O   UNL     1     -11.249   5.396  72.993  1.00  0.00    -0.288 OA 
HETATM    9  O   UNL     1      -9.592   5.979  71.595  1.00  0.00    -0.152 OA 
HETATM   10  C   UNL     1     -10.892   5.947  71.955  1.00  0.00    -0.254 C  
ENDBRANCH   3   7
BRANCH   5  11
HETATM   11  C   UNL     1      -9.538   9.627  67.660  1.00  0.00    -0.142 C  
HETATM   12  O   UNL     1      -8.417   9.965  68.034  1.00  0.00    -0.117 OA 
BRANCH  11  13
HETATM   13  C   UNL     1     -10.191  10.438  66.576  1.00  0.00    -0.289 A  
HETATM   14  C   UNL     1      -9.888  10.194  65.229  1.00  0.00    -0.388 A  
HETATM   15  C   UNL     1     -10.479  10.968  64.216  1.00  0.00    -0.427 A  
HETATM   16  C   UNL     1     -11.371  11.999  64.539  1.00  0.00    -0.393 A  
HETATM   17  C   UNL     1     -12.011  12.853  63.482  1.00  0.00    -0.629 C  
HETATM   18  C   UNL     1     -11.673  12.236  65.884  1.00  0.00    -0.451 A  
HETATM   19  C   UNL     1     -11.074  11.477  66.892  1.00  0.00    -0.366 A  
ENDBRANCH  11  13
ENDBRANCH   5  11
TORSDOF 3
ENDMDL
MODEL       69
REMARK 921   NORMALIZED FREE ENERGY PREDICTED BY IDOCK:   -4.89 KCAL/MOL
REMARK 922        TOTAL FREE ENERGY PREDICTED BY IDOCK:   -6.38 KCAL/MOL
REMARK 923 INTER-LIGAND FREE ENERGY PREDICTED BY IDOCK:   -5.95 KCAL/MOL
REMARK 924 INTRA-LIGAND FREE ENERGY PREDICTED BY IDOCK:   -0.43 KCAL/MOL
REMARK 927      BINDING AFFINITY PREDICTED BY RF-SCORE:    0.00 PKD
ROOT
HETATM    1  C   UNL     1      -9.264   8.851  69.343  1.00  0.00    -0.146 C  
HETATM    2  N   UNL     1     -10.404   9.667  69.724  1.00  0.00    -0.223 NA 
HETATM    3  C   UNL     1     -10.967   9.699  70.991  1.00  0.00    -0.361 A  
HETATM    4  C   UNL     1     -12.021  10.590  70.949  1.00  0.00    -0.481 A  
HETATM    5  C   UNL     1     -11.104  10.511  68.868  1.00  0.00    -0.261 A  
HETATM    6  C   UNL     1     -12.123  11.070  69.628  1.00  0.00    -0.411 A  
ENDROOT
BRANCH   3   7
HETATM    7  C   UNL     1     -10.554   8.810  72.138  1.00  0.00    -0.386 C  
HETATM    8  O   UNL     1     -11.159   6.766  73.252  1.00  0.00    -0.243 OA 
HETATM    9  O   UNL     1     -12.176   7.185  71.296  1.00  0.00    -0.328 OA 
HETATM   10  C   UNL     1     -11.320   7.508  72.287  1.00  0.00    -0.292 C  
ENDBRANCH   3   7
BRANCH   5  11
HETATM   11  C   UNL     1     -10.848  10.698  67.435  1.00  0.00    -0.296 C  
HETATM   12  O   UNL     1     -10.636   9.761  66.670  1.00  0.00    -0.189 OA 
BRANCH  11  13
HETATM   13  C   UNL     1     -10.842  12.088  66.861  1.00  0.00    -0.302 A  
HETATM   14  C   UNL     1      -9.908  13.034  67.309  1.00  0.00    -0.227 A  
HETATM   15  C   UNL     1      -9.917  14.341  66.792  1.00  0.00    -0.266 A  
HETATM   16  C   UNL     1     -10.865  14.718  65.832  1.00  0.00    -0.331 A  
HETATM   17  C   UNL     1     -10.910  16.110  65.268  1.00  0.00    -0.349 C  
HETATM   18  C   UNL     1     -11.792  13.770  65.387  1.00  0.00    -0.371 A  
HETATM   19  C   UNL     1     -11.794  12.476  65.911  1.00  0.00    -0.489 A  
ENDBRANCH  11  13
ENDBRANCH   5  11
TORSDOF 3
ENDMDL
MODEL       70
REMARK 921   NORMALIZED FREE ENERGY PREDICTED BY IDOCK:   -4.87 KCAL/MOL
REMARK 922        TOTAL FREE ENERGY PREDICTED BY IDOCK:   -6.36 KCAL/MOL
REMARK 923 INTER-LIGAND FREE ENERGY PREDICTED BY IDOCK:   -5.99 KCAL/MOL
REMARK 924 INTRA-LIGAND FREE ENERGY PREDICTED BY IDOCK:   -0.37 KCAL/MOL
REMARK 927      BINDING AFFINITY PREDICTED BY RF-SCORE:    0.00 PKD
ROOT
HETATM    1  C   UNL     1     -10.763   9.346  68.852  1.00  0.00    -0.178 C  
HETATM    2  N   UNL     1     -10.519   8.932  70.223  1.00  0.00    -0.202 NA 
HETATM    3  C   UNL     1      -9.402   8.232  70.653  1.00  0.00    -0.156 A  
HETATM    4  C   UNL     1      -9.541   8.031  72.011  1.00  0.00    -0.262 A  
HETATM    5  C   UNL     1     -11.382   9.159  71.291  1.00  0.00    -0.336 A  
HETATM    6  C   UNL     1     -10.779   8.579  72.400  1.00  0.00    -0.376 A  
ENDROOT
BRANCH   3   7
HETATM    7  C   UNL     1      -8.322   7.696  69.744  1.00  0.00    -0.133 C  
HETATM    8  O   UNL     1      -7.663   5.701  68.573  1.00  0.00    -0.086 OA 
HETATM    9  O   UNL     1      -9.723   5.710  69.463  1.00  0.00    -0.139 OA 
HETATM   10  C   UNL     1      -8.529   6.288  69.215  1.00  0.00    -0.124 C  
ENDBRANCH   3   7
BRANCH   5  11
HETATM   11  C   UNL     1     -12.694   9.812  71.222  1.00  0.00    -0.369 C  
HETATM   12  O   UNL     1     -13.747   9.182  71.162  1.00  0.00    -0.279 OA 
BRANCH  11  13
HETATM   13  C   UNL     1     -12.773  11.313  71.225  1.00  0.00    -0.510 A  
HETATM   14  C   UNL     1     -12.066  12.061  70.271  1.00  0.00    -0.395 A  
HETATM   15  C   UNL     1     -12.119  13.464  70.287  1.00  0.00    -0.419 A  
HETATM   16  C   UNL     1     -12.868  14.136  71.263  1.00  0.00    -0.429 A  
HETATM   17  C   UNL     1     -12.935  15.635  71.317  1.00  0.00    -0.556 C  
HETATM   18  C   UNL     1     -13.572  13.386  72.210  1.00  0.00    -0.703 A  
HETATM   19  C   UNL     1     -13.509  11.991  72.204  1.00  0.00    -0.338 A  
ENDBRANCH  11  13
ENDBRANCH   5  11
TORSDOF 3
ENDMDL
MODEL       71
REMARK 921   NORMALIZED FREE ENERGY PREDICTED BY IDOCK:   -4.86 KCAL/MOL
REMARK 922        TOTAL FREE ENERGY PREDICTED BY IDOCK:   -6.35 KCAL/MOL
REMARK 923 INTER-LIGAND FREE ENERGY PREDICTED BY IDOCK:   -5.69 KCAL/MOL
REMARK 924 INTRA-LIGAND FREE ENERGY PREDICTED BY IDOCK:   -0.66 KCAL/MOL
REMARK 927      BINDING AFFINITY PREDICTED BY RF-SCORE:    0.00 PKD
ROOT
HETATM    1  C   UNL     1      -9.018   8.577  69.755  1.00  0.00    -0.145 C  
HETATM    2  N   UNL     1      -9.815   7.830  68.799  1.00  0.00    -0.165 NA 
HETATM    3  C   UNL     1     -10.503   6.659  69.082  1.00  0.00    -0.219 A  
HETATM    4  C   UNL     1     -11.133   6.262  67.921  1.00  0.00    -0.360 A  
HETATM    5  C   UNL     1      -9.982   8.169  67.459  1.00  0.00    -0.192 A  
HETATM    6  C   UNL     1     -10.787   7.180  66.910  1.00  0.00    -0.307 A  
ENDROOT
BRANCH   3   7
HETATM    7  C   UNL     1     -10.438   5.923  70.398  1.00  0.00    -0.324 C  
HETATM    8  O   UNL     1     -11.480   5.841  72.565  1.00  0.00    -0.293 OA 
HETATM    9  O   UNL     1     -12.503   7.088  71.004  1.00  0.00    -0.376 OA 
HETATM   10  C   UNL     1     -11.505   6.280  71.418  1.00  0.00    -0.293 C  
ENDBRANCH   3   7
BRANCH   5  11
HETATM   11  C   UNL     1      -9.359   9.305  66.769  1.00  0.00    -0.156 C  
HETATM   12  O   UNL     1      -8.177   9.311  66.432  1.00  0.00    -0.109 OA 
BRANCH  11  13
HETATM   13  C   UNL     1     -10.186  10.520  66.452  1.00  0.00    -0.296 A  
HETATM   14  C   UNL     1     -10.769  11.268  67.485  1.00  0.00    -0.275 A  
HETATM   15  C   UNL     1     -11.563  12.389  67.189  1.00  0.00    -0.435 A  
HETATM   16  C   UNL     1     -11.791  12.768  65.860  1.00  0.00    -0.490 A  
HETATM   17  C   UNL     1     -12.644  13.953  65.508  1.00  0.00    -0.560 C  
HETATM   18  C   UNL     1     -11.204  12.020  64.833  1.00  0.00    -0.374 A  
HETATM   19  C   UNL     1     -10.427  10.896  65.126  1.00  0.00    -0.316 A  
ENDBRANCH  11  13
ENDBRANCH   5  11
TORSDOF 3
ENDMDL
MODEL       72
REMARK 921   NORMALIZED FREE ENERGY PREDICTED BY IDOCK:   -4.85 KCAL/MOL
REMARK 922        TOTAL FREE ENERGY PREDICTED BY IDOCK:   -6.34 KCAL/MOL
REMARK 923 INTER-LIGAND FREE ENERGY PREDICTED BY IDOCK:   -5.78 KCAL/MOL
REMARK 924 INTRA-LIGAND FREE ENERGY PREDICTED BY IDOCK:   -0.57 KCAL/MOL
REMARK 927      BINDING AFFINITY PREDICTED BY RF-SCORE:    0.00 PKD
ROOT
HETATM    1  C   UNL     1     -11.178   6.681  69.108  1.00  0.00    -0.242 C  
HETATM    2  N   UNL     1     -10.224   7.350  69.976  1.00  0.00    -0.205 NA 
HETATM    3  C   UNL     1      -9.362   6.708  70.852  1.00  0.00    -0.157 A  
HETATM    4  C   UNL     1      -8.624   7.683  71.490  1.00  0.00    -0.126 A  
HETATM    5  C   UNL     1     -10.059   8.729  70.068  1.00  0.00    -0.190 A  
HETATM    6  C   UNL     1      -9.075   8.934  71.026  1.00  0.00    -0.303 A  
ENDROOT
BRANCH   3   7
HETATM    7  C   UNL     1      -9.359   5.222  71.119  1.00  0.00    -0.192 C  
HETATM    8  O   UNL     1     -10.376   3.558  72.527  1.00  0.00    -0.168 OA 
HETATM    9  O   UNL     1     -11.281   5.611  72.581  1.00  0.00    -0.269 OA 
HETATM   10  C   UNL     1     -10.369   4.722  72.136  1.00  0.00    -0.190 C  
ENDBRANCH   3   7
BRANCH   5  11
HETATM   11  C   UNL     1     -10.834   9.745  69.346  1.00  0.00    -0.232 C  
HETATM   12  O   UNL     1     -10.854   9.819  68.119  1.00  0.00    -0.242 OA 
BRANCH  11  13
HETATM   13  C   UNL     1     -11.642  10.747  70.123  1.00  0.00    -0.424 A  
HETATM   14  C   UNL     1     -11.591  12.109  69.790  1.00  0.00    -0.334 A  
HETATM   15  C   UNL     1     -12.327  13.049  70.531  1.00  0.00    -0.365 A  
HETATM   16  C   UNL     1     -13.112  12.640  71.617  1.00  0.00    -0.421 A  
HETATM   17  C   UNL     1     -13.900  13.620  72.438  1.00  0.00    -0.691 C  
HETATM   18  C   UNL     1     -13.161  11.281  71.943  1.00  0.00    -0.510 A  
HETATM   19  C   UNL     1     -12.418  10.347  71.217  1.00  0.00    -0.521 A  
ENDBRANCH  11  13
ENDBRANCH   5  11
TORSDOF 3
ENDMDL
MODEL       73
REMARK 921   NORMALIZED FREE ENERGY PREDICTED BY IDOCK:   -4.84 KCAL/MOL
REMARK 922        TOTAL FREE ENERGY PREDICTED BY IDOCK:   -6.33 KCAL/MOL
REMARK 923 INTER-LIGAND FREE ENERGY PREDICTED BY IDOCK:   -5.72 KCAL/MOL
REMARK 924 INTRA-LIGAND FREE ENERGY PREDICTED BY IDOCK:   -0.60 KCAL/MOL
REMARK 927      BINDING AFFINITY PREDICTED BY RF-SCORE:    0.00 PKD
ROOT
HETATM    1  C   UNL     1     -12.024  12.485  65.399  1.00  0.00    -0.437 C  
HETATM    2  N   UNL     1     -10.722  12.491  66.044  1.00  0.00    -0.257 NA 
HETATM    3  C   UNL     1      -9.686  11.619  65.744  1.00  0.00    -0.236 A  
HETATM    4  C   UNL     1      -8.626  11.944  66.567  1.00  0.00    -0.126 A  
HETATM    5  C   UNL     1     -10.342  13.352  67.068  1.00  0.00    -0.247 A  
HETATM    6  C   UNL     1      -9.042  12.996  67.406  1.00  0.00    -0.201 A  
ENDROOT
BRANCH   3   7
HETATM    7  C   UNL     1      -9.787  10.463  64.780  1.00  0.00    -0.406 C  
HETATM    8  O   UNL     1      -9.826   9.969  62.426  1.00  0.00    -0.081 OA 
HETATM    9  O   UNL     1      -9.264  12.064  63.005  1.00  0.00    -0.207 OA 
HETATM   10  C   UNL     1      -9.637  10.803  63.308  1.00  0.00    -0.350 C  
ENDBRANCH   3   7
BRANCH   5  11
HETATM   11  C   UNL     1     -11.186  14.371  67.703  1.00  0.00    -0.313 C  
HETATM   12  O   UNL     1     -12.176  14.090  68.374  1.00  0.00    -0.332 OA 
BRANCH  11  13
HETATM   13  C   UNL     1     -10.840  15.825  67.535  1.00  0.00    -0.315 A  
HETATM   14  C   UNL     1     -10.609  16.355  66.257  1.00  0.00    -0.243 A  
HETATM   15  C   UNL     1     -10.262  17.707  66.101  1.00  0.00    -0.345 A  
HETATM   16  C   UNL     1     -10.130  18.541  67.220  1.00  0.00    -0.376 A  
HETATM   17  C   UNL     1      -9.747  19.987  67.090  1.00  0.00    -0.545 C  
HETATM   18  C   UNL     1     -10.364  18.007  68.492  1.00  0.00    -0.359 A  
HETATM   19  C   UNL     1     -10.695  16.660  68.649  1.00  0.00    -0.349 A  
ENDBRANCH  11  13
ENDBRANCH   5  11
TORSDOF 3
ENDMDL
MODEL       74
REMARK 921   NORMALIZED FREE ENERGY PREDICTED BY IDOCK:   -4.84 KCAL/MOL
REMARK 922        TOTAL FREE ENERGY PREDICTED BY IDOCK:   -6.33 KCAL/MOL
REMARK 923 INTER-LIGAND FREE ENERGY PREDICTED BY IDOCK:   -6.06 KCAL/MOL
REMARK 924 INTRA-LIGAND FREE ENERGY PREDICTED BY IDOCK:   -0.26 KCAL/MOL
REMARK 927      BINDING AFFINITY PREDICTED BY RF-SCORE:    0.00 PKD
ROOT
HETATM    1  C   UNL     1     -11.023  15.509  65.642  1.00  0.00    -0.303 C  
HETATM    2  N   UNL     1     -11.282  14.370  66.506  1.00  0.00    -0.332 NA 
HETATM    3  C   UNL     1     -11.449  13.064  66.068  1.00  0.00    -0.335 A  
HETATM    4  C   UNL     1     -11.675  12.283  67.183  1.00  0.00    -0.396 A  
HETATM    5  C   UNL     1     -11.425  14.432  67.889  1.00  0.00    -0.321 A  
HETATM    6  C   UNL     1     -11.689  13.134  68.306  1.00  0.00    -0.384 A  
ENDROOT
BRANCH   3   7
HETATM    7  C   UNL     1     -11.495  12.644  64.619  1.00  0.00    -0.376 C  
HETATM    8  O   UNL     1     -10.158  11.595  62.917  1.00  0.00    -0.325 OA 
HETATM    9  O   UNL     1      -9.371  11.499  65.017  1.00  0.00    -0.191 OA 
HETATM   10  C   UNL     1     -10.289  11.878  64.105  1.00  0.00    -0.336 C  
ENDBRANCH   3   7
BRANCH   5  11
HETATM   11  C   UNL     1     -11.380  15.646  68.711  1.00  0.00    -0.349 C  
HETATM   12  O   UNL     1     -12.275  15.952  69.495  1.00  0.00    -0.294 OA 
BRANCH  11  13
HETATM   13  C   UNL     1     -10.196  16.567  68.603  1.00  0.00    -0.264 A  
HETATM   14  C   UNL     1      -8.896  16.074  68.789  1.00  0.00    -0.227 A  
HETATM   15  C   UNL     1      -7.791  16.937  68.713  1.00  0.00    -0.250 A  
HETATM   16  C   UNL     1      -7.973  18.303  68.462  1.00  0.00    -0.324 A  
HETATM   17  C   UNL     1      -6.814  19.257  68.386  1.00  0.00    -0.309 C  
HETATM   18  C   UNL     1      -9.271  18.790  68.274  1.00  0.00    -0.366 A  
HETATM   19  C   UNL     1     -10.371  17.935  68.364  1.00  0.00    -0.380 A  
ENDBRANCH  11  13
ENDBRANCH   5  11
TORSDOF 3
ENDMDL
MODEL       75
REMARK 921   NORMALIZED FREE ENERGY PREDICTED BY IDOCK:   -4.83 KCAL/MOL
REMARK 922        TOTAL FREE ENERGY PREDICTED BY IDOCK:   -6.32 KCAL/MOL
REMARK 923 INTER-LIGAND FREE ENERGY PREDICTED BY IDOCK:   -6.35 KCAL/MOL
REMARK 924 INTRA-LIGAND FREE ENERGY PREDICTED BY IDOCK:    0.03 KCAL/MOL
REMARK 927      BINDING AFFINITY PREDICTED BY RF-SCORE:    0.00 PKD
ROOT
HETATM    1  C   UNL     1     -10.949  16.123  69.757  1.00  0.00    -0.349 C  
HETATM    2  N   UNL     1     -11.298  14.715  69.674  1.00  0.00    -0.270 NA 
HETATM    3  C   UNL     1     -12.000  14.013  70.642  1.00  0.00    -0.305 A  
HETATM    4  C   UNL     1     -12.128  12.714  70.195  1.00  0.00    -0.368 A  
HETATM    5  C   UNL     1     -10.956  13.868  68.623  1.00  0.00    -0.261 A  
HETATM    6  C   UNL     1     -11.457  12.618  68.960  1.00  0.00    -0.354 A  
ENDROOT
BRANCH   3   7
HETATM    7  C   UNL     1     -12.413  14.576  71.980  1.00  0.00    -0.391 C  
HETATM    8  O   UNL     1     -14.048  16.021  72.993  1.00  0.00    -0.508 OA 
HETATM    9  O   UNL     1     -14.411  15.433  70.857  1.00  0.00    -0.379 OA 
HETATM   10  C   UNL     1     -13.683  15.409  71.993  1.00  0.00    -0.509 C  
ENDBRANCH   3   7
BRANCH   5  11
HETATM   11  C   UNL     1     -10.158  14.227  67.445  1.00  0.00    -0.247 C  
HETATM   12  O   UNL     1      -9.531  15.281  67.362  1.00  0.00    -0.197 OA 
BRANCH  11  13
HETATM   13  C   UNL     1     -10.094  13.278  66.281  1.00  0.00    -0.294 A  
HETATM   14  C   UNL     1      -9.414  12.057  66.399  1.00  0.00    -0.238 A  
HETATM   15  C   UNL     1      -9.332  11.180  65.304  1.00  0.00    -0.243 A  
HETATM   16  C   UNL     1      -9.918  11.519  64.078  1.00  0.00    -0.341 A  
HETATM   17  C   UNL     1      -9.839  10.611  62.884  1.00  0.00    -0.271 C  
HETATM   18  C   UNL     1     -10.597  12.736  63.966  1.00  0.00    -0.446 A  
HETATM   19  C   UNL     1     -10.667  13.615  65.049  1.00  0.00    -0.374 A  
ENDBRANCH  11  13
ENDBRANCH   5  11
TORSDOF 3
ENDMDL
MODEL       76
REMARK 921   NORMALIZED FREE ENERGY PREDICTED BY IDOCK:   -4.83 KCAL/MOL
REMARK 922        TOTAL FREE ENERGY PREDICTED BY IDOCK:   -6.32 KCAL/MOL
REMARK 923 INTER-LIGAND FREE ENERGY PREDICTED BY IDOCK:   -5.94 KCAL/MOL
REMARK 924 INTRA-LIGAND FREE ENERGY PREDICTED BY IDOCK:   -0.38 KCAL/MOL
REMARK 927      BINDING AFFINITY PREDICTED BY RF-SCORE:    0.00 PKD
ROOT
HETATM    1  C   UNL     1      -7.749  16.067  67.480  1.00  0.00    -0.153 C  
HETATM    2  N   UNL     1      -8.785  17.023  67.827  1.00  0.00    -0.219 NA 
HETATM    3  C   UNL     1      -8.558  18.265  68.402  1.00  0.00    -0.299 A  
HETATM    4  C   UNL     1      -9.787  18.868  68.575  1.00  0.00    -0.455 A  
HETATM    5  C   UNL     1     -10.151  16.819  67.654  1.00  0.00    -0.275 A  
HETATM    6  C   UNL     1     -10.774  17.962  68.140  1.00  0.00    -0.287 A  
ENDROOT
BRANCH   3   7
HETATM    7  C   UNL     1      -7.209  18.767  68.856  1.00  0.00    -0.333 C  
HETATM    8  O   UNL     1      -5.483  20.333  68.262  1.00  0.00    -0.201 OA 
HETATM    9  O   UNL     1      -7.424  20.504  67.148  1.00  0.00    -0.300 OA 
HETATM   10  C   UNL     1      -6.624  19.924  68.066  1.00  0.00    -0.254 C  
ENDBRANCH   3   7
BRANCH   5  11
HETATM   11  C   UNL     1     -10.787  15.603  67.135  1.00  0.00    -0.297 C  
HETATM   12  O   UNL     1     -10.991  15.418  65.938  1.00  0.00    -0.325 OA 
BRANCH  11  13
HETATM   13  C   UNL     1     -11.215  14.527  68.095  1.00  0.00    -0.301 A  
HETATM   14  C   UNL     1     -11.867  14.863  69.290  1.00  0.00    -0.350 A  
HETATM   15  C   UNL     1     -12.245  13.860  70.199  1.00  0.00    -0.425 A  
HETATM   16  C   UNL     1     -11.966  12.514  69.929  1.00  0.00    -0.371 A  
HETATM   17  C   UNL     1     -12.345  11.419  70.884  1.00  0.00    -0.483 C  
HETATM   18  C   UNL     1     -11.318  12.185  68.734  1.00  0.00    -0.339 A  
HETATM   19  C   UNL     1     -10.928  13.181  67.837  1.00  0.00    -0.271 A  
ENDBRANCH  11  13
ENDBRANCH   5  11
TORSDOF 3
ENDMDL
MODEL       77
REMARK 921   NORMALIZED FREE ENERGY PREDICTED BY IDOCK:   -4.82 KCAL/MOL
REMARK 922        TOTAL FREE ENERGY PREDICTED BY IDOCK:   -6.31 KCAL/MOL
REMARK 923 INTER-LIGAND FREE ENERGY PREDICTED BY IDOCK:   -5.63 KCAL/MOL
REMARK 924 INTRA-LIGAND FREE ENERGY PREDICTED BY IDOCK:   -0.67 KCAL/MOL
REMARK 927      BINDING AFFINITY PREDICTED BY RF-SCORE:    0.00 PKD
ROOT
HETATM    1  C   UNL     1      -9.123  13.299  68.030  1.00  0.00    -0.202 C  
HETATM    2  N   UNL     1     -10.343  13.281  67.241  1.00  0.00    -0.246 NA 
HETATM    3  C   UNL     1     -11.350  14.232  67.315  1.00  0.00    -0.334 A  
HETATM    4  C   UNL     1     -12.329  13.863  66.416  1.00  0.00    -0.468 A  
HETATM    5  C   UNL     1     -10.684  12.295  66.319  1.00  0.00    -0.259 A  
HETATM    6  C   UNL     1     -11.931  12.650  65.821  1.00  0.00    -0.503 A  
ENDROOT
BRANCH   3   7
HETATM    7  C   UNL     1     -11.384  15.371  68.305  1.00  0.00    -0.354 C  
HETATM    8  O   UNL     1     -12.148  15.924  70.517  1.00  0.00    -0.375 OA 
HETATM    9  O   UNL     1     -12.221  13.756  69.940  1.00  0.00    -0.322 OA 
HETATM   10  C   UNL     1     -11.954  15.051  69.675  1.00  0.00    -0.321 C  
ENDBRANCH   3   7
BRANCH   5  11
HETATM   11  C   UNL     1      -9.904  11.091  66.009  1.00  0.00    -0.229 C  
HETATM   12  O   UNL     1      -9.064  11.056  65.113  1.00  0.00    -0.205 OA 
BRANCH  11  13
HETATM   13  C   UNL     1     -10.129   9.840  66.811  1.00  0.00    -0.295 A  
HETATM   14  C   UNL     1      -9.838   8.583  66.260  1.00  0.00    -0.285 A  
HETATM   15  C   UNL     1     -10.071   7.411  66.999  1.00  0.00    -0.328 A  
HETATM   16  C   UNL     1     -10.607   7.481  68.291  1.00  0.00    -0.185 A  
HETATM   17  C   UNL     1     -10.880   6.248  69.104  1.00  0.00    -0.403 C  
HETATM   18  C   UNL     1     -10.893   8.737  68.838  1.00  0.00    -0.040 A  
HETATM   19  C   UNL     1     -10.676   9.901  68.098  1.00  0.00    -0.279 A  
ENDBRANCH  11  13
ENDBRANCH   5  11
TORSDOF 3
ENDMDL
MODEL       78
REMARK 921   NORMALIZED FREE ENERGY PREDICTED BY IDOCK:   -4.80 KCAL/MOL
REMARK 922        TOTAL FREE ENERGY PREDICTED BY IDOCK:   -6.28 KCAL/MOL
REMARK 923 INTER-LIGAND FREE ENERGY PREDICTED BY IDOCK:   -5.83 KCAL/MOL
REMARK 924 INTRA-LIGAND FREE ENERGY PREDICTED BY IDOCK:   -0.46 KCAL/MOL
REMARK 927      BINDING AFFINITY PREDICTED BY RF-SCORE:    0.00 PKD
ROOT
HETATM    1  C   UNL     1     -11.244  10.259  67.918  1.00  0.00    -0.220 C  
HETATM    2  N   UNL     1     -11.604  11.327  68.834  1.00  0.00    -0.290 NA 
HETATM    3  C   UNL     1     -11.906  11.152  70.176  1.00  0.00    -0.365 A  
HETATM    4  C   UNL     1     -12.193  12.396  70.698  1.00  0.00    -0.368 A  
HETATM    5  C   UNL     1     -11.720  12.671  68.490  1.00  0.00    -0.330 A  
HETATM    6  C   UNL     1     -12.106  13.331  69.648  1.00  0.00    -0.331 A  
ENDROOT
BRANCH   3   7
HETATM    7  C   UNL     1     -12.015   9.813  70.864  1.00  0.00    -0.413 C  
HETATM    8  O   UNL     1     -10.675   7.947  71.580  1.00  0.00    -0.222 OA 
HETATM    9  O   UNL     1      -9.569   9.780  70.905  1.00  0.00    -0.122 OA 
HETATM   10  C   UNL     1     -10.707   9.094  71.141  1.00  0.00    -0.310 C  
ENDBRANCH   3   7
BRANCH   5  11
HETATM   11  C   UNL     1     -11.542  13.240  67.149  1.00  0.00    -0.357 C  
HETATM   12  O   UNL     1     -12.264  12.945  66.200  1.00  0.00    -0.456 OA 
BRANCH  11  13
HETATM   13  C   UNL     1     -10.434  14.229  66.908  1.00  0.00    -0.272 A  
HETATM   14  C   UNL     1      -9.188  14.061  67.531  1.00  0.00    -0.197 A  
HETATM   15  C   UNL     1      -8.161  14.997  67.327  1.00  0.00    -0.237 A  
HETATM   16  C   UNL     1      -8.370  16.115  66.508  1.00  0.00    -0.352 A  
HETATM   17  C   UNL     1      -7.298  17.141  66.278  1.00  0.00    -0.326 C  
HETATM   18  C   UNL     1      -9.614  16.276  65.888  1.00  0.00    -0.336 A  
HETATM   19  C   UNL     1     -10.641  15.354  66.102  1.00  0.00    -0.321 A  
ENDBRANCH  11  13
ENDBRANCH   5  11
TORSDOF 3
ENDMDL
MODEL       79
REMARK 921   NORMALIZED FREE ENERGY PREDICTED BY IDOCK:   -4.78 KCAL/MOL
REMARK 922        TOTAL FREE ENERGY PREDICTED BY IDOCK:   -6.26 KCAL/MOL
REMARK 923 INTER-LIGAND FREE ENERGY PREDICTED BY IDOCK:   -6.09 KCAL/MOL
REMARK 924 INTRA-LIGAND FREE ENERGY PREDICTED BY IDOCK:   -0.17 KCAL/MOL
REMARK 927      BINDING AFFINITY PREDICTED BY RF-SCORE:    0.00 PKD
ROOT
HETATM    1  C   UNL     1      -9.775  10.372  63.962  1.00  0.00    -0.311 C  
HETATM    2  N   UNL     1     -10.244  10.664  65.305  1.00  0.00    -0.290 NA 
HETATM    3  C   UNL     1     -10.841  11.854  65.695  1.00  0.00    -0.286 A  
HETATM    4  C   UNL     1     -11.141  11.742  67.037  1.00  0.00    -0.358 A  
HETATM    5  C   UNL     1     -10.140   9.803  66.393  1.00  0.00    -0.243 A  
HETATM    6  C   UNL     1     -10.682  10.484  67.475  1.00  0.00    -0.326 A  
ENDROOT
BRANCH   3   7
HETATM    7  C   UNL     1     -10.993  13.068  64.811  1.00  0.00    -0.349 C  
HETATM    8  O   UNL     1     -12.430  14.001  63.122  1.00  0.00    -0.733 OA 
HETATM    9  O   UNL     1     -13.195  12.191  64.206  1.00  0.00    -0.768 OA 
HETATM   10  C   UNL     1     -12.255  13.129  63.969  1.00  0.00    -0.414 C  
ENDBRANCH   3   7
BRANCH   5  11
HETATM   11  C   UNL     1      -9.509   8.477  66.392  1.00  0.00    -0.232 C  
HETATM   12  O   UNL     1      -8.859   8.051  65.441  1.00  0.00    -0.126 OA 
BRANCH  11  13
HETATM   13  C   UNL     1      -9.656   7.590  67.597  1.00  0.00    -0.171 A  
HETATM   14  C   UNL     1      -8.595   7.446  68.504  1.00  0.00    -0.128 A  
HETATM   15  C   UNL     1      -8.721   6.598  69.616  1.00  0.00    -0.140 A  
HETATM   16  C   UNL     1      -9.903   5.877  69.829  1.00  0.00    -0.217 A  
HETATM   17  C   UNL     1     -10.067   4.952  71.001  1.00  0.00    -0.288 C  
HETATM   18  C   UNL     1     -10.959   6.026  68.924  1.00  0.00    -0.395 A  
HETATM   19  C   UNL     1     -10.829   6.857  67.809  1.00  0.00    -0.312 A  
ENDBRANCH  11  13
ENDBRANCH   5  11
TORSDOF 3
ENDMDL
MODEL       80
REMARK 921   NORMALIZED FREE ENERGY PREDICTED BY IDOCK:   -4.76 KCAL/MOL
REMARK 922        TOTAL FREE ENERGY PREDICTED BY IDOCK:   -6.24 KCAL/MOL
REMARK 923 INTER-LIGAND FREE ENERGY PREDICTED BY IDOCK:   -5.74 KCAL/MOL
REMARK 924 INTRA-LIGAND FREE ENERGY PREDICTED BY IDOCK:   -0.50 KCAL/MOL
REMARK 927      BINDING AFFINITY PREDICTED BY RF-SCORE:    0.00 PKD
ROOT
HETATM    1  C   UNL     1      -9.044  15.388  68.696  1.00  0.00    -0.195 C  
HETATM    2  N   UNL     1      -9.758  15.429  67.432  1.00  0.00    -0.214 NA 
HETATM    3  C   UNL     1      -9.491  16.314  66.398  1.00  0.00    -0.294 A  
HETATM    4  C   UNL     1     -10.379  16.035  65.379  1.00  0.00    -0.386 A  
HETATM    5  C   UNL     1     -10.826  14.603  67.090  1.00  0.00    -0.303 A  
HETATM    6  C   UNL     1     -11.223  14.996  65.819  1.00  0.00    -0.318 A  
ENDROOT
BRANCH   3   7
HETATM    7  C   UNL     1      -8.492  17.442  66.470  1.00  0.00    -0.298 C  
HETATM    8  O   UNL     1      -8.311  19.766  67.066  1.00  0.00    -0.286 OA 
HETATM    9  O   UNL     1     -10.219  18.727  67.632  1.00  0.00    -0.356 OA 
HETATM   10  C   UNL     1      -8.992  18.744  67.070  1.00  0.00    -0.291 C  
ENDBRANCH   3   7
BRANCH   5  11
HETATM   11  C   UNL     1     -11.441  13.583  67.947  1.00  0.00    -0.318 C  
HETATM   12  O   UNL     1     -12.230  13.859  68.848  1.00  0.00    -0.354 OA 
BRANCH  11  13
HETATM   13  C   UNL     1     -11.103  12.134  67.729  1.00  0.00    -0.302 A  
HETATM   14  C   UNL     1     -10.615  11.700  66.487  1.00  0.00    -0.292 A  
HETATM   15  C   UNL     1     -10.323  10.343  66.274  1.00  0.00    -0.270 A  
HETATM   16  C   UNL     1     -10.523   9.404  67.294  1.00  0.00    -0.332 A  
HETATM   17  C   UNL     1     -10.232   7.944  67.096  1.00  0.00    -0.360 C  
HETATM   18  C   UNL     1     -11.007   9.842  68.532  1.00  0.00    -0.226 A  
HETATM   19  C   UNL     1     -11.312  11.189  68.740  1.00  0.00    -0.342 A  
ENDBRANCH  11  13
ENDBRANCH   5  11
TORSDOF 3
ENDMDL
MODEL       81
REMARK 921   NORMALIZED FREE ENERGY PREDICTED BY IDOCK:   -4.76 KCAL/MOL
REMARK 922        TOTAL FREE ENERGY PREDICTED BY IDOCK:   -6.23 KCAL/MOL
REMARK 923 INTER-LIGAND FREE ENERGY PREDICTED BY IDOCK:   -5.97 KCAL/MOL
REMARK 924 INTRA-LIGAND FREE ENERGY PREDICTED BY IDOCK:   -0.26 KCAL/MOL
REMARK 927      BINDING AFFINITY PREDICTED BY RF-SCORE:    0.00 PKD
ROOT
HETATM    1  C   UNL     1     -12.979  12.741  72.040  1.00  0.00    -0.275 C  
HETATM    2  N   UNL     1     -12.466  12.289  70.758  1.00  0.00    -0.322 NA 
HETATM    3  C   UNL     1     -12.144  13.120  69.696  1.00  0.00    -0.255 A  
HETATM    4  C   UNL     1     -11.695  12.316  68.667  1.00  0.00    -0.377 A  
HETATM    5  C   UNL     1     -12.251  10.959  70.407  1.00  0.00    -0.365 A  
HETATM    6  C   UNL     1     -11.789  10.978  69.097  1.00  0.00    -0.407 A  
ENDROOT
BRANCH   3   7
HETATM    7  C   UNL     1     -12.379  14.610  69.669  1.00  0.00    -0.270 C  
HETATM    8  O   UNL     1     -11.198  16.706  69.705  1.00  0.00    -0.237 OA 
HETATM    9  O   UNL     1      -9.959  14.858  69.408  1.00  0.00    -0.204 OA 
HETATM   10  C   UNL     1     -11.138  15.483  69.605  1.00  0.00    -0.279 C  
ENDBRANCH   3   7
BRANCH   5  11
HETATM   11  C   UNL     1     -12.535   9.786  71.241  1.00  0.00    -0.367 C  
HETATM   12  O   UNL     1     -13.678   9.407  71.488  1.00  0.00    -0.367 OA 
BRANCH  11  13
HETATM   13  C   UNL     1     -11.394   9.002  71.827  1.00  0.00    -0.447 A  
HETATM   14  C   UNL     1     -10.075   9.264  71.424  1.00  0.00    -0.348 A  
HETATM   15  C   UNL     1      -9.010   8.516  71.952  1.00  0.00    -0.301 A  
HETATM   16  C   UNL     1      -9.250   7.492  72.878  1.00  0.00    -0.218 A  
HETATM   17  C   UNL     1      -8.136   6.665  73.452  1.00  0.00    -0.112 C  
HETATM   18  C   UNL     1     -10.566   7.237  73.278  1.00  0.00    -0.428 A  
HETATM   19  C   UNL     1     -11.627   7.970  72.743  1.00  0.00    -0.390 A  
ENDBRANCH  11  13
ENDBRANCH   5  11
TORSDOF 3
ENDMDL
MODEL       82
REMARK 921   NORMALIZED FREE ENERGY PREDICTED BY IDOCK:   -4.72 KCAL/MOL
REMARK 922        TOTAL FREE ENERGY PREDICTED BY IDOCK:   -6.19 KCAL/MOL
REMARK 923 INTER-LIGAND FREE ENERGY PREDICTED BY IDOCK:   -5.76 KCAL/MOL
REMARK 924 INTRA-LIGAND FREE ENERGY PREDICTED BY IDOCK:   -0.43 KCAL/MOL
REMARK 927      BINDING AFFINITY PREDICTED BY RF-SCORE:    0.00 PKD
ROOT
HETATM    1  C   UNL     1      -9.458   9.751  69.289  1.00  0.00    -0.194 C  
HETATM    2  N   UNL     1     -10.676   9.921  70.062  1.00  0.00    -0.270 NA 
HETATM    3  C   UNL     1     -11.773  10.668  69.659  1.00  0.00    -0.296 A  
HETATM    4  C   UNL     1     -12.718  10.582  70.661  1.00  0.00    -0.441 A  
HETATM    5  C   UNL     1     -10.904   9.379  71.323  1.00  0.00    -0.361 A  
HETATM    6  C   UNL     1     -12.168   9.809  71.703  1.00  0.00    -0.488 A  
ENDROOT
BRANCH   3   7
HETATM    7  C   UNL     1     -11.827  11.508  68.407  1.00  0.00    -0.353 C  
HETATM    8  O   UNL     1     -11.945  13.797  67.676  1.00  0.00    -0.358 OA 
HETATM    9  O   UNL     1     -11.530  13.457  69.855  1.00  0.00    -0.216 OA 
HETATM   10  C   UNL     1     -11.781  13.012  68.606  1.00  0.00    -0.323 C  
ENDBRANCH   3   7
BRANCH   5  11
HETATM   11  C   UNL     1      -9.954   8.583  72.109  1.00  0.00    -0.317 C  
HETATM   12  O   UNL     1      -8.883   9.032  72.512  1.00  0.00    -0.305 OA 
BRANCH  11  13
HETATM   13  C   UNL     1     -10.287   7.156  72.444  1.00  0.00    -0.228 A  
HETATM   14  C   UNL     1     -10.498   6.772  73.777  1.00  0.00    -0.383 A  
HETATM   15  C   UNL     1     -10.785   5.434  74.094  1.00  0.00    -0.194 A  
HETATM   16  C   UNL     1     -10.854   4.464  73.085  1.00  0.00    -0.321 A  
HETATM   17  C   UNL     1     -11.146   3.022  73.390  1.00  0.00    -0.285 C  
HETATM   18  C   UNL     1     -10.645   4.852  71.758  1.00  0.00    -0.164 A  
HETATM   19  C   UNL     1     -10.345   6.179  71.443  1.00  0.00    -0.260 A  
ENDBRANCH  11  13
ENDBRANCH   5  11
TORSDOF 3
ENDMDL
MODEL       83
REMARK 921   NORMALIZED FREE ENERGY PREDICTED BY IDOCK:   -4.72 KCAL/MOL
REMARK 922        TOTAL FREE ENERGY PREDICTED BY IDOCK:   -6.19 KCAL/MOL
REMARK 923 INTER-LIGAND FREE ENERGY PREDICTED BY IDOCK:   -5.58 KCAL/MOL
REMARK 924 INTRA-LIGAND FREE ENERGY PREDICTED BY IDOCK:   -0.61 KCAL/MOL
REMARK 927      BINDING AFFINITY PREDICTED BY RF-SCORE:    0.00 PKD
ROOT
HETATM    1  C   UNL     1     -12.257  13.170  70.313  1.00  0.00    -0.306 C  
HETATM    2  N   UNL     1     -11.811  12.210  69.318  1.00  0.00    -0.318 NA 
HETATM    3  C   UNL     1     -11.532  10.875  69.572  1.00  0.00    -0.301 A  
HETATM    4  C   UNL     1     -11.141  10.303  68.379  1.00  0.00    -0.302 A  
HETATM    5  C   UNL     1     -11.578  12.500  67.976  1.00  0.00    -0.342 A  
HETATM    6  C   UNL     1     -11.142  11.315  67.398  1.00  0.00    -0.358 A  
ENDROOT
BRANCH   3   7
HETATM    7  C   UNL     1     -11.542  10.242  70.942  1.00  0.00    -0.454 C  
HETATM    8  O   UNL     1     -13.040   9.308  72.576  1.00  0.00    -0.418 OA 
HETATM    9  O   UNL     1     -13.900   9.728  70.545  1.00  0.00     0.067 OA 
HETATM   10  C   UNL     1     -12.884   9.727  71.432  1.00  0.00    -0.392 C  
ENDBRANCH   3   7
BRANCH   5  11
HETATM   11  C   UNL     1     -11.700  13.816  67.340  1.00  0.00    -0.382 C  
HETATM   12  O   UNL     1     -12.620  14.104  66.578  1.00  0.00    -0.394 OA 
BRANCH  11  13
HETATM   13  C   UNL     1     -10.664  14.870  67.620  1.00  0.00    -0.270 A  
HETATM   14  C   UNL     1     -11.046  16.208  67.800  1.00  0.00    -0.254 A  
HETATM   15  C   UNL     1     -10.077  17.197  68.037  1.00  0.00    -0.311 A  
HETATM   16  C   UNL     1      -8.717  16.863  68.086  1.00  0.00    -0.226 A  
HETATM   17  C   UNL     1      -7.654  17.897  68.324  1.00  0.00    -0.266 C  
HETATM   18  C   UNL     1      -8.342  15.526  67.908  1.00  0.00    -0.148 A  
HETATM   19  C   UNL     1      -9.303  14.545  67.658  1.00  0.00    -0.202 A  
ENDBRANCH  11  13
ENDBRANCH   5  11
TORSDOF 3
ENDMDL
MODEL       84
REMARK 921   NORMALIZED FREE ENERGY PREDICTED BY IDOCK:   -4.71 KCAL/MOL
REMARK 922        TOTAL FREE ENERGY PREDICTED BY IDOCK:   -6.17 KCAL/MOL
REMARK 923 INTER-LIGAND FREE ENERGY PREDICTED BY IDOCK:   -5.56 KCAL/MOL
REMARK 924 INTRA-LIGAND FREE ENERGY PREDICTED BY IDOCK:   -0.61 KCAL/MOL
REMARK 927      BINDING AFFINITY PREDICTED BY RF-SCORE:    0.00 PKD
ROOT
HETATM    1  C   UNL     1     -12.258  13.959  66.735  1.00  0.00    -0.399 C  
HETATM    2  N   UNL     1     -10.859  13.988  67.125  1.00  0.00    -0.283 NA 
HETATM    3  C   UNL     1      -9.908  14.851  66.601  1.00  0.00    -0.260 A  
HETATM    4  C   UNL     1      -8.710  14.567  67.223  1.00  0.00    -0.225 A  
HETATM    5  C   UNL     1     -10.272  13.139  68.059  1.00  0.00    -0.233 A  
HETATM    6  C   UNL     1      -8.929  13.489  68.104  1.00  0.00    -0.187 A  
ENDROOT
BRANCH   3   7
HETATM    7  C   UNL     1     -10.156  15.816  65.468  1.00  0.00    -0.383 C  
HETATM    8  O   UNL     1     -10.873  18.071  65.036  1.00  0.00    -0.738 OA 
HETATM    9  O   UNL     1     -10.440  17.546  67.174  1.00  0.00    -0.335 OA 
HETATM   10  C   UNL     1     -10.527  17.234  65.865  1.00  0.00    -0.262 C  
ENDBRANCH   3   7
BRANCH   5  11
HETATM   11  C   UNL     1     -10.940  12.050  68.780  1.00  0.00    -0.239 C  
HETATM   12  O   UNL     1     -11.780  12.249  69.654  1.00  0.00    -0.301 OA 
BRANCH  11  13
HETATM   13  C   UNL     1     -10.594  10.625  68.450  1.00  0.00    -0.231 A  
HETATM   14  C   UNL     1     -10.433  10.226  67.115  1.00  0.00    -0.311 A  
HETATM   15  C   UNL     1     -10.134   8.889  66.803  1.00  0.00    -0.350 A  
HETATM   16  C   UNL     1     -10.003   7.935  67.820  1.00  0.00    -0.221 A  
HETATM   17  C   UNL     1      -9.696   6.495  67.522  1.00  0.00    -0.141 C  
HETATM   18  C   UNL     1     -10.161   8.338  69.151  1.00  0.00    -0.223 A  
HETATM   19  C   UNL     1     -10.474   9.664  69.461  1.00  0.00    -0.240 A  
ENDBRANCH  11  13
ENDBRANCH   5  11
TORSDOF 3
ENDMDL
MODEL       85
REMARK 921   NORMALIZED FREE ENERGY PREDICTED BY IDOCK:   -4.70 KCAL/MOL
REMARK 922        TOTAL FREE ENERGY PREDICTED BY IDOCK:   -6.17 KCAL/MOL
REMARK 923 INTER-LIGAND FREE ENERGY PREDICTED BY IDOCK:   -5.56 KCAL/MOL
REMARK 924 INTRA-LIGAND FREE ENERGY PREDICTED BY IDOCK:   -0.61 KCAL/MOL
REMARK 927      BINDING AFFINITY PREDICTED BY RF-SCORE:    0.00 PKD
ROOT
HETATM    1  C   UNL     1      -8.890  11.586  67.408  1.00  0.00    -0.157 C  
HETATM    2  N   UNL     1     -10.033  11.320  68.264  1.00  0.00    -0.188 NA 
HETATM    3  C   UNL     1     -10.026  10.458  69.351  1.00  0.00    -0.218 A  
HETATM    4  C   UNL     1     -11.292  10.480  69.899  1.00  0.00    -0.380 A  
HETATM    5  C   UNL     1     -11.299  11.873  68.100  1.00  0.00    -0.288 A  
HETATM    6  C   UNL     1     -12.087  11.333  69.108  1.00  0.00    -0.348 A  
ENDROOT
BRANCH   3   7
HETATM    7  C   UNL     1      -8.863   9.580  69.744  1.00  0.00    -0.211 C  
HETATM    8  O   UNL     1      -8.008   7.349  69.470  1.00  0.00    -0.121 OA 
HETATM    9  O   UNL     1      -9.743   7.928  68.169  1.00  0.00    -0.152 OA 
HETATM   10  C   UNL     1      -8.833   8.192  69.129  1.00  0.00    -0.144 C  
ENDBRANCH   3   7
BRANCH   5  11
HETATM   11  C   UNL     1     -11.717  12.781  67.025  1.00  0.00    -0.374 C  
HETATM   12  O   UNL     1     -12.362  12.404  66.051  1.00  0.00    -0.627 OA 
BRANCH  11  13
HETATM   13  C   UNL     1     -11.347  14.236  67.104  1.00  0.00    -0.352 A  
HETATM   14  C   UNL     1     -11.594  14.968  68.275  1.00  0.00    -0.355 A  
HETATM   15  C   UNL     1     -11.272  16.333  68.341  1.00  0.00    -0.349 A  
HETATM   16  C   UNL     1     -10.710  16.985  67.235  1.00  0.00    -0.206 A  
HETATM   17  C   UNL     1     -10.365  18.446  67.267  1.00  0.00    -0.417 C  
HETATM   18  C   UNL     1     -10.462  16.250  66.071  1.00  0.00    -0.342 A  
HETATM   19  C   UNL     1     -10.796  14.896  65.999  1.00  0.00    -0.328 A  
ENDBRANCH  11  13
ENDBRANCH   5  11
TORSDOF 3
ENDMDL
MODEL       86
REMARK 921   NORMALIZED FREE ENERGY PREDICTED BY IDOCK:   -4.70 KCAL/MOL
REMARK 922        TOTAL FREE ENERGY PREDICTED BY IDOCK:   -6.16 KCAL/MOL
REMARK 923 INTER-LIGAND FREE ENERGY PREDICTED BY IDOCK:   -5.56 KCAL/MOL
REMARK 924 INTRA-LIGAND FREE ENERGY PREDICTED BY IDOCK:   -0.61 KCAL/MOL
REMARK 927      BINDING AFFINITY PREDICTED BY RF-SCORE:    0.00 PKD
ROOT
HETATM    1  C   UNL     1     -10.197  10.121  66.407  1.00  0.00    -0.221 C  
HETATM    2  N   UNL     1     -10.749  11.037  67.389  1.00  0.00    -0.240 NA 
HETATM    3  C   UNL     1     -11.616  12.081  67.100  1.00  0.00    -0.316 A  
HETATM    4  C   UNL     1     -11.910  12.712  68.292  1.00  0.00    -0.354 A  
HETATM    5  C   UNL     1     -10.468  11.013  68.752  1.00  0.00    -0.198 A  
HETATM    6  C   UNL     1     -11.177  12.070  69.309  1.00  0.00    -0.291 A  
ENDROOT
BRANCH   3   7
HETATM    7  C   UNL     1     -12.030  12.493  65.709  1.00  0.00    -0.482 C  
HETATM    8  O   UNL     1     -11.545  14.114  63.999  1.00  0.00    -0.280 OA 
HETATM    9  O   UNL     1     -10.117  14.017  65.728  1.00  0.00    -0.309 OA 
HETATM   10  C   UNL     1     -11.224  13.610  65.072  1.00  0.00    -0.321 C  
ENDBRANCH   3   7
BRANCH   5  11
HETATM   11  C   UNL     1      -9.545  10.096  69.431  1.00  0.00    -0.232 C  
HETATM   12  O   UNL     1      -8.324  10.219  69.374  1.00  0.00    -0.151 OA 
BRANCH  11  13
HETATM   13  C   UNL     1     -10.099   8.952  70.234  1.00  0.00    -0.218 A  
HETATM   14  C   UNL     1     -10.110   9.010  71.635  1.00  0.00    -0.405 A  
HETATM   15  C   UNL     1     -10.604   7.931  72.387  1.00  0.00    -0.359 A  
HETATM   16  C   UNL     1     -11.083   6.780  71.749  1.00  0.00    -0.275 A  
HETATM   17  C   UNL     1     -11.607   5.604  72.522  1.00  0.00    -0.303 C  
HETATM   18  C   UNL     1     -11.073   6.728  70.351  1.00  0.00    -0.357 A  
HETATM   19  C   UNL     1     -10.568   7.793  69.602  1.00  0.00    -0.242 A  
ENDBRANCH  11  13
ENDBRANCH   5  11
TORSDOF 3
ENDMDL
MODEL       87
REMARK 921   NORMALIZED FREE ENERGY PREDICTED BY IDOCK:   -4.68 KCAL/MOL
REMARK 922        TOTAL FREE ENERGY PREDICTED BY IDOCK:   -6.14 KCAL/MOL
REMARK 923 INTER-LIGAND FREE ENERGY PREDICTED BY IDOCK:   -5.66 KCAL/MOL
REMARK 924 INTRA-LIGAND FREE ENERGY PREDICTED BY IDOCK:   -0.49 KCAL/MOL
REMARK 927      BINDING AFFINITY PREDICTED BY RF-SCORE:    0.00 PKD
ROOT
HETATM    1  C   UNL     1     -11.900  11.223  67.885  1.00  0.00    -0.133 C  
HETATM    2  N   UNL     1     -10.924  10.965  66.840  1.00  0.00    -0.256 NA 
HETATM    3  C   UNL     1     -10.522  11.888  65.886  1.00  0.00    -0.258 A  
HETATM    4  C   UNL     1      -9.591  11.266  65.080  1.00  0.00    -0.269 A  
HETATM    5  C   UNL     1     -10.275   9.752  66.635  1.00  0.00    -0.226 A  
HETATM    6  C   UNL     1      -9.460   9.936  65.526  1.00  0.00    -0.313 A  
ENDROOT
BRANCH   3   7
HETATM    7  C   UNL     1     -11.117  13.265  65.719  1.00  0.00    -0.296 C  
HETATM    8  O   UNL     1     -12.783  14.459  64.460  1.00  0.00    -0.663 OA 
HETATM    9  O   UNL     1     -12.813  12.220  64.299  1.00  0.00    -0.648 OA 
HETATM   10  C   UNL     1     -12.298  13.374  64.772  1.00  0.00    -0.396 C  
ENDBRANCH   3   7
BRANCH   5  11
HETATM   11  C   UNL     1     -10.484   8.516  67.399  1.00  0.00    -0.280 C  
HETATM   12  O   UNL     1     -10.975   7.504  66.906  1.00  0.00    -0.292 OA 
BRANCH  11  13
HETATM   13  C   UNL     1     -10.085   8.469  68.848  1.00  0.00    -0.213 A  
HETATM   14  C   UNL     1     -10.726   7.586  69.730  1.00  0.00    -0.249 A  
HETATM   15  C   UNL     1     -10.372   7.559  71.090  1.00  0.00    -0.208 A  
HETATM   16  C   UNL     1      -9.383   8.419  71.584  1.00  0.00    -0.280 A  
HETATM   17  C   UNL     1      -8.988   8.425  73.033  1.00  0.00    -0.242 C  
HETATM   18  C   UNL     1      -8.745   9.296  70.699  1.00  0.00    -0.282 A  
HETATM   19  C   UNL     1      -9.107   9.335  69.351  1.00  0.00    -0.152 A  
ENDBRANCH  11  13
ENDBRANCH   5  11
TORSDOF 3
ENDMDL
MODEL       88
REMARK 921   NORMALIZED FREE ENERGY PREDICTED BY IDOCK:   -4.67 KCAL/MOL
REMARK 922        TOTAL FREE ENERGY PREDICTED BY IDOCK:   -6.13 KCAL/MOL
REMARK 923 INTER-LIGAND FREE ENERGY PREDICTED BY IDOCK:   -6.42 KCAL/MOL
REMARK 924 INTRA-LIGAND FREE ENERGY PREDICTED BY IDOCK:    0.29 KCAL/MOL
REMARK 927      BINDING AFFINITY PREDICTED BY RF-SCORE:    0.00 PKD
ROOT
HETATM    1  C   UNL     1     -11.463  10.836  69.006  1.00  0.00    -0.298 C  
HETATM    2  N   UNL     1     -12.079  11.646  70.043  1.00  0.00    -0.324 NA 
HETATM    3  C   UNL     1     -12.866  11.151  71.072  1.00  0.00    -0.329 A  
HETATM    4  C   UNL     1     -13.259  12.226  71.842  1.00  0.00    -0.481 A  
HETATM    5  C   UNL     1     -11.987  13.031  70.135  1.00  0.00    -0.303 A  
HETATM    6  C   UNL     1     -12.739  13.392  71.245  1.00  0.00    -0.424 A  
ENDROOT
BRANCH   3   7
HETATM    7  C   UNL     1     -13.293   9.710  71.210  1.00  0.00    -0.403 C  
HETATM    8  O   UNL     1     -12.430   7.532  71.758  1.00  0.00    -0.310 OA 
HETATM    9  O   UNL     1     -11.083   9.280  72.166  1.00  0.00    -0.247 OA 
HETATM   10  C   UNL     1     -12.239   8.745  71.724  1.00  0.00    -0.349 C  
ENDBRANCH   3   7
BRANCH   5  11
HETATM   11  C   UNL     1     -11.295  13.919  69.193  1.00  0.00    -0.286 C  
HETATM   12  O   UNL     1     -10.772  14.976  69.538  1.00  0.00    -0.242 OA 
BRANCH  11  13
HETATM   13  C   UNL     1     -11.213  13.535  67.742  1.00  0.00    -0.308 A  
HETATM   14  C   UNL     1     -10.009  13.059  67.202  1.00  0.00    -0.235 A  
HETATM   15  C   UNL     1      -9.924  12.724  65.841  1.00  0.00    -0.273 A  
HETATM   16  C   UNL     1     -11.037  12.870  65.002  1.00  0.00    -0.320 A  
HETATM   17  C   UNL     1     -10.977  12.532  63.540  1.00  0.00    -0.472 C  
HETATM   18  C   UNL     1     -12.236  13.341  65.546  1.00  0.00    -0.506 A  
HETATM   19  C   UNL     1     -12.318  13.690  66.896  1.00  0.00    -0.309 A  
ENDBRANCH  11  13
ENDBRANCH   5  11
TORSDOF 3
ENDMDL
MODEL       89
REMARK 921   NORMALIZED FREE ENERGY PREDICTED BY IDOCK:   -4.67 KCAL/MOL
REMARK 922        TOTAL FREE ENERGY PREDICTED BY IDOCK:   -6.13 KCAL/MOL
REMARK 923 INTER-LIGAND FREE ENERGY PREDICTED BY IDOCK:   -6.19 KCAL/MOL
REMARK 924 INTRA-LIGAND FREE ENERGY PREDICTED BY IDOCK:    0.06 KCAL/MOL
REMARK 927      BINDING AFFINITY PREDICTED BY RF-SCORE:    0.00 PKD
ROOT
HETATM    1  C   UNL     1      -9.222  13.845  66.411  1.00  0.00    -0.152 C  
HETATM    2  N   UNL     1     -10.614  13.865  65.995  1.00  0.00    -0.288 NA 
HETATM    3  C   UNL     1     -11.442  12.754  65.945  1.00  0.00    -0.356 A  
HETATM    4  C   UNL     1     -12.678  13.183  65.504  1.00  0.00    -0.367 A  
HETATM    5  C   UNL     1     -11.303  14.996  65.566  1.00  0.00    -0.312 A  
HETATM    6  C   UNL     1     -12.583  14.564  65.242  1.00  0.00    -0.240 A  
ENDROOT
BRANCH   3   7
HETATM    7  C   UNL     1     -10.996  11.337  66.209  1.00  0.00    -0.265 C  
HETATM    8  O   UNL     1     -10.823   9.713  67.975  1.00  0.00    -0.242 OA 
HETATM    9  O   UNL     1     -12.000  11.570  68.427  1.00  0.00    -0.511 OA 
HETATM   10  C   UNL     1     -11.253  10.803  67.606  1.00  0.00    -0.299 C  
ENDBRANCH   3   7
BRANCH   5  11
HETATM   11  C   UNL     1     -10.748  16.346  65.419  1.00  0.00    -0.296 C  
HETATM   12  O   UNL     1     -11.049  17.091  64.490  1.00  0.00    -1.098 OA 
BRANCH  11  13
HETATM   13  C   UNL     1      -9.767  16.855  66.438  1.00  0.00    -0.301 A  
HETATM   14  C   UNL     1      -8.418  17.035  66.095  1.00  0.00    -0.262 A  
HETATM   15  C   UNL     1      -7.495  17.487  67.053  1.00  0.00    -0.229 A  
HETATM   16  C   UNL     1      -7.907  17.754  68.365  1.00  0.00    -0.284 A  
HETATM   17  C   UNL     1      -6.945  18.227  69.417  1.00  0.00    -0.091 C  
HETATM   18  C   UNL     1      -9.253  17.577  68.701  1.00  0.00    -0.267 A  
HETATM   19  C   UNL     1     -10.169  17.113  67.754  1.00  0.00    -0.324 A  
ENDBRANCH  11  13
ENDBRANCH   5  11
TORSDOF 3
ENDMDL
MODEL       90
REMARK 921   NORMALIZED FREE ENERGY PREDICTED BY IDOCK:   -4.66 KCAL/MOL
REMARK 922        TOTAL FREE ENERGY PREDICTED BY IDOCK:   -6.12 KCAL/MOL
REMARK 923 INTER-LIGAND FREE ENERGY PREDICTED BY IDOCK:   -5.71 KCAL/MOL
REMARK 924 INTRA-LIGAND FREE ENERGY PREDICTED BY IDOCK:   -0.41 KCAL/MOL
REMARK 927      BINDING AFFINITY PREDICTED BY RF-SCORE:    0.00 PKD
ROOT
HETATM    1  C   UNL     1     -10.441   8.296  69.280  1.00  0.00    -0.210 C  
HETATM    2  N   UNL     1     -11.217   9.313  69.968  1.00  0.00    -0.210 NA 
HETATM    3  C   UNL     1     -11.126  10.676  69.728  1.00  0.00    -0.295 A  
HETATM    4  C   UNL     1     -12.017  11.302  70.576  1.00  0.00    -0.467 A  
HETATM    5  C   UNL     1     -12.140   9.066  70.980  1.00  0.00    -0.251 A  
HETATM    6  C   UNL     1     -12.622  10.308  71.371  1.00  0.00    -0.539 A  
ENDROOT
BRANCH   3   7
HETATM    7  C   UNL     1     -10.131  11.320  68.794  1.00  0.00    -0.204 C  
HETATM    8  O   UNL     1      -9.929  12.183  66.558  1.00  0.00    -0.206 OA 
HETATM    9  O   UNL     1     -12.003  11.699  67.266  1.00  0.00    -0.627 OA 
HETATM   10  C   UNL     1     -10.668  11.764  67.445  1.00  0.00    -0.236 C  
ENDBRANCH   3   7
BRANCH   5  11
HETATM   11  C   UNL     1     -12.464   7.756  71.556  1.00  0.00    -0.324 C  
HETATM   12  O   UNL     1     -13.589   7.265  71.498  1.00  0.00    -0.388 OA 
BRANCH  11  13
HETATM   13  C   UNL     1     -11.388   6.969  72.251  1.00  0.00    -0.305 A  
HETATM   14  C   UNL     1     -10.715   7.511  73.356  1.00  0.00    -0.387 A  
HETATM   15  C   UNL     1      -9.692   6.786  73.990  1.00  0.00    -0.308 A  
HETATM   16  C   UNL     1      -9.324   5.518  73.522  1.00  0.00    -0.137 A  
HETATM   17  C   UNL     1      -8.227   4.722  74.168  1.00  0.00    -0.100 C  
HETATM   18  C   UNL     1     -10.000   4.981  72.421  1.00  0.00    -0.226 A  
HETATM   19  C   UNL     1     -11.007   5.707  71.780  1.00  0.00    -0.290 A  
ENDBRANCH  11  13
ENDBRANCH   5  11
TORSDOF 3
ENDMDL
MODEL       91
REMARK 921   NORMALIZED FREE ENERGY PREDICTED BY IDOCK:   -4.66 KCAL/MOL
REMARK 922        TOTAL FREE ENERGY PREDICTED BY IDOCK:   -6.11 KCAL/MOL
REMARK 923 INTER-LIGAND FREE ENERGY PREDICTED BY IDOCK:   -5.47 KCAL/MOL
REMARK 924 INTRA-LIGAND FREE ENERGY PREDICTED BY IDOCK:   -0.65 KCAL/MOL
REMARK 927      BINDING AFFINITY PREDICTED BY RF-SCORE:    0.00 PKD
ROOT
HETATM    1  C   UNL     1      -8.419  14.213  67.271  1.00  0.00    -0.214 C  
HETATM    2  N   UNL     1      -9.852  13.970  67.284  1.00  0.00    -0.238 NA 
HETATM    3  C   UNL     1     -10.823  14.959  67.300  1.00  0.00    -0.306 A  
HETATM    4  C   UNL     1     -12.051  14.328  67.308  1.00  0.00    -0.390 A  
HETATM    5  C   UNL     1     -10.448  12.713  67.307  1.00  0.00    -0.228 A  
HETATM    6  C   UNL     1     -11.818  12.939  67.341  1.00  0.00    -0.418 A  
ENDROOT
BRANCH   3   7
HETATM    7  C   UNL     1     -10.542  16.437  67.418  1.00  0.00    -0.306 C  
HETATM    8  O   UNL     1     -10.000  18.365  66.085  1.00  0.00    -0.435 OA 
HETATM    9  O   UNL     1     -10.620  16.516  64.974  1.00  0.00    -0.670 OA 
HETATM   10  C   UNL     1     -10.356  17.190  66.112  1.00  0.00    -0.322 C  
ENDBRANCH   3   7
BRANCH   5  11
HETATM   11  C   UNL     1      -9.751  11.423  67.362  1.00  0.00    -0.181 C  
HETATM   12  O   UNL     1      -9.445  10.877  68.419  1.00  0.00    -0.164 OA 
BRANCH  11  13
HETATM   13  C   UNL     1      -9.388  10.725  66.080  1.00  0.00    -0.209 A  
HETATM   14  C   UNL     1      -8.447   9.684  66.083  1.00  0.00    -0.126 A  
HETATM   15  C   UNL     1      -8.088   9.048  64.883  1.00  0.00    -0.137 A  
HETATM   16  C   UNL     1      -8.656   9.451  63.668  1.00  0.00    -0.220 A  
HETATM   17  C   UNL     1      -8.286   8.801  62.365  1.00  0.00    -0.203 C  
HETATM   18  C   UNL     1      -9.596  10.488  63.671  1.00  0.00    -0.370 A  
HETATM   19  C   UNL     1      -9.942  11.131  64.861  1.00  0.00    -0.331 A  
ENDBRANCH  11  13
ENDBRANCH   5  11
TORSDOF 3
ENDMDL
MODEL       92
REMARK 921   NORMALIZED FREE ENERGY PREDICTED BY IDOCK:   -4.65 KCAL/MOL
REMARK 922        TOTAL FREE ENERGY PREDICTED BY IDOCK:   -6.10 KCAL/MOL
REMARK 923 INTER-LIGAND FREE ENERGY PREDICTED BY IDOCK:   -5.47 KCAL/MOL
REMARK 924 INTRA-LIGAND FREE ENERGY PREDICTED BY IDOCK:   -0.64 KCAL/MOL
REMARK 927      BINDING AFFINITY PREDICTED BY RF-SCORE:    0.00 PKD
ROOT
HETATM    1  C   UNL     1     -11.862  12.418  66.218  1.00  0.00    -0.364 C  
HETATM    2  N   UNL     1     -10.558  12.565  66.842  1.00  0.00    -0.234 NA 
HETATM    3  C   UNL     1      -9.506  11.673  66.700  1.00  0.00    -0.201 A  
HETATM    4  C   UNL     1      -8.450  12.163  67.441  1.00  0.00    -0.173 A  
HETATM    5  C   UNL     1     -10.190  13.608  67.688  1.00  0.00    -0.239 A  
HETATM    6  C   UNL     1      -8.883  13.344  68.075  1.00  0.00    -0.183 A  
ENDROOT
BRANCH   3   7
HETATM    7  C   UNL     1      -9.589  10.357  65.966  1.00  0.00    -0.251 C  
HETATM    8  O   UNL     1      -9.995   8.015  66.335  1.00  0.00    -0.229 OA 
HETATM    9  O   UNL     1     -10.437   9.395  68.049  1.00  0.00    -0.209 OA 
HETATM   10  C   UNL     1     -10.013   9.155  66.791  1.00  0.00    -0.254 C  
ENDBRANCH   3   7
BRANCH   5  11
HETATM   11  C   UNL     1     -11.052  14.711  68.129  1.00  0.00    -0.274 C  
HETATM   12  O   UNL     1     -11.988  14.552  68.909  1.00  0.00    -0.315 OA 
BRANCH  11  13
HETATM   13  C   UNL     1     -10.793  16.100  67.616  1.00  0.00    -0.297 A  
HETATM   14  C   UNL     1     -10.644  16.331  66.241  1.00  0.00    -0.256 A  
HETATM   15  C   UNL     1     -10.378  17.624  65.762  1.00  0.00    -0.194 A  
HETATM   16  C   UNL     1     -10.247  18.698  66.652  1.00  0.00    -0.441 A  
HETATM   17  C   UNL     1      -9.951  20.091  66.175  1.00  0.00    -0.580 C  
HETATM   18  C   UNL     1     -10.400  18.464  68.022  1.00  0.00    -0.410 A  
HETATM   19  C   UNL     1     -10.649  17.176  68.501  1.00  0.00    -0.361 A  
ENDBRANCH  11  13
ENDBRANCH   5  11
TORSDOF 3
ENDMDL
MODEL       93
REMARK 921   NORMALIZED FREE ENERGY PREDICTED BY IDOCK:   -4.65 KCAL/MOL
REMARK 922        TOTAL FREE ENERGY PREDICTED BY IDOCK:   -6.10 KCAL/MOL
REMARK 923 INTER-LIGAND FREE ENERGY PREDICTED BY IDOCK:   -5.60 KCAL/MOL
REMARK 924 INTRA-LIGAND FREE ENERGY PREDICTED BY IDOCK:   -0.50 KCAL/MOL
REMARK 927      BINDING AFFINITY PREDICTED BY RF-SCORE:    0.00 PKD
ROOT
HETATM    1  C   UNL     1     -11.842   6.773  70.529  1.00  0.00    -0.362 C  
HETATM    2  N   UNL     1     -10.738   7.650  70.879  1.00  0.00    -0.232 NA 
HETATM    3  C   UNL     1     -10.191   7.767  72.148  1.00  0.00    -0.213 A  
HETATM    4  C   UNL     1      -9.172   8.694  72.072  1.00  0.00    -0.338 A  
HETATM    5  C   UNL     1     -10.093   8.514  69.999  1.00  0.00    -0.192 A  
HETATM    6  C   UNL     1      -9.131   9.177  70.749  1.00  0.00    -0.313 A  
ENDROOT
BRANCH   3   7
HETATM    7  C   UNL     1     -10.728   7.082  73.382  1.00  0.00    -0.379 C  
HETATM    8  O   UNL     1     -10.693   4.969  74.530  1.00  0.00    -0.355 OA 
HETATM    9  O   UNL     1      -9.242   5.217  72.836  1.00  0.00    -0.132 OA 
HETATM   10  C   UNL     1     -10.233   5.669  73.633  1.00  0.00    -0.218 C  
ENDBRANCH   3   7
BRANCH   5  11
HETATM   11  C   UNL     1     -10.431   8.723  68.586  1.00  0.00    -0.183 C  
HETATM   12  O   UNL     1     -10.415   7.815  67.758  1.00  0.00    -0.213 OA 
BRANCH  11  13
HETATM   13  C   UNL     1     -10.814  10.098  68.114  1.00  0.00    -0.310 A  
HETATM   14  C   UNL     1     -11.624  10.920  68.912  1.00  0.00    -0.378 A  
HETATM   15  C   UNL     1     -12.003  12.195  68.462  1.00  0.00    -0.273 A  
HETATM   16  C   UNL     1     -11.587  12.659  67.207  1.00  0.00    -0.428 A  
HETATM   17  C   UNL     1     -11.985  14.011  66.689  1.00  0.00    -0.473 C  
HETATM   18  C   UNL     1     -10.777  11.836  66.416  1.00  0.00    -0.306 A  
HETATM   19  C   UNL     1     -10.412  10.562  66.856  1.00  0.00    -0.303 A  
ENDBRANCH  11  13
ENDBRANCH   5  11
TORSDOF 3
ENDMDL
MODEL       94
REMARK 921   NORMALIZED FREE ENERGY PREDICTED BY IDOCK:   -4.64 KCAL/MOL
REMARK 922        TOTAL FREE ENERGY PREDICTED BY IDOCK:   -6.09 KCAL/MOL
REMARK 923 INTER-LIGAND FREE ENERGY PREDICTED BY IDOCK:   -5.49 KCAL/MOL
REMARK 924 INTRA-LIGAND FREE ENERGY PREDICTED BY IDOCK:   -0.60 KCAL/MOL
REMARK 927      BINDING AFFINITY PREDICTED BY RF-SCORE:    0.00 PKD
ROOT
HETATM    1  C   UNL     1     -11.354  12.094  65.123  1.00  0.00    -0.327 C  
HETATM    2  N   UNL     1     -10.089  11.935  65.820  1.00  0.00    -0.233 NA 
HETATM    3  C   UNL     1      -9.183  10.910  65.593  1.00  0.00    -0.203 A  
HETATM    4  C   UNL     1      -8.116  11.109  66.446  1.00  0.00    -0.159 A  
HETATM    5  C   UNL     1      -9.621  12.773  66.828  1.00  0.00    -0.244 A  
HETATM    6  C   UNL     1      -8.401  12.245  67.230  1.00  0.00    -0.182 A  
ENDROOT
BRANCH   3   7
HETATM    7  C   UNL     1      -9.421   9.742  64.667  1.00  0.00    -0.295 C  
HETATM    8  O   UNL     1      -9.094   9.048  62.387  1.00  0.00    -0.186 OA 
HETATM    9  O   UNL     1      -8.058  10.935  63.022  1.00  0.00    -0.061 OA 
HETATM   10  C   UNL     1      -8.857   9.874  63.264  1.00  0.00    -0.245 C  
ENDBRANCH   3   7
BRANCH   5  11
HETATM   11  C   UNL     1     -10.327  13.930  67.391  1.00  0.00    -0.252 C  
HETATM   12  O   UNL     1     -10.315  15.038  66.861  1.00  0.00    -0.259 OA 
BRANCH  11  13
HETATM   13  C   UNL     1     -11.101  13.771  68.670  1.00  0.00    -0.293 A  
HETATM   14  C   UNL     1     -11.373  12.492  69.179  1.00  0.00    -0.331 A  
HETATM   15  C   UNL     1     -12.118  12.342  70.361  1.00  0.00    -0.385 A  
HETATM   16  C   UNL     1     -12.607  13.465  71.040  1.00  0.00    -0.425 A  
HETATM   17  C   UNL     1     -13.417  13.339  72.299  1.00  0.00    -0.679 C  
HETATM   18  C   UNL     1     -12.331  14.738  70.530  1.00  0.00    -0.398 A  
HETATM   19  C   UNL     1     -11.604  14.888  69.347  1.00  0.00    -0.337 A  
ENDBRANCH  11  13
ENDBRANCH   5  11
TORSDOF 3
ENDMDL
MODEL       95
REMARK 921   NORMALIZED FREE ENERGY PREDICTED BY IDOCK:   -4.63 KCAL/MOL
REMARK 922        TOTAL FREE ENERGY PREDICTED BY IDOCK:   -6.08 KCAL/MOL
REMARK 923 INTER-LIGAND FREE ENERGY PREDICTED BY IDOCK:   -5.61 KCAL/MOL
REMARK 924 INTRA-LIGAND FREE ENERGY PREDICTED BY IDOCK:   -0.47 KCAL/MOL
REMARK 927      BINDING AFFINITY PREDICTED BY RF-SCORE:    0.00 PKD
ROOT
HETATM    1  C   UNL     1     -11.884  15.971  68.795  1.00  0.00    -0.203 C  
HETATM    2  N   UNL     1     -11.890  14.611  69.305  1.00  0.00    -0.309 NA 
HETATM    3  C   UNL     1     -12.570  14.192  70.439  1.00  0.00    -0.332 A  
HETATM    4  C   UNL     1     -12.328  12.842  70.587  1.00  0.00    -0.381 A  
HETATM    5  C   UNL     1     -11.197  13.543  68.742  1.00  0.00    -0.274 A  
HETATM    6  C   UNL     1     -11.455  12.447  69.554  1.00  0.00    -0.309 A  
ENDROOT
BRANCH   3   7
HETATM    7  C   UNL     1     -13.316  15.106  71.379  1.00  0.00    -0.547 C  
HETATM    8  O   UNL     1     -13.084  16.239  73.488  1.00  0.00    -0.548 OA 
HETATM    9  O   UNL     1     -11.227  15.311  72.634  1.00  0.00    -0.331 OA 
HETATM   10  C   UNL     1     -12.545  15.596  72.592  1.00  0.00    -0.433 C  
ENDBRANCH   3   7
BRANCH   5  11
HETATM   11  C   UNL     1     -10.313  13.604  67.571  1.00  0.00    -0.241 C  
HETATM   12  O   UNL     1     -10.481  12.905  66.575  1.00  0.00    -0.259 OA 
BRANCH  11  13
HETATM   13  C   UNL     1      -9.150  14.556  67.574  1.00  0.00    -0.193 A  
HETATM   14  C   UNL     1      -8.326  14.664  68.704  1.00  0.00    -0.165 A  
HETATM   15  C   UNL     1      -7.253  15.571  68.717  1.00  0.00    -0.134 A  
HETATM   16  C   UNL     1      -6.998  16.386  67.606  1.00  0.00    -0.157 A  
HETATM   17  C   UNL     1      -5.867  17.374  67.591  1.00  0.00    -0.148 C  
HETATM   18  C   UNL     1      -7.820  16.271  66.480  1.00  0.00    -0.298 A  
HETATM   19  C   UNL     1      -8.896  15.381  66.472  1.00  0.00    -0.347 A  
ENDBRANCH  11  13
ENDBRANCH   5  11
TORSDOF 3
ENDMDL
MODEL       96
REMARK 921   NORMALIZED FREE ENERGY PREDICTED BY IDOCK:   -4.62 KCAL/MOL
REMARK 922        TOTAL FREE ENERGY PREDICTED BY IDOCK:   -6.07 KCAL/MOL
REMARK 923 INTER-LIGAND FREE ENERGY PREDICTED BY IDOCK:   -5.45 KCAL/MOL
REMARK 924 INTRA-LIGAND FREE ENERGY PREDICTED BY IDOCK:   -0.62 KCAL/MOL
REMARK 927      BINDING AFFINITY PREDICTED BY RF-SCORE:    0.00 PKD
ROOT
HETATM    1  C   UNL     1     -11.271  10.491  70.269  1.00  0.00    -0.313 C  
HETATM    2  N   UNL     1     -10.183   9.662  69.779  1.00  0.00    -0.220 NA 
HETATM    3  C   UNL     1      -9.890   8.387  70.239  1.00  0.00    -0.181 A  
HETATM    4  C   UNL     1      -8.795   7.937  69.530  1.00  0.00    -0.142 A  
HETATM    5  C   UNL     1      -9.270  10.039  68.800  1.00  0.00    -0.159 A  
HETATM    6  C   UNL     1      -8.394   8.970  68.660  1.00  0.00    -0.123 A  
ENDROOT
BRANCH   3   7
HETATM    7  C   UNL     1     -10.586   7.709  71.394  1.00  0.00    -0.236 C  
HETATM    8  O   UNL     1     -10.333   7.251  73.742  1.00  0.00    -0.360 OA 
HETATM    9  O   UNL     1      -8.890   8.715  72.841  1.00  0.00    -0.367 OA 
HETATM   10  C   UNL     1      -9.930   7.860  72.754  1.00  0.00    -0.283 C  
ENDBRANCH   3   7
BRANCH   5  11
HETATM   11  C   UNL     1      -9.214  11.339  68.121  1.00  0.00    -0.170 C  
HETATM   12  O   UNL     1      -8.515  12.267  68.519  1.00  0.00    -0.152 OA 
BRANCH  11  13
HETATM   13  C   UNL     1     -10.040  11.561  66.884  1.00  0.00    -0.241 A  
HETATM   14  C   UNL     1     -11.184  12.372  66.933  1.00  0.00    -0.359 A  
HETATM   15  C   UNL     1     -11.970  12.561  65.785  1.00  0.00    -0.482 A  
HETATM   16  C   UNL     1     -11.629  11.934  64.579  1.00  0.00    -0.344 A  
HETATM   17  C   UNL     1     -12.455  12.104  63.336  1.00  0.00    -0.625 C  
HETATM   18  C   UNL     1     -10.486  11.129  64.535  1.00  0.00    -0.415 A  
HETATM   19  C   UNL     1      -9.712  10.928  65.680  1.00  0.00    -0.279 A  
ENDBRANCH  11  13
ENDBRANCH   5  11
TORSDOF 3
ENDMDL
MODEL       97
REMARK 921   NORMALIZED FREE ENERGY PREDICTED BY IDOCK:   -4.62 KCAL/MOL
REMARK 922        TOTAL FREE ENERGY PREDICTED BY IDOCK:   -6.07 KCAL/MOL
REMARK 923 INTER-LIGAND FREE ENERGY PREDICTED BY IDOCK:   -5.53 KCAL/MOL
REMARK 924 INTRA-LIGAND FREE ENERGY PREDICTED BY IDOCK:   -0.54 KCAL/MOL
REMARK 927      BINDING AFFINITY PREDICTED BY RF-SCORE:    0.00 PKD
ROOT
HETATM    1  C   UNL     1     -10.051  15.698  69.483  1.00  0.00    -0.277 C  
HETATM    2  N   UNL     1     -10.331  16.117  68.121  1.00  0.00    -0.260 NA 
HETATM    3  C   UNL     1     -10.075  17.381  67.612  1.00  0.00    -0.327 A  
HETATM    4  C   UNL     1     -10.478  17.381  66.292  1.00  0.00    -0.276 A  
HETATM    5  C   UNL     1     -10.916  15.317  67.143  1.00  0.00    -0.331 A  
HETATM    6  C   UNL     1     -11.024  16.114  66.011  1.00  0.00    -0.056 A  
ENDROOT
BRANCH   3   7
HETATM    7  C   UNL     1      -9.570  18.548  68.425  1.00  0.00    -0.383 C  
HETATM    8  O   UNL     1      -7.531  19.571  69.188  1.00  0.00    -0.366 OA 
HETATM    9  O   UNL     1      -7.329  17.959  67.639  1.00  0.00    -0.200 OA 
HETATM   10  C   UNL     1      -8.064  18.737  68.461  1.00  0.00    -0.346 C  
ENDBRANCH   3   7
BRANCH   5  11
HETATM   11  C   UNL     1     -11.388  13.939  67.318  1.00  0.00    -0.323 C  
HETATM   12  O   UNL     1     -12.226  13.625  68.160  1.00  0.00    -0.322 OA 
BRANCH  11  13
HETATM   13  C   UNL     1     -10.832  12.852  66.440  1.00  0.00    -0.293 A  
HETATM   14  C   UNL     1      -9.572  12.298  66.710  1.00  0.00    -0.220 A  
HETATM   15  C   UNL     1      -9.041  11.300  65.876  1.00  0.00    -0.217 A  
HETATM   16  C   UNL     1      -9.758  10.852  64.759  1.00  0.00    -0.323 A  
HETATM   17  C   UNL     1      -9.215   9.796  63.840  1.00  0.00    -0.248 C  
HETATM   18  C   UNL     1     -11.016  11.405  64.496  1.00  0.00    -0.346 A  
HETATM   19  C   UNL     1     -11.538  12.408  65.316  1.00  0.00    -0.419 A  
ENDBRANCH  11  13
ENDBRANCH   5  11
TORSDOF 3
ENDMDL
MODEL       98
REMARK 921   NORMALIZED FREE ENERGY PREDICTED BY IDOCK:   -4.62 KCAL/MOL
REMARK 922        TOTAL FREE ENERGY PREDICTED BY IDOCK:   -6.06 KCAL/MOL
REMARK 923 INTER-LIGAND FREE ENERGY PREDICTED BY IDOCK:   -5.70 KCAL/MOL
REMARK 924 INTRA-LIGAND FREE ENERGY PREDICTED BY IDOCK:   -0.37 KCAL/MOL
REMARK 927      BINDING AFFINITY PREDICTED BY RF-SCORE:    0.00 PKD
ROOT
HETATM    1  C   UNL     1     -10.781  16.733  69.202  1.00  0.00    -0.329 C  
HETATM    2  N   UNL     1      -9.781  16.533  68.168  1.00  0.00    -0.230 NA 
HETATM    3  C   UNL     1      -8.931  17.518  67.687  1.00  0.00    -0.231 A  
HETATM    4  C   UNL     1      -8.137  16.937  66.719  1.00  0.00    -0.276 A  
HETATM    5  C   UNL     1      -9.553  15.335  67.497  1.00  0.00    -0.206 A  
HETATM    6  C   UNL     1      -8.541  15.595  66.582  1.00  0.00    -0.330 A  
ENDROOT
BRANCH   3   7
HETATM    7  C   UNL     1      -8.989  18.972  68.086  1.00  0.00    -0.355 C  
HETATM    8  O   UNL     1      -9.584  21.140  67.229  1.00  0.00    -0.335 OA 
HETATM    9  O   UNL     1     -10.178  19.369  65.986  1.00  0.00    -0.433 OA 
HETATM   10  C   UNL     1      -9.597  19.922  67.070  1.00  0.00    -0.388 C  
ENDBRANCH   3   7
BRANCH   5  11
HETATM   11  C   UNL     1     -10.296  14.083  67.682  1.00  0.00    -0.242 C  
HETATM   12  O   UNL     1     -10.466  13.567  68.784  1.00  0.00    -0.245 OA 
BRANCH  11  13
HETATM   13  C   UNL     1     -10.881  13.389  66.483  1.00  0.00    -0.286 A  
HETATM   14  C   UNL     1     -10.118  12.461  65.760  1.00  0.00    -0.273 A  
HETATM   15  C   UNL     1     -10.654  11.830  64.625  1.00  0.00    -0.359 A  
HETATM   16  C   UNL     1     -11.954  12.127  64.195  1.00  0.00    -0.497 A  
HETATM   17  C   UNL     1     -12.554  11.481  62.980  1.00  0.00     0.265 C  
HETATM   18  C   UNL     1     -12.712  13.052  64.922  1.00  0.00    -0.456 A  
HETATM   19  C   UNL     1     -12.174  13.691  66.041  1.00  0.00    -0.492 A  
ENDBRANCH  11  13
ENDBRANCH   5  11
TORSDOF 3
ENDMDL
MODEL       99
REMARK 921   NORMALIZED FREE ENERGY PREDICTED BY IDOCK:   -4.58 KCAL/MOL
REMARK 922        TOTAL FREE ENERGY PREDICTED BY IDOCK:   -6.02 KCAL/MOL
REMARK 923 INTER-LIGAND FREE ENERGY PREDICTED BY IDOCK:   -6.47 KCAL/MOL
REMARK 924 INTRA-LIGAND FREE ENERGY PREDICTED BY IDOCK:    0.45 KCAL/MOL
REMARK 927      BINDING AFFINITY PREDICTED BY RF-SCORE:    0.00 PKD
ROOT
HETATM    1  C   UNL     1     -10.892  12.447  67.684  1.00  0.00    -0.225 C  
HETATM    2  N   UNL     1     -11.390  13.351  68.707  1.00  0.00    -0.272 NA 
HETATM    3  C   UNL     1     -11.962  12.953  69.906  1.00  0.00    -0.307 A  
HETATM    4  C   UNL     1     -12.303  14.098  70.597  1.00  0.00    -0.435 A  
HETATM    5  C   UNL     1     -11.386  14.740  68.616  1.00  0.00    -0.285 A  
HETATM    6  C   UNL     1     -11.973  15.202  69.787  1.00  0.00    -0.367 A  
ENDROOT
BRANCH   3   7
HETATM    7  C   UNL     1     -12.256  11.522  70.284  1.00  0.00    -0.415 C  
HETATM    8  O   UNL     1     -13.103  10.188  72.098  1.00  0.00    -0.435 OA 
HETATM    9  O   UNL     1     -13.354  12.411  72.281  1.00  0.00    -0.522 OA 
HETATM   10  C   UNL     1     -12.930  11.310  71.628  1.00  0.00    -0.432 C  
ENDBRANCH   3   7
BRANCH   5  11
HETATM   11  C   UNL     1     -10.921  15.533  67.472  1.00  0.00    -0.316 C  
HETATM   12  O   UNL     1     -11.261  15.294  66.316  1.00  0.00    -0.316 OA 
BRANCH  11  13
HETATM   13  C   UNL     1      -9.989  16.689  67.706  1.00  0.00    -0.262 A  
HETATM   14  C   UNL     1     -10.314  17.968  67.228  1.00  0.00    -0.387 A  
HETATM   15  C   UNL     1      -9.433  19.044  67.424  1.00  0.00    -0.347 A  
HETATM   16  C   UNL     1      -8.214  18.853  68.088  1.00  0.00    -0.343 A  
HETATM   17  C   UNL     1      -7.244  19.979  68.304  1.00  0.00    -0.312 C  
HETATM   18  C   UNL     1      -7.896  17.577  68.565  1.00  0.00    -0.274 A  
HETATM   19  C   UNL     1      -8.765  16.503  68.358  1.00  0.00    -0.218 A  
ENDBRANCH  11  13
ENDBRANCH   5  11
TORSDOF 3
ENDMDL
MODEL      100
REMARK 921   NORMALIZED FREE ENERGY PREDICTED BY IDOCK:   -4.57 KCAL/MOL
REMARK 922        TOTAL FREE ENERGY PREDICTED BY IDOCK:   -6.01 KCAL/MOL
REMARK 923 INTER-LIGAND FREE ENERGY PREDICTED BY IDOCK:   -5.33 KCAL/MOL
REMARK 924 INTRA-LIGAND FREE ENERGY PREDICTED BY IDOCK:   -0.68 KCAL/MOL
REMARK 927      BINDING AFFINITY PREDICTED BY RF-SCORE:    0.00 PKD
ROOT
HETATM    1  C   UNL     1      -8.118   9.040  68.309  1.00  0.00    -0.109 C  
HETATM    2  N   UNL     1      -9.275   9.363  69.125  1.00  0.00    -0.150 NA 
HETATM    3  C   UNL     1      -9.880   8.495  70.022  1.00  0.00    -0.179 A  
HETATM    4  C   UNL     1     -10.938   9.170  70.595  1.00  0.00    -0.319 A  
HETATM    5  C   UNL     1      -9.954  10.578  69.103  1.00  0.00    -0.220 A  
HETATM    6  C   UNL     1     -11.002  10.448  70.005  1.00  0.00    -0.370 A  
ENDROOT
BRANCH   3   7
HETATM    7  C   UNL     1      -9.497   7.048  70.208  1.00  0.00    -0.165 C  
HETATM    8  O   UNL     1     -10.155   4.826  69.563  1.00  0.00    -0.226 OA 
HETATM    9  O   UNL     1     -11.143   6.523  68.476  1.00  0.00    -0.296 OA 
HETATM   10  C   UNL     1     -10.291   6.035  69.401  1.00  0.00    -0.236 C  
ENDBRANCH   3   7
BRANCH   5  11
HETATM   11  C   UNL     1      -9.654  11.723  68.236  1.00  0.00    -0.199 C  
HETATM   12  O   UNL     1      -8.798  12.560  68.513  1.00  0.00    -0.146 OA 
BRANCH  11  13
HETATM   13  C   UNL     1     -10.416  11.896  66.951  1.00  0.00    -0.253 A  
HETATM   14  C   UNL     1     -11.540  12.733  66.902  1.00  0.00    -0.428 A  
HETATM   15  C   UNL     1     -12.268  12.876  65.709  1.00  0.00    -0.498 A  
HETATM   16  C   UNL     1     -11.886  12.177  64.556  1.00  0.00    -0.418 A  
HETATM   17  C   UNL     1     -12.648  12.297  63.267  1.00  0.00    -0.441 C  
HETATM   18  C   UNL     1     -10.762  11.346  64.610  1.00  0.00    -0.378 A  
HETATM   19  C   UNL     1     -10.047  11.192  65.799  1.00  0.00    -0.299 A  
ENDBRANCH  11  13
ENDBRANCH   5  11
TORSDOF 3
ENDMDL
MODEL      101
REMARK 921   NORMALIZED FREE ENERGY PREDICTED BY IDOCK:   -4.56 KCAL/MOL
REMARK 922        TOTAL FREE ENERGY PREDICTED BY IDOCK:   -5.99 KCAL/MOL
REMARK 923 INTER-LIGAND FREE ENERGY PREDICTED BY IDOCK:   -5.75 KCAL/MOL
REMARK 924 INTRA-LIGAND FREE ENERGY PREDICTED BY IDOCK:   -0.24 KCAL/MOL
REMARK 927      BINDING AFFINITY PREDICTED BY RF-SCORE:    0.00 PKD
ROOT
HETATM    1  C   UNL     1     -10.287  15.222  70.374  1.00  0.00    -0.059 C  
HETATM    2  N   UNL     1     -10.805  14.360  69.325  1.00  0.00    -0.255 NA 
HETATM    3  C   UNL     1     -11.823  13.433  69.492  1.00  0.00    -0.332 A  
HETATM    4  C   UNL     1     -12.023  12.820  68.272  1.00  0.00    -0.276 A  
HETATM    5  C   UNL     1     -10.337  14.326  68.015  1.00  0.00    -0.229 A  
HETATM    6  C   UNL     1     -11.084  13.351  67.367  1.00  0.00    -0.297 A  
ENDROOT
BRANCH   3   7
HETATM    7  C   UNL     1     -12.473  13.100  70.813  1.00  0.00    -0.389 C  
HETATM    8  O   UNL     1     -13.826  14.075  72.546  1.00  0.00    -0.555 OA 
HETATM    9  O   UNL     1     -13.600  15.266  70.657  1.00  0.00    -0.299 OA 
HETATM   10  C   UNL     1     -13.348  14.182  71.420  1.00  0.00    -0.331 C  
ENDBRANCH   3   7
BRANCH   5  11
HETATM   11  C   UNL     1      -9.224  15.113  67.471  1.00  0.00    -0.186 C  
HETATM   12  O   UNL     1      -8.192  14.599  67.045  1.00  0.00    -0.206 OA 
BRANCH  11  13
HETATM   13  C   UNL     1      -9.334  16.612  67.425  1.00  0.00    -0.223 A  
HETATM   14  C   UNL     1     -10.323  17.225  66.642  1.00  0.00    -0.305 A  
HETATM   15  C   UNL     1     -10.412  18.626  66.578  1.00  0.00    -0.465 A  
HETATM   16  C   UNL     1      -9.507  19.428  67.286  1.00  0.00    -0.398 A  
HETATM   17  C   UNL     1      -9.565  20.927  67.231  1.00  0.00    -0.386 C  
HETATM   18  C   UNL     1      -8.524  18.811  68.068  1.00  0.00    -0.319 A  
HETATM   19  C   UNL     1      -8.426  17.419  68.120  1.00  0.00    -0.241 A  
ENDBRANCH  11  13
ENDBRANCH   5  11
TORSDOF 3
ENDMDL
MODEL      102
REMARK 921   NORMALIZED FREE ENERGY PREDICTED BY IDOCK:   -4.56 KCAL/MOL
REMARK 922        TOTAL FREE ENERGY PREDICTED BY IDOCK:   -5.99 KCAL/MOL
REMARK 923 INTER-LIGAND FREE ENERGY PREDICTED BY IDOCK:   -5.31 KCAL/MOL
REMARK 924 INTRA-LIGAND FREE ENERGY PREDICTED BY IDOCK:   -0.69 KCAL/MOL
REMARK 927      BINDING AFFINITY PREDICTED BY RF-SCORE:    0.00 PKD
ROOT
HETATM    1  C   UNL     1     -11.772  10.578  68.040  1.00  0.00     0.169 C  
HETATM    2  N   UNL     1     -11.921  11.580  69.081  1.00  0.00    -0.330 NA 
HETATM    3  C   UNL     1     -11.649  12.931  68.926  1.00  0.00    -0.315 A  
HETATM    4  C   UNL     1     -11.913  13.544  70.133  1.00  0.00    -0.399 A  
HETATM    5  C   UNL     1     -12.334  11.322  70.385  1.00  0.00    -0.329 A  
HETATM    6  C   UNL     1     -12.309  12.545  71.044  1.00  0.00    -0.307 A  
ENDROOT
BRANCH   3   7
HETATM    7  C   UNL     1     -11.051  13.549  67.686  1.00  0.00    -0.290 C  
HETATM    8  O   UNL     1      -8.933  14.088  66.681  1.00  0.00    -0.231 OA 
HETATM    9  O   UNL     1      -8.878  12.784  68.507  1.00  0.00    -0.145 OA 
HETATM   10  C   UNL     1      -9.537  13.508  67.579  1.00  0.00    -0.221 C  
ENDBRANCH   3   7
BRANCH   5  11
HETATM   11  C   UNL     1     -12.651  10.005  70.950  1.00  0.00    -0.332 C  
HETATM   12  O   UNL     1     -13.774   9.510  70.891  1.00  0.00    -0.202 OA 
BRANCH  11  13
HETATM   13  C   UNL     1     -11.570   9.216  71.633  1.00  0.00    -0.449 A  
HETATM   14  C   UNL     1     -10.221   9.457  71.334  1.00  0.00    -0.297 A  
HETATM   15  C   UNL     1      -9.210   8.703  71.953  1.00  0.00    -0.345 A  
HETATM   16  C   UNL     1      -9.536   7.693  72.867  1.00  0.00    -0.262 A  
HETATM   17  C   UNL     1      -8.481   6.860  73.538  1.00  0.00    -0.147 C  
HETATM   18  C   UNL     1     -10.883   7.458  73.164  1.00  0.00    -0.435 A  
HETATM   19  C   UNL     1     -11.889   8.197  72.538  1.00  0.00    -0.438 A  
ENDBRANCH  11  13
ENDBRANCH   5  11
TORSDOF 3
ENDMDL
MODEL      103
REMARK 921   NORMALIZED FREE ENERGY PREDICTED BY IDOCK:   -4.55 KCAL/MOL
REMARK 922        TOTAL FREE ENERGY PREDICTED BY IDOCK:   -5.98 KCAL/MOL
REMARK 923 INTER-LIGAND FREE ENERGY PREDICTED BY IDOCK:   -5.54 KCAL/MOL
REMARK 924 INTRA-LIGAND FREE ENERGY PREDICTED BY IDOCK:   -0.45 KCAL/MOL
REMARK 927      BINDING AFFINITY PREDICTED BY RF-SCORE:    0.00 PKD
ROOT
HETATM    1  C   UNL     1     -12.038  13.904  68.558  1.00  0.00    -0.296 C  
HETATM    2  N   UNL     1     -11.633  12.902  67.587  1.00  0.00    -0.334 NA 
HETATM    3  C   UNL     1     -11.576  11.538  67.832  1.00  0.00    -0.282 A  
HETATM    4  C   UNL     1     -11.148  10.930  66.670  1.00  0.00    -0.155 A  
HETATM    5  C   UNL     1     -11.222  13.172  66.285  1.00  0.00    -0.301 A  
HETATM    6  C   UNL     1     -10.902  11.943  65.722  1.00  0.00    -0.341 A  
ENDROOT
BRANCH   3   7
HETATM    7  C   UNL     1     -11.820  10.896  69.176  1.00  0.00    -0.389 C  
HETATM    8  O   UNL     1     -10.698   9.653  70.903  1.00  0.00    -0.302 OA 
HETATM    9  O   UNL     1      -9.401  10.558  69.310  1.00  0.00    -0.199 OA 
HETATM   10  C   UNL     1     -10.604  10.309  69.869  1.00  0.00    -0.276 C  
ENDBRANCH   3   7
BRANCH   5  11
HETATM   11  C   UNL     1     -11.086  14.500  65.676  1.00  0.00    -0.327 C  
HETATM   12  O   UNL     1     -11.844  14.910  64.800  1.00  0.00    -0.400 OA 
BRANCH  11  13
HETATM   13  C   UNL     1      -9.980  15.411  66.130  1.00  0.00    -0.330 A  
HETATM   14  C   UNL     1      -8.798  14.877  66.667  1.00  0.00    -0.287 A  
HETATM   15  C   UNL     1      -7.774  15.727  67.114  1.00  0.00    -0.255 A  
HETATM   16  C   UNL     1      -7.922  17.118  67.041  1.00  0.00    -0.230 A  
HETATM   17  C   UNL     1      -6.852  18.056  67.522  1.00  0.00    -0.199 C  
HETATM   18  C   UNL     1      -9.101  17.645  66.503  1.00  0.00    -0.284 A  
HETATM   19  C   UNL     1     -10.126  16.801  66.071  1.00  0.00    -0.350 A  
ENDBRANCH  11  13
ENDBRANCH   5  11
TORSDOF 3
ENDMDL
MODEL      104
REMARK 921   NORMALIZED FREE ENERGY PREDICTED BY IDOCK:   -4.54 KCAL/MOL
REMARK 922        TOTAL FREE ENERGY PREDICTED BY IDOCK:   -5.98 KCAL/MOL
REMARK 923 INTER-LIGAND FREE ENERGY PREDICTED BY IDOCK:   -5.71 KCAL/MOL
REMARK 924 INTRA-LIGAND FREE ENERGY PREDICTED BY IDOCK:   -0.26 KCAL/MOL
REMARK 927      BINDING AFFINITY PREDICTED BY RF-SCORE:    0.00 PKD
ROOT
HETATM    1  C   UNL     1     -11.130  12.057  67.347  1.00  0.00    -0.281 C  
HETATM    2  N   UNL     1     -11.512  12.768  68.555  1.00  0.00    -0.285 NA 
HETATM    3  C   UNL     1     -11.949  12.165  69.726  1.00  0.00    -0.302 A  
HETATM    4  C   UNL     1     -12.211  13.172  70.632  1.00  0.00    -0.402 A  
HETATM    5  C   UNL     1     -11.518  14.152  68.699  1.00  0.00    -0.299 A  
HETATM    6  C   UNL     1     -11.973  14.402  69.988  1.00  0.00    -0.394 A  
ENDROOT
BRANCH   3   7
HETATM    7  C   UNL     1     -12.198  10.686  69.888  1.00  0.00    -0.346 C  
HETATM    8  O   UNL     1     -11.049   8.573  69.917  1.00  0.00    -0.218 OA 
HETATM    9  O   UNL     1      -9.768  10.415  69.961  1.00  0.00    -0.091 OA 
HETATM   10  C   UNL     1     -10.967   9.798  69.916  1.00  0.00    -0.264 C  
ENDBRANCH   3   7
BRANCH   5  11
HETATM   11  C   UNL     1     -11.182  15.134  67.661  1.00  0.00    -0.327 C  
HETATM   12  O   UNL     1     -11.650  15.086  66.526  1.00  0.00    -0.302 OA 
BRANCH  11  13
HETATM   13  C   UNL     1     -10.228  16.250  67.981  1.00  0.00    -0.256 A  
HETATM   14  C   UNL     1     -10.628  17.587  67.837  1.00  0.00    -0.390 A  
HETATM   15  C   UNL     1      -9.729  18.631  68.112  1.00  0.00    -0.372 A  
HETATM   16  C   UNL     1      -8.419  18.351  68.523  1.00  0.00    -0.346 A  
HETATM   17  C   UNL     1      -7.429  19.442  68.814  1.00  0.00    -0.393 C  
HETATM   18  C   UNL     1      -8.026  17.016  68.668  1.00  0.00    -0.258 A  
HETATM   19  C   UNL     1      -8.914  15.977  68.380  1.00  0.00    -0.188 A  
ENDBRANCH  11  13
ENDBRANCH   5  11
TORSDOF 3
ENDMDL
MODEL      105
REMARK 921   NORMALIZED FREE ENERGY PREDICTED BY IDOCK:   -4.53 KCAL/MOL
REMARK 922        TOTAL FREE ENERGY PREDICTED BY IDOCK:   -5.96 KCAL/MOL
REMARK 923 INTER-LIGAND FREE ENERGY PREDICTED BY IDOCK:   -5.61 KCAL/MOL
REMARK 924 INTRA-LIGAND FREE ENERGY PREDICTED BY IDOCK:   -0.35 KCAL/MOL
REMARK 927      BINDING AFFINITY PREDICTED BY RF-SCORE:    0.00 PKD
ROOT
HETATM    1  C   UNL     1     -11.083   6.783  67.107  1.00  0.00    -0.333 C  
HETATM    2  N   UNL     1     -10.249   7.577  67.994  1.00  0.00    -0.187 NA 
HETATM    3  C   UNL     1     -10.227   7.461  69.376  1.00  0.00    -0.201 A  
HETATM    4  C   UNL     1      -9.314   8.380  69.850  1.00  0.00    -0.155 A  
HETATM    5  C   UNL     1      -9.375   8.580  67.584  1.00  0.00    -0.137 A  
HETATM    6  C   UNL     1      -8.809   9.092  68.744  1.00  0.00    -0.137 A  
ENDROOT
BRANCH   3   7
HETATM    7  C   UNL     1     -11.145   6.571  70.178  1.00  0.00    -0.410 C  
HETATM    8  O   UNL     1     -12.836   6.658  71.887  1.00  0.00    -0.328 OA 
HETATM    9  O   UNL     1     -12.210   8.618  70.990  1.00  0.00    -0.273 OA 
HETATM   10  C   UNL     1     -12.128   7.275  71.095  1.00  0.00    -0.340 C  
ENDBRANCH   3   7
BRANCH   5  11
HETATM   11  C   UNL     1      -9.168   9.040  66.206  1.00  0.00    -0.206 C  
HETATM   12  O   UNL     1      -8.383   8.495  65.434  1.00  0.00    -0.138 OA 
BRANCH  11  13
HETATM   13  C   UNL     1      -9.941  10.226  65.700  1.00  0.00    -0.347 A  
HETATM   14  C   UNL     1      -9.939  10.542  64.334  1.00  0.00    -0.410 A  
HETATM   15  C   UNL     1     -10.640  11.665  63.863  1.00  0.00    -0.446 A  
HETATM   16  C   UNL     1     -11.342  12.488  64.753  1.00  0.00    -0.354 A  
HETATM   17  C   UNL     1     -12.092  13.703  64.285  1.00  0.00    -0.480 C  
HETATM   18  C   UNL     1     -11.344  12.167  66.114  1.00  0.00    -0.414 A  
HETATM   19  C   UNL     1     -10.634  11.060  66.585  1.00  0.00    -0.315 A  
ENDBRANCH  11  13
ENDBRANCH   5  11
TORSDOF 3
ENDMDL
MODEL      106
REMARK 921   NORMALIZED FREE ENERGY PREDICTED BY IDOCK:   -4.53 KCAL/MOL
REMARK 922        TOTAL FREE ENERGY PREDICTED BY IDOCK:   -5.96 KCAL/MOL
REMARK 923 INTER-LIGAND FREE ENERGY PREDICTED BY IDOCK:   -5.26 KCAL/MOL
REMARK 924 INTRA-LIGAND FREE ENERGY PREDICTED BY IDOCK:   -0.70 KCAL/MOL
REMARK 927      BINDING AFFINITY PREDICTED BY RF-SCORE:    0.00 PKD
ROOT
HETATM    1  C   UNL     1      -8.060   8.132  68.979  1.00  0.00    -0.115 C  
HETATM    2  N   UNL     1      -9.230   7.464  68.436  1.00  0.00    -0.139 NA 
HETATM    3  C   UNL     1      -9.361   7.037  67.123  1.00  0.00    -0.143 A  
HETATM    4  C   UNL     1     -10.607   6.454  67.004  1.00  0.00    -0.396 A  
HETATM    5  C   UNL     1     -10.391   7.180  69.150  1.00  0.00    -0.200 A  
HETATM    6  C   UNL     1     -11.254   6.569  68.250  1.00  0.00    -0.259 A  
ENDROOT
BRANCH   3   7
HETATM    7  C   UNL     1      -8.355   7.299  66.030  1.00  0.00    -0.140 C  
HETATM    8  O   UNL     1      -7.834   8.870  64.284  1.00  0.00    -0.119 OA 
HETATM    9  O   UNL     1      -9.422   9.482  65.747  1.00  0.00    -0.211 OA 
HETATM   10  C   UNL     1      -8.513   8.605  65.273  1.00  0.00    -0.179 C  
ENDBRANCH   3   7
BRANCH   5  11
HETATM   11  C   UNL     1     -10.657   7.535  70.549  1.00  0.00    -0.225 C  
HETATM   12  O   UNL     1     -10.288   6.840  71.492  1.00  0.00    -0.207 OA 
BRANCH  11  13
HETATM   13  C   UNL     1     -11.412   8.798  70.859  1.00  0.00    -0.330 A  
HETATM   14  C   UNL     1     -11.124   9.983  70.166  1.00  0.00    -0.371 A  
HETATM   15  C   UNL     1     -11.811  11.170  70.472  1.00  0.00    -0.448 A  
HETATM   16  C   UNL     1     -12.784  11.188  71.480  1.00  0.00    -0.499 A  
HETATM   17  C   UNL     1     -13.528  12.441  71.841  1.00  0.00    -0.366 C  
HETATM   18  C   UNL     1     -13.069  10.002  72.166  1.00  0.00    -0.482 A  
HETATM   19  C   UNL     1     -12.376   8.826  71.873  1.00  0.00    -0.429 A  
ENDBRANCH  11  13
ENDBRANCH   5  11
TORSDOF 3
ENDMDL
MODEL      107
REMARK 921   NORMALIZED FREE ENERGY PREDICTED BY IDOCK:   -4.52 KCAL/MOL
REMARK 922        TOTAL FREE ENERGY PREDICTED BY IDOCK:   -5.95 KCAL/MOL
REMARK 923 INTER-LIGAND FREE ENERGY PREDICTED BY IDOCK:   -5.28 KCAL/MOL
REMARK 924 INTRA-LIGAND FREE ENERGY PREDICTED BY IDOCK:   -0.66 KCAL/MOL
REMARK 927      BINDING AFFINITY PREDICTED BY RF-SCORE:    0.00 PKD
ROOT
HETATM    1  C   UNL     1     -11.319   6.487  69.693  1.00  0.00    -0.380 C  
HETATM    2  N   UNL     1     -10.556   7.543  70.336  1.00  0.00    -0.224 NA 
HETATM    3  C   UNL     1     -10.895   8.145  71.539  1.00  0.00    -0.238 A  
HETATM    4  C   UNL     1      -9.928   9.091  71.810  1.00  0.00    -0.359 A  
HETATM    5  C   UNL     1      -9.395   8.115  69.825  1.00  0.00    -0.159 A  
HETATM    6  C   UNL     1      -9.017   9.093  70.736  1.00  0.00    -0.296 A  
ENDROOT
BRANCH   3   7
HETATM    7  C   UNL     1     -12.164   7.872  72.309  1.00  0.00    -0.333 C  
HETATM    8  O   UNL     1     -14.367   8.761  72.688  1.00  0.00    -0.585 OA 
HETATM    9  O   UNL     1     -13.184   9.680  71.016  1.00  0.00    -0.324 OA 
HETATM   10  C   UNL     1     -13.329   8.806  72.033  1.00  0.00    -0.413 C  
ENDBRANCH   3   7
BRANCH   5  11
HETATM   11  C   UNL     1      -8.760   7.790  68.543  1.00  0.00    -0.128 C  
HETATM   12  O   UNL     1      -7.941   6.883  68.418  1.00  0.00    -0.118 OA 
BRANCH  11  13
HETATM   13  C   UNL     1      -9.115   8.589  67.320  1.00  0.00    -0.152 A  
HETATM   14  C   UNL     1     -10.187   9.494  67.352  1.00  0.00    -0.285 A  
HETATM   15  C   UNL     1     -10.535  10.223  66.202  1.00  0.00    -0.200 A  
HETATM   16  C   UNL     1      -9.824  10.049  65.008  1.00  0.00    -0.374 A  
HETATM   17  C   UNL     1     -10.177  10.803  63.758  1.00  0.00    -0.354 C  
HETATM   18  C   UNL     1      -8.754   9.148  64.983  1.00  0.00    -0.222 A  
HETATM   19  C   UNL     1      -8.417   8.411  66.120  1.00  0.00    -0.139 A  
ENDBRANCH  11  13
ENDBRANCH   5  11
TORSDOF 3
ENDMDL
MODEL      108
REMARK 921   NORMALIZED FREE ENERGY PREDICTED BY IDOCK:   -4.51 KCAL/MOL
REMARK 922        TOTAL FREE ENERGY PREDICTED BY IDOCK:   -5.95 KCAL/MOL
REMARK 923 INTER-LIGAND FREE ENERGY PREDICTED BY IDOCK:   -5.30 KCAL/MOL
REMARK 924 INTRA-LIGAND FREE ENERGY PREDICTED BY IDOCK:   -0.65 KCAL/MOL
REMARK 927      BINDING AFFINITY PREDICTED BY RF-SCORE:    0.00 PKD
ROOT
HETATM    1  C   UNL     1     -12.532  13.510  66.776  1.00  0.00    -0.159 C  
HETATM    2  N   UNL     1     -11.150  13.921  66.950  1.00  0.00    -0.296 NA 
HETATM    3  C   UNL     1     -10.724  14.934  67.796  1.00  0.00    -0.271 A  
HETATM    4  C   UNL     1      -9.351  15.016  67.678  1.00  0.00    -0.194 A  
HETATM    5  C   UNL     1     -10.063  13.373  66.275  1.00  0.00    -0.299 A  
HETATM    6  C   UNL     1      -8.946  14.071  66.716  1.00  0.00    -0.217 A  
ENDROOT
BRANCH   3   7
HETATM    7  C   UNL     1     -11.641  15.838  68.583  1.00  0.00    -0.392 C  
HETATM    8  O   UNL     1     -13.049  15.859  70.533  1.00  0.00    -0.421 OA 
HETATM    9  O   UNL     1     -11.697  14.084  70.287  1.00  0.00    -0.277 OA 
HETATM   10  C   UNL     1     -12.197  15.267  69.875  1.00  0.00    -0.323 C  
ENDBRANCH   3   7
BRANCH   5  11
HETATM   11  C   UNL     1     -10.118  12.324  65.250  1.00  0.00    -0.271 C  
HETATM   12  O   UNL     1     -10.338  12.563  64.065  1.00  0.00    -0.377 OA 
BRANCH  11  13
HETATM   13  C   UNL     1      -9.899  10.891  65.648  1.00  0.00    -0.292 A  
HETATM   14  C   UNL     1      -9.204  10.018  64.798  1.00  0.00    -0.301 A  
HETATM   15  C   UNL     1      -9.020   8.673  65.157  1.00  0.00    -0.111 A  
HETATM   16  C   UNL     1      -9.536   8.183  66.364  1.00  0.00    -0.286 A  
HETATM   17  C   UNL     1      -9.368   6.747  66.773  1.00  0.00    -0.189 C  
HETATM   18  C   UNL     1     -10.226   9.058  67.210  1.00  0.00    -0.323 A  
HETATM   19  C   UNL     1     -10.422  10.392  66.846  1.00  0.00    -0.300 A  
ENDBRANCH  11  13
ENDBRANCH   5  11
TORSDOF 3
ENDMDL
MODEL      109
REMARK 921   NORMALIZED FREE ENERGY PREDICTED BY IDOCK:   -4.50 KCAL/MOL
REMARK 922        TOTAL FREE ENERGY PREDICTED BY IDOCK:   -5.92 KCAL/MOL
REMARK 923 INTER-LIGAND FREE ENERGY PREDICTED BY IDOCK:   -5.68 KCAL/MOL
REMARK 924 INTRA-LIGAND FREE ENERGY PREDICTED BY IDOCK:   -0.25 KCAL/MOL
REMARK 927      BINDING AFFINITY PREDICTED BY RF-SCORE:    0.00 PKD
ROOT
HETATM    1  C   UNL     1     -13.459  12.248  72.391  1.00  0.00    -0.104 C  
HETATM    2  N   UNL     1     -12.747  12.811  71.257  1.00  0.00    -0.336 NA 
HETATM    3  C   UNL     1     -12.687  14.162  70.951  1.00  0.00    -0.361 A  
HETATM    4  C   UNL     1     -11.922  14.290  69.809  1.00  0.00    -0.394 A  
HETATM    5  C   UNL     1     -12.047  12.073  70.307  1.00  0.00    -0.312 A  
HETATM    6  C   UNL     1     -11.551  12.995  69.395  1.00  0.00    -0.360 A  
ENDROOT
BRANCH   3   7
HETATM    7  C   UNL     1     -13.442  15.243  71.684  1.00  0.00    -0.573 C  
HETATM    8  O   UNL     1     -13.422  16.493  73.739  1.00  0.00    -0.547 OA 
HETATM    9  O   UNL     1     -11.607  15.248  73.302  1.00  0.00    -0.379 OA 
HETATM   10  C   UNL     1     -12.836  15.712  72.995  1.00  0.00    -0.490 C  
ENDBRANCH   3   7
BRANCH   5  11
HETATM   11  C   UNL     1     -11.936  10.611  70.254  1.00  0.00    -0.339 C  
HETATM   12  O   UNL     1     -12.908   9.866  70.356  1.00  0.00    -0.115 OA 
BRANCH  11  13
HETATM   13  C   UNL     1     -10.584   9.980  70.069  1.00  0.00    -0.344 A  
HETATM   14  C   UNL     1      -9.911  10.093  68.844  1.00  0.00    -0.194 A  
HETATM   15  C   UNL     1      -8.659   9.483  68.661  1.00  0.00    -0.119 A  
HETATM   16  C   UNL     1      -8.070   8.746  69.697  1.00  0.00    -0.101 A  
HETATM   17  C   UNL     1      -6.739   8.071  69.532  1.00  0.00    -0.038 C  
HETATM   18  C   UNL     1      -8.744   8.638  70.918  1.00  0.00    -0.216 A  
HETATM   19  C   UNL     1      -9.996   9.231  71.095  1.00  0.00    -0.356 A  
ENDBRANCH  11  13
ENDBRANCH   5  11
TORSDOF 3
ENDMDL
MODEL      110
REMARK 921   NORMALIZED FREE ENERGY PREDICTED BY IDOCK:   -4.42 KCAL/MOL
REMARK 922        TOTAL FREE ENERGY PREDICTED BY IDOCK:   -5.83 KCAL/MOL
REMARK 923 INTER-LIGAND FREE ENERGY PREDICTED BY IDOCK:   -5.32 KCAL/MOL
REMARK 924 INTRA-LIGAND FREE ENERGY PREDICTED BY IDOCK:   -0.51 KCAL/MOL
REMARK 927      BINDING AFFINITY PREDICTED BY RF-SCORE:    0.00 PKD
ROOT
HETATM    1  C   UNL     1     -10.021  13.606  68.966  1.00  0.00     0.103 C  
HETATM    2  N   UNL     1     -10.323  15.027  68.973  1.00  0.00    -0.236 NA 
HETATM    3  C   UNL     1     -10.819  15.728  70.062  1.00  0.00    -0.342 A  
HETATM    4  C   UNL     1     -10.970  17.042  69.670  1.00  0.00     0.125 A  
HETATM    5  C   UNL     1     -10.180  15.879  67.881  1.00  0.00    -0.251 A  
HETATM    6  C   UNL     1     -10.603  17.130  68.313  1.00  0.00    -0.375 A  
ENDROOT
BRANCH   3   7
HETATM    7  C   UNL     1     -11.224  15.101  71.374  1.00  0.00    -0.319 C  
HETATM    8  O   UNL     1     -13.138  14.202  72.521  1.00  0.00    -0.420 OA 
HETATM    9  O   UNL     1     -13.386  14.628  70.331  1.00  0.00    -0.164 OA 
HETATM   10  C   UNL     1     -12.659  14.613  71.467  1.00  0.00    -0.343 C  
ENDBRANCH   3   7
BRANCH   5  11
HETATM   11  C   UNL     1      -9.744  15.496  66.534  1.00  0.00    -0.270 C  
HETATM   12  O   UNL     1      -8.709  15.920  66.024  1.00  0.00    -0.321 OA 
BRANCH  11  13
HETATM   13  C   UNL     1     -10.586  14.546  65.728  1.00  0.00    -0.326 A  
HETATM   14  C   UNL     1     -11.964  14.445  65.967  1.00  0.00    -0.377 A  
HETATM   15  C   UNL     1     -12.748  13.540  65.232  1.00  0.00    -0.481 A  
HETATM   16  C   UNL     1     -12.162  12.719  64.259  1.00  0.00    -0.499 A  
HETATM   17  C   UNL     1     -12.968  11.732  63.464  1.00  0.00    -0.215 C  
HETATM   18  C   UNL     1     -10.787  12.827  64.022  1.00  0.00    -0.458 A  
HETATM   19  C   UNL     1     -10.005  13.715  64.763  1.00  0.00    -0.147 A  
ENDBRANCH  11  13
ENDBRANCH   5  11
TORSDOF 3
ENDMDL
MODEL      111
REMARK 921   NORMALIZED FREE ENERGY PREDICTED BY IDOCK:   -4.40 KCAL/MOL
REMARK 922        TOTAL FREE ENERGY PREDICTED BY IDOCK:   -5.81 KCAL/MOL
REMARK 923 INTER-LIGAND FREE ENERGY PREDICTED BY IDOCK:   -5.63 KCAL/MOL
REMARK 924 INTRA-LIGAND FREE ENERGY PREDICTED BY IDOCK:   -0.18 KCAL/MOL
REMARK 927      BINDING AFFINITY PREDICTED BY RF-SCORE:    0.00 PKD
ROOT
HETATM    1  C   UNL     1      -9.687  10.102  69.696  1.00  0.00    -0.221 C  
HETATM    2  N   UNL     1     -10.914  10.159  70.473  1.00  0.00    -0.314 NA 
HETATM    3  C   UNL     1     -11.920  11.097  70.297  1.00  0.00    -0.373 A  
HETATM    4  C   UNL     1     -12.908  10.816  71.220  1.00  0.00    -0.540 A  
HETATM    5  C   UNL     1     -11.239   9.297  71.516  1.00  0.00    -0.386 A  
HETATM    6  C   UNL     1     -12.473   9.721  71.992  1.00  0.00    -0.390 A  
ENDROOT
BRANCH   3   7
HETATM    7  C   UNL     1     -11.847  12.268  69.348  1.00  0.00    -0.370 C  
HETATM    8  O   UNL     1     -12.171  14.650  69.265  1.00  0.00    -0.288 OA 
HETATM    9  O   UNL     1     -12.165  13.706  71.301  1.00  0.00    -0.318 OA 
HETATM   10  C   UNL     1     -12.081  13.639  69.956  1.00  0.00    -0.348 C  
ENDBRANCH   3   7
BRANCH   5  11
HETATM   11  C   UNL     1     -10.399   8.215  72.041  1.00  0.00    -0.254 C  
HETATM   12  O   UNL     1      -9.868   8.263  73.148  1.00  0.00    -0.253 OA 
BRANCH  11  13
HETATM   13  C   UNL     1     -10.165   6.989  71.203  1.00  0.00    -0.208 A  
HETATM   14  C   UNL     1      -8.989   6.239  71.356  1.00  0.00    -0.139 A  
HETATM   15  C   UNL     1      -8.759   5.108  70.557  1.00  0.00    -0.134 A  
HETATM   16  C   UNL     1      -9.694   4.719  69.589  1.00  0.00    -0.272 A  
HETATM   17  C   UNL     1      -9.474   3.522  68.709  1.00  0.00    -0.208 C  
HETATM   18  C   UNL     1     -10.867   5.468  69.443  1.00  0.00    -0.236 A  
HETATM   19  C   UNL     1     -11.090   6.602  70.226  1.00  0.00    -0.379 A  
ENDBRANCH  11  13
ENDBRANCH   5  11
TORSDOF 3
ENDMDL
MODEL      112
REMARK 921   NORMALIZED FREE ENERGY PREDICTED BY IDOCK:   -4.40 KCAL/MOL
REMARK 922        TOTAL FREE ENERGY PREDICTED BY IDOCK:   -5.80 KCAL/MOL
REMARK 923 INTER-LIGAND FREE ENERGY PREDICTED BY IDOCK:   -5.32 KCAL/MOL
REMARK 924 INTRA-LIGAND FREE ENERGY PREDICTED BY IDOCK:   -0.48 KCAL/MOL
REMARK 927      BINDING AFFINITY PREDICTED BY RF-SCORE:    0.00 PKD
ROOT
HETATM    1  C   UNL     1     -11.618  12.171  69.671  1.00  0.00    -0.291 C  
HETATM    2  N   UNL     1     -11.242  11.025  68.861  1.00  0.00    -0.240 NA 
HETATM    3  C   UNL     1     -10.854   9.792  69.363  1.00  0.00    -0.232 A  
HETATM    4  C   UNL     1     -10.580   8.977  68.284  1.00  0.00    -0.213 A  
HETATM    5  C   UNL     1     -11.195  11.011  67.470  1.00  0.00    -0.302 A  
HETATM    6  C   UNL     1     -10.763   9.740  67.114  1.00  0.00    -0.273 A  
ENDROOT
BRANCH   3   7
HETATM    7  C   UNL     1     -10.657   9.485  70.828  1.00  0.00    -0.387 C  
HETATM    8  O   UNL     1     -11.802   8.561  72.731  1.00  0.00    -0.326 OA 
HETATM    9  O   UNL     1     -12.794   8.298  70.735  1.00  0.00     0.072 OA 
HETATM   10  C   UNL     1     -11.794   8.753  71.518  1.00  0.00    -0.311 C  
ENDBRANCH   3   7
BRANCH   5  11
HETATM   11  C   UNL     1     -11.473  12.146  66.581  1.00  0.00    -0.365 C  
HETATM   12  O   UNL     1     -12.474  12.203  65.871  1.00  0.00    -0.453 OA 
BRANCH  11  13
HETATM   13  C   UNL     1     -10.504  13.294  66.525  1.00  0.00    -0.282 A  
HETATM   14  C   UNL     1      -9.208  13.152  67.041  1.00  0.00    -0.233 A  
HETATM   15  C   UNL     1      -8.309  14.232  67.012  1.00  0.00    -0.156 A  
HETATM   16  C   UNL     1      -8.700  15.466  66.477  1.00  0.00    -0.335 A  
HETATM   17  C   UNL     1      -7.769  16.645  66.441  1.00  0.00    -0.328 C  
HETATM   18  C   UNL     1      -9.993  15.602  65.961  1.00  0.00    -0.359 A  
HETATM   19  C   UNL     1     -10.892  14.534  66.004  1.00  0.00    -0.310 A  
ENDBRANCH  11  13
ENDBRANCH   5  11
TORSDOF 3
ENDMDL
MODEL      113
REMARK 921   NORMALIZED FREE ENERGY PREDICTED BY IDOCK:   -4.39 KCAL/MOL
REMARK 922        TOTAL FREE ENERGY PREDICTED BY IDOCK:   -5.80 KCAL/MOL
REMARK 923 INTER-LIGAND FREE ENERGY PREDICTED BY IDOCK:   -5.15 KCAL/MOL
REMARK 924 INTRA-LIGAND FREE ENERGY PREDICTED BY IDOCK:   -0.65 KCAL/MOL
REMARK 927      BINDING AFFINITY PREDICTED BY RF-SCORE:    0.00 PKD
ROOT
HETATM    1  C   UNL     1      -8.173  14.141  68.324  1.00  0.00    -0.148 C  
HETATM    2  N   UNL     1      -9.157  15.133  68.720  1.00  0.00    -0.191 NA 
HETATM    3  C   UNL     1      -8.866  16.448  69.055  1.00  0.00    -0.240 A  
HETATM    4  C   UNL     1     -10.060  17.064  69.370  1.00  0.00    -0.139 A  
HETATM    5  C   UNL     1     -10.523  14.899  68.843  1.00  0.00    -0.242 A  
HETATM    6  C   UNL     1     -11.081  16.098  69.267  1.00  0.00    -0.327 A  
ENDROOT
BRANCH   3   7
HETATM    7  C   UNL     1      -7.473  17.018  69.165  1.00  0.00    -0.162 C  
HETATM    8  O   UNL     1      -5.751  18.056  67.845  1.00  0.00    -0.155 OA 
HETATM    9  O   UNL     1      -7.764  17.832  66.877  1.00  0.00    -0.198 OA 
HETATM   10  C   UNL     1      -6.915  17.671  67.913  1.00  0.00    -0.187 C  
ENDBRANCH   3   7
BRANCH   5  11
HETATM   11  C   UNL     1     -11.205  13.616  68.637  1.00  0.00    -0.277 C  
HETATM   12  O   UNL     1     -11.477  12.853  69.561  1.00  0.00    -0.267 OA 
BRANCH  11  13
HETATM   13  C   UNL     1     -11.593  13.202  67.245  1.00  0.00    -0.404 A  
HETATM   14  C   UNL     1     -12.503  13.972  66.505  1.00  0.00    -0.351 A  
HETATM   15  C   UNL     1     -12.886  13.573  65.214  1.00  0.00    -0.410 A  
HETATM   16  C   UNL     1     -12.373  12.396  64.653  1.00  0.00    -0.518 A  
HETATM   17  C   UNL     1     -12.770  11.933  63.280  1.00  0.00    -0.407 C  
HETATM   18  C   UNL     1     -11.464  11.633  65.394  1.00  0.00    -0.170 A  
HETATM   19  C   UNL     1     -11.094  12.021  66.683  1.00  0.00    -0.358 A  
ENDBRANCH  11  13
ENDBRANCH   5  11
TORSDOF 3
ENDMDL
MODEL      114
REMARK 921   NORMALIZED FREE ENERGY PREDICTED BY IDOCK:   -4.37 KCAL/MOL
REMARK 922        TOTAL FREE ENERGY PREDICTED BY IDOCK:   -5.77 KCAL/MOL
REMARK 923 INTER-LIGAND FREE ENERGY PREDICTED BY IDOCK:   -5.32 KCAL/MOL
REMARK 924 INTRA-LIGAND FREE ENERGY PREDICTED BY IDOCK:   -0.46 KCAL/MOL
REMARK 927      BINDING AFFINITY PREDICTED BY RF-SCORE:    0.00 PKD
ROOT
HETATM    1  C   UNL     1      -9.180  12.497  66.340  1.00  0.00    -0.177 C  
HETATM    2  N   UNL     1     -10.458  12.493  65.651  1.00  0.00    -0.267 NA 
HETATM    3  C   UNL     1     -10.711  11.842  64.452  1.00  0.00    -0.327 A  
HETATM    4  C   UNL     1     -12.032  12.076  64.129  1.00  0.00    -0.461 A  
HETATM    5  C   UNL     1     -11.601  13.161  66.082  1.00  0.00    -0.355 A  
HETATM    6  C   UNL     1     -12.574  12.916  65.122  1.00  0.00    -0.536 A  
ENDROOT
BRANCH   3   7
HETATM    7  C   UNL     1      -9.669  11.129  63.626  1.00  0.00    -0.352 C  
HETATM    8  O   UNL     1      -8.215   9.213  63.670  1.00  0.00    -0.155 OA 
HETATM    9  O   UNL     1      -9.779   9.326  65.275  1.00  0.00    -0.216 OA 
HETATM   10  C   UNL     1      -9.150   9.817  64.187  1.00  0.00    -0.244 C  
ENDBRANCH   3   7
BRANCH   5  11
HETATM   11  C   UNL     1     -11.710  14.012  67.272  1.00  0.00    -0.389 C  
HETATM   12  O   UNL     1     -11.560  15.231  67.234  1.00  0.00    -0.286 OA 
BRANCH  11  13
HETATM   13  C   UNL     1     -12.016  13.384  68.603  1.00  0.00    -0.362 A  
HETATM   14  C   UNL     1     -12.317  14.187  69.713  1.00  0.00    -0.350 A  
HETATM   15  C   UNL     1     -12.579  13.602  70.963  1.00  0.00    -0.441 A  
HETATM   16  C   UNL     1     -12.534  12.210  71.120  1.00  0.00    -0.337 A  
HETATM   17  C   UNL     1     -12.797  11.552  72.444  1.00  0.00     0.613 C  
HETATM   18  C   UNL     1     -12.236  11.414  70.009  1.00  0.00    -0.377 A  
HETATM   19  C   UNL     1     -11.960  11.995  68.770  1.00  0.00    -0.299 A  
ENDBRANCH  11  13
ENDBRANCH   5  11
TORSDOF 3
ENDMDL
MODEL      115
REMARK 921   NORMALIZED FREE ENERGY PREDICTED BY IDOCK:   -4.35 KCAL/MOL
REMARK 922        TOTAL FREE ENERGY PREDICTED BY IDOCK:   -5.76 KCAL/MOL
REMARK 923 INTER-LIGAND FREE ENERGY PREDICTED BY IDOCK:   -5.65 KCAL/MOL
REMARK 924 INTRA-LIGAND FREE ENERGY PREDICTED BY IDOCK:   -0.10 KCAL/MOL
REMARK 927      BINDING AFFINITY PREDICTED BY RF-SCORE:    0.00 PKD
ROOT
HETATM    1  C   UNL     1     -13.144   7.067  71.563  1.00  0.00    -0.339 C  
HETATM    2  N   UNL     1     -11.862   7.735  71.419  1.00  0.00    -0.290 NA 
HETATM    3  C   UNL     1     -11.639   9.083  71.656  1.00  0.00    -0.356 A  
HETATM    4  C   UNL     1     -10.304   9.328  71.410  1.00  0.00    -0.392 A  
HETATM    5  C   UNL     1     -10.685   7.123  70.999  1.00  0.00    -0.232 A  
HETATM    6  C   UNL     1      -9.720   8.121  70.976  1.00  0.00    -0.193 A  
ENDROOT
BRANCH   3   7
HETATM    7  C   UNL     1     -12.716  10.085  71.993  1.00  0.00    -0.439 C  
HETATM    8  O   UNL     1     -13.362  12.367  71.588  1.00  0.00    -0.351 OA 
HETATM    9  O   UNL     1     -11.691  11.555  70.328  1.00  0.00    -0.327 OA 
HETATM   10  C   UNL     1     -12.620  11.432  71.299  1.00  0.00    -0.374 C  
ENDBRANCH   3   7
BRANCH   5  11
HETATM   11  C   UNL     1     -10.534   5.720  70.594  1.00  0.00    -0.264 C  
HETATM   12  O   UNL     1     -10.532   4.792  71.399  1.00  0.00    -0.159 OA 
BRANCH  11  13
HETATM   13  C   UNL     1     -10.374   5.387  69.136  1.00  0.00    -0.300 A  
HETATM   14  C   UNL     1     -11.023   6.156  68.159  1.00  0.00    -0.398 A  
HETATM   15  C   UNL     1     -10.895   5.830  66.798  1.00  0.00    -0.327 A  
HETATM   16  C   UNL     1     -10.127   4.728  66.401  1.00  0.00    -0.291 A  
HETATM   17  C   UNL     1      -9.978   4.345  64.956  1.00  0.00    -0.165 C  
HETATM   18  C   UNL     1      -9.479   3.966  67.379  1.00  0.00    -0.236 A  
HETATM   19  C   UNL     1      -9.618   4.280  68.733  1.00  0.00    -0.219 A  
ENDBRANCH  11  13
ENDBRANCH   5  11
TORSDOF 3
ENDMDL
MODEL      116
REMARK 921   NORMALIZED FREE ENERGY PREDICTED BY IDOCK:   -4.30 KCAL/MOL
REMARK 922        TOTAL FREE ENERGY PREDICTED BY IDOCK:   -5.69 KCAL/MOL
REMARK 923 INTER-LIGAND FREE ENERGY PREDICTED BY IDOCK:   -5.36 KCAL/MOL
REMARK 924 INTRA-LIGAND FREE ENERGY PREDICTED BY IDOCK:   -0.32 KCAL/MOL
REMARK 927      BINDING AFFINITY PREDICTED BY RF-SCORE:    0.00 PKD
ROOT
HETATM    1  C   UNL     1      -7.106  14.054  67.599  1.00  0.00    -0.179 C  
HETATM    2  N   UNL     1      -8.405  14.150  66.957  1.00  0.00    -0.164 NA 
HETATM    3  C   UNL     1      -8.924  15.302  66.385  1.00  0.00    -0.304 A  
HETATM    4  C   UNL     1     -10.171  14.985  65.885  1.00  0.00    -0.335 A  
HETATM    5  C   UNL     1      -9.321  13.107  66.848  1.00  0.00    -0.246 A  
HETATM    6  C   UNL     1     -10.428  13.636  66.197  1.00  0.00    -0.297 A  
ENDROOT
BRANCH   3   7
HETATM    7  C   UNL     1      -8.266  16.659  66.438  1.00  0.00    -0.353 C  
HETATM    8  O   UNL     1      -8.329  18.738  67.646  1.00  0.00    -0.266 OA 
HETATM    9  O   UNL     1      -9.499  17.032  68.518  1.00  0.00    -0.252 OA 
HETATM   10  C   UNL     1      -8.700  17.569  67.573  1.00  0.00    -0.225 C  
ENDBRANCH   3   7
BRANCH   5  11
HETATM   11  C   UNL     1      -9.161  11.752  67.388  1.00  0.00    -0.175 C  
HETATM   12  O   UNL     1      -8.350  10.948  66.936  1.00  0.00    -0.126 OA 
BRANCH  11  13
HETATM   13  C   UNL     1     -10.017  11.312  68.543  1.00  0.00    -0.206 A  
HETATM   14  C   UNL     1      -9.599  10.263  69.375  1.00  0.00    -0.237 A  
HETATM   15  C   UNL     1     -10.409   9.834  70.440  1.00  0.00    -0.354 A  
HETATM   16  C   UNL     1     -11.649  10.441  70.678  1.00  0.00    -0.440 A  
HETATM   17  C   UNL     1     -12.545  10.000  71.799  1.00  0.00    -0.504 C  
HETATM   18  C   UNL     1     -12.060  11.489  69.847  1.00  0.00    -0.389 A  
HETATM   19  C   UNL     1     -11.262  11.906  68.779  1.00  0.00    -0.314 A  
ENDBRANCH  11  13
ENDBRANCH   5  11
TORSDOF 3
ENDMDL
MODEL      117
REMARK 921   NORMALIZED FREE ENERGY PREDICTED BY IDOCK:   -4.30 KCAL/MOL
REMARK 922        TOTAL FREE ENERGY PREDICTED BY IDOCK:   -5.69 KCAL/MOL
REMARK 923 INTER-LIGAND FREE ENERGY PREDICTED BY IDOCK:   -5.19 KCAL/MOL
REMARK 924 INTRA-LIGAND FREE ENERGY PREDICTED BY IDOCK:   -0.50 KCAL/MOL
REMARK 927      BINDING AFFINITY PREDICTED BY RF-SCORE:    0.00 PKD
ROOT
HETATM    1  C   UNL     1      -9.240  12.159  66.549  1.00  0.00    -0.216 C  
HETATM    2  N   UNL     1     -10.305  12.483  67.482  1.00  0.00    -0.218 NA 
HETATM    3  C   UNL     1     -10.833  13.751  67.673  1.00  0.00    -0.254 A  
HETATM    4  C   UNL     1     -11.818  13.644  68.634  1.00  0.00    -0.409 A  
HETATM    5  C   UNL     1     -10.928  11.572  68.330  1.00  0.00    -0.221 A  
HETATM    6  C   UNL     1     -11.856  12.302  69.061  1.00  0.00    -0.358 A  
ENDROOT
BRANCH   3   7
HETATM    7  C   UNL     1     -10.307  15.007  67.023  1.00  0.00    -0.269 C  
HETATM    8  O   UNL     1      -8.897  16.907  67.458  1.00  0.00    -0.206 OA 
HETATM    9  O   UNL     1      -8.839  15.244  68.965  1.00  0.00    -0.196 OA 
HETATM   10  C   UNL     1      -9.298  15.806  67.828  1.00  0.00    -0.206 C  
ENDBRANCH   3   7
BRANCH   5  11
HETATM   11  C   UNL     1     -10.600  10.148  68.465  1.00  0.00    -0.216 C  
HETATM   12  O   UNL     1     -10.696   9.353  67.533  1.00  0.00    -0.280 OA 
BRANCH  11  13
HETATM   13  C   UNL     1     -10.125   9.622  69.791  1.00  0.00    -0.258 A  
HETATM   14  C   UNL     1      -8.756   9.421  70.024  1.00  0.00    -0.227 A  
HETATM   15  C   UNL     1      -8.313   8.907  71.254  1.00  0.00    -0.223 A  
HETATM   16  C   UNL     1      -9.232   8.578  72.259  1.00  0.00    -0.343 A  
HETATM   17  C   UNL     1      -8.794   8.015  73.581  1.00  0.00    -0.326 C  
HETATM   18  C   UNL     1     -10.596   8.783  72.023  1.00  0.00    -0.414 A  
HETATM   19  C   UNL     1     -11.038   9.280  70.795  1.00  0.00    -0.349 A  
ENDBRANCH  11  13
ENDBRANCH   5  11
TORSDOF 3
ENDMDL
MODEL      118
REMARK 921   NORMALIZED FREE ENERGY PREDICTED BY IDOCK:   -4.25 KCAL/MOL
REMARK 922        TOTAL FREE ENERGY PREDICTED BY IDOCK:   -5.63 KCAL/MOL
REMARK 923 INTER-LIGAND FREE ENERGY PREDICTED BY IDOCK:   -5.04 KCAL/MOL
REMARK 924 INTRA-LIGAND FREE ENERGY PREDICTED BY IDOCK:   -0.59 KCAL/MOL
REMARK 927      BINDING AFFINITY PREDICTED BY RF-SCORE:    0.00 PKD
ROOT
HETATM    1  C   UNL     1      -8.003  14.092  67.067  1.00  0.00     0.037 C  
HETATM    2  N   UNL     1      -9.384  14.527  67.191  1.00  0.00    -0.209 NA 
HETATM    3  C   UNL     1      -9.812  15.597  67.963  1.00  0.00    -0.209 A  
HETATM    4  C   UNL     1     -11.181  15.686  67.817  1.00  0.00    -0.297 A  
HETATM    5  C   UNL     1     -10.472  13.918  66.572  1.00  0.00    -0.282 A  
HETATM    6  C   UNL     1     -11.593  14.630  66.980  1.00  0.00    -0.385 A  
ENDROOT
BRANCH   3   7
HETATM    7  C   UNL     1      -8.925  16.404  68.880  1.00  0.00    -0.256 C  
HETATM    8  O   UNL     1      -7.506  18.346  68.900  1.00  0.00    -0.289 OA 
HETATM    9  O   UNL     1      -8.790  18.057  67.082  1.00  0.00    -0.240 OA 
HETATM   10  C   UNL     1      -8.339  17.676  68.295  1.00  0.00    -0.274 C  
ENDBRANCH   3   7
BRANCH   5  11
HETATM   11  C   UNL     1     -10.430  12.719  65.727  1.00  0.00    -0.276 C  
HETATM   12  O   UNL     1     -10.399  12.772  64.500  1.00  0.00    -0.336 OA 
BRANCH  11  13
HETATM   13  C   UNL     1     -10.423  11.362  66.373  1.00  0.00    -0.299 A  
HETATM   14  C   UNL     1      -9.694  10.309  65.799  1.00  0.00    -0.297 A  
HETATM   15  C   UNL     1      -9.707   9.033  66.387  1.00  0.00    -0.337 A  
HETATM   16  C   UNL     1     -10.455   8.793  67.547  1.00  0.00    -0.340 A  
HETATM   17  C   UNL     1     -10.501   7.438  68.195  1.00  0.00    -0.241 C  
HETATM   18  C   UNL     1     -11.178   9.847  68.117  1.00  0.00    -0.142 A  
HETATM   19  C   UNL     1     -11.178  11.112  67.524  1.00  0.00    -0.369 A  
ENDBRANCH  11  13
ENDBRANCH   5  11
TORSDOF 3
ENDMDL
MODEL      119
REMARK 921   NORMALIZED FREE ENERGY PREDICTED BY IDOCK:   -4.24 KCAL/MOL
REMARK 922        TOTAL FREE ENERGY PREDICTED BY IDOCK:   -5.62 KCAL/MOL
REMARK 923 INTER-LIGAND FREE ENERGY PREDICTED BY IDOCK:   -4.97 KCAL/MOL
REMARK 924 INTRA-LIGAND FREE ENERGY PREDICTED BY IDOCK:   -0.65 KCAL/MOL
REMARK 927      BINDING AFFINITY PREDICTED BY RF-SCORE:    0.00 PKD
ROOT
HETATM    1  C   UNL     1      -8.066  16.012  66.103  1.00  0.00     0.089 C  
HETATM    2  N   UNL     1      -8.898  17.202  66.118  1.00  0.00    -0.477 NA 
HETATM    3  C   UNL     1     -10.274  17.210  65.938  1.00  0.00    -0.276 A  
HETATM    4  C   UNL     1     -10.691  18.523  66.021  1.00  0.00    -0.252 A  
HETATM    5  C   UNL     1      -8.432  18.502  66.291  1.00  0.00    -0.207 A  
HETATM    6  C   UNL     1      -9.548  19.324  66.210  1.00  0.00    -0.411 A  
ENDROOT
BRANCH   3   7
HETATM    7  C   UNL     1     -11.101  15.997  65.590  1.00  0.00    -0.063 C  
HETATM    8  O   UNL     1     -12.066  14.027  66.576  1.00  0.00    -0.424 OA 
HETATM    9  O   UNL     1     -11.232  15.556  67.992  1.00  0.00    -0.313 OA 
HETATM   10  C   UNL     1     -11.502  15.104  66.750  1.00  0.00    -0.195 C  
ENDBRANCH   3   7
BRANCH   5  11
HETATM   11  C   UNL     1      -7.029  18.906  66.446  1.00  0.00    -0.221 C  
HETATM   12  O   UNL     1      -6.243  18.954  65.503  1.00  0.00    -0.214 OA 
BRANCH  11  13
HETATM   13  C   UNL     1      -6.516  19.279  67.809  1.00  0.00    -0.239 A  
HETATM   14  C   UNL     1      -6.291  18.289  68.777  1.00  0.00    -0.221 A  
HETATM   15  C   UNL     1      -5.835  18.639  70.059  1.00  0.00    -0.246 A  
HETATM   16  C   UNL     1      -5.609  19.981  70.390  1.00  0.00    -0.318 A  
HETATM   17  C   UNL     1      -5.133  20.392  71.755  1.00  0.00    -0.374 C  
HETATM   18  C   UNL     1      -5.831  20.965  69.420  1.00  0.00    -0.251 A  
HETATM   19  C   UNL     1      -6.299  20.619  68.151  1.00  0.00    -0.353 A  
ENDBRANCH  11  13
ENDBRANCH   5  11
TORSDOF 3
ENDMDL
MODEL      120
REMARK 921   NORMALIZED FREE ENERGY PREDICTED BY IDOCK:   -4.24 KCAL/MOL
REMARK 922        TOTAL FREE ENERGY PREDICTED BY IDOCK:   -5.62 KCAL/MOL
REMARK 923 INTER-LIGAND FREE ENERGY PREDICTED BY IDOCK:   -5.05 KCAL/MOL
REMARK 924 INTRA-LIGAND FREE ENERGY PREDICTED BY IDOCK:   -0.57 KCAL/MOL
REMARK 927      BINDING AFFINITY PREDICTED BY RF-SCORE:    0.00 PKD
ROOT
HETATM    1  C   UNL     1      -8.555  16.260  66.361  1.00  0.00    -0.326 C  
HETATM    2  N   UNL     1      -9.485  16.134  67.470  1.00  0.00    -0.222 NA 
HETATM    3  C   UNL     1     -10.455  17.068  67.801  1.00  0.00    -0.349 A  
HETATM    4  C   UNL     1     -11.128  16.587  68.905  1.00  0.00    -0.300 A  
HETATM    5  C   UNL     1      -9.517  15.072  68.368  1.00  0.00    -0.201 A  
HETATM    6  C   UNL     1     -10.529  15.366  69.273  1.00  0.00    -0.251 A  
ENDROOT
BRANCH   3   7
HETATM    7  C   UNL     1     -10.621  18.409  67.129  1.00  0.00    -0.416 C  
HETATM    8  O   UNL     1      -9.813  20.673  67.213  1.00  0.00    -0.471 OA 
HETATM    9  O   UNL     1      -8.695  19.160  68.437  1.00  0.00    -0.325 OA 
HETATM   10  C   UNL     1      -9.689  19.513  67.595  1.00  0.00    -0.344 C  
ENDBRANCH   3   7
BRANCH   5  11
HETATM   11  C   UNL     1      -8.606  13.922  68.385  1.00  0.00    -0.169 C  
HETATM   12  O   UNL     1      -7.419  14.019  68.689  1.00  0.00    -0.116 OA 
BRANCH  11  13
HETATM   13  C   UNL     1      -9.128  12.561  68.015  1.00  0.00    -0.200 A  
HETATM   14  C   UNL     1      -8.497  11.406  68.500  1.00  0.00    -0.152 A  
HETATM   15  C   UNL     1      -8.968  10.133  68.136  1.00  0.00    -0.122 A  
HETATM   16  C   UNL     1     -10.067  10.002  67.276  1.00  0.00    -0.259 A  
HETATM   17  C   UNL     1     -10.589   8.657  66.857  1.00  0.00    -0.270 C  
HETATM   18  C   UNL     1     -10.694  11.157  66.799  1.00  0.00    -0.326 A  
HETATM   19  C   UNL     1     -10.217  12.423  67.148  1.00  0.00    -0.226 A  
ENDBRANCH  11  13
ENDBRANCH   5  11
TORSDOF 3
ENDMDL
MODEL      121
REMARK 921   NORMALIZED FREE ENERGY PREDICTED BY IDOCK:   -4.17 KCAL/MOL
REMARK 922        TOTAL FREE ENERGY PREDICTED BY IDOCK:   -5.54 KCAL/MOL
REMARK 923 INTER-LIGAND FREE ENERGY PREDICTED BY IDOCK:   -4.87 KCAL/MOL
REMARK 924 INTRA-LIGAND FREE ENERGY PREDICTED BY IDOCK:   -0.67 KCAL/MOL
REMARK 927      BINDING AFFINITY PREDICTED BY RF-SCORE:    0.00 PKD
ROOT
HETATM    1  C   UNL     1     -12.776   7.054  71.564  1.00  0.00    -0.381 C  
HETATM    2  N   UNL     1     -11.425   7.489  71.873  1.00  0.00    -0.261 NA 
HETATM    3  C   UNL     1     -10.992   8.807  71.853  1.00  0.00    -0.365 A  
HETATM    4  C   UNL     1      -9.657   8.806  72.203  1.00  0.00    -0.325 A  
HETATM    5  C   UNL     1     -10.370   6.645  72.208  1.00  0.00    -0.197 A  
HETATM    6  C   UNL     1      -9.266   7.467  72.393  1.00  0.00    -0.173 A  
ENDROOT
BRANCH   3   7
HETATM    7  C   UNL     1     -11.829   9.979  71.401  1.00  0.00    -0.447 C  
HETATM    8  O   UNL     1     -12.184  11.424  69.512  1.00  0.00    -0.296 OA 
HETATM    9  O   UNL     1     -10.901   9.615  69.167  1.00  0.00    -0.220 OA 
HETATM   10  C   UNL     1     -11.653  10.410  69.956  1.00  0.00    -0.301 C  
ENDBRANCH   3   7
BRANCH   5  11
HETATM   11  C   UNL     1     -10.419   5.180  72.270  1.00  0.00    -0.219 C  
HETATM   12  O   UNL     1     -10.722   4.567  73.290  1.00  0.00    -0.195 OA 
BRANCH  11  13
HETATM   13  C   UNL     1     -10.085   4.378  71.042  1.00  0.00    -0.195 A  
HETATM   14  C   UNL     1      -9.723   3.028  71.155  1.00  0.00    -0.192 A  
HETATM   15  C   UNL     1      -9.387   2.284  70.012  1.00  0.00    -0.175 A  
HETATM   16  C   UNL     1      -9.400   2.883  68.745  1.00  0.00    -0.234 A  
HETATM   17  C   UNL     1      -9.035   2.121  67.504  1.00  0.00    -0.183 C  
HETATM   18  C   UNL     1      -9.765   4.229  68.638  1.00  0.00    -0.174 A  
HETATM   19  C   UNL     1     -10.084   4.974  69.775  1.00  0.00    -0.337 A  
ENDBRANCH  11  13
ENDBRANCH   5  11
TORSDOF 3
ENDMDL
MODEL      122
REMARK 921   NORMALIZED FREE ENERGY PREDICTED BY IDOCK:   -4.15 KCAL/MOL
REMARK 922        TOTAL FREE ENERGY PREDICTED BY IDOCK:   -5.52 KCAL/MOL
REMARK 923 INTER-LIGAND FREE ENERGY PREDICTED BY IDOCK:   -4.87 KCAL/MOL
REMARK 924 INTRA-LIGAND FREE ENERGY PREDICTED BY IDOCK:   -0.65 KCAL/MOL
REMARK 927      BINDING AFFINITY PREDICTED BY RF-SCORE:    0.00 PKD
ROOT
HETATM    1  C   UNL     1      -8.306   9.243  70.538  1.00  0.00    -0.205 C  
HETATM    2  N   UNL     1      -9.066   8.980  69.328  1.00  0.00    -0.143 NA 
HETATM    3  C   UNL     1      -8.513   8.786  68.071  1.00  0.00    -0.126 A  
HETATM    4  C   UNL     1      -9.556   8.566  67.194  1.00  0.00    -0.232 A  
HETATM    5  C   UNL     1     -10.454   8.911  69.256  1.00  0.00    -0.224 A  
HETATM    6  C   UNL     1     -10.757   8.673  67.922  1.00  0.00    -0.158 A  
ENDROOT
BRANCH   3   7
HETATM    7  C   UNL     1      -7.046   8.927  67.747  1.00  0.00    -0.079 C  
HETATM    8  O   UNL     1      -5.459  10.484  66.827  1.00  0.00    -0.041 OA 
HETATM    9  O   UNL     1      -7.506  11.285  67.285  1.00  0.00    -0.112 OA 
HETATM   10  C   UNL     1      -6.599  10.287  67.241  1.00  0.00    -0.068 C  
ENDBRANCH   3   7
BRANCH   5  11
HETATM   11  C   UNL     1     -11.392   9.128  70.364  1.00  0.00    -0.224 C  
HETATM   12  O   UNL     1     -11.790   8.216  71.085  1.00  0.00    -0.284 OA 
BRANCH  11  13
HETATM   13  C   UNL     1     -11.897  10.516  70.642  1.00  0.00    -0.458 A  
HETATM   14  C   UNL     1     -12.762  10.751  71.721  1.00  0.00    -0.464 A  
HETATM   15  C   UNL     1     -13.255  12.043  71.968  1.00  0.00    -0.481 A  
HETATM   16  C   UNL     1     -12.898  13.111  71.134  1.00  0.00    -0.349 A  
HETATM   17  C   UNL     1     -13.416  14.502  71.361  1.00  0.00    -0.445 C  
HETATM   18  C   UNL     1     -12.032  12.872  70.061  1.00  0.00    -0.380 A  
HETATM   19  C   UNL     1     -11.554  11.585  69.806  1.00  0.00    -0.401 A  
ENDBRANCH  11  13
ENDBRANCH   5  11
TORSDOF 3
ENDMDL
MODEL      123
REMARK 921   NORMALIZED FREE ENERGY PREDICTED BY IDOCK:   -4.12 KCAL/MOL
REMARK 922        TOTAL FREE ENERGY PREDICTED BY IDOCK:   -5.48 KCAL/MOL
REMARK 923 INTER-LIGAND FREE ENERGY PREDICTED BY IDOCK:   -4.97 KCAL/MOL
REMARK 924 INTRA-LIGAND FREE ENERGY PREDICTED BY IDOCK:   -0.50 KCAL/MOL
REMARK 927      BINDING AFFINITY PREDICTED BY RF-SCORE:    0.00 PKD
ROOT
HETATM    1  C   UNL     1     -10.528  14.343  69.504  1.00  0.00    -0.007 C  
HETATM    2  N   UNL     1     -10.372  13.541  68.304  1.00  0.00    -0.246 NA 
HETATM    3  C   UNL     1     -11.124  12.415  67.999  1.00  0.00    -0.245 A  
HETATM    4  C   UNL     1     -10.676  11.940  66.783  1.00  0.00    -0.282 A  
HETATM    5  C   UNL     1      -9.432  13.772  67.304  1.00  0.00    -0.236 A  
HETATM    6  C   UNL     1      -9.610  12.762  66.368  1.00  0.00    -0.254 A  
ENDROOT
BRANCH   3   7
HETATM    7  C   UNL     1     -12.143  11.789  68.918  1.00  0.00    -0.238 C  
HETATM    8  O   UNL     1     -12.384  10.044  70.557  1.00  0.00    -0.264 OA 
HETATM    9  O   UNL     1     -10.292  10.528  69.902  1.00  0.00    -0.221 OA 
HETATM   10  C   UNL     1     -11.628  10.711  69.855  1.00  0.00    -0.316 C  
ENDBRANCH   3   7
BRANCH   5  11
HETATM   11  C   UNL     1      -8.415  14.830  67.299  1.00  0.00    -0.214 C  
HETATM   12  O   UNL     1      -7.209  14.594  67.305  1.00  0.00    -0.185 OA 
BRANCH  11  13
HETATM   13  C   UNL     1      -8.848  16.270  67.287  1.00  0.00    -0.204 A  
HETATM   14  C   UNL     1      -8.325  17.175  68.223  1.00  0.00    -0.232 A  
HETATM   15  C   UNL     1      -8.747  18.515  68.228  1.00  0.00    -0.333 A  
HETATM   16  C   UNL     1      -9.703  18.962  67.307  1.00  0.00    -0.355 A  
HETATM   17  C   UNL     1     -10.186  20.384  67.293  1.00  0.00    -0.432 C  
HETATM   18  C   UNL     1     -10.219  18.057  66.374  1.00  0.00    -0.393 A  
HETATM   19  C   UNL     1      -9.811  16.721  66.377  1.00  0.00    -0.312 A  
ENDBRANCH  11  13
ENDBRANCH   5  11
TORSDOF 3
ENDMDL
MODEL      124
REMARK 921   NORMALIZED FREE ENERGY PREDICTED BY IDOCK:   -4.09 KCAL/MOL
REMARK 922        TOTAL FREE ENERGY PREDICTED BY IDOCK:   -5.45 KCAL/MOL
REMARK 923 INTER-LIGAND FREE ENERGY PREDICTED BY IDOCK:   -4.80 KCAL/MOL
REMARK 924 INTRA-LIGAND FREE ENERGY PREDICTED BY IDOCK:   -0.65 KCAL/MOL
REMARK 927      BINDING AFFINITY PREDICTED BY RF-SCORE:    0.00 PKD
ROOT
HETATM    1  C   UNL     1      -8.633  10.087  69.205  1.00  0.00    -0.158 C  
HETATM    2  N   UNL     1      -9.945  10.199  69.818  1.00  0.00    -0.235 NA 
HETATM    3  C   UNL     1     -10.921  11.109  69.440  1.00  0.00    -0.244 A  
HETATM    4  C   UNL     1     -12.014  10.899  70.256  1.00  0.00    -0.448 A  
HETATM    5  C   UNL     1     -10.397   9.428  70.884  1.00  0.00    -0.310 A  
HETATM    6  C   UNL     1     -11.679   9.879  71.168  1.00  0.00    -0.478 A  
ENDROOT
BRANCH   3   7
HETATM    7  C   UNL     1     -10.732  12.194  68.409  1.00  0.00    -0.252 C  
HETATM    8  O   UNL     1     -10.673  12.544  66.030  1.00  0.00    -0.254 OA 
HETATM    9  O   UNL     1     -11.405  10.543  66.735  1.00  0.00    -0.153 OA 
HETATM   10  C   UNL     1     -10.923  11.783  66.960  1.00  0.00    -0.285 C  
ENDBRANCH   3   7
BRANCH   5  11
HETATM   11  C   UNL     1      -9.628   8.403  71.600  1.00  0.00    -0.221 C  
HETATM   12  O   UNL     1      -8.982   8.646  72.617  1.00  0.00    -0.351 OA 
BRANCH  11  13
HETATM   13  C   UNL     1      -9.618   6.992  71.082  1.00  0.00    -0.165 A  
HETATM   14  C   UNL     1      -9.075   5.956  71.857  1.00  0.00    -0.142 A  
HETATM   15  C   UNL     1      -9.042   4.641  71.364  1.00  0.00    -0.173 A  
HETATM   16  C   UNL     1      -9.542   4.348  70.089  1.00  0.00    -0.263 A  
HETATM   17  C   UNL     1      -9.511   2.956  69.526  1.00  0.00    -0.161 C  
HETATM   18  C   UNL     1     -10.085   5.384  69.321  1.00  0.00    -0.301 A  
HETATM   19  C   UNL     1     -10.104   6.694  69.804  1.00  0.00    -0.204 A  
ENDBRANCH  11  13
ENDBRANCH   5  11
TORSDOF 3
ENDMDL
MODEL      125
REMARK 921   NORMALIZED FREE ENERGY PREDICTED BY IDOCK:   -4.08 KCAL/MOL
REMARK 922        TOTAL FREE ENERGY PREDICTED BY IDOCK:   -5.43 KCAL/MOL
REMARK 923 INTER-LIGAND FREE ENERGY PREDICTED BY IDOCK:   -4.75 KCAL/MOL
REMARK 924 INTRA-LIGAND FREE ENERGY PREDICTED BY IDOCK:   -0.69 KCAL/MOL
REMARK 927      BINDING AFFINITY PREDICTED BY RF-SCORE:    0.00 PKD
ROOT
HETATM    1  C   UNL     1      -9.958  16.443  68.836  1.00  0.00    -0.257 C  
HETATM    2  N   UNL     1      -8.758  16.653  68.045  1.00  0.00    -0.191 NA 
HETATM    3  C   UNL     1      -8.454  17.822  67.361  1.00  0.00    -0.226 A  
HETATM    4  C   UNL     1      -7.239  17.627  66.736  1.00  0.00    -0.247 A  
HETATM    5  C   UNL     1      -7.759  15.706  67.840  1.00  0.00    -0.131 A  
HETATM    6  C   UNL     1      -6.824  16.309  67.009  1.00  0.00    -0.235 A  
ENDROOT
BRANCH   3   7
HETATM    7  C   UNL     1      -9.374  19.013  67.246  1.00  0.00    -0.344 C  
HETATM    8  O   UNL     1     -11.057  19.963  65.814  1.00  0.00    -0.228 OA 
HETATM    9  O   UNL     1     -10.424  17.857  65.363  1.00  0.00    -0.635 OA 
HETATM   10  C   UNL     1     -10.349  18.996  66.082  1.00  0.00    -0.468 C  
ENDBRANCH   3   7
BRANCH   5  11
HETATM   11  C   UNL     1      -7.753  14.329  68.346  1.00  0.00    -0.134 C  
HETATM   12  O   UNL     1      -7.311  14.029  69.452  1.00  0.00    -0.051 OA 
BRANCH  11  13
HETATM   13  C   UNL     1      -8.308  13.226  67.489  1.00  0.00    -0.186 A  
HETATM   14  C   UNL     1      -7.516  12.114  67.164  1.00  0.00    -0.129 A  
HETATM   15  C   UNL     1      -8.024  11.095  66.342  1.00  0.00    -0.147 A  
HETATM   16  C   UNL     1      -9.325  11.179  65.828  1.00  0.00    -0.238 A  
HETATM   17  C   UNL     1      -9.895  10.113  64.937  1.00  0.00    -0.390 C  
HETATM   18  C   UNL     1     -10.112  12.288  66.157  1.00  0.00    -0.265 A  
HETATM   19  C   UNL     1      -9.602  13.309  66.961  1.00  0.00    -0.243 A  
ENDBRANCH  11  13
ENDBRANCH   5  11
TORSDOF 3
ENDMDL
MODEL      126
REMARK 921   NORMALIZED FREE ENERGY PREDICTED BY IDOCK:   -4.08 KCAL/MOL
REMARK 922        TOTAL FREE ENERGY PREDICTED BY IDOCK:   -5.43 KCAL/MOL
REMARK 923 INTER-LIGAND FREE ENERGY PREDICTED BY IDOCK:   -5.15 KCAL/MOL
REMARK 924 INTRA-LIGAND FREE ENERGY PREDICTED BY IDOCK:   -0.28 KCAL/MOL
REMARK 927      BINDING AFFINITY PREDICTED BY RF-SCORE:    0.00 PKD
ROOT
HETATM    1  C   UNL     1     -11.350  14.618  65.258  1.00  0.00    -0.354 C  
HETATM    2  N   UNL     1     -10.570  14.083  66.359  1.00  0.00    -0.278 NA 
HETATM    3  C   UNL     1     -10.234  12.746  66.517  1.00  0.00    -0.253 A  
HETATM    4  C   UNL     1      -9.494  12.644  67.677  1.00  0.00    -0.189 A  
HETATM    5  C   UNL     1     -10.071  14.830  67.422  1.00  0.00    -0.231 A  
HETATM    6  C   UNL     1      -9.418  13.928  68.252  1.00  0.00    -0.217 A  
ENDROOT
BRANCH   3   7
HETATM    7  C   UNL     1     -10.720  11.628  65.628  1.00  0.00    -0.330 C  
HETATM    8  O   UNL     1      -9.913   9.860  64.211  1.00  0.00    -0.133 OA 
HETATM    9  O   UNL     1      -8.392  10.890  65.499  1.00  0.00    -0.154 OA 
HETATM   10  C   UNL     1      -9.651  10.723  65.045  1.00  0.00    -0.254 C  
ENDBRANCH   3   7
BRANCH   5  11
HETATM   11  C   UNL     1     -10.273  16.267  67.643  1.00  0.00    -0.272 C  
HETATM   12  O   UNL     1     -11.235  16.716  68.260  1.00  0.00    -0.349 OA 
BRANCH  11  13
HETATM   13  C   UNL     1      -9.270  17.245  67.097  1.00  0.00    -0.240 A  
HETATM   14  C   UNL     1      -9.547  18.620  67.103  1.00  0.00    -0.315 A  
HETATM   15  C   UNL     1      -8.622  19.534  66.570  1.00  0.00    -0.374 A  
HETATM   16  C   UNL     1      -7.416  19.083  66.017  1.00  0.00    -0.279 A  
HETATM   17  C   UNL     1      -6.411  20.030  65.428  1.00  0.00    -0.284 C  
HETATM   18  C   UNL     1      -7.144  17.711  66.016  1.00  0.00    -0.318 A  
HETATM   19  C   UNL     1      -8.069  16.801  66.531  1.00  0.00    -0.329 A  
ENDBRANCH  11  13
ENDBRANCH   5  11
TORSDOF 3
ENDMDL
MODEL      127
REMARK 921   NORMALIZED FREE ENERGY PREDICTED BY IDOCK:   -4.04 KCAL/MOL
REMARK 922        TOTAL FREE ENERGY PREDICTED BY IDOCK:   -5.39 KCAL/MOL
REMARK 923 INTER-LIGAND FREE ENERGY PREDICTED BY IDOCK:   -4.70 KCAL/MOL
REMARK 924 INTRA-LIGAND FREE ENERGY PREDICTED BY IDOCK:   -0.69 KCAL/MOL
REMARK 927      BINDING AFFINITY PREDICTED BY RF-SCORE:    0.00 PKD
ROOT
HETATM    1  C   UNL     1      -7.870   7.265  68.202  1.00  0.00    -0.118 C  
HETATM    2  N   UNL     1      -9.183   6.972  68.750  1.00  0.00    -0.133 NA 
HETATM    3  C   UNL     1      -9.798   5.730  68.713  1.00  0.00    -0.139 A  
HETATM    4  C   UNL     1     -11.024   5.861  69.332  1.00  0.00    -0.421 A  
HETATM    5  C   UNL     1     -10.016   7.901  69.366  1.00  0.00    -0.189 A  
HETATM    6  C   UNL     1     -11.171   7.210  69.710  1.00  0.00    -0.206 A  
ENDROOT
BRANCH   3   7
HETATM    7  C   UNL     1      -9.247   4.519  68.001  1.00  0.00    -0.166 C  
HETATM    8  O   UNL     1      -9.411   3.316  65.924  1.00  0.00    -0.155 OA 
HETATM    9  O   UNL     1     -10.396   5.331  66.000  1.00  0.00    -0.185 OA 
HETATM   10  C   UNL     1      -9.692   4.327  66.562  1.00  0.00    -0.219 C  
ENDBRANCH   3   7
BRANCH   5  11
HETATM   11  C   UNL     1      -9.743   9.332  69.537  1.00  0.00    -0.173 C  
HETATM   12  O   UNL     1      -8.988   9.766  70.404  1.00  0.00    -0.223 OA 
BRANCH  11  13
HETATM   13  C   UNL     1     -10.405  10.324  68.622  1.00  0.00    -0.203 A  
HETATM   14  C   UNL     1     -10.240  10.226  67.233  1.00  0.00    -0.267 A  
HETATM   15  C   UNL     1     -10.838  11.167  66.378  1.00  0.00    -0.284 A  
HETATM   16  C   UNL     1     -11.598  12.221  66.902  1.00  0.00    -0.427 A  
HETATM   17  C   UNL     1     -12.241  13.251  66.018  1.00  0.00    -0.483 C  
HETATM   18  C   UNL     1     -11.762  12.313  68.288  1.00  0.00    -0.392 A  
HETATM   19  C   UNL     1     -11.156  11.387  69.140  1.00  0.00    -0.317 A  
ENDBRANCH  11  13
ENDBRANCH   5  11
TORSDOF 3
ENDMDL
MODEL      128
REMARK 921   NORMALIZED FREE ENERGY PREDICTED BY IDOCK:   -4.04 KCAL/MOL
REMARK 922        TOTAL FREE ENERGY PREDICTED BY IDOCK:   -5.38 KCAL/MOL
REMARK 923 INTER-LIGAND FREE ENERGY PREDICTED BY IDOCK:   -4.79 KCAL/MOL
REMARK 924 INTRA-LIGAND FREE ENERGY PREDICTED BY IDOCK:   -0.60 KCAL/MOL
REMARK 927      BINDING AFFINITY PREDICTED BY RF-SCORE:    0.00 PKD
ROOT
HETATM    1  C   UNL     1     -10.784   7.792  69.188  1.00  0.00    -0.126 C  
HETATM    2  N   UNL     1      -9.620   8.645  69.348  1.00  0.00    -0.165 NA 
HETATM    3  C   UNL     1      -9.087   9.039  70.567  1.00  0.00    -0.221 A  
HETATM    4  C   UNL     1      -7.995   9.838  70.298  1.00  0.00    -0.185 A  
HETATM    5  C   UNL     1      -8.891   9.207  68.304  1.00  0.00    -0.129 A  
HETATM    6  C   UNL     1      -7.891   9.966  68.899  1.00  0.00    -0.091 A  
ENDROOT
BRANCH   3   7
HETATM    7  C   UNL     1      -9.699   8.731  71.911  1.00  0.00    -0.386 C  
HETATM    8  O   UNL     1      -9.592   7.139  73.711  1.00  0.00    -0.218 OA 
HETATM    9  O   UNL     1      -7.976   7.013  72.159  1.00  0.00    -0.093 OA 
HETATM   10  C   UNL     1      -9.098   7.561  72.669  1.00  0.00    -0.150 C  
ENDBRANCH   3   7
BRANCH   5  11
HETATM   11  C   UNL     1      -9.185   9.075  66.872  1.00  0.00    -0.142 C  
HETATM   12  O   UNL     1      -8.852   8.093  66.213  1.00  0.00    -0.146 OA 
BRANCH  11  13
HETATM   13  C   UNL     1      -9.923  10.178  66.166  1.00  0.00    -0.310 A  
HETATM   14  C   UNL     1      -9.838  10.308  64.772  1.00  0.00    -0.403 A  
HETATM   15  C   UNL     1     -10.506  11.353  64.113  1.00  0.00    -0.421 A  
HETATM   16  C   UNL     1     -11.258  12.285  64.840  1.00  0.00    -0.365 A  
HETATM   17  C   UNL     1     -11.976  13.421  64.169  1.00  0.00    -0.505 C  
HETATM   18  C   UNL     1     -11.342  12.150  66.230  1.00  0.00    -0.411 A  
HETATM   19  C   UNL     1     -10.666  11.120  66.887  1.00  0.00    -0.322 A  
ENDBRANCH  11  13
ENDBRANCH   5  11
TORSDOF 3
ENDMDL
MODEL      129
REMARK 921   NORMALIZED FREE ENERGY PREDICTED BY IDOCK:   -4.02 KCAL/MOL
REMARK 922        TOTAL FREE ENERGY PREDICTED BY IDOCK:   -5.37 KCAL/MOL
REMARK 923 INTER-LIGAND FREE ENERGY PREDICTED BY IDOCK:   -4.71 KCAL/MOL
REMARK 924 INTRA-LIGAND FREE ENERGY PREDICTED BY IDOCK:   -0.65 KCAL/MOL
REMARK 927      BINDING AFFINITY PREDICTED BY RF-SCORE:    0.00 PKD
ROOT
HETATM    1  C   UNL     1      -8.046   7.965  69.422  1.00  0.00    -0.125 C  
HETATM    2  N   UNL     1      -9.232   7.184  69.114  1.00  0.00    -0.140 NA 
HETATM    3  C   UNL     1      -9.811   6.254  69.963  1.00  0.00    -0.169 A  
HETATM    4  C   UNL     1     -10.910   5.732  69.312  1.00  0.00    -0.374 A  
HETATM    5  C   UNL     1      -9.938   7.243  67.916  1.00  0.00    -0.158 A  
HETATM    6  C   UNL     1     -10.971   6.322  68.034  1.00  0.00    -0.418 A  
ENDROOT
BRANCH   3   7
HETATM    7  C   UNL     1      -9.236   5.829  71.292  1.00  0.00    -0.161 C  
HETATM    8  O   UNL     1      -7.803   4.170  72.283  1.00  0.00    -0.078 OA 
HETATM    9  O   UNL     1      -7.835   4.263  70.041  1.00  0.00    -0.052 OA 
HETATM   10  C   UNL     1      -8.240   4.684  71.257  1.00  0.00    -0.100 C  
ENDBRANCH   3   7
BRANCH   5  11
HETATM   11  C   UNL     1      -9.595   8.061  66.747  1.00  0.00    -0.216 C  
HETATM   12  O   UNL     1      -8.849   7.666  65.854  1.00  0.00    -0.164 OA 
BRANCH  11  13
HETATM   13  C   UNL     1     -10.172   9.443  66.619  1.00  0.00    -0.319 A  
HETATM   14  C   UNL     1     -10.822  10.043  67.708  1.00  0.00    -0.337 A  
HETATM   15  C   UNL     1     -11.384  11.324  67.583  1.00  0.00    -0.352 A  
HETATM   16  C   UNL     1     -11.312  12.016  66.367  1.00  0.00    -0.411 A  
HETATM   17  C   UNL     1     -11.913  13.382  66.195  1.00  0.00    -0.460 C  
HETATM   18  C   UNL     1     -10.661  11.415  65.285  1.00  0.00    -0.336 A  
HETATM   19  C   UNL     1     -10.115  10.135  65.403  1.00  0.00    -0.342 A  
ENDBRANCH  11  13
ENDBRANCH   5  11
TORSDOF 3
ENDMDL
MODEL      130
REMARK 921   NORMALIZED FREE ENERGY PREDICTED BY IDOCK:   -4.02 KCAL/MOL
REMARK 922        TOTAL FREE ENERGY PREDICTED BY IDOCK:   -5.36 KCAL/MOL
REMARK 923 INTER-LIGAND FREE ENERGY PREDICTED BY IDOCK:   -4.94 KCAL/MOL
REMARK 924 INTRA-LIGAND FREE ENERGY PREDICTED BY IDOCK:   -0.42 KCAL/MOL
REMARK 927      BINDING AFFINITY PREDICTED BY RF-SCORE:    0.00 PKD
ROOT
HETATM    1  C   UNL     1      -8.138   8.883  70.020  1.00  0.00    -0.116 C  
HETATM    2  N   UNL     1      -9.492   9.213  70.430  1.00  0.00    -0.208 NA 
HETATM    3  C   UNL     1     -10.401   9.926  69.663  1.00  0.00    -0.241 A  
HETATM    4  C   UNL     1     -11.565  10.030  70.398  1.00  0.00    -0.379 A  
HETATM    5  C   UNL     1     -10.057   8.883  71.658  1.00  0.00    -0.341 A  
HETATM    6  C   UNL     1     -11.342   9.410  71.643  1.00  0.00    -0.452 A  
ENDROOT
BRANCH   3   7
HETATM    7  C   UNL     1     -10.088  10.563  68.331  1.00  0.00    -0.181 C  
HETATM    8  O   UNL     1      -9.884  10.038  65.993  1.00  0.00    -0.222 OA 
HETATM    9  O   UNL     1     -10.779   8.452  67.305  1.00  0.00    -0.285 OA 
HETATM   10  C   UNL     1     -10.230   9.670  67.112  1.00  0.00    -0.243 C  
ENDBRANCH   3   7
BRANCH   5  11
HETATM   11  C   UNL     1      -9.387   8.186  72.762  1.00  0.00    -0.274 C  
HETATM   12  O   UNL     1      -8.488   8.699  73.424  1.00  0.00    -0.385 OA 
BRANCH  11  13
HETATM   13  C   UNL     1      -9.804   6.784  73.112  1.00  0.00    -0.201 A  
HETATM   14  C   UNL     1      -8.921   5.930  73.788  1.00  0.00    -0.127 A  
HETATM   15  C   UNL     1      -9.300   4.612  74.093  1.00  0.00    -0.124 A  
HETATM   16  C   UNL     1     -10.561   4.131  73.717  1.00  0.00    -0.298 A  
HETATM   17  C   UNL     1     -10.994   2.724  74.017  1.00  0.00    -0.237 C  
HETATM   18  C   UNL     1     -11.439   4.988  73.045  1.00  0.00    -0.344 A  
HETATM   19  C   UNL     1     -11.058   6.293  72.728  1.00  0.00    -0.284 A  
ENDBRANCH  11  13
ENDBRANCH   5  11
TORSDOF 3
ENDMDL
MODEL      131
REMARK 921   NORMALIZED FREE ENERGY PREDICTED BY IDOCK:   -4.01 KCAL/MOL
REMARK 922        TOTAL FREE ENERGY PREDICTED BY IDOCK:   -5.35 KCAL/MOL
REMARK 923 INTER-LIGAND FREE ENERGY PREDICTED BY IDOCK:   -4.71 KCAL/MOL
REMARK 924 INTRA-LIGAND FREE ENERGY PREDICTED BY IDOCK:   -0.64 KCAL/MOL
REMARK 927      BINDING AFFINITY PREDICTED BY RF-SCORE:    0.00 PKD
ROOT
HETATM    1  C   UNL     1      -7.710   6.351  70.284  1.00  0.00    -0.098 C  
HETATM    2  N   UNL     1      -8.915   6.036  71.030  1.00  0.00    -0.142 NA 
HETATM    3  C   UNL     1      -9.515   4.786  71.077  1.00  0.00    -0.164 A  
HETATM    4  C   UNL     1     -10.628   4.895  71.885  1.00  0.00    -0.186 A  
HETATM    5  C   UNL     1      -9.651   6.947  71.783  1.00  0.00    -0.159 A  
HETATM    6  C   UNL     1     -10.728   6.238  72.297  1.00  0.00    -0.263 A  
ENDROOT
BRANCH   3   7
HETATM    7  C   UNL     1      -9.070   3.590  70.272  1.00  0.00    -0.202 C  
HETATM    8  O   UNL     1      -9.317   2.580  68.103  1.00  0.00    -0.191 OA 
HETATM    9  O   UNL     1     -10.110   4.667  68.337  1.00  0.00    -0.104 OA 
HETATM   10  C   UNL     1      -9.511   3.558  68.819  1.00  0.00    -0.138 C  
ENDBRANCH   3   7
BRANCH   5  11
HETATM   11  C   UNL     1      -9.370   8.381  71.925  1.00  0.00    -0.244 C  
HETATM   12  O   UNL     1      -8.655   8.833  72.816  1.00  0.00    -0.412 OA 
BRANCH  11  13
HETATM   13  C   UNL     1      -9.974   9.352  70.948  1.00  0.00    -0.353 A  
HETATM   14  C   UNL     1     -11.314   9.745  71.078  1.00  0.00    -0.460 A  
HETATM   15  C   UNL     1     -11.887  10.633  70.152  1.00  0.00    -0.421 A  
HETATM   16  C   UNL     1     -11.131  11.128  69.081  1.00  0.00    -0.306 A  
HETATM   17  C   UNL     1     -11.715  12.068  68.066  1.00  0.00    -0.398 C  
HETATM   18  C   UNL     1      -9.794  10.735  68.958  1.00  0.00    -0.208 A  
HETATM   19  C   UNL     1      -9.228   9.840  69.869  1.00  0.00    -0.263 A  
ENDBRANCH  11  13
ENDBRANCH   5  11
TORSDOF 3
ENDMDL
MODEL      132
REMARK 921   NORMALIZED FREE ENERGY PREDICTED BY IDOCK:   -3.98 KCAL/MOL
REMARK 922        TOTAL FREE ENERGY PREDICTED BY IDOCK:   -5.32 KCAL/MOL
REMARK 923 INTER-LIGAND FREE ENERGY PREDICTED BY IDOCK:   -4.71 KCAL/MOL
REMARK 924 INTRA-LIGAND FREE ENERGY PREDICTED BY IDOCK:   -0.61 KCAL/MOL
REMARK 927      BINDING AFFINITY PREDICTED BY RF-SCORE:    0.00 PKD
ROOT
HETATM    1  C   UNL     1      -7.793   9.766  70.062  1.00  0.00    -0.178 C  
HETATM    2  N   UNL     1      -8.736   9.676  68.960  1.00  0.00    -0.135 NA 
HETATM    3  C   UNL     1      -8.395   9.741  67.617  1.00  0.00    -0.114 A  
HETATM    4  C   UNL     1      -9.563   9.618  66.892  1.00  0.00    -0.217 A  
HETATM    5  C   UNL     1     -10.114   9.537  69.098  1.00  0.00    -0.195 A  
HETATM    6  C   UNL     1     -10.628   9.521  67.808  1.00  0.00    -0.318 A  
ENDROOT
BRANCH   3   7
HETATM    7  C   UNL     1      -7.008  10.025  67.096  1.00  0.00    -0.084 C  
HETATM    8  O   UNL     1      -5.566  11.845  66.469  1.00  0.00    -0.289 OA 
HETATM    9  O   UNL     1      -7.467  12.388  67.531  1.00  0.00    -0.128 OA 
HETATM   10  C   UNL     1      -6.617  11.488  66.995  1.00  0.00    -0.138 C  
ENDBRANCH   3   7
BRANCH   5  11
HETATM   11  C   UNL     1     -10.859   9.497  70.362  1.00  0.00    -0.282 C  
HETATM   12  O   UNL     1     -11.452  10.473  70.815  1.00  0.00    -0.331 OA 
BRANCH  11  13
HETATM   13  C   UNL     1     -10.910   8.217  71.148  1.00  0.00    -0.268 A  
HETATM   14  C   UNL     1     -11.394   7.040  70.555  1.00  0.00    -0.355 A  
HETATM   15  C   UNL     1     -11.465   5.849  71.296  1.00  0.00    -0.167 A  
HETATM   16  C   UNL     1     -11.065   5.822  72.639  1.00  0.00    -0.325 A  
HETATM   17  C   UNL     1     -11.139   4.569  73.463  1.00  0.00    -0.398 C  
HETATM   18  C   UNL     1     -10.580   6.997  73.224  1.00  0.00    -0.378 A  
HETATM   19  C   UNL     1     -10.523   8.185  72.493  1.00  0.00    -0.409 A  
ENDBRANCH  11  13
ENDBRANCH   5  11
TORSDOF 3
ENDMDL
MODEL      133
REMARK 921   NORMALIZED FREE ENERGY PREDICTED BY IDOCK:   -3.98 KCAL/MOL
REMARK 922        TOTAL FREE ENERGY PREDICTED BY IDOCK:   -5.31 KCAL/MOL
REMARK 923 INTER-LIGAND FREE ENERGY PREDICTED BY IDOCK:   -4.90 KCAL/MOL
REMARK 924 INTRA-LIGAND FREE ENERGY PREDICTED BY IDOCK:   -0.41 KCAL/MOL
REMARK 927      BINDING AFFINITY PREDICTED BY RF-SCORE:    0.00 PKD
ROOT
HETATM    1  C   UNL     1      -9.963  12.182  65.035  1.00  0.00    -0.220 C  
HETATM    2  N   UNL     1      -9.521  11.712  66.336  1.00  0.00    -0.211 NA 
HETATM    3  C   UNL     1      -8.369  10.973  66.563  1.00  0.00    -0.163 A  
HETATM    4  C   UNL     1      -8.302  10.724  67.918  1.00  0.00    -0.117 A  
HETATM    5  C   UNL     1     -10.202  11.914  67.533  1.00  0.00    -0.196 A  
HETATM    6  C   UNL     1      -9.451  11.280  68.514  1.00  0.00    -0.191 A  
ENDROOT
BRANCH   3   7
HETATM    7  C   UNL     1      -7.456  10.452  65.480  1.00  0.00    -0.142 C  
HETATM    8  O   UNL     1      -7.112   8.538  64.064  1.00  0.00    -0.087 OA 
HETATM    9  O   UNL     1      -9.041   8.608  65.210  1.00  0.00    -0.153 OA 
HETATM   10  C   UNL     1      -7.843   9.120  64.862  1.00  0.00    -0.117 C  
ENDBRANCH   3   7
BRANCH   5  11
HETATM   11  C   UNL     1     -11.493  12.594  67.691  1.00  0.00    -0.334 C  
HETATM   12  O   UNL     1     -12.442  12.403  66.934  1.00  0.00    -0.262 OA 
BRANCH  11  13
HETATM   13  C   UNL     1     -11.680  13.569  68.820  1.00  0.00    -0.373 A  
HETATM   14  C   UNL     1     -11.238  14.894  68.692  1.00  0.00    -0.288 A  
HETATM   15  C   UNL     1     -11.390  15.799  69.756  1.00  0.00    -0.339 A  
HETATM   16  C   UNL     1     -11.973  15.388  70.961  1.00  0.00    -0.409 A  
HETATM   17  C   UNL     1     -12.139  16.326  72.122  1.00  0.00    -0.530 C  
HETATM   18  C   UNL     1     -12.414  14.066  71.083  1.00  0.00    -0.447 A  
HETATM   19  C   UNL     1     -12.250  13.161  70.032  1.00  0.00    -0.323 A  
ENDBRANCH  11  13
ENDBRANCH   5  11
TORSDOF 3
ENDMDL
MODEL      134
REMARK 921   NORMALIZED FREE ENERGY PREDICTED BY IDOCK:   -3.97 KCAL/MOL
REMARK 922        TOTAL FREE ENERGY PREDICTED BY IDOCK:   -5.31 KCAL/MOL
REMARK 923 INTER-LIGAND FREE ENERGY PREDICTED BY IDOCK:   -4.86 KCAL/MOL
REMARK 924 INTRA-LIGAND FREE ENERGY PREDICTED BY IDOCK:   -0.45 KCAL/MOL
REMARK 927      BINDING AFFINITY PREDICTED BY RF-SCORE:    0.00 PKD
ROOT
HETATM    1  C   UNL     1      -8.730  14.240  66.861  1.00  0.00    -0.179 C  
HETATM    2  N   UNL     1      -9.899  13.930  67.665  1.00  0.00    -0.232 NA 
HETATM    3  C   UNL     1     -10.994  14.766  67.829  1.00  0.00    -0.291 A  
HETATM    4  C   UNL     1     -11.886  14.117  68.658  1.00  0.00    -0.383 A  
HETATM    5  C   UNL     1     -10.075  12.762  68.402  1.00  0.00    -0.226 A  
HETATM    6  C   UNL     1     -11.305  12.890  69.035  1.00  0.00    -0.341 A  
ENDROOT
BRANCH   3   7
HETATM    7  C   UNL     1     -11.089  16.172  67.287  1.00  0.00    -0.091 C  
HETATM    8  O   UNL     1     -10.632  18.457  67.884  1.00  0.00    -0.394 OA 
HETATM    9  O   UNL     1      -9.806  16.877  69.247  1.00  0.00    -0.237 OA 
HETATM   10  C   UNL     1     -10.502  17.267  68.159  1.00  0.00    -0.382 C  
ENDBRANCH   3   7
BRANCH   5  11
HETATM   11  C   UNL     1      -9.109  11.666  68.532  1.00  0.00    -0.157 C  
HETATM   12  O   UNL     1      -7.919  11.853  68.773  1.00  0.00    -0.123 OA 
BRANCH  11  13
HETATM   13  C   UNL     1      -9.577  10.246  68.367  1.00  0.00    -0.155 A  
HETATM   14  C   UNL     1      -9.891   9.748  67.094  1.00  0.00    -0.238 A  
HETATM   15  C   UNL     1     -10.352   8.430  66.940  1.00  0.00    -0.378 A  
HETATM   16  C   UNL     1     -10.514   7.600  68.057  1.00  0.00    -0.247 A  
HETATM   17  C   UNL     1     -11.017   6.190  67.931  1.00  0.00    -0.399 C  
HETATM   18  C   UNL     1     -10.197   8.101  69.324  1.00  0.00    -0.216 A  
HETATM   19  C   UNL     1      -9.753   9.415  69.479  1.00  0.00    -0.191 A  
ENDBRANCH  11  13
ENDBRANCH   5  11
TORSDOF 3
ENDMDL
MODEL      135
REMARK 921   NORMALIZED FREE ENERGY PREDICTED BY IDOCK:   -3.97 KCAL/MOL
REMARK 922        TOTAL FREE ENERGY PREDICTED BY IDOCK:   -5.31 KCAL/MOL
REMARK 923 INTER-LIGAND FREE ENERGY PREDICTED BY IDOCK:   -4.90 KCAL/MOL
REMARK 924 INTRA-LIGAND FREE ENERGY PREDICTED BY IDOCK:   -0.41 KCAL/MOL
REMARK 927      BINDING AFFINITY PREDICTED BY RF-SCORE:    0.00 PKD
ROOT
HETATM    1  C   UNL     1     -10.407   9.607  70.781  1.00  0.00    -0.286 C  
HETATM    2  N   UNL     1     -10.438   8.868  69.531  1.00  0.00    -0.223 NA 
HETATM    3  C   UNL     1     -10.047   9.374  68.300  1.00  0.00    -0.183 A  
HETATM    4  C   UNL     1     -10.224   8.371  67.369  1.00  0.00    -0.328 A  
HETATM    5  C   UNL     1     -10.886   7.558  69.388  1.00  0.00    -0.150 A  
HETATM    6  C   UNL     1     -10.770   7.258  68.037  1.00  0.00    -0.209 A  
ENDROOT
BRANCH   3   7
HETATM    7  C   UNL     1      -9.635  10.805  68.052  1.00  0.00    -0.172 C  
HETATM    8  O   UNL     1     -10.514  12.919  67.316  1.00  0.00    -0.232 OA 
HETATM    9  O   UNL     1     -12.010  11.300  67.738  1.00  0.00    -0.637 OA 
HETATM   10  C   UNL     1     -10.745  11.765  67.664  1.00  0.00    -0.214 C  
ENDBRANCH   3   7
BRANCH   5  11
HETATM   11  C   UNL     1     -11.438   6.710  70.451  1.00  0.00    -0.386 C  
HETATM   12  O   UNL     1     -12.529   6.925  70.973  1.00  0.00    -0.382 OA 
BRANCH  11  13
HETATM   13  C   UNL     1     -10.650   5.524  70.933  1.00  0.00    -0.309 A  
HETATM   14  C   UNL     1     -10.502   5.284  72.307  1.00  0.00    -0.273 A  
HETATM   15  C   UNL     1      -9.745   4.190  72.760  1.00  0.00    -0.185 A  
HETATM   16  C   UNL     1      -9.120   3.332  71.846  1.00  0.00    -0.164 A  
HETATM   17  C   UNL     1      -8.294   2.161  72.296  1.00  0.00    -0.054 C  
HETATM   18  C   UNL     1      -9.273   3.574  70.477  1.00  0.00    -0.213 A  
HETATM   19  C   UNL     1     -10.013   4.669  70.026  1.00  0.00    -0.302 A  
ENDBRANCH  11  13
ENDBRANCH   5  11
TORSDOF 3
ENDMDL
MODEL      136
REMARK 921   NORMALIZED FREE ENERGY PREDICTED BY IDOCK:   -3.96 KCAL/MOL
REMARK 922        TOTAL FREE ENERGY PREDICTED BY IDOCK:   -5.29 KCAL/MOL
REMARK 923 INTER-LIGAND FREE ENERGY PREDICTED BY IDOCK:   -4.79 KCAL/MOL
REMARK 924 INTRA-LIGAND FREE ENERGY PREDICTED BY IDOCK:   -0.51 KCAL/MOL
REMARK 927      BINDING AFFINITY PREDICTED BY RF-SCORE:    0.00 PKD
ROOT
HETATM    1  C   UNL     1      -8.202   6.800  65.119  1.00  0.00    -0.114 C  
HETATM    2  N   UNL     1      -9.252   6.786  66.124  1.00  0.00    -0.127 NA 
HETATM    3  C   UNL     1     -10.039   5.687  66.433  1.00  0.00    -0.156 A  
HETATM    4  C   UNL     1     -10.911   6.074  67.430  1.00  0.00    -0.394 A  
HETATM    5  C   UNL     1      -9.631   7.879  66.898  1.00  0.00    -0.203 A  
HETATM    6  C   UNL     1     -10.678   7.437  67.697  1.00  0.00    -0.278 A  
ENDROOT
BRANCH   3   7
HETATM    7  C   UNL     1     -10.001   4.369  65.698  1.00  0.00    -0.247 C  
HETATM    8  O   UNL     1      -8.810   2.280  65.634  1.00  0.00    -0.118 OA 
HETATM    9  O   UNL     1      -8.399   3.620  67.388  1.00  0.00    -0.092 OA 
HETATM   10  C   UNL     1      -9.020   3.337  66.224  1.00  0.00    -0.149 C  
ENDBRANCH   3   7
BRANCH   5  11
HETATM   11  C   UNL     1      -9.076   9.235  66.815  1.00  0.00    -0.140 C  
HETATM   12  O   UNL     1      -7.888   9.479  67.011  1.00  0.00    -0.098 OA 
BRANCH  11  13
HETATM   13  C   UNL     1      -9.984  10.384  66.479  1.00  0.00    -0.271 A  
HETATM   14  C   UNL     1     -10.678  11.059  67.493  1.00  0.00    -0.289 A  
HETATM   15  C   UNL     1     -11.547  12.118  67.178  1.00  0.00    -0.405 A  
HETATM   16  C   UNL     1     -11.738  12.506  65.845  1.00  0.00    -0.480 A  
HETATM   17  C   UNL     1     -12.668  13.625  65.472  1.00  0.00    -0.514 C  
HETATM   18  C   UNL     1     -11.041  11.832  64.837  1.00  0.00    -0.345 A  
HETATM   19  C   UNL     1     -10.189  10.770  65.149  1.00  0.00    -0.365 A  
ENDBRANCH  11  13
ENDBRANCH   5  11
TORSDOF 3
ENDMDL
MODEL      137
REMARK 921   NORMALIZED FREE ENERGY PREDICTED BY IDOCK:   -3.95 KCAL/MOL
REMARK 922        TOTAL FREE ENERGY PREDICTED BY IDOCK:   -5.28 KCAL/MOL
REMARK 923 INTER-LIGAND FREE ENERGY PREDICTED BY IDOCK:   -4.90 KCAL/MOL
REMARK 924 INTRA-LIGAND FREE ENERGY PREDICTED BY IDOCK:   -0.38 KCAL/MOL
REMARK 927      BINDING AFFINITY PREDICTED BY RF-SCORE:    0.00 PKD
ROOT
HETATM    1  C   UNL     1     -11.047   7.255  68.019  1.00  0.00     0.092 C  
HETATM    2  N   UNL     1     -10.321   8.164  68.889  1.00  0.00    -0.214 NA 
HETATM    3  C   UNL     1      -9.558   7.776  69.981  1.00  0.00    -0.161 A  
HETATM    4  C   UNL     1      -9.035   8.923  70.543  1.00  0.00    -0.224 A  
HETATM    5  C   UNL     1     -10.309   9.550  68.766  1.00  0.00    -0.208 A  
HETATM    6  C   UNL     1      -9.523  10.021  69.809  1.00  0.00    -0.239 A  
ENDROOT
BRANCH   3   7
HETATM    7  C   UNL     1      -9.453   6.362  70.497  1.00  0.00    -0.173 C  
HETATM    8  O   UNL     1     -10.590   4.783  71.911  1.00  0.00    -0.173 OA 
HETATM    9  O   UNL     1     -11.706   6.663  71.402  1.00  0.00    -0.293 OA 
HETATM   10  C   UNL     1     -10.619   5.867  71.334  1.00  0.00    -0.252 C  
ENDBRANCH   3   7
BRANCH   5  11
HETATM   11  C   UNL     1     -11.049  10.338  67.773  1.00  0.00    -0.269 C  
HETATM   12  O   UNL     1     -12.113  10.898  68.027  1.00  0.00    -0.563 OA 
BRANCH  11  13
HETATM   13  C   UNL     1     -10.498  10.477  66.381  1.00  0.00    -0.258 A  
HETATM   14  C   UNL     1      -9.553   9.559  65.899  1.00  0.00    -0.327 A  
HETATM   15  C   UNL     1      -9.018   9.702  64.608  1.00  0.00    -0.274 A  
HETATM   16  C   UNL     1      -9.412  10.769  63.790  1.00  0.00    -0.320 A  
HETATM   17  C   UNL     1      -8.851  10.959  62.409  1.00  0.00    -0.358 C  
HETATM   18  C   UNL     1     -10.357  11.680  64.274  1.00  0.00    -0.371 A  
HETATM   19  C   UNL     1     -10.878  11.548  65.563  1.00  0.00    -0.313 A  
ENDBRANCH  11  13
ENDBRANCH   5  11
TORSDOF 3
ENDMDL
MODEL      138
REMARK 921   NORMALIZED FREE ENERGY PREDICTED BY IDOCK:   -3.94 KCAL/MOL
REMARK 922        TOTAL FREE ENERGY PREDICTED BY IDOCK:   -5.27 KCAL/MOL
REMARK 923 INTER-LIGAND FREE ENERGY PREDICTED BY IDOCK:   -4.63 KCAL/MOL
REMARK 924 INTRA-LIGAND FREE ENERGY PREDICTED BY IDOCK:   -0.64 KCAL/MOL
REMARK 927      BINDING AFFINITY PREDICTED BY RF-SCORE:    0.00 PKD
ROOT
HETATM    1  C   UNL     1      -8.134   7.050  68.759  1.00  0.00    -0.121 C  
HETATM    2  N   UNL     1      -8.725   5.887  69.399  1.00  0.00    -0.115 NA 
HETATM    3  C   UNL     1      -8.982   4.680  68.767  1.00  0.00    -0.108 A  
HETATM    4  C   UNL     1      -9.541   3.836  69.705  1.00  0.00    -0.253 A  
HETATM    5  C   UNL     1      -9.139   5.830  70.726  1.00  0.00    -0.148 A  
HETATM    6  C   UNL     1      -9.665   4.557  70.909  1.00  0.00    -0.263 A  
ENDROOT
BRANCH   3   7
HETATM    7  C   UNL     1      -8.788   4.424  67.292  1.00  0.00    -0.114 C  
HETATM    8  O   UNL     1      -9.945   4.559  65.188  1.00  0.00    -0.179 OA 
HETATM    9  O   UNL     1     -10.942   5.531  66.948  1.00  0.00    -0.212 OA 
HETATM   10  C   UNL     1      -9.935   4.832  66.385  1.00  0.00    -0.241 C  
ENDBRANCH   3   7
BRANCH   5  11
HETATM   11  C   UNL     1      -9.092   6.929  71.698  1.00  0.00    -0.139 C  
HETATM   12  O   UNL     1      -8.174   7.065  72.503  1.00  0.00    -0.108 OA 
BRANCH  11  13
HETATM   13  C   UNL     1     -10.204   7.940  71.723  1.00  0.00    -0.247 A  
HETATM   14  C   UNL     1     -10.102   9.124  70.978  1.00  0.00    -0.373 A  
HETATM   15  C   UNL     1     -11.129  10.081  71.020  1.00  0.00    -0.341 A  
HETATM   16  C   UNL     1     -12.265   9.870  71.813  1.00  0.00    -0.425 A  
HETATM   17  C   UNL     1     -13.376  10.878  71.891  1.00  0.00    -0.429 C  
HETATM   18  C   UNL     1     -12.363   8.686  72.552  1.00  0.00    -0.378 A  
HETATM   19  C   UNL     1     -11.336   7.741  72.523  1.00  0.00    -0.429 A  
ENDBRANCH  11  13
ENDBRANCH   5  11
TORSDOF 3
ENDMDL
MODEL      139
REMARK 921   NORMALIZED FREE ENERGY PREDICTED BY IDOCK:   -3.93 KCAL/MOL
REMARK 922        TOTAL FREE ENERGY PREDICTED BY IDOCK:   -5.26 KCAL/MOL
REMARK 923 INTER-LIGAND FREE ENERGY PREDICTED BY IDOCK:   -4.65 KCAL/MOL
REMARK 924 INTRA-LIGAND FREE ENERGY PREDICTED BY IDOCK:   -0.61 KCAL/MOL
REMARK 927      BINDING AFFINITY PREDICTED BY RF-SCORE:    0.00 PKD
ROOT
HETATM    1  C   UNL     1      -9.032  10.613  67.933  1.00  0.00    -0.138 C  
HETATM    2  N   UNL     1     -10.201  10.546  68.793  1.00  0.00    -0.180 NA 
HETATM    3  C   UNL     1     -11.370  11.268  68.599  1.00  0.00    -0.273 A  
HETATM    4  C   UNL     1     -12.235  10.929  69.620  1.00  0.00    -0.354 A  
HETATM    5  C   UNL     1     -10.304   9.769  69.943  1.00  0.00    -0.254 A  
HETATM    6  C   UNL     1     -11.565  10.025  70.467  1.00  0.00    -0.403 A  
ENDROOT
BRANCH   3   7
HETATM    7  C   UNL     1     -11.566  12.314  67.530  1.00  0.00    -0.422 C  
HETATM    8  O   UNL     1     -11.586  14.698  67.206  1.00  0.00    -0.365 OA 
HETATM    9  O   UNL     1     -10.820  13.957  69.181  1.00  0.00    -0.243 OA 
HETATM   10  C   UNL     1     -11.336  13.754  67.951  1.00  0.00    -0.299 C  
ENDBRANCH   3   7
BRANCH   5  11
HETATM   11  C   UNL     1      -9.252   8.918  70.511  1.00  0.00    -0.203 C  
HETATM   12  O   UNL     1      -8.310   9.370  71.158  1.00  0.00    -0.310 OA 
BRANCH  11  13
HETATM   13  C   UNL     1      -9.314   7.431  70.304  1.00  0.00    -0.162 A  
HETATM   14  C   UNL     1      -9.138   6.886  69.023  1.00  0.00    -0.138 A  
HETATM   15  C   UNL     1      -9.220   5.498  68.823  1.00  0.00    -0.142 A  
HETATM   16  C   UNL     1      -9.488   4.641  69.898  1.00  0.00    -0.237 A  
HETATM   17  C   UNL     1      -9.594   3.153  69.718  1.00  0.00    -0.128 C  
HETATM   18  C   UNL     1      -9.660   5.188  71.174  1.00  0.00    -0.224 A  
HETATM   19  C   UNL     1      -9.594   6.569  71.371  1.00  0.00    -0.174 A  
ENDBRANCH  11  13
ENDBRANCH   5  11
TORSDOF 3
ENDMDL
MODEL      140
REMARK 921   NORMALIZED FREE ENERGY PREDICTED BY IDOCK:   -3.92 KCAL/MOL
REMARK 922        TOTAL FREE ENERGY PREDICTED BY IDOCK:   -5.24 KCAL/MOL
REMARK 923 INTER-LIGAND FREE ENERGY PREDICTED BY IDOCK:   -4.58 KCAL/MOL
REMARK 924 INTRA-LIGAND FREE ENERGY PREDICTED BY IDOCK:   -0.66 KCAL/MOL
REMARK 927      BINDING AFFINITY PREDICTED BY RF-SCORE:    0.00 PKD
ROOT
HETATM    1  C   UNL     1      -7.995   8.639  69.827  1.00  0.00    -0.095 C  
HETATM    2  N   UNL     1      -9.212   7.989  70.282  1.00  0.00    -0.154 NA 
HETATM    3  C   UNL     1      -9.297   7.144  71.379  1.00  0.00    -0.154 A  
HETATM    4  C   UNL     1     -10.611   6.735  71.480  1.00  0.00    -0.245 A  
HETATM    5  C   UNL     1     -10.456   8.102  69.668  1.00  0.00    -0.224 A  
HETATM    6  C   UNL     1     -11.321   7.304  70.405  1.00  0.00    -0.299 A  
ENDROOT
BRANCH   3   7
HETATM    7  C   UNL     1      -8.119   6.684  72.202  1.00  0.00    -0.105 C  
HETATM    8  O   UNL     1      -6.748   7.345  74.065  1.00  0.00    -0.076 OA 
HETATM    9  O   UNL     1      -8.614   8.543  73.714  1.00  0.00    -0.307 OA 
HETATM   10  C   UNL     1      -7.759   7.548  73.397  1.00  0.00    -0.103 C  
ENDBRANCH   3   7
BRANCH   5  11
HETATM   11  C   UNL     1     -10.753   8.855  68.444  1.00  0.00    -0.076 C  
HETATM   12  O   UNL     1     -10.734   8.343  67.327  1.00  0.00    -0.285 OA 
BRANCH  11  13
HETATM   13  C   UNL     1     -11.097  10.315  68.541  1.00  0.00    -0.294 A  
HETATM   14  C   UNL     1     -11.050  11.131  67.401  1.00  0.00    -0.370 A  
HETATM   15  C   UNL     1     -11.347  12.501  67.495  1.00  0.00    -0.368 A  
HETATM   16  C   UNL     1     -11.683  13.072  68.729  1.00  0.00    -0.363 A  
HETATM   17  C   UNL     1     -11.994  14.535  68.868  1.00  0.00    -0.326 C  
HETATM   18  C   UNL     1     -11.731  12.253  69.863  1.00  0.00    -0.346 A  
HETATM   19  C   UNL     1     -11.422  10.895  69.773  1.00  0.00    -0.390 A  
ENDBRANCH  11  13
ENDBRANCH   5  11
TORSDOF 3
ENDMDL
MODEL      141
REMARK 921   NORMALIZED FREE ENERGY PREDICTED BY IDOCK:   -3.87 KCAL/MOL
REMARK 922        TOTAL FREE ENERGY PREDICTED BY IDOCK:   -5.18 KCAL/MOL
REMARK 923 INTER-LIGAND FREE ENERGY PREDICTED BY IDOCK:   -4.74 KCAL/MOL
REMARK 924 INTRA-LIGAND FREE ENERGY PREDICTED BY IDOCK:   -0.44 KCAL/MOL
REMARK 927      BINDING AFFINITY PREDICTED BY RF-SCORE:    0.00 PKD
ROOT
HETATM    1  C   UNL     1      -8.899  15.134  69.532  1.00  0.00    -0.124 C  
HETATM    2  N   UNL     1      -9.423  15.082  68.179  1.00  0.00    -0.192 NA 
HETATM    3  C   UNL     1     -10.706  14.679  67.840  1.00  0.00    -0.250 A  
HETATM    4  C   UNL     1     -10.816  14.770  66.467  1.00  0.00    -0.319 A  
HETATM    5  C   UNL     1      -8.705  15.406  67.031  1.00  0.00    -0.229 A  
HETATM    6  C   UNL     1      -9.569  15.192  65.965  1.00  0.00    -0.365 A  
ENDROOT
BRANCH   3   7
HETATM    7  C   UNL     1     -11.718  14.128  68.814  1.00  0.00    -0.380 C  
HETATM    8  O   UNL     1     -12.392  12.075  69.872  1.00  0.00    -0.186 OA 
HETATM    9  O   UNL     1     -10.445  12.040  68.757  1.00  0.00    -0.222 OA 
HETATM   10  C   UNL     1     -11.559  12.665  69.189  1.00  0.00    -0.320 C  
ENDBRANCH   3   7
BRANCH   5  11
HETATM   11  C   UNL     1      -7.296  15.814  66.976  1.00  0.00    -0.191 C  
HETATM   12  O   UNL     1      -6.369  15.031  67.169  1.00  0.00    -0.267 OA 
BRANCH  11  13
HETATM   13  C   UNL     1      -6.954  17.246  66.672  1.00  0.00    -0.272 A  
HETATM   14  C   UNL     1      -7.964  18.159  66.334  1.00  0.00    -0.297 A  
HETATM   15  C   UNL     1      -7.644  19.492  66.026  1.00  0.00    -0.326 A  
HETATM   16  C   UNL     1      -6.311  19.924  66.042  1.00  0.00    -0.208 A  
HETATM   17  C   UNL     1      -5.932  21.338  65.706  1.00  0.00    -0.215 C  
HETATM   18  C   UNL     1      -5.308  19.010  66.383  1.00  0.00    -0.171 A  
HETATM   19  C   UNL     1      -5.624  17.682  66.675  1.00  0.00    -0.211 A  
ENDBRANCH  11  13
ENDBRANCH   5  11
TORSDOF 3
ENDMDL
MODEL      142
REMARK 921   NORMALIZED FREE ENERGY PREDICTED BY IDOCK:   -3.86 KCAL/MOL
REMARK 922        TOTAL FREE ENERGY PREDICTED BY IDOCK:   -5.18 KCAL/MOL
REMARK 923 INTER-LIGAND FREE ENERGY PREDICTED BY IDOCK:   -4.56 KCAL/MOL
REMARK 924 INTRA-LIGAND FREE ENERGY PREDICTED BY IDOCK:   -0.62 KCAL/MOL
REMARK 927      BINDING AFFINITY PREDICTED BY RF-SCORE:    0.00 PKD
ROOT
HETATM    1  C   UNL     1     -11.198   9.458  71.232  1.00  0.00    -0.367 C  
HETATM    2  N   UNL     1     -11.045   8.470  70.178  1.00  0.00    -0.227 NA 
HETATM    3  C   UNL     1     -11.500   7.161  70.247  1.00  0.00    -0.247 A  
HETATM    4  C   UNL     1     -11.164   6.548  69.057  1.00  0.00    -0.354 A  
HETATM    5  C   UNL     1     -10.401   8.690  68.964  1.00  0.00    -0.213 A  
HETATM    6  C   UNL     1     -10.459   7.485  68.276  1.00  0.00    -0.223 A  
ENDROOT
BRANCH   3   7
HETATM    7  C   UNL     1     -12.125   6.532  71.468  1.00  0.00    -0.363 C  
HETATM    8  O   UNL     1     -14.170   6.498  72.732  1.00  0.00     0.322 OA 
HETATM    9  O   UNL     1     -14.240   7.517  70.734  1.00  0.00     0.014 OA 
HETATM   10  C   UNL     1     -13.590   6.848  71.708  1.00  0.00    -0.145 C  
ENDBRANCH   3   7
BRANCH   5  11
HETATM   11  C   UNL     1      -9.733   9.929  68.549  1.00  0.00    -0.154 C  
HETATM   12  O   UNL     1      -8.642  10.278  68.995  1.00  0.00    -0.141 OA 
BRANCH  11  13
HETATM   13  C   UNL     1     -10.396  10.821  67.537  1.00  0.00    -0.244 A  
HETATM   14  C   UNL     1     -11.366  11.750  67.940  1.00  0.00    -0.362 A  
HETATM   15  C   UNL     1     -12.005  12.567  66.992  1.00  0.00    -0.295 A  
HETATM   16  C   UNL     1     -11.689  12.457  65.631  1.00  0.00    -0.468 A  
HETATM   17  C   UNL     1     -12.361  13.306  64.590  1.00  0.00    -0.447 C  
HETATM   18  C   UNL     1     -10.719  11.531  65.235  1.00  0.00    -0.337 A  
HETATM   19  C   UNL     1     -10.094  10.708  66.174  1.00  0.00    -0.306 A  
ENDBRANCH  11  13
ENDBRANCH   5  11
TORSDOF 3
ENDMDL
MODEL      143
REMARK 921   NORMALIZED FREE ENERGY PREDICTED BY IDOCK:   -3.82 KCAL/MOL
REMARK 922        TOTAL FREE ENERGY PREDICTED BY IDOCK:   -5.12 KCAL/MOL
REMARK 923 INTER-LIGAND FREE ENERGY PREDICTED BY IDOCK:   -4.47 KCAL/MOL
REMARK 924 INTRA-LIGAND FREE ENERGY PREDICTED BY IDOCK:   -0.66 KCAL/MOL
REMARK 927      BINDING AFFINITY PREDICTED BY RF-SCORE:    0.00 PKD
ROOT
HETATM    1  C   UNL     1     -10.593   7.000  67.155  1.00  0.00    -0.341 C  
HETATM    2  N   UNL     1      -9.266   7.567  67.321  1.00  0.00    -0.129 NA 
HETATM    3  C   UNL     1      -8.081   6.853  67.225  1.00  0.00    -0.118 A  
HETATM    4  C   UNL     1      -7.048   7.742  67.443  1.00  0.00    -0.086 A  
HETATM    5  C   UNL     1      -8.999   8.899  67.624  1.00  0.00    -0.134 A  
HETATM    6  C   UNL     1      -7.617   9.001  67.719  1.00  0.00    -0.093 A  
ENDROOT
BRANCH   3   7
HETATM    7  C   UNL     1      -7.992   5.358  67.041  1.00  0.00    -0.101 C  
HETATM    8  O   UNL     1      -7.789   3.314  68.294  1.00  0.00    -0.059 OA 
HETATM    9  O   UNL     1      -8.224   5.176  69.470  1.00  0.00    -0.091 OA 
HETATM   10  C   UNL     1      -7.984   4.527  68.312  1.00  0.00    -0.080 C  
ENDBRANCH   3   7
BRANCH   5  11
HETATM   11  C   UNL     1      -9.995   9.949  67.867  1.00  0.00    -0.160 C  
HETATM   12  O   UNL     1     -10.463  10.176  68.980  1.00  0.00    -0.194 OA 
BRANCH  11  13
HETATM   13  C   UNL     1     -10.473  10.793  66.718  1.00  0.00    -0.305 A  
HETATM   14  C   UNL     1     -11.318  11.889  66.948  1.00  0.00    -0.392 A  
HETATM   15  C   UNL     1     -11.786  12.663  65.873  1.00  0.00    -0.470 A  
HETATM   16  C   UNL     1     -11.423  12.345  64.558  1.00  0.00    -0.394 A  
HETATM   17  C   UNL     1     -11.914  13.144  63.385  1.00  0.00    -0.552 C  
HETATM   18  C   UNL     1     -10.577  11.253  64.334  1.00  0.00    -0.410 A  
HETATM   19  C   UNL     1     -10.124  10.474  65.401  1.00  0.00    -0.358 A  
ENDBRANCH  11  13
ENDBRANCH   5  11
TORSDOF 3
ENDMDL
MODEL      144
REMARK 921   NORMALIZED FREE ENERGY PREDICTED BY IDOCK:   -3.78 KCAL/MOL
REMARK 922        TOTAL FREE ENERGY PREDICTED BY IDOCK:   -5.09 KCAL/MOL
REMARK 923 INTER-LIGAND FREE ENERGY PREDICTED BY IDOCK:   -4.58 KCAL/MOL
REMARK 924 INTRA-LIGAND FREE ENERGY PREDICTED BY IDOCK:   -0.51 KCAL/MOL
REMARK 927      BINDING AFFINITY PREDICTED BY RF-SCORE:    0.00 PKD
ROOT
HETATM    1  C   UNL     1      -7.819   7.050  68.633  1.00  0.00    -0.119 C  
HETATM    2  N   UNL     1      -8.992   6.578  67.919  1.00  0.00    -0.117 NA 
HETATM    3  C   UNL     1      -9.092   5.348  67.285  1.00  0.00    -0.111 A  
HETATM    4  C   UNL     1     -10.352   5.275  66.727  1.00  0.00    -0.320 A  
HETATM    5  C   UNL     1     -10.169   7.300  67.749  1.00  0.00    -0.195 A  
HETATM    6  C   UNL     1     -11.007   6.495  66.989  1.00  0.00    -0.466 A  
ENDROOT
BRANCH   3   7
HETATM    7  C   UNL     1      -7.961   4.359  67.146  1.00  0.00    -0.101 C  
HETATM    8  O   UNL     1      -6.927   2.507  68.281  1.00  0.00    -0.046 OA 
HETATM    9  O   UNL     1      -8.898   3.210  69.092  1.00  0.00    -0.078 OA 
HETATM   10  C   UNL     1      -7.873   3.287  68.218  1.00  0.00    -0.059 C  
ENDBRANCH   3   7
BRANCH   5  11
HETATM   11  C   UNL     1     -10.423   8.667  68.219  1.00  0.00    -0.184 C  
HETATM   12  O   UNL     1     -10.517   8.954  69.410  1.00  0.00    -0.217 OA 
BRANCH  11  13
HETATM   13  C   UNL     1     -10.576   9.776  67.215  1.00  0.00    -0.320 A  
HETATM   14  C   UNL     1     -10.022   9.652  65.932  1.00  0.00    -0.351 A  
HETATM   15  C   UNL     1     -10.143  10.697  65.001  1.00  0.00    -0.388 A  
HETATM   16  C   UNL     1     -10.810  11.880  65.345  1.00  0.00    -0.343 A  
HETATM   17  C   UNL     1     -10.947  13.022  64.379  1.00  0.00    -0.400 C  
HETATM   18  C   UNL     1     -11.363  11.998  66.624  1.00  0.00    -0.399 A  
HETATM   19  C   UNL     1     -11.230  10.966  67.555  1.00  0.00    -0.364 A  
ENDBRANCH  11  13
ENDBRANCH   5  11
TORSDOF 3
ENDMDL
MODEL      145
REMARK 921   NORMALIZED FREE ENERGY PREDICTED BY IDOCK:   -3.78 KCAL/MOL
REMARK 922        TOTAL FREE ENERGY PREDICTED BY IDOCK:   -5.08 KCAL/MOL
REMARK 923 INTER-LIGAND FREE ENERGY PREDICTED BY IDOCK:   -5.12 KCAL/MOL
REMARK 924 INTRA-LIGAND FREE ENERGY PREDICTED BY IDOCK:    0.04 KCAL/MOL
REMARK 927      BINDING AFFINITY PREDICTED BY RF-SCORE:    0.00 PKD
ROOT
HETATM    1  C   UNL     1     -11.025  10.097  68.683  1.00  0.00    -0.230 C  
HETATM    2  N   UNL     1     -11.772  10.471  69.871  1.00  0.00    -0.280 NA 
HETATM    3  C   UNL     1     -12.273  11.739  70.126  1.00  0.00    -0.263 A  
HETATM    4  C   UNL     1     -12.916  11.688  71.346  1.00  0.00    -0.426 A  
HETATM    5  C   UNL     1     -12.069   9.618  70.929  1.00  0.00    -0.300 A  
HETATM    6  C   UNL     1     -12.765  10.384  71.856  1.00  0.00    -0.459 A  
ENDROOT
BRANCH   3   7
HETATM    7  C   UNL     1     -12.025  12.951  69.261  1.00  0.00    -0.313 C  
HETATM    8  O   UNL     1     -11.874  15.349  69.375  1.00  0.00    -0.322 OA 
HETATM    9  O   UNL     1     -11.936  14.251  71.331  1.00  0.00    -0.327 OA 
HETATM   10  C   UNL     1     -11.946  14.284  69.983  1.00  0.00    -0.334 C  
ENDBRANCH   3   7
BRANCH   5  11
HETATM   11  C   UNL     1     -11.653   8.216  71.056  1.00  0.00    -0.279 C  
HETATM   12  O   UNL     1     -12.271   7.290  70.536  1.00  0.00    -0.192 OA 
BRANCH  11  13
HETATM   13  C   UNL     1     -10.422   7.881  71.851  1.00  0.00    -0.284 A  
HETATM   14  C   UNL     1      -9.207   7.621  71.200  1.00  0.00    -0.153 A  
HETATM   15  C   UNL     1      -8.062   7.284  71.940  1.00  0.00    -0.100 A  
HETATM   16  C   UNL     1      -8.120   7.191  73.336  1.00  0.00    -0.128 A  
HETATM   17  C   UNL     1      -6.918   6.820  74.158  1.00  0.00    -0.089 C  
HETATM   18  C   UNL     1      -9.333   7.454  73.982  1.00  0.00    -0.282 A  
HETATM   19  C   UNL     1     -10.476   7.775  73.246  1.00  0.00    -0.358 A  
ENDBRANCH  11  13
ENDBRANCH   5  11
TORSDOF 3
ENDMDL
MODEL      146
REMARK 921   NORMALIZED FREE ENERGY PREDICTED BY IDOCK:   -3.78 KCAL/MOL
REMARK 922        TOTAL FREE ENERGY PREDICTED BY IDOCK:   -5.08 KCAL/MOL
REMARK 923 INTER-LIGAND FREE ENERGY PREDICTED BY IDOCK:   -4.74 KCAL/MOL
REMARK 924 INTRA-LIGAND FREE ENERGY PREDICTED BY IDOCK:   -0.34 KCAL/MOL
REMARK 927      BINDING AFFINITY PREDICTED BY RF-SCORE:    0.00 PKD
ROOT
HETATM    1  C   UNL     1      -8.908  16.951  69.286  1.00  0.00     0.051 C  
HETATM    2  N   UNL     1      -7.589  16.709  68.728  1.00  0.00    -0.215 NA 
HETATM    3  C   UNL     1      -6.579  17.655  68.640  1.00  0.00    -0.209 A  
HETATM    4  C   UNL     1      -5.491  17.040  68.055  1.00  0.00    -0.123 A  
HETATM    5  C   UNL     1      -7.162  15.502  68.181  1.00  0.00    -0.117 A  
HETATM    6  C   UNL     1      -5.862  15.717  67.744  1.00  0.00    -0.168 A  
ENDROOT
BRANCH   3   7
HETATM    7  C   UNL     1      -6.731  19.110  69.010  1.00  0.00    -0.342 C  
HETATM    8  O   UNL     1      -6.155  20.686  70.734  1.00  0.00    -0.550 OA 
HETATM    9  O   UNL     1      -5.163  18.676  70.837  1.00  0.00    -0.243 OA 
HETATM   10  C   UNL     1      -6.005  19.561  70.265  1.00  0.00    -0.250 C  
ENDBRANCH   3   7
BRANCH   5  11
HETATM   11  C   UNL     1      -7.968  14.284  68.034  1.00  0.00    -0.142 C  
HETATM   12  O   UNL     1      -7.761  13.267  68.691  1.00  0.00    -0.129 OA 
BRANCH  11  13
HETATM   13  C   UNL     1      -9.097  14.262  67.041  1.00  0.00    -0.246 A  
HETATM   14  C   UNL     1      -9.993  13.182  67.012  1.00  0.00    -0.244 A  
HETATM   15  C   UNL     1     -11.033  13.148  66.069  1.00  0.00    -0.295 A  
HETATM   16  C   UNL     1     -11.184  14.185  65.139  1.00  0.00    -0.337 A  
HETATM   17  C   UNL     1     -12.278  14.174  64.109  1.00  0.00    -0.423 C  
HETATM   18  C   UNL     1     -10.290  15.261  65.174  1.00  0.00    -0.413 A  
HETATM   19  C   UNL     1      -9.246  15.288  66.101  1.00  0.00    -0.345 A  
ENDBRANCH  11  13
ENDBRANCH   5  11
TORSDOF 3
ENDMDL
MODEL      147
REMARK 921   NORMALIZED FREE ENERGY PREDICTED BY IDOCK:   -3.75 KCAL/MOL
REMARK 922        TOTAL FREE ENERGY PREDICTED BY IDOCK:   -5.05 KCAL/MOL
REMARK 923 INTER-LIGAND FREE ENERGY PREDICTED BY IDOCK:   -4.56 KCAL/MOL
REMARK 924 INTRA-LIGAND FREE ENERGY PREDICTED BY IDOCK:   -0.49 KCAL/MOL
REMARK 927      BINDING AFFINITY PREDICTED BY RF-SCORE:    0.00 PKD
ROOT
HETATM    1  C   UNL     1      -8.445  12.362  68.069  1.00  0.00    -0.176 C  
HETATM    2  N   UNL     1      -9.572  12.841  67.287  1.00  0.00    -0.203 NA 
HETATM    3  C   UNL     1      -9.616  14.057  66.621  1.00  0.00    -0.289 A  
HETATM    4  C   UNL     1     -10.845  14.140  66.000  1.00  0.00    -0.297 A  
HETATM    5  C   UNL     1     -10.774  12.159  67.116  1.00  0.00    -0.232 A  
HETATM    6  C   UNL     1     -11.572  12.980  66.331  1.00  0.00    -0.413 A  
ENDROOT
BRANCH   3   7
HETATM    7  C   UNL     1      -8.543  15.116  66.696  1.00  0.00    -0.279 C  
HETATM    8  O   UNL     1      -7.954  17.119  67.890  1.00  0.00    -0.185 OA 
HETATM    9  O   UNL     1      -9.661  15.920  68.718  1.00  0.00    -0.199 OA 
HETATM   10  C   UNL     1      -8.692  16.141  67.806  1.00  0.00    -0.172 C  
ENDBRANCH   3   7
BRANCH   5  11
HETATM   11  C   UNL     1     -11.132  10.870  67.719  1.00  0.00    -0.309 C  
HETATM   12  O   UNL     1     -11.905  10.773  68.669  1.00  0.00    -0.404 OA 
BRANCH  11  13
HETATM   13  C   UNL     1     -10.538   9.605  67.165  1.00  0.00    -0.298 A  
HETATM   14  C   UNL     1     -10.836   8.366  67.751  1.00  0.00    -0.061 A  
HETATM   15  C   UNL     1     -10.262   7.186  67.249  1.00  0.00    -0.315 A  
HETATM   16  C   UNL     1      -9.376   7.233  66.165  1.00  0.00    -0.101 A  
HETATM   17  C   UNL     1      -8.735   5.992  65.611  1.00  0.00    -0.142 C  
HETATM   18  C   UNL     1      -9.084   8.470  65.582  1.00  0.00    -0.189 A  
HETATM   19  C   UNL     1      -9.642   9.646  66.090  1.00  0.00    -0.295 A  
ENDBRANCH  11  13
ENDBRANCH   5  11
TORSDOF 3
ENDMDL
MODEL      148
REMARK 921   NORMALIZED FREE ENERGY PREDICTED BY IDOCK:   -3.72 KCAL/MOL
REMARK 922        TOTAL FREE ENERGY PREDICTED BY IDOCK:   -5.02 KCAL/MOL
REMARK 923 INTER-LIGAND FREE ENERGY PREDICTED BY IDOCK:   -4.50 KCAL/MOL
REMARK 924 INTRA-LIGAND FREE ENERGY PREDICTED BY IDOCK:   -0.51 KCAL/MOL
REMARK 927      BINDING AFFINITY PREDICTED BY RF-SCORE:    0.00 PKD
ROOT
HETATM    1  C   UNL     1     -11.230  17.192  65.964  1.00  0.00     0.633 C  
HETATM    2  N   UNL     1     -11.027  16.334  67.119  1.00  0.00    -0.188 NA 
HETATM    3  C   UNL     1     -11.481  15.028  67.226  1.00  0.00    -0.304 A  
HETATM    4  C   UNL     1     -11.091  14.558  68.463  1.00  0.00    -0.271 A  
HETATM    5  C   UNL     1     -10.372  16.710  68.288  1.00  0.00    -0.304 A  
HETATM    6  C   UNL     1     -10.431  15.608  69.131  1.00  0.00    -0.236 A  
ENDROOT
BRANCH   3   7
HETATM    7  C   UNL     1     -12.349  14.334  66.205  1.00  0.00    -0.411 C  
HETATM    8  O   UNL     1     -12.246  13.296  64.037  1.00  0.00    -0.495 OA 
HETATM    9  O   UNL     1     -10.285  13.787  65.011  1.00  0.00    -0.364 OA 
HETATM   10  C   UNL     1     -11.634  13.769  64.991  1.00  0.00    -0.341 C  
ENDBRANCH   3   7
BRANCH   5  11
HETATM   11  C   UNL     1      -9.810  18.034  68.579  1.00  0.00    -0.378 C  
HETATM   12  O   UNL     1     -10.218  18.742  69.496  1.00  0.00    -0.048 OA 
BRANCH  11  13
HETATM   13  C   UNL     1      -8.687  18.562  67.730  1.00  0.00    -0.290 A  
HETATM   14  C   UNL     1      -8.708  19.888  67.273  1.00  0.00    -0.399 A  
HETATM   15  C   UNL     1      -7.672  20.375  66.459  1.00  0.00    -0.241 A  
HETATM   16  C   UNL     1      -6.611  19.541  66.084  1.00  0.00    -0.222 A  
HETATM   17  C   UNL     1      -5.494  20.026  65.205  1.00  0.00    -0.193 C  
HETATM   18  C   UNL     1      -6.593  18.220  66.545  1.00  0.00    -0.236 A  
HETATM   19  C   UNL     1      -7.630  17.731  67.342  1.00  0.00    -0.213 A  
ENDBRANCH  11  13
ENDBRANCH   5  11
TORSDOF 3
ENDMDL
MODEL      149
REMARK 921   NORMALIZED FREE ENERGY PREDICTED BY IDOCK:   -3.72 KCAL/MOL
REMARK 922        TOTAL FREE ENERGY PREDICTED BY IDOCK:   -5.01 KCAL/MOL
REMARK 923 INTER-LIGAND FREE ENERGY PREDICTED BY IDOCK:   -4.52 KCAL/MOL
REMARK 924 INTRA-LIGAND FREE ENERGY PREDICTED BY IDOCK:   -0.49 KCAL/MOL
REMARK 927      BINDING AFFINITY PREDICTED BY RF-SCORE:    0.00 PKD
ROOT
HETATM    1  C   UNL     1      -8.500   8.633  69.543  1.00  0.00    -0.129 C  
HETATM    2  N   UNL     1      -9.364   7.857  68.671  1.00  0.00    -0.146 NA 
HETATM    3  C   UNL     1      -9.201   7.733  67.299  1.00  0.00    -0.139 A  
HETATM    4  C   UNL     1     -10.216   6.921  66.837  1.00  0.00    -0.310 A  
HETATM    5  C   UNL     1     -10.490   7.151  69.084  1.00  0.00    -0.211 A  
HETATM    6  C   UNL     1     -11.030   6.585  67.936  1.00  0.00    -0.382 A  
ENDROOT
BRANCH   3   7
HETATM    7  C   UNL     1      -8.166   8.473  66.487  1.00  0.00    -0.108 C  
HETATM    8  O   UNL     1      -7.944  10.269  64.903  1.00  0.00    -0.151 OA 
HETATM    9  O   UNL     1      -9.936  10.062  65.916  1.00  0.00    -0.247 OA 
HETATM   10  C   UNL     1      -8.665   9.669  65.696  1.00  0.00    -0.141 C  
ENDBRANCH   3   7
BRANCH   5  11
HETATM   11  C   UNL     1     -11.025   7.094  70.449  1.00  0.00    -0.265 C  
HETATM   12  O   UNL     1     -11.632   8.030  70.965  1.00  0.00    -0.282 OA 
BRANCH  11  13
HETATM   13  C   UNL     1     -10.832   5.846  71.266  1.00  0.00    -0.333 A  
HETATM   14  C   UNL     1     -11.433   5.726  72.528  1.00  0.00    -0.349 A  
HETATM   15  C   UNL     1     -11.233   4.572  73.303  1.00  0.00    -0.388 A  
HETATM   16  C   UNL     1     -10.424   3.530  72.830  1.00  0.00    -0.239 A  
HETATM   17  C   UNL     1     -10.179   2.288  73.638  1.00  0.00    -0.184 C  
HETATM   18  C   UNL     1      -9.830   3.654  71.570  1.00  0.00    -0.227 A  
HETATM   19  C   UNL     1     -10.015   4.807  70.805  1.00  0.00    -0.291 A  
ENDBRANCH  11  13
ENDBRANCH   5  11
TORSDOF 3
ENDMDL
MODEL      150
REMARK 921   NORMALIZED FREE ENERGY PREDICTED BY IDOCK:   -3.71 KCAL/MOL
REMARK 922        TOTAL FREE ENERGY PREDICTED BY IDOCK:   -5.00 KCAL/MOL
REMARK 923 INTER-LIGAND FREE ENERGY PREDICTED BY IDOCK:   -4.43 KCAL/MOL
REMARK 924 INTRA-LIGAND FREE ENERGY PREDICTED BY IDOCK:   -0.57 KCAL/MOL
REMARK 927      BINDING AFFINITY PREDICTED BY RF-SCORE:    0.00 PKD
ROOT
HETATM    1  C   UNL     1      -8.612   8.273  67.923  1.00  0.00    -0.132 C  
HETATM    2  N   UNL     1      -9.660   9.154  68.409  1.00  0.00    -0.150 NA 
HETATM    3  C   UNL     1     -10.499   9.908  67.603  1.00  0.00    -0.244 A  
HETATM    4  C   UNL     1     -11.351  10.605  68.437  1.00  0.00    -0.348 A  
HETATM    5  C   UNL     1      -9.952   9.383  69.751  1.00  0.00    -0.200 A  
HETATM    6  C   UNL     1     -10.992  10.302  69.765  1.00  0.00    -0.338 A  
ENDROOT
BRANCH   3   7
HETATM    7  C   UNL     1     -10.382  10.014  66.103  1.00  0.00    -0.225 C  
HETATM    8  O   UNL     1      -9.457  11.414  64.379  1.00  0.00    -0.212 OA 
HETATM    9  O   UNL     1      -8.817  11.855  66.485  1.00  0.00    -0.194 OA 
HETATM   10  C   UNL     1      -9.525  11.152  65.577  1.00  0.00    -0.221 C  
ENDBRANCH   3   7
BRANCH   5  11
HETATM   11  C   UNL     1      -9.239   8.817  70.902  1.00  0.00    -0.212 C  
HETATM   12  O   UNL     1      -8.229   9.331  71.377  1.00  0.00    -0.330 OA 
BRANCH  11  13
HETATM   13  C   UNL     1      -9.752   7.555  71.540  1.00  0.00    -0.184 A  
HETATM   14  C   UNL     1      -8.861   6.649  72.133  1.00  0.00    -0.134 A  
HETATM   15  C   UNL     1      -9.336   5.458  72.707  1.00  0.00    -0.148 A  
HETATM   16  C   UNL     1     -10.703   5.155  72.685  1.00  0.00    -0.291 A  
HETATM   17  C   UNL     1     -11.243   3.885  73.278  1.00  0.00    -0.253 C  
HETATM   18  C   UNL     1     -11.588   6.063  72.094  1.00  0.00    -0.348 A  
HETATM   19  C   UNL     1     -11.115   7.240  71.510  1.00  0.00    -0.264 A  
ENDBRANCH  11  13
ENDBRANCH   5  11
TORSDOF 3
ENDMDL
MODEL      151
REMARK 921   NORMALIZED FREE ENERGY PREDICTED BY IDOCK:   -3.66 KCAL/MOL
REMARK 922        TOTAL FREE ENERGY PREDICTED BY IDOCK:   -4.94 KCAL/MOL
REMARK 923 INTER-LIGAND FREE ENERGY PREDICTED BY IDOCK:   -4.35 KCAL/MOL
REMARK 924 INTRA-LIGAND FREE ENERGY PREDICTED BY IDOCK:   -0.59 KCAL/MOL
REMARK 927      BINDING AFFINITY PREDICTED BY RF-SCORE:    0.00 PKD
ROOT
HETATM    1  C   UNL     1      -9.652   8.729  66.142  1.00  0.00    -0.253 C  
HETATM    2  N   UNL     1      -8.735   9.303  67.111  1.00  0.00    -0.127 NA 
HETATM    3  C   UNL     1      -7.602   8.671  67.602  1.00  0.00    -0.098 A  
HETATM    4  C   UNL     1      -7.003   9.537  68.493  1.00  0.00    -0.065 A  
HETATM    5  C   UNL     1      -8.877  10.555  67.701  1.00  0.00    -0.131 A  
HETATM    6  C   UNL     1      -7.807  10.690  68.577  1.00  0.00    -0.115 A  
ENDROOT
BRANCH   3   7
HETATM    7  C   UNL     1      -7.208   7.248  67.287  1.00  0.00    -0.093 C  
HETATM    8  O   UNL     1      -7.468   4.998  68.096  1.00  0.00    -0.073 OA 
HETATM    9  O   UNL     1      -8.764   6.565  69.047  1.00  0.00    -0.127 OA 
HETATM   10  C   UNL     1      -7.811   6.174  68.175  1.00  0.00    -0.103 C  
ENDBRANCH   3   7
BRANCH   5  11
HETATM   11  C   UNL     1      -9.984  11.494  67.486  1.00  0.00    -0.190 C  
HETATM   12  O   UNL     1     -10.213  12.014  66.396  1.00  0.00    -0.210 OA 
BRANCH  11  13
HETATM   13  C   UNL     1     -10.886  11.848  68.636  1.00  0.00    -0.273 A  
HETATM   14  C   UNL     1     -11.316  13.170  68.818  1.00  0.00    -0.333 A  
HETATM   15  C   UNL     1     -12.139  13.507  69.906  1.00  0.00    -0.408 A  
HETATM   16  C   UNL     1     -12.532  12.529  70.829  1.00  0.00    -0.357 A  
HETATM   17  C   UNL     1     -13.400  12.856  72.010  1.00  0.00    -0.579 C  
HETATM   18  C   UNL     1     -12.102  11.210  70.641  1.00  0.00    -0.477 A  
HETATM   19  C   UNL     1     -11.272  10.878  69.568  1.00  0.00    -0.340 A  
ENDBRANCH  11  13
ENDBRANCH   5  11
TORSDOF 3
ENDMDL
MODEL      152
REMARK 921   NORMALIZED FREE ENERGY PREDICTED BY IDOCK:   -3.66 KCAL/MOL
REMARK 922        TOTAL FREE ENERGY PREDICTED BY IDOCK:   -4.94 KCAL/MOL
REMARK 923 INTER-LIGAND FREE ENERGY PREDICTED BY IDOCK:   -4.39 KCAL/MOL
REMARK 924 INTRA-LIGAND FREE ENERGY PREDICTED BY IDOCK:   -0.55 KCAL/MOL
REMARK 927      BINDING AFFINITY PREDICTED BY RF-SCORE:    0.00 PKD
ROOT
HETATM    1  C   UNL     1      -8.833   9.438  70.269  1.00  0.00    -0.236 C  
HETATM    2  N   UNL     1      -9.583   9.124  69.065  1.00  0.00    -0.154 NA 
HETATM    3  C   UNL     1     -10.367  10.026  68.361  1.00  0.00    -0.191 A  
HETATM    4  C   UNL     1     -10.909   9.348  67.289  1.00  0.00    -0.165 A  
HETATM    5  C   UNL     1      -9.641   7.869  68.465  1.00  0.00    -0.150 A  
HETATM    6  C   UNL     1     -10.484   8.007  67.369  1.00  0.00    -0.357 A  
ENDROOT
BRANCH   3   7
HETATM    7  C   UNL     1     -10.648  11.443  68.798  1.00  0.00    -0.235 C  
HETATM    8  O   UNL     1     -12.210  12.744  70.083  1.00  0.00    -0.312 OA 
HETATM    9  O   UNL     1     -12.373  10.513  70.262  1.00  0.00    -0.303 OA 
HETATM   10  C   UNL     1     -11.809  11.630  69.758  1.00  0.00    -0.357 C  
ENDBRANCH   3   7
BRANCH   5  11
HETATM   11  C   UNL     1      -8.997   6.644  68.952  1.00  0.00    -0.130 C  
HETATM   12  O   UNL     1      -8.009   6.153  68.413  1.00  0.00    -0.105 OA 
BRANCH  11  13
HETATM   13  C   UNL     1      -9.558   5.947  70.161  1.00  0.00    -0.198 A  
HETATM   14  C   UNL     1      -8.936   4.795  70.665  1.00  0.00    -0.163 A  
HETATM   15  C   UNL     1      -9.472   4.128  71.779  1.00  0.00    -0.210 A  
HETATM   16  C   UNL     1     -10.640   4.598  72.394  1.00  0.00    -0.225 A  
HETATM   17  C   UNL     1     -11.248   3.902  73.579  1.00  0.00    -0.312 C  
HETATM   18  C   UNL     1     -11.255   5.748  71.889  1.00  0.00    -0.289 A  
HETATM   19  C   UNL     1     -10.731   6.403  70.772  1.00  0.00    -0.302 A  
ENDBRANCH  11  13
ENDBRANCH   5  11
TORSDOF 3
ENDMDL
MODEL      153
REMARK 921   NORMALIZED FREE ENERGY PREDICTED BY IDOCK:   -3.66 KCAL/MOL
REMARK 922        TOTAL FREE ENERGY PREDICTED BY IDOCK:   -4.94 KCAL/MOL
REMARK 923 INTER-LIGAND FREE ENERGY PREDICTED BY IDOCK:   -4.44 KCAL/MOL
REMARK 924 INTRA-LIGAND FREE ENERGY PREDICTED BY IDOCK:   -0.50 KCAL/MOL
REMARK 927      BINDING AFFINITY PREDICTED BY RF-SCORE:    0.00 PKD
ROOT
HETATM    1  C   UNL     1      -7.867   6.233  65.727  1.00  0.00    -0.103 C  
HETATM    2  N   UNL     1      -8.742   7.339  66.076  1.00  0.00    -0.154 NA 
HETATM    3  C   UNL     1      -8.509   8.667  65.752  1.00  0.00    -0.151 A  
HETATM    4  C   UNL     1      -9.562   9.403  66.256  1.00  0.00    -0.297 A  
HETATM    5  C   UNL     1      -9.923   7.224  66.805  1.00  0.00    -0.217 A  
HETATM    6  C   UNL     1     -10.421   8.514  66.932  1.00  0.00    -0.345 A  
ENDROOT
BRANCH   3   7
HETATM    7  C   UNL     1      -7.258   9.181  65.083  1.00  0.00    -0.089 C  
HETATM    8  O   UNL     1      -6.271   9.486  62.911  1.00  0.00    -0.097 OA 
HETATM    9  O   UNL     1      -8.446   8.934  62.959  1.00  0.00    -0.196 OA 
HETATM   10  C   UNL     1      -7.272   9.208  63.565  1.00  0.00    -0.092 C  
ENDBRANCH   3   7
BRANCH   5  11
HETATM   11  C   UNL     1     -10.470   5.990  67.380  1.00  0.00    -0.246 C  
HETATM   12  O   UNL     1     -10.877   5.059  66.689  1.00  0.00    -0.187 OA 
BRANCH  11  13
HETATM   13  C   UNL     1     -10.545   5.842  68.874  1.00  0.00    -0.337 A  
HETATM   14  C   UNL     1      -9.653   4.993  69.547  1.00  0.00    -0.237 A  
HETATM   15  C   UNL     1      -9.738   4.834  70.940  1.00  0.00    -0.260 A  
HETATM   16  C   UNL     1     -10.719   5.513  71.674  1.00  0.00    -0.296 A  
HETATM   17  C   UNL     1     -10.846   5.356  73.162  1.00  0.00    -0.333 C  
HETATM   18  C   UNL     1     -11.604   6.360  70.999  1.00  0.00    -0.386 A  
HETATM   19  C   UNL     1     -11.531   6.507  69.612  1.00  0.00    -0.417 A  
ENDBRANCH  11  13
ENDBRANCH   5  11
TORSDOF 3
ENDMDL
MODEL      154
REMARK 921   NORMALIZED FREE ENERGY PREDICTED BY IDOCK:   -3.65 KCAL/MOL
REMARK 922        TOTAL FREE ENERGY PREDICTED BY IDOCK:   -4.93 KCAL/MOL
REMARK 923 INTER-LIGAND FREE ENERGY PREDICTED BY IDOCK:   -4.42 KCAL/MOL
REMARK 924 INTRA-LIGAND FREE ENERGY PREDICTED BY IDOCK:   -0.51 KCAL/MOL
REMARK 927      BINDING AFFINITY PREDICTED BY RF-SCORE:    0.00 PKD
ROOT
HETATM    1  C   UNL     1      -8.068   6.663  69.122  1.00  0.00    -0.116 C  
HETATM    2  N   UNL     1      -9.198   6.815  70.021  1.00  0.00    -0.158 NA 
HETATM    3  C   UNL     1      -9.984   5.773  70.490  1.00  0.00    -0.195 A  
HETATM    4  C   UNL     1     -10.945   6.323  71.313  1.00  0.00    -0.330 A  
HETATM    5  C   UNL     1      -9.665   8.028  70.519  1.00  0.00    -0.178 A  
HETATM    6  C   UNL     1     -10.766   7.720  71.308  1.00  0.00    -0.251 A  
ENDROOT
BRANCH   3   7
HETATM    7  C   UNL     1      -9.855   4.335  70.051  1.00  0.00    -0.275 C  
HETATM    8  O   UNL     1      -8.901   2.235  70.733  1.00  0.00    -0.060 OA 
HETATM    9  O   UNL     1      -8.902   3.881  72.258  1.00  0.00    -0.102 OA 
HETATM   10  C   UNL     1      -9.175   3.394  71.030  1.00  0.00    -0.127 C  
ENDBRANCH   3   7
BRANCH   5  11
HETATM   11  C   UNL     1      -9.135   9.358  70.199  1.00  0.00    -0.231 C  
HETATM   12  O   UNL     1      -8.129   9.820  70.735  1.00  0.00    -0.271 OA 
BRANCH  11  13
HETATM   13  C   UNL     1      -9.838  10.207  69.176  1.00  0.00    -0.225 A  
HETATM   14  C   UNL     1      -9.247  10.444  67.926  1.00  0.00    -0.143 A  
HETATM   15  C   UNL     1      -9.891  11.257  66.979  1.00  0.00    -0.217 A  
HETATM   16  C   UNL     1     -11.126  11.849  67.273  1.00  0.00    -0.344 A  
HETATM   17  C   UNL     1     -11.836  12.733  66.289  1.00  0.00    -0.485 C  
HETATM   18  C   UNL     1     -11.712  11.607  68.520  1.00  0.00    -0.378 A  
HETATM   19  C   UNL     1     -11.066  10.812  69.469  1.00  0.00    -0.334 A  
ENDBRANCH  11  13
ENDBRANCH   5  11
TORSDOF 3
ENDMDL
MODEL      155
REMARK 921   NORMALIZED FREE ENERGY PREDICTED BY IDOCK:   -3.63 KCAL/MOL
REMARK 922        TOTAL FREE ENERGY PREDICTED BY IDOCK:   -4.90 KCAL/MOL
REMARK 923 INTER-LIGAND FREE ENERGY PREDICTED BY IDOCK:   -4.24 KCAL/MOL
REMARK 924 INTRA-LIGAND FREE ENERGY PREDICTED BY IDOCK:   -0.66 KCAL/MOL
REMARK 927      BINDING AFFINITY PREDICTED BY RF-SCORE:    0.00 PKD
ROOT
HETATM    1  C   UNL     1      -8.154   7.684  67.500  1.00  0.00    -0.120 C  
HETATM    2  N   UNL     1      -8.135   7.241  66.117  1.00  0.00    -0.115 NA 
HETATM    3  C   UNL     1      -8.181   5.917  65.707  1.00  0.00    -0.130 A  
HETATM    4  C   UNL     1      -8.143   5.913  64.328  1.00  0.00    -0.119 A  
HETATM    5  C   UNL     1      -8.041   8.081  65.010  1.00  0.00    -0.145 A  
HETATM    6  C   UNL     1      -8.027   7.249  63.898  1.00  0.00    -0.078 A  
ENDROOT
BRANCH   3   7
HETATM    7  C   UNL     1      -8.149   4.729  66.637  1.00  0.00    -0.107 C  
HETATM    8  O   UNL     1      -9.592   3.329  67.958  1.00  0.00    -0.181 OA 
HETATM    9  O   UNL     1     -10.593   4.736  66.523  1.00  0.00    -0.259 OA 
HETATM   10  C   UNL     1      -9.496   4.207  67.104  1.00  0.00    -0.189 C  
ENDBRANCH   3   7
BRANCH   5  11
HETATM   11  C   UNL     1      -7.907   9.542  65.040  1.00  0.00    -0.117 C  
HETATM   12  O   UNL     1      -6.818  10.109  65.091  1.00  0.00    -0.124 OA 
BRANCH  11  13
HETATM   13  C   UNL     1      -9.143  10.397  65.007  1.00  0.00    -0.237 A  
HETATM   14  C   UNL     1      -9.773  10.686  63.787  1.00  0.00    -0.382 A  
HETATM   15  C   UNL     1     -10.913  11.505  63.752  1.00  0.00    -0.485 A  
HETATM   16  C   UNL     1     -11.430  12.053  64.933  1.00  0.00    -0.352 A  
HETATM   17  C   UNL     1     -12.640  12.943  64.931  1.00  0.00    -0.525 C  
HETATM   18  C   UNL     1     -10.801  11.760  66.148  1.00  0.00    -0.336 A  
HETATM   19  C   UNL     1      -9.658  10.958  66.182  1.00  0.00    -0.239 A  
ENDBRANCH  11  13
ENDBRANCH   5  11
TORSDOF 3
ENDMDL
MODEL      156
REMARK 921   NORMALIZED FREE ENERGY PREDICTED BY IDOCK:   -3.63 KCAL/MOL
REMARK 922        TOTAL FREE ENERGY PREDICTED BY IDOCK:   -4.90 KCAL/MOL
REMARK 923 INTER-LIGAND FREE ENERGY PREDICTED BY IDOCK:   -4.36 KCAL/MOL
REMARK 924 INTRA-LIGAND FREE ENERGY PREDICTED BY IDOCK:   -0.54 KCAL/MOL
REMARK 927      BINDING AFFINITY PREDICTED BY RF-SCORE:    0.00 PKD
ROOT
HETATM    1  C   UNL     1      -9.012   8.714  69.821  1.00  0.00    -0.145 C  
HETATM    2  N   UNL     1     -10.235   9.493  69.900  1.00  0.00    -0.214 NA 
HETATM    3  C   UNL     1     -11.202   9.354  70.884  1.00  0.00    -0.325 A  
HETATM    4  C   UNL     1     -12.200  10.266  70.610  1.00  0.00    -0.422 A  
HETATM    5  C   UNL     1     -10.620  10.471  68.986  1.00  0.00    -0.222 A  
HETATM    6  C   UNL     1     -11.854  10.937  69.421  1.00  0.00    -0.400 A  
ENDROOT
BRANCH   3   7
HETATM    7  C   UNL     1     -11.186   8.296  71.960  1.00  0.00    -0.389 C  
HETATM    8  O   UNL     1     -11.886   6.036  72.394  1.00  0.00    -0.310 OA 
HETATM    9  O   UNL     1     -12.025   6.742  70.268  1.00  0.00    -0.352 OA 
HETATM   10  C   UNL     1     -11.732   6.935  71.571  1.00  0.00    -0.311 C  
ENDBRANCH   3   7
BRANCH   5  11
HETATM   11  C   UNL     1      -9.890  10.859  67.774  1.00  0.00    -0.175 C  
HETATM   12  O   UNL     1     -10.213  10.475  66.652  1.00  0.00    -0.217 OA 
BRANCH  11  13
HETATM   13  C   UNL     1      -8.695  11.765  67.889  1.00  0.00    -0.164 A  
HETATM   14  C   UNL     1      -7.399  11.230  67.888  1.00  0.00    -0.092 A  
HETATM   15  C   UNL     1      -6.282  12.072  68.021  1.00  0.00    -0.058 A  
HETATM   16  C   UNL     1      -6.449  13.455  68.167  1.00  0.00    -0.119 A  
HETATM   17  C   UNL     1      -5.279  14.383  68.324  1.00  0.00    -0.113 C  
HETATM   18  C   UNL     1      -7.745  13.984  68.165  1.00  0.00    -0.143 A  
HETATM   19  C   UNL     1      -8.856  13.146  68.048  1.00  0.00    -0.191 A  
ENDBRANCH  11  13
ENDBRANCH   5  11
TORSDOF 3
ENDMDL
MODEL      157
REMARK 921   NORMALIZED FREE ENERGY PREDICTED BY IDOCK:   -3.60 KCAL/MOL
REMARK 922        TOTAL FREE ENERGY PREDICTED BY IDOCK:   -4.87 KCAL/MOL
REMARK 923 INTER-LIGAND FREE ENERGY PREDICTED BY IDOCK:   -4.26 KCAL/MOL
REMARK 924 INTRA-LIGAND FREE ENERGY PREDICTED BY IDOCK:   -0.61 KCAL/MOL
REMARK 927      BINDING AFFINITY PREDICTED BY RF-SCORE:    0.00 PKD
ROOT
HETATM    1  C   UNL     1      -8.748  10.432  68.985  1.00  0.00    -0.168 C  
HETATM    2  N   UNL     1      -9.497  10.479  67.741  1.00  0.00    -0.148 NA 
HETATM    3  C   UNL     1      -9.163   9.783  66.589  1.00  0.00    -0.150 A  
HETATM    4  C   UNL     1     -10.113  10.089  65.636  1.00  0.00    -0.321 A  
HETATM    5  C   UNL     1     -10.638  11.245  67.524  1.00  0.00    -0.218 A  
HETATM    6  C   UNL     1     -11.008  11.016  66.205  1.00  0.00    -0.184 A  
ENDROOT
BRANCH   3   7
HETATM    7  C   UNL     1      -7.912   8.958  66.415  1.00  0.00    -0.103 C  
HETATM    8  O   UNL     1      -5.641   9.119  65.637  1.00  0.00    -0.044 OA 
HETATM    9  O   UNL     1      -6.764  11.048  65.867  1.00  0.00    -0.083 OA 
HETATM   10  C   UNL     1      -6.679   9.703  65.935  1.00  0.00    -0.084 C  
ENDBRANCH   3   7
BRANCH   5  11
HETATM   11  C   UNL     1     -11.261  12.164  68.484  1.00  0.00    -0.260 C  
HETATM   12  O   UNL     1     -11.948  11.775  69.425  1.00  0.00    -0.306 OA 
BRANCH  11  13
HETATM   13  C   UNL     1     -11.061  13.645  68.324  1.00  0.00    -0.281 A  
HETATM   14  C   UNL     1     -10.080  14.137  67.451  1.00  0.00    -0.240 A  
HETATM   15  C   UNL     1      -9.875  15.521  67.319  1.00  0.00    -0.224 A  
HETATM   16  C   UNL     1     -10.640  16.426  68.066  1.00  0.00    -0.314 A  
HETATM   17  C   UNL     1     -10.438  17.911  67.959  1.00  0.00    -0.390 C  
HETATM   18  C   UNL     1     -11.619  15.931  68.933  1.00  0.00    -0.392 A  
HETATM   19  C   UNL     1     -11.813  14.555  69.076  1.00  0.00    -0.354 A  
ENDBRANCH  11  13
ENDBRANCH   5  11
TORSDOF 3
ENDMDL
MODEL      158
REMARK 921   NORMALIZED FREE ENERGY PREDICTED BY IDOCK:   -3.59 KCAL/MOL
REMARK 922        TOTAL FREE ENERGY PREDICTED BY IDOCK:   -4.85 KCAL/MOL
REMARK 923 INTER-LIGAND FREE ENERGY PREDICTED BY IDOCK:   -4.30 KCAL/MOL
REMARK 924 INTRA-LIGAND FREE ENERGY PREDICTED BY IDOCK:   -0.55 KCAL/MOL
REMARK 927      BINDING AFFINITY PREDICTED BY RF-SCORE:    0.00 PKD
ROOT
HETATM    1  C   UNL     1      -6.878   6.467  70.074  1.00  0.00    -0.054 C  
HETATM    2  N   UNL     1      -7.536   7.204  69.010  1.00  0.00    -0.092 NA 
HETATM    3  C   UNL     1      -7.467   6.882  67.662  1.00  0.00    -0.098 A  
HETATM    4  C   UNL     1      -8.219   7.816  66.979  1.00  0.00    -0.117 A  
HETATM    5  C   UNL     1      -8.306   8.350  69.189  1.00  0.00    -0.122 A  
HETATM    6  C   UNL     1      -8.714   8.740  67.920  1.00  0.00    -0.136 A  
ENDROOT
BRANCH   3   7
HETATM    7  C   UNL     1      -6.609   5.783  67.085  1.00  0.00    -0.056 C  
HETATM    8  O   UNL     1      -6.604   3.411  66.683  1.00  0.00    -0.039 OA 
HETATM    9  O   UNL     1      -8.557   4.320  67.314  1.00  0.00    -0.103 OA 
HETATM   10  C   UNL     1      -7.244   4.405  67.015  1.00  0.00    -0.069 C  
ENDBRANCH   3   7
BRANCH   5  11
HETATM   11  C   UNL     1      -8.557   9.035  70.462  1.00  0.00    -0.201 C  
HETATM   12  O   UNL     1      -7.672   9.601  71.098  1.00  0.00    -0.302 OA 
BRANCH  11  13
HETATM   13  C   UNL     1      -9.950   9.054  71.027  1.00  0.00    -0.349 A  
HETATM   14  C   UNL     1     -10.306   8.181  72.065  1.00  0.00    -0.320 A  
HETATM   15  C   UNL     1     -11.614   8.180  72.577  1.00  0.00    -0.468 A  
HETATM   16  C   UNL     1     -12.583   9.044  72.050  1.00  0.00    -0.464 A  
HETATM   17  C   UNL     1     -13.994   9.061  72.565  1.00  0.00    -0.472 C  
HETATM   18  C   UNL     1     -12.223   9.915  71.017  1.00  0.00    -0.446 A  
HETATM   19  C   UNL     1     -10.927   9.906  70.497  1.00  0.00    -0.391 A  
ENDBRANCH  11  13
ENDBRANCH   5  11
TORSDOF 3
ENDMDL
MODEL      159
REMARK 921   NORMALIZED FREE ENERGY PREDICTED BY IDOCK:   -3.57 KCAL/MOL
REMARK 922        TOTAL FREE ENERGY PREDICTED BY IDOCK:   -4.84 KCAL/MOL
REMARK 923 INTER-LIGAND FREE ENERGY PREDICTED BY IDOCK:   -4.27 KCAL/MOL
REMARK 924 INTRA-LIGAND FREE ENERGY PREDICTED BY IDOCK:   -0.56 KCAL/MOL
REMARK 927      BINDING AFFINITY PREDICTED BY RF-SCORE:    0.00 PKD
ROOT
HETATM    1  C   UNL     1      -8.654  11.365  67.828  1.00  0.00    -0.129 C  
HETATM    2  N   UNL     1      -9.175  10.041  67.534  1.00  0.00    -0.137 NA 
HETATM    3  C   UNL     1      -8.949   9.344  66.357  1.00  0.00    -0.152 A  
HETATM    4  C   UNL     1      -9.608   8.136  66.463  1.00  0.00    -0.303 A  
HETATM    5  C   UNL     1      -9.992   9.298  68.381  1.00  0.00    -0.176 A  
HETATM    6  C   UNL     1     -10.276   8.120  67.703  1.00  0.00    -0.296 A  
ENDROOT
BRANCH   3   7
HETATM    7  C   UNL     1      -8.220   9.898  65.157  1.00  0.00    -0.144 C  
HETATM    8  O   UNL     1      -8.603  11.098  63.108  1.00  0.00    -0.088 OA 
HETATM    9  O   UNL     1     -10.320  10.996  64.549  1.00  0.00    -0.315 OA 
HETATM   10  C   UNL     1      -9.056  10.706  64.180  1.00  0.00    -0.222 C  
ENDBRANCH   3   7
BRANCH   5  11
HETATM   11  C   UNL     1     -10.502   9.726  69.689  1.00  0.00    -0.242 C  
HETATM   12  O   UNL     1     -11.262  10.682  69.826  1.00  0.00    -0.254 OA 
BRANCH  11  13
HETATM   13  C   UNL     1     -10.089   8.975  70.924  1.00  0.00    -0.329 A  
HETATM   14  C   UNL     1      -8.812   8.399  71.008  1.00  0.00    -0.193 A  
HETATM   15  C   UNL     1      -8.433   7.676  72.151  1.00  0.00    -0.141 A  
HETATM   16  C   UNL     1      -9.328   7.511  73.217  1.00  0.00    -0.271 A  
HETATM   17  C   UNL     1      -8.960   6.733  74.448  1.00  0.00    -0.220 C  
HETATM   18  C   UNL     1     -10.599   8.089  73.129  1.00  0.00    -0.226 A  
HETATM   19  C   UNL     1     -10.982   8.795  71.987  1.00  0.00    -0.438 A  
ENDBRANCH  11  13
ENDBRANCH   5  11
TORSDOF 3
ENDMDL
MODEL      160
REMARK 921   NORMALIZED FREE ENERGY PREDICTED BY IDOCK:   -3.55 KCAL/MOL
REMARK 922        TOTAL FREE ENERGY PREDICTED BY IDOCK:   -4.82 KCAL/MOL
REMARK 923 INTER-LIGAND FREE ENERGY PREDICTED BY IDOCK:   -4.15 KCAL/MOL
REMARK 924 INTRA-LIGAND FREE ENERGY PREDICTED BY IDOCK:   -0.67 KCAL/MOL
REMARK 927      BINDING AFFINITY PREDICTED BY RF-SCORE:    0.00 PKD
ROOT
HETATM    1  C   UNL     1     -10.677   8.851  67.314  1.00  0.00    -0.149 C  
HETATM    2  N   UNL     1      -9.555   9.485  67.985  1.00  0.00    -0.136 NA 
HETATM    3  C   UNL     1      -8.309   9.698  67.415  1.00  0.00    -0.114 A  
HETATM    4  C   UNL     1      -7.525  10.321  68.365  1.00  0.00    -0.090 A  
HETATM    5  C   UNL     1      -9.565   9.943  69.299  1.00  0.00    -0.205 A  
HETATM    6  C   UNL     1      -8.292  10.445  69.539  1.00  0.00    -0.126 A  
ENDROOT
BRANCH   3   7
HETATM    7  C   UNL     1      -7.893   9.207  66.050  1.00  0.00    -0.102 C  
HETATM    8  O   UNL     1      -6.969   7.284  64.939  1.00  0.00    -0.049 OA 
HETATM    9  O   UNL     1      -7.619   7.000  67.068  1.00  0.00    -0.098 OA 
HETATM   10  C   UNL     1      -7.447   7.758  65.966  1.00  0.00    -0.078 C  
ENDBRANCH   3   7
BRANCH   5  11
HETATM   11  C   UNL     1     -10.681   9.836  70.246  1.00  0.00    -0.302 C  
HETATM   12  O   UNL     1     -11.539  10.707  70.363  1.00  0.00    -0.306 OA 
BRANCH  11  13
HETATM   13  C   UNL     1     -10.793   8.617  71.119  1.00  0.00    -0.320 A  
HETATM   14  C   UNL     1     -10.056   8.527  72.308  1.00  0.00    -0.386 A  
HETATM   15  C   UNL     1     -10.141   7.378  73.112  1.00  0.00    -0.342 A  
HETATM   16  C   UNL     1     -10.955   6.303  72.731  1.00  0.00    -0.291 A  
HETATM   17  C   UNL     1     -11.059   5.055  73.560  1.00  0.00    -0.386 C  
HETATM   18  C   UNL     1     -11.691   6.399  71.545  1.00  0.00    -0.369 A  
HETATM   19  C   UNL     1     -11.595   7.535  70.738  1.00  0.00    -0.300 A  
ENDBRANCH  11  13
ENDBRANCH   5  11
TORSDOF 3
ENDMDL
MODEL      161
REMARK 921   NORMALIZED FREE ENERGY PREDICTED BY IDOCK:   -3.53 KCAL/MOL
REMARK 922        TOTAL FREE ENERGY PREDICTED BY IDOCK:   -4.79 KCAL/MOL
REMARK 923 INTER-LIGAND FREE ENERGY PREDICTED BY IDOCK:   -4.37 KCAL/MOL
REMARK 924 INTRA-LIGAND FREE ENERGY PREDICTED BY IDOCK:   -0.42 KCAL/MOL
REMARK 927      BINDING AFFINITY PREDICTED BY RF-SCORE:    0.00 PKD
ROOT
HETATM    1  C   UNL     1     -12.100  12.225  66.738  1.00  0.00     0.031 C  
HETATM    2  N   UNL     1     -11.829  13.078  67.882  1.00  0.00    -0.353 NA 
HETATM    3  C   UNL     1     -11.642  14.451  67.821  1.00  0.00    -0.356 A  
HETATM    4  C   UNL     1     -11.412  14.891  69.109  1.00  0.00    -0.324 A  
HETATM    5  C   UNL     1     -11.695  12.635  69.195  1.00  0.00    -0.321 A  
HETATM    6  C   UNL     1     -11.416  13.764  69.954  1.00  0.00    -0.230 A  
ENDROOT
BRANCH   3   7
HETATM    7  C   UNL     1     -11.582  15.254  66.544  1.00  0.00    -0.015 C  
HETATM    8  O   UNL     1     -10.023  16.078  64.908  1.00  0.00    -0.328 OA 
HETATM    9  O   UNL     1      -9.234  14.584  66.386  1.00  0.00    -0.274 OA 
HETATM   10  C   UNL     1     -10.221  15.351  65.878  1.00  0.00    -0.344 C  
ENDBRANCH   3   7
BRANCH   5  11
HETATM   11  C   UNL     1     -11.762  11.242  69.651  1.00  0.00    -0.350 C  
HETATM   12  O   UNL     1     -12.763  10.763  70.179  1.00  0.00    -0.301 OA 
BRANCH  11  13
HETATM   13  C   UNL     1     -10.566  10.349  69.473  1.00  0.00    -0.274 A  
HETATM   14  C   UNL     1     -10.300   9.329  70.398  1.00  0.00    -0.291 A  
HETATM   15  C   UNL     1      -9.168   8.510  70.247  1.00  0.00    -0.164 A  
HETATM   16  C   UNL     1      -8.286   8.708  69.177  1.00  0.00    -0.117 A  
HETATM   17  C   UNL     1      -7.061   7.859  68.992  1.00  0.00    -0.070 C  
HETATM   18  C   UNL     1      -8.557   9.725  68.255  1.00  0.00    -0.119 A  
HETATM   19  C   UNL     1      -9.673  10.549  68.413  1.00  0.00    -0.166 A  
ENDBRANCH  11  13
ENDBRANCH   5  11
TORSDOF 3
ENDMDL
MODEL      162
REMARK 921   NORMALIZED FREE ENERGY PREDICTED BY IDOCK:   -3.48 KCAL/MOL
REMARK 922        TOTAL FREE ENERGY PREDICTED BY IDOCK:   -4.73 KCAL/MOL
REMARK 923 INTER-LIGAND FREE ENERGY PREDICTED BY IDOCK:   -4.17 KCAL/MOL
REMARK 924 INTRA-LIGAND FREE ENERGY PREDICTED BY IDOCK:   -0.56 KCAL/MOL
REMARK 927      BINDING AFFINITY PREDICTED BY RF-SCORE:    0.00 PKD
ROOT
HETATM    1  C   UNL     1     -10.775   7.404  67.134  1.00  0.00    -0.330 C  
HETATM    2  N   UNL     1      -9.436   7.481  67.694  1.00  0.00    -0.136 NA 
HETATM    3  C   UNL     1      -8.285   7.041  67.058  1.00  0.00    -0.117 A  
HETATM    4  C   UNL     1      -7.227   7.288  67.909  1.00  0.00    -0.091 A  
HETATM    5  C   UNL     1      -9.124   7.984  68.953  1.00  0.00    -0.144 A  
HETATM    6  C   UNL     1      -7.750   7.844  69.092  1.00  0.00    -0.100 A  
ENDROOT
BRANCH   3   7
HETATM    7  C   UNL     1      -8.258   6.315  65.735  1.00  0.00    -0.136 C  
HETATM    8  O   UNL     1      -8.285   4.098  64.801  1.00  0.00    -0.099 OA 
HETATM    9  O   UNL     1      -8.730   4.271  66.994  1.00  0.00    -0.107 OA 
HETATM   10  C   UNL     1      -8.416   4.806  65.796  1.00  0.00    -0.119 C  
ENDBRANCH   3   7
BRANCH   5  11
HETATM   11  C   UNL     1     -10.080   8.484  69.948  1.00  0.00    -0.195 C  
HETATM   12  O   UNL     1     -10.433   7.823  70.922  1.00  0.00    -0.205 OA 
BRANCH  11  13
HETATM   13  C   UNL     1     -10.663   9.860  69.785  1.00  0.00    -0.298 A  
HETATM   14  C   UNL     1     -10.273  10.672  68.709  1.00  0.00    -0.204 A  
HETATM   15  C   UNL     1     -10.798  11.967  68.570  1.00  0.00    -0.267 A  
HETATM   16  C   UNL     1     -11.710  12.469  69.508  1.00  0.00    -0.375 A  
HETATM   17  C   UNL     1     -12.281  13.854  69.396  1.00  0.00    -0.338 C  
HETATM   18  C   UNL     1     -12.098  11.655  70.577  1.00  0.00    -0.458 A  
HETATM   19  C   UNL     1     -11.565  10.373  70.725  1.00  0.00    -0.450 A  
ENDBRANCH  11  13
ENDBRANCH   5  11
TORSDOF 3
ENDMDL
MODEL      163
REMARK 921   NORMALIZED FREE ENERGY PREDICTED BY IDOCK:   -3.44 KCAL/MOL
REMARK 922        TOTAL FREE ENERGY PREDICTED BY IDOCK:   -4.69 KCAL/MOL
REMARK 923 INTER-LIGAND FREE ENERGY PREDICTED BY IDOCK:   -4.08 KCAL/MOL
REMARK 924 INTRA-LIGAND FREE ENERGY PREDICTED BY IDOCK:   -0.61 KCAL/MOL
REMARK 927      BINDING AFFINITY PREDICTED BY RF-SCORE:    0.00 PKD
ROOT
HETATM    1  C   UNL     1      -8.378   8.194  68.910  1.00  0.00    -0.125 C  
HETATM    2  N   UNL     1      -9.350   7.344  68.245  1.00  0.00    -0.140 NA 
HETATM    3  C   UNL     1     -10.354   7.796  67.401  1.00  0.00    -0.284 A  
HETATM    4  C   UNL     1     -11.061   6.691  66.976  1.00  0.00    -0.395 A  
HETATM    5  C   UNL     1      -9.428   5.961  68.382  1.00  0.00    -0.120 A  
HETATM    6  C   UNL     1     -10.507   5.559  67.605  1.00  0.00    -0.256 A  
ENDROOT
BRANCH   3   7
HETATM    7  C   UNL     1     -10.657   9.249  67.130  1.00  0.00    -0.286 C  
HETATM    8  O   UNL     1      -9.957  11.097  65.758  1.00  0.00    -0.224 OA 
HETATM    9  O   UNL     1      -9.136   9.078  65.222  1.00  0.00    -0.209 OA 
HETATM   10  C   UNL     1      -9.888   9.893  65.990  1.00  0.00    -0.264 C  
ENDBRANCH   3   7
BRANCH   5  11
HETATM   11  C   UNL     1      -8.580   5.125  69.240  1.00  0.00    -0.096 C  
HETATM   12  O   UNL     1      -7.376   4.976  69.041  1.00  0.00    -0.056 OA 
BRANCH  11  13
HETATM   13  C   UNL     1      -9.191   4.415  70.415  1.00  0.00    -0.184 A  
HETATM   14  C   UNL     1      -9.180   3.014  70.480  1.00  0.00    -0.210 A  
HETATM   15  C   UNL     1      -9.773   2.348  71.566  1.00  0.00    -0.225 A  
HETATM   16  C   UNL     1     -10.393   3.074  72.592  1.00  0.00    -0.211 A  
HETATM   17  C   UNL     1     -11.047   2.394  73.760  1.00  0.00    -0.299 C  
HETATM   18  C   UNL     1     -10.399   4.471  72.523  1.00  0.00    -0.257 A  
HETATM   19  C   UNL     1      -9.823   5.134  71.437  1.00  0.00    -0.239 A  
ENDBRANCH  11  13
ENDBRANCH   5  11
TORSDOF 3
ENDMDL
MODEL      164
REMARK 921   NORMALIZED FREE ENERGY PREDICTED BY IDOCK:   -3.44 KCAL/MOL
REMARK 922        TOTAL FREE ENERGY PREDICTED BY IDOCK:   -4.68 KCAL/MOL
REMARK 923 INTER-LIGAND FREE ENERGY PREDICTED BY IDOCK:   -4.09 KCAL/MOL
REMARK 924 INTRA-LIGAND FREE ENERGY PREDICTED BY IDOCK:   -0.59 KCAL/MOL
REMARK 927      BINDING AFFINITY PREDICTED BY RF-SCORE:    0.00 PKD
ROOT
HETATM    1  C   UNL     1      -8.057   7.347  67.869  1.00  0.00    -0.119 C  
HETATM    2  N   UNL     1      -8.696   6.053  68.037  1.00  0.00    -0.113 NA 
HETATM    3  C   UNL     1      -8.984   5.171  67.006  1.00  0.00    -0.112 A  
HETATM    4  C   UNL     1      -9.584   4.064  67.569  1.00  0.00    -0.216 A  
HETATM    5  C   UNL     1      -9.129   5.527  69.251  1.00  0.00    -0.112 A  
HETATM    6  C   UNL     1      -9.700   4.296  68.953  1.00  0.00    -0.195 A  
ENDROOT
BRANCH   3   7
HETATM    7  C   UNL     1      -8.780   5.468  65.540  1.00  0.00    -0.154 C  
HETATM    8  O   UNL     1      -7.120   5.338  63.805  1.00  0.00    -0.046 OA 
HETATM    9  O   UNL     1      -6.645   4.290  65.732  1.00  0.00    -0.042 OA 
HETATM   10  C   UNL     1      -7.449   5.039  64.949  1.00  0.00    -0.076 C  
ENDBRANCH   3   7
BRANCH   5  11
HETATM   11  C   UNL     1      -9.058   6.191  70.558  1.00  0.00    -0.154 C  
HETATM   12  O   UNL     1      -8.094   6.073  71.311  1.00  0.00    -0.114 OA 
BRANCH  11  13
HETATM   13  C   UNL     1     -10.203   7.053  71.011  1.00  0.00    -0.209 A  
HETATM   14  C   UNL     1     -11.503   6.531  71.068  1.00  0.00    -0.392 A  
HETATM   15  C   UNL     1     -12.578   7.343  71.467  1.00  0.00    -0.401 A  
HETATM   16  C   UNL     1     -12.367   8.687  71.803  1.00  0.00    -0.402 A  
HETATM   17  C   UNL     1     -13.495   9.586  72.221  1.00  0.00    -0.521 C  
HETATM   18  C   UNL     1     -11.067   9.202  71.746  1.00  0.00    -0.437 A  
HETATM   19  C   UNL     1     -10.001   8.400  71.335  1.00  0.00    -0.275 A  
ENDBRANCH  11  13
ENDBRANCH   5  11
TORSDOF 3
ENDMDL
MODEL      165
REMARK 921   NORMALIZED FREE ENERGY PREDICTED BY IDOCK:   -3.43 KCAL/MOL
REMARK 922        TOTAL FREE ENERGY PREDICTED BY IDOCK:   -4.67 KCAL/MOL
REMARK 923 INTER-LIGAND FREE ENERGY PREDICTED BY IDOCK:   -4.06 KCAL/MOL
REMARK 924 INTRA-LIGAND FREE ENERGY PREDICTED BY IDOCK:   -0.62 KCAL/MOL
REMARK 927      BINDING AFFINITY PREDICTED BY RF-SCORE:    0.00 PKD
ROOT
HETATM    1  C   UNL     1     -10.871   7.185  69.229  1.00  0.00    -0.183 C  
HETATM    2  N   UNL     1     -10.847   6.415  70.461  1.00  0.00    -0.258 NA 
HETATM    3  C   UNL     1     -11.844   6.430  71.425  1.00  0.00    -0.281 A  
HETATM    4  C   UNL     1     -11.451   5.574  72.434  1.00  0.00    -0.266 A  
HETATM    5  C   UNL     1      -9.810   5.576  70.858  1.00  0.00    -0.183 A  
HETATM    6  C   UNL     1     -10.180   5.069  72.097  1.00  0.00    -0.259 A  
ENDROOT
BRANCH   3   7
HETATM    7  C   UNL     1     -13.055   7.330  71.394  1.00  0.00    -0.412 C  
HETATM    8  O   UNL     1     -13.810   9.499  72.108  1.00  0.00    -0.390 OA 
HETATM    9  O   UNL     1     -11.611   9.090  72.289  1.00  0.00    -0.328 OA 
HETATM   10  C   UNL     1     -12.868   8.725  71.964  1.00  0.00    -0.390 C  
ENDBRANCH   3   7
BRANCH   5  11
HETATM   11  C   UNL     1      -8.553   5.349  70.135  1.00  0.00    -0.119 C  
HETATM   12  O   UNL     1      -7.509   5.934  70.416  1.00  0.00    -0.084 OA 
BRANCH  11  13
HETATM   13  C   UNL     1      -8.522   4.364  69.000  1.00  0.00    -0.096 A  
HETATM   14  C   UNL     1      -9.163   3.122  69.123  1.00  0.00    -0.222 A  
HETATM   15  C   UNL     1      -9.114   2.190  68.073  1.00  0.00    -0.220 A  
HETATM   16  C   UNL     1      -8.416   2.484  66.894  1.00  0.00    -0.107 A  
HETATM   17  C   UNL     1      -8.333   1.506  65.757  1.00  0.00    -0.089 C  
HETATM   18  C   UNL     1      -7.781   3.725  66.776  1.00  0.00    -0.084 A  
HETATM   19  C   UNL     1      -7.816   4.646  67.825  1.00  0.00    -0.086 A  
ENDBRANCH  11  13
ENDBRANCH   5  11
TORSDOF 3
ENDMDL
MODEL      166
REMARK 921   NORMALIZED FREE ENERGY PREDICTED BY IDOCK:   -3.43 KCAL/MOL
REMARK 922        TOTAL FREE ENERGY PREDICTED BY IDOCK:   -4.67 KCAL/MOL
REMARK 923 INTER-LIGAND FREE ENERGY PREDICTED BY IDOCK:   -4.14 KCAL/MOL
REMARK 924 INTRA-LIGAND FREE ENERGY PREDICTED BY IDOCK:   -0.53 KCAL/MOL
REMARK 927      BINDING AFFINITY PREDICTED BY RF-SCORE:    0.00 PKD
ROOT
HETATM    1  C   UNL     1      -8.053   9.468  69.716  1.00  0.00    -0.140 C  
HETATM    2  N   UNL     1      -9.248  10.174  69.290  1.00  0.00    -0.198 NA 
HETATM    3  C   UNL     1      -9.255  11.385  68.613  1.00  0.00    -0.146 A  
HETATM    4  C   UNL     1     -10.575  11.722  68.389  1.00  0.00    -0.239 A  
HETATM    5  C   UNL     1     -10.553   9.748  69.522  1.00  0.00    -0.233 A  
HETATM    6  C   UNL     1     -11.377  10.724  68.977  1.00  0.00    -0.349 A  
ENDROOT
BRANCH   3   7
HETATM    7  C   UNL     1      -8.027  12.207  68.312  1.00  0.00    -0.163 C  
HETATM    8  O   UNL     1      -6.121  12.283  66.846  1.00  0.00    -0.221 OA 
HETATM    9  O   UNL     1      -7.729  10.804  66.331  1.00  0.00    -0.134 OA 
HETATM   10  C   UNL     1      -7.205  11.771  67.112  1.00  0.00    -0.147 C  
ENDBRANCH   3   7
BRANCH   5  11
HETATM   11  C   UNL     1     -10.954   8.547  70.264  1.00  0.00    -0.235 C  
HETATM   12  O   UNL     1     -11.580   8.596  71.320  1.00  0.00    -0.264 OA 
BRANCH  11  13
HETATM   13  C   UNL     1     -10.592   7.191  69.724  1.00  0.00    -0.250 A  
HETATM   14  C   UNL     1     -10.023   6.223  70.564  1.00  0.00    -0.221 A  
HETATM   15  C   UNL     1      -9.661   4.965  70.056  1.00  0.00    -0.261 A  
HETATM   16  C   UNL     1      -9.854   4.664  68.701  1.00  0.00    -0.190 A  
HETATM   17  C   UNL     1      -9.467   3.333  68.122  1.00  0.00    -0.215 C  
HETATM   18  C   UNL     1     -10.424   5.632  67.868  1.00  0.00    -0.274 A  
HETATM   19  C   UNL     1     -10.770   6.888  68.369  1.00  0.00    -0.259 A  
ENDBRANCH  11  13
ENDBRANCH   5  11
TORSDOF 3
ENDMDL
MODEL      167
REMARK 921   NORMALIZED FREE ENERGY PREDICTED BY IDOCK:   -3.41 KCAL/MOL
REMARK 922        TOTAL FREE ENERGY PREDICTED BY IDOCK:   -4.65 KCAL/MOL
REMARK 923 INTER-LIGAND FREE ENERGY PREDICTED BY IDOCK:   -4.05 KCAL/MOL
REMARK 924 INTRA-LIGAND FREE ENERGY PREDICTED BY IDOCK:   -0.60 KCAL/MOL
REMARK 927      BINDING AFFINITY PREDICTED BY RF-SCORE:    0.00 PKD
ROOT
HETATM    1  C   UNL     1     -11.981  11.768  68.627  1.00  0.00    -0.239 C  
HETATM    2  N   UNL     1     -10.788  12.592  68.545  1.00  0.00    -0.244 NA 
HETATM    3  C   UNL     1     -10.760  13.967  68.728  1.00  0.00    -0.262 A  
HETATM    4  C   UNL     1      -9.452  14.375  68.570  1.00  0.00    -0.212 A  
HETATM    5  C   UNL     1      -9.512  12.124  68.246  1.00  0.00    -0.204 A  
HETATM    6  C   UNL     1      -8.685  13.239  68.243  1.00  0.00    -0.168 A  
ENDROOT
BRANCH   3   7
HETATM    7  C   UNL     1     -11.980  14.831  68.933  1.00  0.00    -0.298 C  
HETATM    8  O   UNL     1     -13.568  15.482  70.619  1.00  0.00    -0.424 OA 
HETATM    9  O   UNL     1     -11.760  14.353  71.321  1.00  0.00    -0.289 OA 
HETATM   10  C   UNL     1     -12.512  14.914  70.352  1.00  0.00    -0.350 C  
ENDBRANCH   3   7
BRANCH   5  11
HETATM   11  C   UNL     1      -9.151  10.738  67.925  1.00  0.00    -0.150 C  
HETATM   12  O   UNL     1      -9.163  10.296  66.779  1.00  0.00    -0.154 OA 
BRANCH  11  13
HETATM   13  C   UNL     1      -8.746   9.806  69.033  1.00  0.00    -0.148 A  
HETATM   14  C   UNL     1      -7.637   8.960  68.877  1.00  0.00    -0.087 A  
HETATM   15  C   UNL     1      -7.273   8.071  69.902  1.00  0.00    -0.061 A  
HETATM   16  C   UNL     1      -8.017   8.009  71.088  1.00  0.00    -0.095 A  
HETATM   17  C   UNL     1      -7.662   7.062  72.198  1.00  0.00    -0.092 C  
HETATM   18  C   UNL     1      -9.119   8.857  71.239  1.00  0.00    -0.323 A  
HETATM   19  C   UNL     1      -9.492   9.730  70.215  1.00  0.00    -0.250 A  
ENDBRANCH  11  13
ENDBRANCH   5  11
TORSDOF 3
ENDMDL
MODEL      168
REMARK 921   NORMALIZED FREE ENERGY PREDICTED BY IDOCK:   -3.38 KCAL/MOL
REMARK 922        TOTAL FREE ENERGY PREDICTED BY IDOCK:   -4.61 KCAL/MOL
REMARK 923 INTER-LIGAND FREE ENERGY PREDICTED BY IDOCK:   -4.08 KCAL/MOL
REMARK 924 INTRA-LIGAND FREE ENERGY PREDICTED BY IDOCK:   -0.53 KCAL/MOL
REMARK 927      BINDING AFFINITY PREDICTED BY RF-SCORE:    0.00 PKD
ROOT
HETATM    1  C   UNL     1     -11.763  10.585  68.560  1.00  0.00    -0.049 C  
HETATM    2  N   UNL     1     -11.006  10.602  67.321  1.00  0.00    -0.300 NA 
HETATM    3  C   UNL     1     -10.846  11.712  66.505  1.00  0.00    -0.284 A  
HETATM    4  C   UNL     1     -10.066  11.324  65.434  1.00  0.00    -0.314 A  
HETATM    5  C   UNL     1     -10.356   9.503  66.767  1.00  0.00    -0.228 A  
HETATM    6  C   UNL     1      -9.788   9.951  65.581  1.00  0.00    -0.368 A  
ENDROOT
BRANCH   3   7
HETATM    7  C   UNL     1     -11.524  13.042  66.721  1.00  0.00    -0.392 C  
HETATM    8  O   UNL     1     -11.276  15.111  67.924  1.00  0.00    -0.306 OA 
HETATM    9  O   UNL     1      -9.506  13.731  67.921  1.00  0.00    -0.200 OA 
HETATM   10  C   UNL     1     -10.772  14.047  67.575  1.00  0.00    -0.268 C  
ENDBRANCH   3   7
BRANCH   5  11
HETATM   11  C   UNL     1     -10.350   8.137  67.304  1.00  0.00    -0.303 C  
HETATM   12  O   UNL     1     -11.104   7.258  66.893  1.00  0.00    -0.287 OA 
BRANCH  11  13
HETATM   13  C   UNL     1      -9.389   7.781  68.404  1.00  0.00    -0.143 A  
HETATM   14  C   UNL     1      -9.125   6.436  68.706  1.00  0.00    -0.125 A  
HETATM   15  C   UNL     1      -8.247   6.102  69.749  1.00  0.00    -0.123 A  
HETATM   16  C   UNL     1      -7.631   7.105  70.509  1.00  0.00    -0.089 A  
HETATM   17  C   UNL     1      -6.696   6.782  71.640  1.00  0.00    -0.061 C  
HETATM   18  C   UNL     1      -7.896   8.444  70.203  1.00  0.00    -0.102 A  
HETATM   19  C   UNL     1      -8.781   8.778  69.175  1.00  0.00    -0.136 A  
ENDBRANCH  11  13
ENDBRANCH   5  11
TORSDOF 3
ENDMDL
MODEL      169
REMARK 921   NORMALIZED FREE ENERGY PREDICTED BY IDOCK:   -3.37 KCAL/MOL
REMARK 922        TOTAL FREE ENERGY PREDICTED BY IDOCK:   -4.60 KCAL/MOL
REMARK 923 INTER-LIGAND FREE ENERGY PREDICTED BY IDOCK:   -4.26 KCAL/MOL
REMARK 924 INTRA-LIGAND FREE ENERGY PREDICTED BY IDOCK:   -0.35 KCAL/MOL
REMARK 927      BINDING AFFINITY PREDICTED BY RF-SCORE:    0.00 PKD
ROOT
HETATM    1  C   UNL     1      -9.468   8.130  71.707  1.00  0.00    -0.188 C  
HETATM    2  N   UNL     1     -10.001   9.114  70.780  1.00  0.00    -0.246 NA 
HETATM    3  C   UNL     1     -11.349   9.389  70.603  1.00  0.00    -0.292 A  
HETATM    4  C   UNL     1     -11.444  10.376  69.643  1.00  0.00    -0.326 A  
HETATM    5  C   UNL     1      -9.236   9.900  69.922  1.00  0.00    -0.212 A  
HETATM    6  C   UNL     1     -10.139  10.671  69.201  1.00  0.00    -0.234 A  
ENDROOT
BRANCH   3   7
HETATM    7  C   UNL     1     -12.474   8.633  71.267  1.00  0.00    -0.284 C  
HETATM    8  O   UNL     1     -14.295   8.933  72.809  1.00  0.00    -0.600 OA 
HETATM    9  O   UNL     1     -13.277  10.796  72.079  1.00  0.00    -0.484 OA 
HETATM   10  C   UNL     1     -13.421   9.455  72.122  1.00  0.00    -0.471 C  
ENDBRANCH   3   7
BRANCH   5  11
HETATM   11  C   UNL     1      -7.777   9.851  69.771  1.00  0.00    -0.155 C  
HETATM   12  O   UNL     1      -7.006  10.315  70.607  1.00  0.00    -0.323 OA 
BRANCH  11  13
HETATM   13  C   UNL     1      -7.184   9.209  68.547  1.00  0.00    -0.073 A  
HETATM   14  C   UNL     1      -6.600  10.000  67.546  1.00  0.00    -0.068 A  
HETATM   15  C   UNL     1      -6.067   9.404  66.391  1.00  0.00    -0.060 A  
HETATM   16  C   UNL     1      -6.121   8.014  66.219  1.00  0.00    -0.045 A  
HETATM   17  C   UNL     1      -5.573   7.346  64.991  1.00  0.00    -0.033 C  
HETATM   18  C   UNL     1      -6.702   7.231  67.221  1.00  0.00    -0.068 A  
HETATM   19  C   UNL     1      -7.246   7.823  68.363  1.00  0.00    -0.093 A  
ENDBRANCH  11  13
ENDBRANCH   5  11
TORSDOF 3
ENDMDL
MODEL      170
REMARK 921   NORMALIZED FREE ENERGY PREDICTED BY IDOCK:   -3.34 KCAL/MOL
REMARK 922        TOTAL FREE ENERGY PREDICTED BY IDOCK:   -4.57 KCAL/MOL
REMARK 923 INTER-LIGAND FREE ENERGY PREDICTED BY IDOCK:   -3.93 KCAL/MOL
REMARK 924 INTRA-LIGAND FREE ENERGY PREDICTED BY IDOCK:   -0.64 KCAL/MOL
REMARK 927      BINDING AFFINITY PREDICTED BY RF-SCORE:    0.00 PKD
ROOT
HETATM    1  C   UNL     1      -8.819   8.571  69.529  1.00  0.00    -0.141 C  
HETATM    2  N   UNL     1     -10.058   7.952  69.966  1.00  0.00    -0.196 NA 
HETATM    3  C   UNL     1     -11.161   8.640  70.450  1.00  0.00    -0.230 A  
HETATM    4  C   UNL     1     -12.127   7.704  70.755  1.00  0.00    -0.149 A  
HETATM    5  C   UNL     1     -10.305   6.582  69.982  1.00  0.00    -0.198 A  
HETATM    6  C   UNL     1     -11.587   6.429  70.493  1.00  0.00    -0.424 A  
ENDROOT
BRANCH   3   7
HETATM    7  C   UNL     1     -11.202  10.128  70.702  1.00  0.00    -0.418 C  
HETATM    8  O   UNL     1     -11.346  12.231  69.544  1.00  0.00    -0.246 OA 
HETATM    9  O   UNL     1     -11.720  10.385  68.325  1.00  0.00    -0.342 OA 
HETATM   10  C   UNL     1     -11.419  11.007  69.483  1.00  0.00    -0.299 C  
ENDBRANCH   3   7
BRANCH   5  11
HETATM   11  C   UNL     1      -9.358   5.526  69.605  1.00  0.00    -0.134 C  
HETATM   12  O   UNL     1      -8.454   5.148  70.347  1.00  0.00    -0.105 OA 
BRANCH  11  13
HETATM   13  C   UNL     1      -9.483   4.869  68.259  1.00  0.00    -0.182 A  
HETATM   14  C   UNL     1      -9.436   3.471  68.147  1.00  0.00    -0.215 A  
HETATM   15  C   UNL     1      -9.528   2.856  66.887  1.00  0.00    -0.042 A  
HETATM   16  C   UNL     1      -9.657   3.630  65.726  1.00  0.00    -0.143 A  
HETATM   17  C   UNL     1      -9.745   3.007  64.363  1.00  0.00    -0.146 C  
HETATM   18  C   UNL     1      -9.706   5.024  65.844  1.00  0.00    -0.182 A  
HETATM   19  C   UNL     1      -9.600   5.636  67.095  1.00  0.00    -0.137 A  
ENDBRANCH  11  13
ENDBRANCH   5  11
TORSDOF 3
ENDMDL
MODEL      171
REMARK 921   NORMALIZED FREE ENERGY PREDICTED BY IDOCK:   -3.31 KCAL/MOL
REMARK 922        TOTAL FREE ENERGY PREDICTED BY IDOCK:   -4.53 KCAL/MOL
REMARK 923 INTER-LIGAND FREE ENERGY PREDICTED BY IDOCK:   -4.22 KCAL/MOL
REMARK 924 INTRA-LIGAND FREE ENERGY PREDICTED BY IDOCK:   -0.32 KCAL/MOL
REMARK 927      BINDING AFFINITY PREDICTED BY RF-SCORE:    0.00 PKD
ROOT
HETATM    1  C   UNL     1     -12.381   6.947  70.743  1.00  0.00    -0.262 C  
HETATM    2  N   UNL     1     -11.234   7.761  70.378  1.00  0.00    -0.261 NA 
HETATM    3  C   UNL     1     -11.016   9.062  70.808  1.00  0.00    -0.258 A  
HETATM    4  C   UNL     1      -9.828   9.485  70.248  1.00  0.00    -0.313 A  
HETATM    5  C   UNL     1     -10.208   7.360  69.528  1.00  0.00    -0.204 A  
HETATM    6  C   UNL     1      -9.344   8.443  69.433  1.00  0.00    -0.154 A  
ENDROOT
BRANCH   3   7
HETATM    7  C   UNL     1     -11.990   9.869  71.632  1.00  0.00    -0.427 C  
HETATM    8  O   UNL     1     -13.138  11.983  71.657  1.00  0.00    -0.427 OA 
HETATM    9  O   UNL     1     -12.081  11.435  69.755  1.00  0.00    -0.311 OA 
HETATM   10  C   UNL     1     -12.448  11.185  71.029  1.00  0.00    -0.403 C  
ENDBRANCH   3   7
BRANCH   5  11
HETATM   11  C   UNL     1     -10.118   6.076  68.823  1.00  0.00    -0.168 C  
HETATM   12  O   UNL     1     -10.611   5.891  67.714  1.00  0.00    -0.222 OA 
BRANCH  11  13
HETATM   13  C   UNL     1      -9.395   4.928  69.471  1.00  0.00    -0.190 A  
HETATM   14  C   UNL     1      -9.093   4.964  70.841  1.00  0.00    -0.184 A  
HETATM   15  C   UNL     1      -8.396   3.903  71.442  1.00  0.00    -0.088 A  
HETATM   16  C   UNL     1      -7.984   2.801  70.681  1.00  0.00    -0.049 A  
HETATM   17  C   UNL     1      -7.226   1.656  71.290  1.00  0.00    -0.032 C  
HETATM   18  C   UNL     1      -8.290   2.769  69.317  1.00  0.00    -0.087 A  
HETATM   19  C   UNL     1      -8.970   3.830  68.714  1.00  0.00    -0.177 A  
ENDBRANCH  11  13
ENDBRANCH   5  11
TORSDOF 3
ENDMDL
MODEL      172
REMARK 921   NORMALIZED FREE ENERGY PREDICTED BY IDOCK:   -3.31 KCAL/MOL
REMARK 922        TOTAL FREE ENERGY PREDICTED BY IDOCK:   -4.53 KCAL/MOL
REMARK 923 INTER-LIGAND FREE ENERGY PREDICTED BY IDOCK:   -4.44 KCAL/MOL
REMARK 924 INTRA-LIGAND FREE ENERGY PREDICTED BY IDOCK:   -0.09 KCAL/MOL
REMARK 927      BINDING AFFINITY PREDICTED BY RF-SCORE:    0.00 PKD
ROOT
HETATM    1  C   UNL     1     -12.109  12.939  66.265  1.00  0.00    -0.365 C  
HETATM    2  N   UNL     1     -10.736  12.807  66.719  1.00  0.00    -0.258 NA 
HETATM    3  C   UNL     1     -10.243  13.314  67.913  1.00  0.00    -0.233 A  
HETATM    4  C   UNL     1      -8.905  12.982  67.978  1.00  0.00    -0.191 A  
HETATM    5  C   UNL     1      -9.717  12.178  66.011  1.00  0.00    -0.244 A  
HETATM    6  C   UNL     1      -8.573  12.305  66.788  1.00  0.00    -0.149 A  
ENDROOT
BRANCH   3   7
HETATM    7  C   UNL     1     -11.031  14.173  68.872  1.00  0.00    -0.280 C  
HETATM    8  O   UNL     1     -11.207  16.437  69.666  1.00  0.00    -0.323 OA 
HETATM    9  O   UNL     1      -9.906  16.099  67.868  1.00  0.00    -0.231 OA 
HETATM   10  C   UNL     1     -10.723  15.659  68.847  1.00  0.00    -0.238 C  
ENDBRANCH   3   7
BRANCH   5  11
HETATM   11  C   UNL     1      -9.832  11.576  64.677  1.00  0.00    -0.246 C  
HETATM   12  O   UNL     1     -10.449  12.110  63.758  1.00  0.00    -0.361 OA 
BRANCH  11  13
HETATM   13  C   UNL     1      -9.175  10.251  64.406  1.00  0.00    -0.296 A  
HETATM   14  C   UNL     1      -8.811   9.896  63.099  1.00  0.00    -0.254 A  
HETATM   15  C   UNL     1      -8.219   8.648  62.841  1.00  0.00    -0.184 A  
HETATM   16  C   UNL     1      -7.996   7.738  63.882  1.00  0.00    -0.103 A  
HETATM   17  C   UNL     1      -7.378   6.391  63.640  1.00  0.00    -0.073 C  
HETATM   18  C   UNL     1      -8.359   8.098  65.185  1.00  0.00    -0.152 A  
HETATM   19  C   UNL     1      -8.961   9.332  65.440  1.00  0.00    -0.253 A  
ENDBRANCH  11  13
ENDBRANCH   5  11
TORSDOF 3
ENDMDL
MODEL      173
REMARK 921   NORMALIZED FREE ENERGY PREDICTED BY IDOCK:   -3.29 KCAL/MOL
REMARK 922        TOTAL FREE ENERGY PREDICTED BY IDOCK:   -4.51 KCAL/MOL
REMARK 923 INTER-LIGAND FREE ENERGY PREDICTED BY IDOCK:   -5.11 KCAL/MOL
REMARK 924 INTRA-LIGAND FREE ENERGY PREDICTED BY IDOCK:    0.60 KCAL/MOL
REMARK 927      BINDING AFFINITY PREDICTED BY RF-SCORE:    0.00 PKD
ROOT
HETATM    1  C   UNL     1     -10.114  12.108  65.006  1.00  0.00    -0.263 C  
HETATM    2  N   UNL     1     -10.611  12.607  66.276  1.00  0.00    -0.250 NA 
HETATM    3  C   UNL     1     -11.534  13.632  66.420  1.00  0.00    -0.338 A  
HETATM    4  C   UNL     1     -11.745  13.807  67.772  1.00  0.00    -0.393 A  
HETATM    5  C   UNL     1     -10.212  12.144  67.527  1.00  0.00    -0.199 A  
HETATM    6  C   UNL     1     -10.906  12.907  68.457  1.00  0.00    -0.283 A  
ENDROOT
BRANCH   3   7
HETATM    7  C   UNL     1     -12.081  14.460  65.283  1.00  0.00    -0.380 C  
HETATM    8  O   UNL     1     -11.659  16.481  64.050  1.00  0.00    -1.154 OA 
HETATM    9  O   UNL     1     -10.036  15.793  65.439  1.00  0.00    -0.348 OA 
HETATM   10  C   UNL     1     -11.254  15.665  64.873  1.00  0.00    -0.369 C  
ENDBRANCH   3   7
BRANCH   5  11
HETATM   11  C   UNL     1      -9.203  11.110  67.788  1.00  0.00    -0.153 C  
HETATM   12  O   UNL     1      -8.569  11.051  68.839  1.00  0.00    -0.161 OA 
BRANCH  11  13
HETATM   13  C   UNL     1      -8.920  10.074  66.737  1.00  0.00    -0.151 A  
HETATM   14  C   UNL     1      -9.641   8.871  66.715  1.00  0.00    -0.262 A  
HETATM   15  C   UNL     1      -9.360   7.891  65.749  1.00  0.00     0.027 A  
HETATM   16  C   UNL     1      -8.350   8.097  64.801  1.00  0.00    -0.113 A  
HETATM   17  C   UNL     1      -8.015   7.066  63.761  1.00  0.00    -0.065 C  
HETATM   18  C   UNL     1      -7.635   9.300  64.825  1.00  0.00    -0.109 A  
HETATM   19  C   UNL     1      -7.903  10.268  65.794  1.00  0.00    -0.145 A  
ENDBRANCH  11  13
ENDBRANCH   5  11
TORSDOF 3
ENDMDL
MODEL      174
REMARK 921   NORMALIZED FREE ENERGY PREDICTED BY IDOCK:   -3.28 KCAL/MOL
REMARK 922        TOTAL FREE ENERGY PREDICTED BY IDOCK:   -4.50 KCAL/MOL
REMARK 923 INTER-LIGAND FREE ENERGY PREDICTED BY IDOCK:   -3.95 KCAL/MOL
REMARK 924 INTRA-LIGAND FREE ENERGY PREDICTED BY IDOCK:   -0.55 KCAL/MOL
REMARK 927      BINDING AFFINITY PREDICTED BY RF-SCORE:    0.00 PKD
ROOT
HETATM    1  C   UNL     1     -10.001   8.392  71.547  1.00  0.00    -0.217 C  
HETATM    2  N   UNL     1     -10.764   9.398  70.829  1.00  0.00    -0.279 NA 
HETATM    3  C   UNL     1     -12.076   9.750  71.111  1.00  0.00    -0.370 A  
HETATM    4  C   UNL     1     -12.439  10.733  70.213  1.00  0.00    -0.395 A  
HETATM    5  C   UNL     1     -10.295  10.132  69.743  1.00  0.00    -0.259 A  
HETATM    6  C   UNL     1     -11.347  10.948  69.349  1.00  0.00    -0.347 A  
ENDROOT
BRANCH   3   7
HETATM    7  C   UNL     1     -12.947   9.065  72.135  1.00  0.00    -0.490 C  
HETATM    8  O   UNL     1     -14.377   7.151  72.416  1.00  0.00    -0.037 OA 
HETATM    9  O   UNL     1     -13.131   7.211  70.549  1.00  0.00     0.062 OA 
HETATM   10  C   UNL     1     -13.553   7.737  71.718  1.00  0.00    -0.329 C  
ENDBRANCH   3   7
BRANCH   5  11
HETATM   11  C   UNL     1      -8.978   9.997  69.109  1.00  0.00    -0.169 C  
HETATM   12  O   UNL     1      -8.015  10.693  69.423  1.00  0.00    -0.154 OA 
BRANCH  11  13
HETATM   13  C   UNL     1      -8.781   8.970  68.028  1.00  0.00    -0.129 A  
HETATM   14  C   UNL     1      -8.661   7.612  68.356  1.00  0.00    -0.124 A  
HETATM   15  C   UNL     1      -8.452   6.654  67.350  1.00  0.00    -0.120 A  
HETATM   16  C   UNL     1      -8.350   7.044  66.008  1.00  0.00    -0.134 A  
HETATM   17  C   UNL     1      -8.114   6.048  64.909  1.00  0.00    -0.133 C  
HETATM   18  C   UNL     1      -8.473   8.400  65.686  1.00  0.00    -0.179 A  
HETATM   19  C   UNL     1      -8.666   9.354  66.687  1.00  0.00    -0.143 A  
ENDBRANCH  11  13
ENDBRANCH   5  11
TORSDOF 3
ENDMDL
MODEL      175
REMARK 921   NORMALIZED FREE ENERGY PREDICTED BY IDOCK:   -3.25 KCAL/MOL
REMARK 922        TOTAL FREE ENERGY PREDICTED BY IDOCK:   -4.46 KCAL/MOL
REMARK 923 INTER-LIGAND FREE ENERGY PREDICTED BY IDOCK:   -3.82 KCAL/MOL
REMARK 924 INTRA-LIGAND FREE ENERGY PREDICTED BY IDOCK:   -0.64 KCAL/MOL
REMARK 927      BINDING AFFINITY PREDICTED BY RF-SCORE:    0.00 PKD
ROOT
HETATM    1  C   UNL     1      -8.080   5.741  70.342  1.00  0.00    -0.106 C  
HETATM    2  N   UNL     1      -9.291   5.954  71.115  1.00  0.00    -0.153 NA 
HETATM    3  C   UNL     1      -9.433   5.660  72.463  1.00  0.00    -0.144 A  
HETATM    4  C   UNL     1     -10.720   6.003  72.825  1.00  0.00    -0.269 A  
HETATM    5  C   UNL     1     -10.485   6.460  70.608  1.00  0.00    -0.219 A  
HETATM    6  C   UNL     1     -11.379   6.471  71.671  1.00  0.00    -0.332 A  
ENDROOT
BRANCH   3   7
HETATM    7  C   UNL     1      -8.388   4.971  73.306  1.00  0.00    -0.107 C  
HETATM    8  O   UNL     1      -6.360   5.409  74.523  1.00  0.00    -0.066 OA 
HETATM    9  O   UNL     1      -7.509   7.199  73.806  1.00  0.00    -0.097 OA 
HETATM   10  C   UNL     1      -7.329   5.867  73.924  1.00  0.00    -0.092 C  
ENDBRANCH   3   7
BRANCH   5  11
HETATM   11  C   UNL     1     -10.747   6.828  69.212  1.00  0.00    -0.253 C  
HETATM   12  O   UNL     1     -11.127   6.016  68.371  1.00  0.00    -0.314 OA 
BRANCH  11  13
HETATM   13  C   UNL     1     -10.546   8.252  68.773  1.00  0.00    -0.152 A  
HETATM   14  C   UNL     1     -10.533   8.577  67.409  1.00  0.00    -0.351 A  
HETATM   15  C   UNL     1     -10.321   9.903  66.997  1.00  0.00    -0.303 A  
HETATM   16  C   UNL     1     -10.109  10.916  67.942  1.00  0.00    -0.199 A  
HETATM   17  C   UNL     1      -9.867  12.341  67.536  1.00  0.00    -0.193 C  
HETATM   18  C   UNL     1     -10.126  10.586  69.302  1.00  0.00    -0.244 A  
HETATM   19  C   UNL     1     -10.322   9.266  69.712  1.00  0.00    -0.232 A  
ENDBRANCH  11  13
ENDBRANCH   5  11
TORSDOF 3
ENDMDL
MODEL      176
REMARK 921   NORMALIZED FREE ENERGY PREDICTED BY IDOCK:   -3.18 KCAL/MOL
REMARK 922        TOTAL FREE ENERGY PREDICTED BY IDOCK:   -4.38 KCAL/MOL
REMARK 923 INTER-LIGAND FREE ENERGY PREDICTED BY IDOCK:   -4.29 KCAL/MOL
REMARK 924 INTRA-LIGAND FREE ENERGY PREDICTED BY IDOCK:   -0.09 KCAL/MOL
REMARK 927      BINDING AFFINITY PREDICTED BY RF-SCORE:    0.00 PKD
ROOT
HETATM    1  C   UNL     1      -7.438  17.459  66.049  1.00  0.00    -0.220 C  
HETATM    2  N   UNL     1      -8.082  18.346  67.002  1.00  0.00    -0.226 NA 
HETATM    3  C   UNL     1      -9.340  18.907  66.838  1.00  0.00    -0.309 A  
HETATM    4  C   UNL     1      -9.591  19.682  67.953  1.00  0.00    -0.459 A  
HETATM    5  C   UNL     1      -7.519  18.775  68.201  1.00  0.00    -0.266 A  
HETATM    6  C   UNL     1      -8.454  19.623  68.781  1.00  0.00    -0.274 A  
ENDROOT
BRANCH   3   7
HETATM    7  C   UNL     1     -10.185  18.772  65.596  1.00  0.00     0.028 C  
HETATM    8  O   UNL     1     -11.507  17.171  64.380  1.00  0.00    -1.013 OA 
HETATM    9  O   UNL     1     -10.845  16.573  66.440  1.00  0.00    -0.196 OA 
HETATM   10  C   UNL     1     -10.895  17.443  65.410  1.00  0.00     0.020 C  
ENDBRANCH   3   7
BRANCH   5  11
HETATM   11  C   UNL     1      -6.176  18.448  68.694  1.00  0.00    -0.208 C  
HETATM   12  O   UNL     1      -5.242  19.245  68.657  1.00  0.00    -0.186 OA 
BRANCH  11  13
HETATM   13  C   UNL     1      -5.915  17.085  69.273  1.00  0.00    -0.204 A  
HETATM   14  C   UNL     1      -6.217  15.932  68.533  1.00  0.00    -0.108 A  
HETATM   15  C   UNL     1      -5.996  14.658  69.082  1.00  0.00    -0.100 A  
HETATM   16  C   UNL     1      -5.481  14.522  70.378  1.00  0.00    -0.119 A  
HETATM   17  C   UNL     1      -5.245  13.176  71.000  1.00  0.00    -0.166 C  
HETATM   18  C   UNL     1      -5.179  15.675  71.110  1.00  0.00    -0.097 A  
HETATM   19  C   UNL     1      -5.412  16.942  70.571  1.00  0.00    -0.183 A  
ENDBRANCH  11  13
ENDBRANCH   5  11
TORSDOF 3
ENDMDL
MODEL      177
REMARK 921   NORMALIZED FREE ENERGY PREDICTED BY IDOCK:   -3.17 KCAL/MOL
REMARK 922        TOTAL FREE ENERGY PREDICTED BY IDOCK:   -4.37 KCAL/MOL
REMARK 923 INTER-LIGAND FREE ENERGY PREDICTED BY IDOCK:   -3.91 KCAL/MOL
REMARK 924 INTRA-LIGAND FREE ENERGY PREDICTED BY IDOCK:   -0.45 KCAL/MOL
REMARK 927      BINDING AFFINITY PREDICTED BY RF-SCORE:    0.00 PKD
ROOT
HETATM    1  C   UNL     1      -7.254   9.065  68.151  1.00  0.00    -0.079 C  
HETATM    2  N   UNL     1      -8.249   9.491  67.182  1.00  0.00    -0.112 NA 
HETATM    3  C   UNL     1      -8.337  10.768  66.646  1.00  0.00    -0.141 A  
HETATM    4  C   UNL     1      -9.403  10.772  65.770  1.00  0.00    -0.235 A  
HETATM    5  C   UNL     1      -9.265   8.688  66.674  1.00  0.00    -0.181 A  
HETATM    6  C   UNL     1      -9.995   9.494  65.810  1.00  0.00    -0.316 A  
ENDROOT
BRANCH   3   7
HETATM    7  C   UNL     1      -7.483  11.938  67.069  1.00  0.00    -0.126 C  
HETATM    8  O   UNL     1      -7.597  14.014  68.278  1.00  0.00    -0.114 OA 
HETATM    9  O   UNL     1      -9.373  12.653  68.447  1.00  0.00    -0.205 OA 
HETATM   10  C   UNL     1      -8.149  12.961  67.972  1.00  0.00    -0.159 C  
ENDBRANCH   3   7
BRANCH   5  11
HETATM   11  C   UNL     1      -9.540   7.296  67.049  1.00  0.00    -0.166 C  
HETATM   12  O   UNL     1      -9.363   6.353  66.281  1.00  0.00    -0.161 OA 
BRANCH  11  13
HETATM   13  C   UNL     1     -10.059   6.992  68.427  1.00  0.00    -0.176 A  
HETATM   14  C   UNL     1     -10.040   5.678  68.917  1.00  0.00    -0.254 A  
HETATM   15  C   UNL     1     -10.548   5.388  70.195  1.00  0.00    -0.344 A  
HETATM   16  C   UNL     1     -11.090   6.406  70.991  1.00  0.00    -0.349 A  
HETATM   17  C   UNL     1     -11.652   6.129  72.356  1.00  0.00    -0.338 C  
HETATM   18  C   UNL     1     -11.104   7.715  70.499  1.00  0.00    -0.267 A  
HETATM   19  C   UNL     1     -10.613   8.002  69.223  1.00  0.00    -0.193 A  
ENDBRANCH  11  13
ENDBRANCH   5  11
TORSDOF 3
ENDMDL
MODEL      178
REMARK 921   NORMALIZED FREE ENERGY PREDICTED BY IDOCK:   -3.17 KCAL/MOL
REMARK 922        TOTAL FREE ENERGY PREDICTED BY IDOCK:   -4.36 KCAL/MOL
REMARK 923 INTER-LIGAND FREE ENERGY PREDICTED BY IDOCK:   -3.72 KCAL/MOL
REMARK 924 INTRA-LIGAND FREE ENERGY PREDICTED BY IDOCK:   -0.64 KCAL/MOL
REMARK 927      BINDING AFFINITY PREDICTED BY RF-SCORE:    0.00 PKD
ROOT
HETATM    1  C   UNL     1      -9.955   6.491  67.045  1.00  0.00    -0.166 C  
HETATM    2  N   UNL     1      -8.648   7.115  66.931  1.00  0.00    -0.121 NA 
HETATM    3  C   UNL     1      -7.539   6.529  66.339  1.00  0.00    -0.090 A  
HETATM    4  C   UNL     1      -6.500   7.434  66.430  1.00  0.00    -0.048 A  
HETATM    5  C   UNL     1      -8.319   8.375  67.421  1.00  0.00    -0.124 A  
HETATM    6  C   UNL     1      -6.975   8.563  67.125  1.00  0.00    -0.075 A  
ENDROOT
BRANCH   3   7
HETATM    7  C   UNL     1      -7.490   5.113  65.820  1.00  0.00    -0.082 C  
HETATM    8  O   UNL     1      -7.838   3.826  63.818  1.00  0.00    -0.081 OA 
HETATM    9  O   UNL     1      -7.797   6.058  63.585  1.00  0.00    -0.102 OA 
HETATM   10  C   UNL     1      -7.730   4.936  64.331  1.00  0.00    -0.083 C  
ENDBRANCH   3   7
BRANCH   5  11
HETATM   11  C   UNL     1      -9.207   9.274  68.167  1.00  0.00    -0.130 C  
HETATM   12  O   UNL     1      -9.307   9.245  69.391  1.00  0.00    -0.153 OA 
BRANCH  11  13
HETATM   13  C   UNL     1     -10.037  10.280  67.418  1.00  0.00    -0.246 A  
HETATM   14  C   UNL     1     -10.864  11.174  68.114  1.00  0.00    -0.266 A  
HETATM   15  C   UNL     1     -11.659  12.097  67.415  1.00  0.00    -0.410 A  
HETATM   16  C   UNL     1     -11.644  12.131  66.014  1.00  0.00    -0.420 A  
HETATM   17  C   UNL     1     -12.490  13.097  65.235  1.00  0.00    -0.550 C  
HETATM   18  C   UNL     1     -10.814  11.239  65.325  1.00  0.00    -0.261 A  
HETATM   19  C   UNL     1     -10.035  10.311  66.019  1.00  0.00    -0.308 A  
ENDBRANCH  11  13
ENDBRANCH   5  11
TORSDOF 3
ENDMDL
MODEL      179
REMARK 921   NORMALIZED FREE ENERGY PREDICTED BY IDOCK:   -3.06 KCAL/MOL
REMARK 922        TOTAL FREE ENERGY PREDICTED BY IDOCK:   -4.23 KCAL/MOL
REMARK 923 INTER-LIGAND FREE ENERGY PREDICTED BY IDOCK:   -3.60 KCAL/MOL
REMARK 924 INTRA-LIGAND FREE ENERGY PREDICTED BY IDOCK:   -0.63 KCAL/MOL
REMARK 927      BINDING AFFINITY PREDICTED BY RF-SCORE:    0.00 PKD
ROOT
HETATM    1  C   UNL     1      -7.704   6.127  69.779  1.00  0.00    -0.097 C  
HETATM    2  N   UNL     1      -9.132   6.246  69.542  1.00  0.00    -0.137 NA 
HETATM    3  C   UNL     1     -10.075   6.550  70.513  1.00  0.00    -0.185 A  
HETATM    4  C   UNL     1     -11.308   6.571  69.894  1.00  0.00    -0.469 A  
HETATM    5  C   UNL     1      -9.757   6.049  68.314  1.00  0.00    -0.124 A  
HETATM    6  C   UNL     1     -11.115   6.233  68.541  1.00  0.00    -0.397 A  
ENDROOT
BRANCH   3   7
HETATM    7  C   UNL     1      -9.775   6.695  71.985  1.00  0.00    -0.156 C  
HETATM    8  O   UNL     1      -8.895   8.261  73.584  1.00  0.00    -0.247 OA 
HETATM    9  O   UNL     1      -9.327   9.056  71.530  1.00  0.00    -0.266 OA 
HETATM   10  C   UNL     1      -9.289   8.059  72.439  1.00  0.00    -0.208 C  
ENDBRANCH   3   7
BRANCH   5  11
HETATM   11  C   UNL     1      -9.103   5.651  67.062  1.00  0.00    -0.113 C  
HETATM   12  O   UNL     1      -8.864   4.479  66.780  1.00  0.00    -0.111 OA 
BRANCH  11  13
HETATM   13  C   UNL     1      -8.700   6.707  66.071  1.00  0.00    -0.155 A  
HETATM   14  C   UNL     1      -7.913   6.373  64.959  1.00  0.00    -0.120 A  
HETATM   15  C   UNL     1      -7.515   7.363  64.046  1.00  0.00    -0.100 A  
HETATM   16  C   UNL     1      -7.890   8.699  64.239  1.00  0.00    -0.140 A  
HETATM   17  C   UNL     1      -7.472   9.785  63.290  1.00  0.00    -0.122 C  
HETATM   18  C   UNL     1      -8.678   9.027  65.348  1.00  0.00    -0.221 A  
HETATM   19  C   UNL     1      -9.061   8.046  66.265  1.00  0.00    -0.232 A  
ENDBRANCH  11  13
ENDBRANCH   5  11
TORSDOF 3
ENDMDL
MODEL      180
REMARK 921   NORMALIZED FREE ENERGY PREDICTED BY IDOCK:   -3.05 KCAL/MOL
REMARK 922        TOTAL FREE ENERGY PREDICTED BY IDOCK:   -4.23 KCAL/MOL
REMARK 923 INTER-LIGAND FREE ENERGY PREDICTED BY IDOCK:   -3.59 KCAL/MOL
REMARK 924 INTRA-LIGAND FREE ENERGY PREDICTED BY IDOCK:   -0.64 KCAL/MOL
REMARK 927      BINDING AFFINITY PREDICTED BY RF-SCORE:    0.00 PKD
ROOT
HETATM    1  C   UNL     1      -9.432  12.785  67.553  1.00  0.00    -0.187 C  
HETATM    2  N   UNL     1      -8.173  13.012  68.240  1.00  0.00    -0.151 NA 
HETATM    3  C   UNL     1      -7.173  12.064  68.396  1.00  0.00    -0.092 A  
HETATM    4  C   UNL     1      -6.147  12.663  69.098  1.00  0.00    -0.092 A  
HETATM    5  C   UNL     1      -7.804  14.203  68.858  1.00  0.00    -0.076 A  
HETATM    6  C   UNL     1      -6.549  13.976  69.409  1.00  0.00    -0.118 A  
ENDROOT
BRANCH   3   7
HETATM    7  C   UNL     1      -7.285  10.620  67.973  1.00  0.00    -0.087 C  
HETATM    8  O   UNL     1      -7.773   8.432  68.845  1.00  0.00    -0.100 OA 
HETATM    9  O   UNL     1      -8.201  10.173  70.196  1.00  0.00    -0.135 OA 
HETATM   10  C   UNL     1      -7.763   9.646  69.034  1.00  0.00    -0.078 C  
ENDBRANCH   3   7
BRANCH   5  11
HETATM   11  C   UNL     1      -8.623  15.416  68.963  1.00  0.00    -0.227 C  
HETATM   12  O   UNL     1      -9.563  15.518  69.748  1.00  0.00    -0.279 OA 
BRANCH  11  13
HETATM   13  C   UNL     1      -8.314  16.593  68.080  1.00  0.00    -0.187 A  
HETATM   14  C   UNL     1      -7.693  16.403  66.837  1.00  0.00    -0.276 A  
HETATM   15  C   UNL     1      -7.381  17.503  66.022  1.00  0.00    -0.288 A  
HETATM   16  C   UNL     1      -7.677  18.806  66.444  1.00  0.00    -0.289 A  
HETATM   17  C   UNL     1      -7.347  20.006  65.603  1.00  0.00    -0.311 C  
HETATM   18  C   UNL     1      -8.300  18.991  67.683  1.00  0.00    -0.314 A  
HETATM   19  C   UNL     1      -8.596  17.898  68.500  1.00  0.00    -0.298 A  
ENDBRANCH  11  13
ENDBRANCH   5  11
TORSDOF 3
ENDMDL
MODEL      181
REMARK 921   NORMALIZED FREE ENERGY PREDICTED BY IDOCK:   -3.02 KCAL/MOL
REMARK 922        TOTAL FREE ENERGY PREDICTED BY IDOCK:   -4.19 KCAL/MOL
REMARK 923 INTER-LIGAND FREE ENERGY PREDICTED BY IDOCK:   -4.52 KCAL/MOL
REMARK 924 INTRA-LIGAND FREE ENERGY PREDICTED BY IDOCK:    0.33 KCAL/MOL
REMARK 927      BINDING AFFINITY PREDICTED BY RF-SCORE:    0.00 PKD
ROOT
HETATM    1  C   UNL     1      -8.476  10.033  69.546  1.00  0.00    -0.176 C  
HETATM    2  N   UNL     1      -9.148   9.201  68.562  1.00  0.00    -0.133 NA 
HETATM    3  C   UNL     1      -8.632   8.029  68.031  1.00  0.00    -0.129 A  
HETATM    4  C   UNL     1      -9.564   7.539  67.138  1.00  0.00    -0.207 A  
HETATM    5  C   UNL     1     -10.390   9.476  67.998  1.00  0.00    -0.214 A  
HETATM    6  C   UNL     1     -10.638   8.449  67.097  1.00  0.00    -0.326 A  
ENDROOT
BRANCH   3   7
HETATM    7  C   UNL     1      -7.248   7.495  68.309  1.00  0.00    -0.093 C  
HETATM    8  O   UNL     1      -5.929   5.492  68.129  1.00  0.00    -0.016 OA 
HETATM    9  O   UNL     1      -7.918   5.484  67.089  1.00  0.00    -0.101 OA 
HETATM   10  C   UNL     1      -6.972   6.076  67.847  1.00  0.00    -0.072 C  
ENDBRANCH   3   7
BRANCH   5  11
HETATM   11  C   UNL     1     -11.218  10.660  68.259  1.00  0.00    -0.301 C  
HETATM   12  O   UNL     1     -11.959  10.750  69.235  1.00  0.00    -0.308 OA 
BRANCH  11  13
HETATM   13  C   UNL     1     -11.171  11.819  67.303  1.00  0.00    -0.364 A  
HETATM   14  C   UNL     1     -10.472  11.710  66.092  1.00  0.00    -0.289 A  
HETATM   15  C   UNL     1     -10.406  12.800  65.208  1.00  0.00    -0.313 A  
HETATM   16  C   UNL     1     -11.028  14.014  65.530  1.00  0.00    -0.309 A  
HETATM   17  C   UNL     1     -10.967  15.203  64.615  1.00  0.00    -0.321 C  
HETATM   18  C   UNL     1     -11.726  14.117  66.739  1.00  0.00    -0.432 A  
HETATM   19  C   UNL     1     -11.779  13.038  67.624  1.00  0.00    -0.415 A  
ENDBRANCH  11  13
ENDBRANCH   5  11
TORSDOF 3
ENDMDL
MODEL      182
REMARK 921   NORMALIZED FREE ENERGY PREDICTED BY IDOCK:   -3.01 KCAL/MOL
REMARK 922        TOTAL FREE ENERGY PREDICTED BY IDOCK:   -4.18 KCAL/MOL
REMARK 923 INTER-LIGAND FREE ENERGY PREDICTED BY IDOCK:   -4.20 KCAL/MOL
REMARK 924 INTRA-LIGAND FREE ENERGY PREDICTED BY IDOCK:    0.02 KCAL/MOL
REMARK 927      BINDING AFFINITY PREDICTED BY RF-SCORE:    0.00 PKD
ROOT
HETATM    1  C   UNL     1      -7.963   7.784  68.871  1.00  0.00    -0.124 C  
HETATM    2  N   UNL     1      -9.127   7.138  68.288  1.00  0.00    -0.134 NA 
HETATM    3  C   UNL     1      -9.268   6.820  66.946  1.00  0.00    -0.144 A  
HETATM    4  C   UNL     1     -10.502   6.222  66.793  1.00  0.00    -0.311 A  
HETATM    5  C   UNL     1     -10.271   6.770  68.989  1.00  0.00    -0.178 A  
HETATM    6  C   UNL     1     -11.134   6.217  68.052  1.00  0.00    -0.365 A  
ENDROOT
BRANCH   3   7
HETATM    7  C   UNL     1      -8.282   7.196  65.866  1.00  0.00    -0.132 C  
HETATM    8  O   UNL     1      -7.285   6.351  63.847  1.00  0.00    -0.054 OA 
HETATM    9  O   UNL     1      -9.021   5.193  64.673  1.00  0.00    -0.128 OA 
HETATM   10  C   UNL     1      -8.143   6.216  64.716  1.00  0.00    -0.132 C  
ENDBRANCH   3   7
BRANCH   5  11
HETATM   11  C   UNL     1     -10.525   6.999  70.417  1.00  0.00    -0.206 C  
HETATM   12  O   UNL     1     -10.725   8.118  70.885  1.00  0.00    -0.215 OA 
BRANCH  11  13
HETATM   13  C   UNL     1     -10.546   5.829  71.360  1.00  0.00    -0.313 A  
HETATM   14  C   UNL     1      -9.773   4.689  71.092  1.00  0.00    -0.252 A  
HETATM   15  C   UNL     1      -9.810   3.585  71.959  1.00  0.00    -0.238 A  
HETATM   16  C   UNL     1     -10.627   3.603  73.098  1.00  0.00    -0.269 A  
HETATM   17  C   UNL     1     -10.700   2.435  74.039  1.00  0.00    -0.247 C  
HETATM   18  C   UNL     1     -11.393   4.743  73.362  1.00  0.00    -0.397 A  
HETATM   19  C   UNL     1     -11.368   5.835  72.493  1.00  0.00    -0.358 A  
ENDBRANCH  11  13
ENDBRANCH   5  11
TORSDOF 3
ENDMDL
MODEL      183
REMARK 921   NORMALIZED FREE ENERGY PREDICTED BY IDOCK:   -3.00 KCAL/MOL
REMARK 922        TOTAL FREE ENERGY PREDICTED BY IDOCK:   -4.17 KCAL/MOL
REMARK 923 INTER-LIGAND FREE ENERGY PREDICTED BY IDOCK:   -3.53 KCAL/MOL
REMARK 924 INTRA-LIGAND FREE ENERGY PREDICTED BY IDOCK:   -0.63 KCAL/MOL
REMARK 927      BINDING AFFINITY PREDICTED BY RF-SCORE:    0.00 PKD
ROOT
HETATM    1  C   UNL     1      -7.426   6.143  67.722  1.00  0.00    -0.089 C  
HETATM    2  N   UNL     1      -8.808   5.946  67.319  1.00  0.00    -0.108 NA 
HETATM    3  C   UNL     1      -9.220   5.143  66.266  1.00  0.00    -0.146 A  
HETATM    4  C   UNL     1     -10.597   5.220  66.206  1.00  0.00    -0.308 A  
HETATM    5  C   UNL     1      -9.909   6.554  67.915  1.00  0.00    -0.123 A  
HETATM    6  C   UNL     1     -11.020   6.115  67.207  1.00  0.00    -0.418 A  
ENDROOT
BRANCH   3   7
HETATM    7  C   UNL     1      -8.290   4.438  65.309  1.00  0.00    -0.112 C  
HETATM    8  O   UNL     1      -7.178   4.735  63.197  1.00  0.00    -0.046 OA 
HETATM    9  O   UNL     1      -8.154   6.551  64.085  1.00  0.00    -0.113 OA 
HETATM   10  C   UNL     1      -7.831   5.241  64.106  1.00  0.00    -0.101 C  
ENDBRANCH   3   7
BRANCH   5  11
HETATM   11  C   UNL     1      -9.873   7.522  69.018  1.00  0.00    -0.170 C  
HETATM   12  O   UNL     1      -9.734   8.729  68.839  1.00  0.00    -0.166 OA 
BRANCH  11  13
HETATM   13  C   UNL     1     -10.009   7.033  70.433  1.00  0.00    -0.187 A  
HETATM   14  C   UNL     1     -11.251   6.591  70.914  1.00  0.00    -0.366 A  
HETATM   15  C   UNL     1     -11.386   6.158  72.243  1.00  0.00    -0.346 A  
HETATM   16  C   UNL     1     -10.285   6.170  73.109  1.00  0.00    -0.213 A  
HETATM   17  C   UNL     1     -10.396   5.725  74.539  1.00  0.00    -0.245 C  
HETATM   18  C   UNL     1      -9.048   6.608  72.624  1.00  0.00    -0.140 A  
HETATM   19  C   UNL     1      -8.916   7.054  71.308  1.00  0.00    -0.137 A  
ENDBRANCH  11  13
ENDBRANCH   5  11
TORSDOF 3
ENDMDL
MODEL      184
REMARK 921   NORMALIZED FREE ENERGY PREDICTED BY IDOCK:   -3.00 KCAL/MOL
REMARK 922        TOTAL FREE ENERGY PREDICTED BY IDOCK:   -4.16 KCAL/MOL
REMARK 923 INTER-LIGAND FREE ENERGY PREDICTED BY IDOCK:   -3.73 KCAL/MOL
REMARK 924 INTRA-LIGAND FREE ENERGY PREDICTED BY IDOCK:   -0.43 KCAL/MOL
REMARK 927      BINDING AFFINITY PREDICTED BY RF-SCORE:    0.00 PKD
ROOT
HETATM    1  C   UNL     1     -11.866   6.645  70.103  1.00  0.00    -0.284 C  
HETATM    2  N   UNL     1     -11.019   7.825  70.059  1.00  0.00    -0.241 NA 
HETATM    3  C   UNL     1     -11.396   9.088  70.489  1.00  0.00    -0.243 A  
HETATM    4  C   UNL     1     -10.322   9.929  70.282  1.00  0.00    -0.339 A  
HETATM    5  C   UNL     1      -9.722   7.858  69.556  1.00  0.00    -0.173 A  
HETATM    6  C   UNL     1      -9.297   9.174  69.679  1.00  0.00    -0.177 A  
ENDROOT
BRANCH   3   7
HETATM    7  C   UNL     1     -12.780   9.455  70.966  1.00  0.00    -0.270 C  
HETATM    8  O   UNL     1     -14.340   9.012  72.743  1.00  0.00    -0.596 OA 
HETATM    9  O   UNL     1     -12.248   8.251  73.028  1.00  0.00    -0.228 OA 
HETATM   10  C   UNL     1     -13.198   8.886  72.311  1.00  0.00    -0.447 C  
ENDBRANCH   3   7
BRANCH   5  11
HETATM   11  C   UNL     1      -8.997   6.734  68.952  1.00  0.00    -0.131 C  
HETATM   12  O   UNL     1      -8.897   6.584  67.737  1.00  0.00    -0.115 OA 
BRANCH  11  13
HETATM   13  C   UNL     1      -8.343   5.714  69.842  1.00  0.00    -0.117 A  
HETATM   14  C   UNL     1      -7.973   4.461  69.331  1.00  0.00    -0.061 A  
HETATM   15  C   UNL     1      -7.385   3.498  70.167  1.00  0.00    -0.041 A  
HETATM   16  C   UNL     1      -7.169   3.771  71.525  1.00  0.00    -0.039 A  
HETATM   17  C   UNL     1      -6.554   2.760  72.449  1.00  0.00    -0.015 C  
HETATM   18  C   UNL     1      -7.538   5.023  72.029  1.00  0.00    -0.096 A  
HETATM   19  C   UNL     1      -8.136   5.976  71.202  1.00  0.00    -0.121 A  
ENDBRANCH  11  13
ENDBRANCH   5  11
TORSDOF 3
ENDMDL
MODEL      185
REMARK 921   NORMALIZED FREE ENERGY PREDICTED BY IDOCK:   -2.86 KCAL/MOL
REMARK 922        TOTAL FREE ENERGY PREDICTED BY IDOCK:   -4.00 KCAL/MOL
REMARK 923 INTER-LIGAND FREE ENERGY PREDICTED BY IDOCK:   -3.44 KCAL/MOL
REMARK 924 INTRA-LIGAND FREE ENERGY PREDICTED BY IDOCK:   -0.56 KCAL/MOL
REMARK 927      BINDING AFFINITY PREDICTED BY RF-SCORE:    0.00 PKD
ROOT
HETATM    1  C   UNL     1      -9.061  13.688  65.793  1.00  0.00     0.503 C  
HETATM    2  N   UNL     1      -9.921  13.207  66.861  1.00  0.00    -0.240 NA 
HETATM    3  C   UNL     1     -11.254  12.858  66.709  1.00  0.00    -0.298 A  
HETATM    4  C   UNL     1     -11.716  12.455  67.945  1.00  0.00    -0.421 A  
HETATM    5  C   UNL     1      -9.535  13.054  68.190  1.00  0.00    -0.218 A  
HETATM    6  C   UNL     1     -10.661  12.604  68.866  1.00  0.00    -0.157 A  
ENDROOT
BRANCH   3   7
HETATM    7  C   UNL     1     -12.047  13.027  65.436  1.00  0.00    -0.490 C  
HETATM    8  O   UNL     1     -12.359  12.039  63.265  1.00  0.00    -0.543 OA 
HETATM    9  O   UNL     1     -11.155  10.857  64.745  1.00  0.00    -0.095 OA 
HETATM   10  C   UNL     1     -11.867  11.945  64.386  1.00  0.00    -0.251 C  
ENDBRANCH   3   7
BRANCH   5  11
HETATM   11  C   UNL     1      -8.220  13.383  68.754  1.00  0.00     0.066 C  
HETATM   12  O   UNL     1      -7.411  12.524  69.096  1.00  0.00    -0.013 OA 
BRANCH  11  13
HETATM   13  C   UNL     1      -7.831  14.824  68.928  1.00  0.00    -0.152 A  
HETATM   14  C   UNL     1      -8.809  15.830  68.896  1.00  0.00    -0.220 A  
HETATM   15  C   UNL     1      -8.444  17.180  69.033  1.00  0.00    -0.107 A  
HETATM   16  C   UNL     1      -7.099  17.540  69.193  1.00  0.00    -0.195 A  
HETATM   17  C   UNL     1      -6.673  18.973  69.330  1.00  0.00    -0.330 C  
HETATM   18  C   UNL     1      -6.129  16.533  69.227  1.00  0.00    -0.174 A  
HETATM   19  C   UNL     1      -6.489  15.192  69.075  1.00  0.00    -0.106 A  
ENDBRANCH  11  13
ENDBRANCH   5  11
TORSDOF 3
ENDMDL
MODEL      186
REMARK 921   NORMALIZED FREE ENERGY PREDICTED BY IDOCK:   -2.82 KCAL/MOL
REMARK 922        TOTAL FREE ENERGY PREDICTED BY IDOCK:   -3.95 KCAL/MOL
REMARK 923 INTER-LIGAND FREE ENERGY PREDICTED BY IDOCK:   -4.08 KCAL/MOL
REMARK 924 INTRA-LIGAND FREE ENERGY PREDICTED BY IDOCK:    0.13 KCAL/MOL
REMARK 927      BINDING AFFINITY PREDICTED BY RF-SCORE:    0.00 PKD
ROOT
HETATM    1  C   UNL     1      -6.095  10.049  71.144  1.00  0.00     0.018 C  
HETATM    2  N   UNL     1      -7.220  10.269  70.251  1.00  0.00    -0.243 NA 
HETATM    3  C   UNL     1      -7.205  11.113  69.150  1.00  0.00    -0.123 A  
HETATM    4  C   UNL     1      -8.454  11.047  68.567  1.00  0.00    -0.153 A  
HETATM    5  C   UNL     1      -8.476   9.686  70.389  1.00  0.00    -0.146 A  
HETATM    6  C   UNL     1      -9.248  10.187  69.350  1.00  0.00    -0.229 A  
ENDROOT
BRANCH   3   7
HETATM    7  C   UNL     1      -6.054  12.014  68.775  1.00  0.00    -0.059 C  
HETATM    8  O   UNL     1      -5.537  14.317  68.310  1.00  0.00    -0.100 OA 
HETATM    9  O   UNL     1      -7.565  13.896  69.176  1.00  0.00    -0.062 OA 
HETATM   10  C   UNL     1      -6.356  13.501  68.724  1.00  0.00    -0.093 C  
ENDBRANCH   3   7
BRANCH   5  11
HETATM   11  C   UNL     1      -8.900   8.785  71.468  1.00  0.00    -0.225 C  
HETATM   12  O   UNL     1      -8.147   8.429  72.371  1.00  0.00    -0.170 OA 
BRANCH  11  13
HETATM   13  C   UNL     1     -10.311   8.268  71.485  1.00  0.00    -0.276 A  
HETATM   14  C   UNL     1     -10.647   7.102  70.780  1.00  0.00    -0.240 A  
HETATM   15  C   UNL     1     -11.970   6.631  70.775  1.00  0.00    -0.412 A  
HETATM   16  C   UNL     1     -12.974   7.324  71.464  1.00  0.00    -0.434 A  
HETATM   17  C   UNL     1     -14.401   6.855  71.469  1.00  0.00    -0.336 C  
HETATM   18  C   UNL     1     -12.634   8.484  72.168  1.00  0.00    -0.431 A  
HETATM   19  C   UNL     1     -11.321   8.962  72.161  1.00  0.00    -0.369 A  
ENDBRANCH  11  13
ENDBRANCH   5  11
TORSDOF 3
ENDMDL
MODEL      187
REMARK 921   NORMALIZED FREE ENERGY PREDICTED BY IDOCK:   -2.82 KCAL/MOL
REMARK 922        TOTAL FREE ENERGY PREDICTED BY IDOCK:   -3.95 KCAL/MOL
REMARK 923 INTER-LIGAND FREE ENERGY PREDICTED BY IDOCK:   -4.64 KCAL/MOL
REMARK 924 INTRA-LIGAND FREE ENERGY PREDICTED BY IDOCK:    0.69 KCAL/MOL
REMARK 927      BINDING AFFINITY PREDICTED BY RF-SCORE:    0.00 PKD
ROOT
HETATM    1  C   UNL     1     -10.458   9.057  71.860  1.00  0.00    -0.303 C  
HETATM    2  N   UNL     1     -11.854   8.694  71.691  1.00  0.00    -0.302 NA 
HETATM    3  C   UNL     1     -12.863   9.572  71.325  1.00  0.00    -0.333 A  
HETATM    4  C   UNL     1     -14.037   8.849  71.272  1.00  0.00    -0.193 A  
HETATM    5  C   UNL     1     -12.380   7.422  71.897  1.00  0.00    -0.310 A  
HETATM    6  C   UNL     1     -13.743   7.526  71.655  1.00  0.00    -0.465 A  
ENDROOT
BRANCH   3   7
HETATM    7  C   UNL     1     -12.684  11.061  71.152  1.00  0.00    -0.521 C  
HETATM    8  O   UNL     1     -11.895  12.694  69.572  1.00  0.00    -0.306 OA 
HETATM    9  O   UNL     1     -12.128  10.593  68.816  1.00  0.00    -0.389 OA 
HETATM   10  C   UNL     1     -12.197  11.524  69.791  1.00  0.00    -0.244 C  
ENDBRANCH   3   7
BRANCH   5  11
HETATM   11  C   UNL     1     -11.638   6.241  72.355  1.00  0.00    -0.282 C  
HETATM   12  O   UNL     1     -12.148   5.126  72.435  1.00  0.00     0.136 OA 
BRANCH  11  13
HETATM   13  C   UNL     1     -10.193   6.383  72.745  1.00  0.00    -0.204 A  
HETATM   14  C   UNL     1      -9.179   6.129  71.810  1.00  0.00    -0.149 A  
HETATM   15  C   UNL     1      -7.828   6.237  72.180  1.00  0.00    -0.104 A  
HETATM   16  C   UNL     1      -7.476   6.589  73.490  1.00  0.00    -0.088 A  
HETATM   17  C   UNL     1      -6.042   6.701  73.922  1.00  0.00    -0.064 C  
HETATM   18  C   UNL     1      -8.491   6.844  74.418  1.00  0.00    -0.186 A  
HETATM   19  C   UNL     1      -9.834   6.722  74.055  1.00  0.00    -0.334 A  
ENDBRANCH  11  13
ENDBRANCH   5  11
TORSDOF 3
ENDMDL
MODEL      188
REMARK 921   NORMALIZED FREE ENERGY PREDICTED BY IDOCK:   -2.75 KCAL/MOL
REMARK 922        TOTAL FREE ENERGY PREDICTED BY IDOCK:   -3.88 KCAL/MOL
REMARK 923 INTER-LIGAND FREE ENERGY PREDICTED BY IDOCK:   -3.34 KCAL/MOL
REMARK 924 INTRA-LIGAND FREE ENERGY PREDICTED BY IDOCK:   -0.54 KCAL/MOL
REMARK 927      BINDING AFFINITY PREDICTED BY RF-SCORE:    0.00 PKD
ROOT
HETATM    1  C   UNL     1     -11.213   6.440  68.635  1.00  0.00    -0.248 C  
HETATM    2  N   UNL     1      -9.967   6.566  69.371  1.00  0.00    -0.155 NA 
HETATM    3  C   UNL     1      -9.870   6.710  70.747  1.00  0.00    -0.183 A  
HETATM    4  C   UNL     1      -8.528   6.796  71.057  1.00  0.00    -0.132 A  
HETATM    5  C   UNL     1      -8.699   6.584  68.798  1.00  0.00    -0.123 A  
HETATM    6  C   UNL     1      -7.806   6.748  69.849  1.00  0.00    -0.115 A  
ENDROOT
BRANCH   3   7
HETATM    7  C   UNL     1     -11.046   6.868  71.679  1.00  0.00    -0.271 C  
HETATM    8  O   UNL     1     -12.365   8.552  72.781  1.00  0.00    -0.327 OA 
HETATM    9  O   UNL     1     -10.935   9.265  71.205  1.00  0.00    -0.294 OA 
HETATM   10  C   UNL     1     -11.503   8.291  71.946  1.00  0.00    -0.310 C  
ENDBRANCH   3   7
BRANCH   5  11
HETATM   11  C   UNL     1      -8.395   6.522  67.363  1.00  0.00    -0.120 C  
HETATM   12  O   UNL     1      -7.973   7.487  66.731  1.00  0.00    -0.110 OA 
BRANCH  11  13
HETATM   13  C   UNL     1      -8.603   5.231  66.621  1.00  0.00    -0.110 A  
HETATM   14  C   UNL     1      -8.697   5.226  65.221  1.00  0.00    -0.151 A  
HETATM   15  C   UNL     1      -8.916   4.025  64.528  1.00  0.00    -0.137 A  
HETATM   16  C   UNL     1      -9.054   2.817  65.225  1.00  0.00    -0.148 A  
HETATM   17  C   UNL     1      -9.301   1.516  64.516  1.00  0.00    -0.123 C  
HETATM   18  C   UNL     1      -8.956   2.827  66.620  1.00  0.00    -0.165 A  
HETATM   19  C   UNL     1      -8.754   4.023  67.312  1.00  0.00    -0.120 A  
ENDBRANCH  11  13
ENDBRANCH   5  11
TORSDOF 3
ENDMDL
MODEL      189
REMARK 921   NORMALIZED FREE ENERGY PREDICTED BY IDOCK:   -2.62 KCAL/MOL
REMARK 922        TOTAL FREE ENERGY PREDICTED BY IDOCK:   -3.72 KCAL/MOL
REMARK 923 INTER-LIGAND FREE ENERGY PREDICTED BY IDOCK:   -3.23 KCAL/MOL
REMARK 924 INTRA-LIGAND FREE ENERGY PREDICTED BY IDOCK:   -0.48 KCAL/MOL
REMARK 927      BINDING AFFINITY PREDICTED BY RF-SCORE:    0.00 PKD
ROOT
HETATM    1  C   UNL     1     -10.848   8.188  68.592  1.00  0.00     0.083 C  
HETATM    2  N   UNL     1     -10.073   7.573  69.656  1.00  0.00    -0.185 NA 
HETATM    3  C   UNL     1     -10.179   7.893  71.001  1.00  0.00    -0.197 A  
HETATM    4  C   UNL     1      -9.285   7.095  71.685  1.00  0.00    -0.149 A  
HETATM    5  C   UNL     1      -9.100   6.595  69.473  1.00  0.00    -0.144 A  
HETATM    6  C   UNL     1      -8.597   6.313  70.736  1.00  0.00    -0.135 A  
ENDROOT
BRANCH   3   7
HETATM    7  C   UNL     1     -11.036   9.006  71.554  1.00  0.00    -0.418 C  
HETATM    8  O   UNL     1     -13.313   9.524  72.131  1.00  0.00    -0.414 OA 
HETATM    9  O   UNL     1     -12.855   7.375  71.670  1.00  0.00    -0.344 OA 
HETATM   10  C   UNL     1     -12.495   8.668  71.803  1.00  0.00    -0.346 C  
ENDBRANCH   3   7
BRANCH   5  11
HETATM   11  C   UNL     1      -8.657   6.043  68.187  1.00  0.00    -0.114 C  
HETATM   12  O   UNL     1      -8.720   4.845  67.921  1.00  0.00    -0.103 OA 
BRANCH  11  13
HETATM   13  C   UNL     1      -8.099   6.967  67.140  1.00  0.00    -0.118 A  
HETATM   14  C   UNL     1      -7.183   7.968  67.495  1.00  0.00    -0.088 A  
HETATM   15  C   UNL     1      -6.680   8.849  66.523  1.00  0.00    -0.075 A  
HETATM   16  C   UNL     1      -7.095   8.745  65.189  1.00  0.00    -0.086 A  
HETATM   17  C   UNL     1      -6.588   9.677  64.126  1.00  0.00    -0.112 C  
HETATM   18  C   UNL     1      -8.007   7.743  64.839  1.00  0.00    -0.139 A  
HETATM   19  C   UNL     1      -8.519   6.878  65.808  1.00  0.00    -0.150 A  
ENDBRANCH  11  13
ENDBRANCH   5  11
TORSDOF 3
ENDMDL
MODEL      190
REMARK 921   NORMALIZED FREE ENERGY PREDICTED BY IDOCK:   -2.60 KCAL/MOL
REMARK 922        TOTAL FREE ENERGY PREDICTED BY IDOCK:   -3.70 KCAL/MOL
REMARK 923 INTER-LIGAND FREE ENERGY PREDICTED BY IDOCK:   -3.00 KCAL/MOL
REMARK 924 INTRA-LIGAND FREE ENERGY PREDICTED BY IDOCK:   -0.70 KCAL/MOL
REMARK 927      BINDING AFFINITY PREDICTED BY RF-SCORE:    0.00 PKD
ROOT
HETATM    1  C   UNL     1      -8.681   7.103  63.404  1.00  0.00     0.723 C  
HETATM    2  N   UNL     1      -7.679   8.081  63.791  1.00  0.00    -0.129 NA 
HETATM    3  C   UNL     1      -6.327   7.812  63.948  1.00  0.00    -0.058 A  
HETATM    4  C   UNL     1      -5.715   8.993  64.318  1.00  0.00    -0.069 A  
HETATM    5  C   UNL     1      -7.938   9.417  64.081  1.00  0.00    -0.134 A  
HETATM    6  C   UNL     1      -6.715   9.978  64.428  1.00  0.00    -0.128 A  
ENDROOT
BRANCH   3   7
HETATM    7  C   UNL     1      -5.707   6.440  63.849  1.00  0.00    -0.022 C  
HETATM    8  O   UNL     1      -5.144   4.525  65.192  1.00  0.00    -0.008 OA 
HETATM    9  O   UNL     1      -6.438   6.085  66.157  1.00  0.00    -0.043 OA 
HETATM   10  C   UNL     1      -5.728   5.603  65.116  1.00  0.00    -0.017 C  
ENDBRANCH   3   7
BRANCH   5  11
HETATM   11  C   UNL     1      -9.255  10.064  64.089  1.00  0.00    -0.271 C  
HETATM   12  O   UNL     1      -9.840  10.394  63.059  1.00  0.00    -0.293 OA 
BRANCH  11  13
HETATM   13  C   UNL     1      -9.934  10.341  65.401  1.00  0.00    -0.371 A  
HETATM   14  C   UNL     1      -9.897   9.390  66.432  1.00  0.00    -0.337 A  
HETATM   15  C   UNL     1     -10.551   9.638  67.650  1.00  0.00    -0.334 A  
HETATM   16  C   UNL     1     -11.257  10.832  67.848  1.00  0.00    -0.386 A  
HETATM   17  C   UNL     1     -11.978  11.123  69.133  1.00  0.00    -0.413 C  
HETATM   18  C   UNL     1     -11.288  11.778  66.818  1.00  0.00    -0.385 A  
HETATM   19  C   UNL     1     -10.651  11.526  65.601  1.00  0.00    -0.326 A  
ENDBRANCH  11  13
ENDBRANCH   5  11
TORSDOF 3
ENDMDL
MODEL      191
REMARK 921   NORMALIZED FREE ENERGY PREDICTED BY IDOCK:   -2.55 KCAL/MOL
REMARK 922        TOTAL FREE ENERGY PREDICTED BY IDOCK:   -3.64 KCAL/MOL
REMARK 923 INTER-LIGAND FREE ENERGY PREDICTED BY IDOCK:   -3.41 KCAL/MOL
REMARK 924 INTRA-LIGAND FREE ENERGY PREDICTED BY IDOCK:   -0.22 KCAL/MOL
REMARK 927      BINDING AFFINITY PREDICTED BY RF-SCORE:    0.00 PKD
ROOT
HETATM    1  C   UNL     1      -5.773  12.058  70.044  1.00  0.00    -0.140 C  
HETATM    2  N   UNL     1      -6.464  10.995  69.334  1.00  0.00    -0.082 NA 
HETATM    3  C   UNL     1      -6.429   9.654  69.685  1.00  0.00    -0.046 A  
HETATM    4  C   UNL     1      -7.205   8.971  68.771  1.00  0.00    -0.075 A  
HETATM    5  C   UNL     1      -7.236  11.170  68.189  1.00  0.00    -0.080 A  
HETATM    6  C   UNL     1      -7.680   9.904  67.830  1.00  0.00    -0.091 A  
ENDROOT
BRANCH   3   7
HETATM    7  C   UNL     1      -5.580   9.078  70.792  1.00  0.00    -0.034 C  
HETATM    8  O   UNL     1      -5.649   8.542  73.136  1.00  0.00    -0.058 OA 
HETATM    9  O   UNL     1      -7.602   9.082  72.169  1.00  0.00    -0.344 OA 
HETATM   10  C   UNL     1      -6.268   8.884  72.131  1.00  0.00    -0.048 C  
ENDBRANCH   3   7
BRANCH   5  11
HETATM   11  C   UNL     1      -7.458  12.434  67.478  1.00  0.00    -0.150 C  
HETATM   12  O   UNL     1      -6.552  13.226  67.231  1.00  0.00    -0.218 OA 
BRANCH  11  13
HETATM   13  C   UNL     1      -8.847  12.792  67.026  1.00  0.00    -0.213 A  
HETATM   14  C   UNL     1      -9.564  13.807  67.677  1.00  0.00    -0.219 A  
HETATM   15  C   UNL     1     -10.871  14.125  67.271  1.00  0.00    -0.288 A  
HETATM   16  C   UNL     1     -11.478  13.428  66.219  1.00  0.00    -0.354 A  
HETATM   17  C   UNL     1     -12.878  13.734  65.767  1.00  0.00    -0.430 C  
HETATM   18  C   UNL     1     -10.757  12.419  65.571  1.00  0.00    -0.315 A  
HETATM   19  C   UNL     1      -9.464  12.091  65.983  1.00  0.00    -0.229 A  
ENDBRANCH  11  13
ENDBRANCH   5  11
TORSDOF 3
ENDMDL
MODEL      192
REMARK 921   NORMALIZED FREE ENERGY PREDICTED BY IDOCK:   -2.54 KCAL/MOL
REMARK 922        TOTAL FREE ENERGY PREDICTED BY IDOCK:   -3.63 KCAL/MOL
REMARK 923 INTER-LIGAND FREE ENERGY PREDICTED BY IDOCK:   -2.99 KCAL/MOL
REMARK 924 INTRA-LIGAND FREE ENERGY PREDICTED BY IDOCK:   -0.64 KCAL/MOL
REMARK 927      BINDING AFFINITY PREDICTED BY RF-SCORE:    0.00 PKD
ROOT
HETATM    1  C   UNL     1      -6.952  10.280  69.865  1.00  0.00    -0.142 C  
HETATM    2  N   UNL     1      -8.158   9.963  69.120  1.00  0.00    -0.108 NA 
HETATM    3  C   UNL     1      -8.437  10.408  67.836  1.00  0.00    -0.114 A  
HETATM    4  C   UNL     1      -9.669   9.895  67.483  1.00  0.00    -0.193 A  
HETATM    5  C   UNL     1      -9.213   9.192  69.598  1.00  0.00    -0.168 A  
HETATM    6  C   UNL     1     -10.161   9.168  68.584  1.00  0.00    -0.225 A  
ENDROOT
BRANCH   3   7
HETATM    7  C   UNL     1      -7.581  11.377  67.058  1.00  0.00    -0.151 C  
HETATM    8  O   UNL     1      -5.667  11.454  65.603  1.00  0.00    -0.132 OA 
HETATM    9  O   UNL     1      -6.514   9.423  66.046  1.00  0.00    -0.067 OA 
HETATM   10  C   UNL     1      -6.503  10.765  66.182  1.00  0.00    -0.129 C  
ENDBRANCH   3   7
BRANCH   5  11
HETATM   11  C   UNL     1      -9.316   8.599  70.937  1.00  0.00    -0.189 C  
HETATM   12  O   UNL     1      -9.558   9.264  71.942  1.00  0.00    -0.274 OA 
BRANCH  11  13
HETATM   13  C   UNL     1      -9.121   7.118  71.105  1.00  0.00    -0.152 A  
HETATM   14  C   UNL     1     -10.220   6.248  71.048  1.00  0.00    -0.234 A  
HETATM   15  C   UNL     1     -10.043   4.866  71.229  1.00  0.00    -0.269 A  
HETATM   16  C   UNL     1      -8.769   4.340  71.480  1.00  0.00    -0.138 A  
HETATM   17  C   UNL     1      -8.545   2.870  71.691  1.00  0.00    -0.100 C  
HETATM   18  C   UNL     1      -7.676   5.212  71.533  1.00  0.00    -0.103 A  
HETATM   19  C   UNL     1      -7.853   6.587  71.368  1.00  0.00    -0.100 A  
ENDBRANCH  11  13
ENDBRANCH   5  11
TORSDOF 3
ENDMDL
MODEL      193
REMARK 921   NORMALIZED FREE ENERGY PREDICTED BY IDOCK:   -2.42 KCAL/MOL
REMARK 922        TOTAL FREE ENERGY PREDICTED BY IDOCK:   -3.49 KCAL/MOL
REMARK 923 INTER-LIGAND FREE ENERGY PREDICTED BY IDOCK:   -3.06 KCAL/MOL
REMARK 924 INTRA-LIGAND FREE ENERGY PREDICTED BY IDOCK:   -0.43 KCAL/MOL
REMARK 927      BINDING AFFINITY PREDICTED BY RF-SCORE:    0.00 PKD
ROOT
HETATM    1  C   UNL     1      -7.558   9.210  69.064  1.00  0.00    -0.074 C  
HETATM    2  N   UNL     1      -8.407   9.406  67.902  1.00  0.00    -0.115 NA 
HETATM    3  C   UNL     1      -8.476  10.574  67.158  1.00  0.00    -0.127 A  
HETATM    4  C   UNL     1      -9.389  10.363  66.145  1.00  0.00    -0.210 A  
HETATM    5  C   UNL     1      -9.288   8.459  67.387  1.00  0.00    -0.148 A  
HETATM    6  C   UNL     1      -9.912   9.064  66.304  1.00  0.00    -0.352 A  
ENDROOT
BRANCH   3   7
HETATM    7  C   UNL     1      -7.763  11.858  67.506  1.00  0.00    -0.151 C  
HETATM    8  O   UNL     1      -5.600  12.904  67.388  1.00  0.00    -0.270 OA 
HETATM    9  O   UNL     1      -5.855  10.988  66.246  1.00  0.00    -0.122 OA 
HETATM   10  C   UNL     1      -6.317  11.964  67.054  1.00  0.00    -0.141 C  
ENDBRANCH   3   7
BRANCH   5  11
HETATM   11  C   UNL     1      -9.545   7.123  67.939  1.00  0.00    -0.133 C  
HETATM   12  O   UNL     1      -9.747   6.927  69.135  1.00  0.00    -0.154 OA 
BRANCH  11  13
HETATM   13  C   UNL     1      -9.565   5.935  67.018  1.00  0.00    -0.144 A  
HETATM   14  C   UNL     1      -8.369   5.298  66.658  1.00  0.00    -0.108 A  
HETATM   15  C   UNL     1      -8.384   4.203  65.777  1.00  0.00    -0.109 A  
HETATM   16  C   UNL     1      -9.592   3.740  65.240  1.00  0.00    -0.174 A  
HETATM   17  C   UNL     1      -9.643   2.581  64.287  1.00  0.00    -0.138 C  
HETATM   18  C   UNL     1     -10.783   4.378  65.605  1.00  0.00    -0.083 A  
HETATM   19  C   UNL     1     -10.767   5.475  66.468  1.00  0.00    -0.309 A  
ENDBRANCH  11  13
ENDBRANCH   5  11
TORSDOF 3
ENDMDL
MODEL      194
REMARK 921   NORMALIZED FREE ENERGY PREDICTED BY IDOCK:   -2.39 KCAL/MOL
REMARK 922        TOTAL FREE ENERGY PREDICTED BY IDOCK:   -3.45 KCAL/MOL
REMARK 923 INTER-LIGAND FREE ENERGY PREDICTED BY IDOCK:   -3.01 KCAL/MOL
REMARK 924 INTRA-LIGAND FREE ENERGY PREDICTED BY IDOCK:   -0.44 KCAL/MOL
REMARK 927      BINDING AFFINITY PREDICTED BY RF-SCORE:    0.00 PKD
ROOT
HETATM    1  C   UNL     1      -9.253   6.787  71.504  1.00  0.00    -0.149 C  
HETATM    2  N   UNL     1      -9.575   7.935  70.674  1.00  0.00    -0.166 NA 
HETATM    3  C   UNL     1     -10.668   8.768  70.861  1.00  0.00    -0.227 A  
HETATM    4  C   UNL     1     -10.623   9.732  69.874  1.00  0.00    -0.301 A  
HETATM    5  C   UNL     1      -8.847   8.345  69.561  1.00  0.00    -0.145 A  
HETATM    6  C   UNL     1      -9.513   9.452  69.053  1.00  0.00    -0.160 A  
ENDROOT
BRANCH   3   7
HETATM    7  C   UNL     1     -11.750   8.546  71.889  1.00  0.00    -0.409 C  
HETATM    8  O   UNL     1     -13.851   7.415  72.200  1.00  0.00    -0.153 OA 
HETATM    9  O   UNL     1     -12.685   6.884  70.356  1.00  0.00    -0.066 OA 
HETATM   10  C   UNL     1     -12.854   7.579  71.500  1.00  0.00    -0.360 C  
ENDBRANCH   3   7
BRANCH   5  11
HETATM   11  C   UNL     1      -7.662   7.679  69.007  1.00  0.00    -0.117 C  
HETATM   12  O   UNL     1      -6.629   7.515  69.652  1.00  0.00    -0.035 OA 
BRANCH  11  13
HETATM   13  C   UNL     1      -7.695   7.170  67.592  1.00  0.00    -0.112 A  
HETATM   14  C   UNL     1      -7.588   8.063  66.516  1.00  0.00    -0.092 A  
HETATM   15  C   UNL     1      -7.644   7.592  65.193  1.00  0.00    -0.096 A  
HETATM   16  C   UNL     1      -7.817   6.226  64.933  1.00  0.00    -0.113 A  
HETATM   17  C   UNL     1      -7.894   5.690  63.532  1.00  0.00    -0.101 C  
HETATM   18  C   UNL     1      -7.921   5.339  66.010  1.00  0.00    -0.104 A  
HETATM   19  C   UNL     1      -7.881   5.809  67.325  1.00  0.00    -0.102 A  
ENDBRANCH  11  13
ENDBRANCH   5  11
TORSDOF 3
ENDMDL
MODEL      195
REMARK 921   NORMALIZED FREE ENERGY PREDICTED BY IDOCK:   -2.29 KCAL/MOL
REMARK 922        TOTAL FREE ENERGY PREDICTED BY IDOCK:   -3.33 KCAL/MOL
REMARK 923 INTER-LIGAND FREE ENERGY PREDICTED BY IDOCK:   -3.51 KCAL/MOL
REMARK 924 INTRA-LIGAND FREE ENERGY PREDICTED BY IDOCK:    0.18 KCAL/MOL
REMARK 927      BINDING AFFINITY PREDICTED BY RF-SCORE:    0.00 PKD
ROOT
HETATM    1  C   UNL     1      -7.260  14.364  69.159  1.00  0.00    -0.118 C  
HETATM    2  N   UNL     1      -7.395  13.057  68.538  1.00  0.00    -0.111 NA 
HETATM    3  C   UNL     1      -6.735  11.910  68.954  1.00  0.00    -0.095 A  
HETATM    4  C   UNL     1      -7.126  10.886  68.116  1.00  0.00    -0.077 A  
HETATM    5  C   UNL     1      -8.184  12.779  67.426  1.00  0.00    -0.186 A  
HETATM    6  C   UNL     1      -7.999  11.430  67.153  1.00  0.00    -0.156 A  
ENDROOT
BRANCH   3   7
HETATM    7  C   UNL     1      -5.694  11.866  70.045  1.00  0.00    -0.138 C  
HETATM    8  O   UNL     1      -5.225  10.826  72.163  1.00  0.00    -0.306 OA 
HETATM    9  O   UNL     1      -6.954   9.997  70.996  1.00  0.00    -0.339 OA 
HETATM   10  C   UNL     1      -5.934  10.865  71.161  1.00  0.00     0.223 C  
ENDBRANCH   3   7
BRANCH   5  11
HETATM   11  C   UNL     1      -8.981  13.747  66.664  1.00  0.00    -0.129 C  
HETATM   12  O   UNL     1      -8.791  14.960  66.727  1.00  0.00    -0.242 OA 
BRANCH  11  13
HETATM   13  C   UNL     1     -10.079  13.254  65.764  1.00  0.00    -0.293 A  
HETATM   14  C   UNL     1      -9.795  12.864  64.447  1.00  0.00    -0.025 A  
HETATM   15  C   UNL     1     -10.824  12.426  63.597  1.00  0.00    -0.509 A  
HETATM   16  C   UNL     1     -12.149  12.383  64.051  1.00  0.00    -0.563 A  
HETATM   17  C   UNL     1     -13.275  11.932  63.165  1.00  0.00     0.371 C  
HETATM   18  C   UNL     1     -12.427  12.770  65.366  1.00  0.00    -0.478 A  
HETATM   19  C   UNL     1     -11.407  13.219  66.207  1.00  0.00    -0.336 A  
ENDBRANCH  11  13
ENDBRANCH   5  11
TORSDOF 3
ENDMDL
MODEL      196
REMARK 921   NORMALIZED FREE ENERGY PREDICTED BY IDOCK:   -1.75 KCAL/MOL
REMARK 922        TOTAL FREE ENERGY PREDICTED BY IDOCK:   -2.70 KCAL/MOL
REMARK 923 INTER-LIGAND FREE ENERGY PREDICTED BY IDOCK:   -2.51 KCAL/MOL
REMARK 924 INTRA-LIGAND FREE ENERGY PREDICTED BY IDOCK:   -0.19 KCAL/MOL
REMARK 927      BINDING AFFINITY PREDICTED BY RF-SCORE:    0.00 PKD
ROOT
HETATM    1  C   UNL     1     -12.031  14.126  68.523  1.00  0.00    -0.332 C  
HETATM    2  N   UNL     1     -10.580  14.166  68.565  1.00  0.00    -0.246 NA 
HETATM    3  C   UNL     1      -9.832  15.110  69.253  1.00  0.00    -0.230 A  
HETATM    4  C   UNL     1      -8.502  14.809  69.048  1.00  0.00    -0.140 A  
HETATM    5  C   UNL     1      -9.736  13.279  67.903  1.00  0.00    -0.224 A  
HETATM    6  C   UNL     1      -8.442  13.694  68.189  1.00  0.00    -0.175 A  
ENDROOT
BRANCH   3   7
HETATM    7  C   UNL     1     -10.410  16.305  69.973  1.00  0.00    -0.095 C  
HETATM    8  O   UNL     1     -10.197  18.695  70.129  1.00  0.00     0.684 OA 
HETATM    9  O   UNL     1      -9.106  17.696  68.441  1.00  0.00    -0.265 OA 
HETATM   10  C   UNL     1      -9.896  17.664  69.534  1.00  0.00     0.209 C  
ENDBRANCH   3   7
BRANCH   5  11
HETATM   11  C   UNL     1     -10.152  12.182  67.021  1.00  0.00    -0.204 C  
HETATM   12  O   UNL     1     -10.804  12.364  65.995  1.00  0.00    -0.260 OA 
BRANCH  11  13
HETATM   13  C   UNL     1      -9.774  10.770  67.371  1.00  0.00    -0.194 A  
HETATM   14  C   UNL     1      -9.522   9.832  66.359  1.00  0.00    -0.237 A  
HETATM   15  C   UNL     1      -9.193   8.506  66.685  1.00  0.00    -0.223 A  
HETATM   16  C   UNL     1      -9.122   8.100  68.024  1.00  0.00    -0.134 A  
HETATM   17  C   UNL     1      -8.785   6.687  68.407  1.00  0.00    -0.122 C  
HETATM   18  C   UNL     1      -9.371   9.040  69.030  1.00  0.00    -0.140 A  
HETATM   19  C   UNL     1      -9.713  10.355  68.707  1.00  0.00    -0.184 A  
ENDBRANCH  11  13
ENDBRANCH   5  11
TORSDOF 3
ENDMDL
MODEL      197
REMARK 921   NORMALIZED FREE ENERGY PREDICTED BY IDOCK:   -1.75 KCAL/MOL
REMARK 922        TOTAL FREE ENERGY PREDICTED BY IDOCK:   -2.70 KCAL/MOL
REMARK 923 INTER-LIGAND FREE ENERGY PREDICTED BY IDOCK:   -3.35 KCAL/MOL
REMARK 924 INTRA-LIGAND FREE ENERGY PREDICTED BY IDOCK:    0.65 KCAL/MOL
REMARK 927      BINDING AFFINITY PREDICTED BY RF-SCORE:    0.00 PKD
ROOT
HETATM    1  C   UNL     1      -6.421  14.150  70.272  1.00  0.00    -0.071 C  
HETATM    2  N   UNL     1      -6.552  13.073  69.305  1.00  0.00    -0.106 NA 
HETATM    3  C   UNL     1      -6.213  11.750  69.543  1.00  0.00    -0.115 A  
HETATM    4  C   UNL     1      -6.481  11.044  68.388  1.00  0.00    -0.057 A  
HETATM    5  C   UNL     1      -7.011  13.222  68.000  1.00  0.00    -0.120 A  
HETATM    6  C   UNL     1      -6.947  11.960  67.425  1.00  0.00    -0.128 A  
ENDROOT
BRANCH   3   7
HETATM    7  C   UNL     1      -5.554  11.245  70.803  1.00  0.00    -0.112 C  
HETATM    8  O   UNL     1      -5.364   9.276  72.172  1.00  0.00    -0.068 OA 
HETATM    9  O   UNL     1      -6.334   9.016  70.165  1.00  0.00    -0.039 OA 
HETATM   10  C   UNL     1      -5.744   9.771  71.115  1.00  0.00    -0.077 C  
ENDBRANCH   3   7
BRANCH   5  11
HETATM   11  C   UNL     1      -7.403  14.482  67.358  1.00  0.00    -0.157 C  
HETATM   12  O   UNL     1      -6.690  15.482  67.364  1.00  0.00    -0.177 OA 
BRANCH  11  13
HETATM   13  C   UNL     1      -8.731  14.571  66.658  1.00  0.00    -0.162 A  
HETATM   14  C   UNL     1      -9.578  13.454  66.601  1.00  0.00    -0.272 A  
HETATM   15  C   UNL     1     -10.808  13.529  65.926  1.00  0.00    -0.279 A  
HETATM   16  C   UNL     1     -11.200  14.715  65.293  1.00  0.00    -0.358 A  
HETATM   17  C   UNL     1     -12.502  14.826  64.553  1.00  0.00    -0.272 C  
HETATM   18  C   UNL     1     -10.354  15.827  65.356  1.00  0.00    -0.417 A  
HETATM   19  C   UNL     1      -9.124  15.750  66.013  1.00  0.00    -0.361 A  
ENDBRANCH  11  13
ENDBRANCH   5  11
TORSDOF 3
ENDMDL
MODEL      198
REMARK 921   NORMALIZED FREE ENERGY PREDICTED BY IDOCK:    1.68 KCAL/MOL
REMARK 922        TOTAL FREE ENERGY PREDICTED BY IDOCK:    1.34 KCAL/MOL
REMARK 923 INTER-LIGAND FREE ENERGY PREDICTED BY IDOCK:   -2.93 KCAL/MOL
REMARK 924 INTRA-LIGAND FREE ENERGY PREDICTED BY IDOCK:    4.27 KCAL/MOL
REMARK 927      BINDING AFFINITY PREDICTED BY RF-SCORE:    0.00 PKD
ROOT
HETATM    1  C   UNL     1      -9.615  13.600  65.772  1.00  0.00    -0.061 C  
HETATM    2  N   UNL     1     -10.563  12.824  66.552  1.00  0.00    -0.252 NA 
HETATM    3  C   UNL     1     -11.942  12.947  66.475  1.00  0.00    -0.377 A  
HETATM    4  C   UNL     1     -12.485  12.044  67.366  1.00  0.00     1.256 A  
HETATM    5  C   UNL     1     -10.221  11.866  67.502  1.00  0.00    -0.196 A  
HETATM    6  C   UNL     1     -11.420  11.396  68.022  1.00  0.00    -0.377 A  
ENDROOT
BRANCH   3   7
HETATM    7  C   UNL     1     -12.667  13.983  65.651  1.00  0.00    -0.515 C  
HETATM    8  O   UNL     1     -12.316  15.551  63.861  1.00  0.00    -0.653 OA 
HETATM    9  O   UNL     1     -10.668  14.076  64.244  1.00  0.00    -0.301 OA 
HETATM   10  C   UNL     1     -11.876  14.611  64.518  1.00  0.00    -0.431 C  
ENDBRANCH   3   7
BRANCH   5  11
HETATM   11  C   UNL     1      -8.860  11.500  67.913  1.00  0.00    -0.152 C  
HETATM   12  O   UNL     1      -8.455  10.340  67.909  1.00  0.00    -0.117 OA 
BRANCH  11  13
HETATM   13  C   UNL     1      -7.909  12.575  68.359  1.00  0.00    -0.141 A  
HETATM   14  C   UNL     1      -8.361  13.891  68.538  1.00  0.00    -0.132 A  
HETATM   15  C   UNL     1      -7.469  14.902  68.932  1.00  0.00    -0.137 A  
HETATM   16  C   UNL     1      -6.114  14.612  69.140  1.00  0.00    -0.102 A  
HETATM   17  C   UNL     1      -5.130  15.670  69.549  1.00  0.00    -0.098 C  
HETATM   18  C   UNL     1      -5.669  13.297  68.963  1.00  0.00    -0.076 A  
HETATM   19  C   UNL     1      -6.552  12.295  68.557  1.00  0.00    -0.072 A  
ENDBRANCH  11  13
ENDBRANCH   5  11
TORSDOF 3
ENDMDL
MODEL      199
REMARK 921   NORMALIZED FREE ENERGY PREDICTED BY IDOCK:   44.66 KCAL/MOL
REMARK 922        TOTAL FREE ENERGY PREDICTED BY IDOCK:   51.86 KCAL/MOL
REMARK 923 INTER-LIGAND FREE ENERGY PREDICTED BY IDOCK:   50.84 KCAL/MOL
REMARK 924 INTRA-LIGAND FREE ENERGY PREDICTED BY IDOCK:    1.02 KCAL/MOL
REMARK 927      BINDING AFFINITY PREDICTED BY RF-SCORE:    0.00 PKD
ROOT
HETATM    1  C   UNL     1      -9.413  15.911  65.829  1.00  0.00    -0.281 C  
HETATM    2  N   UNL     1      -9.886  15.533  67.150  1.00  0.00    -0.233 NA 
HETATM    3  C   UNL     1      -9.950  16.385  68.243  1.00  0.00    -0.243 A  
HETATM    4  C   UNL     1     -10.450  15.656  69.302  1.00  0.00    -0.247 A  
HETATM    5  C   UNL     1     -10.318  14.260  67.510  1.00  0.00    -0.248 A  
HETATM    6  C   UNL     1     -10.650  14.334  68.857  1.00  0.00    -0.252 A  
ENDROOT
BRANCH   3   7
HETATM    7  C   UNL     1      -9.436  17.803  68.257  1.00  0.00    -0.290 C  
HETATM    8  O   UNL     1      -9.370  19.771  69.640  1.00  0.00     0.004 OA 
HETATM    9  O   UNL     1     -10.090  17.881  70.613  1.00  0.00     1.649 OA 
HETATM   10  C   UNL     1      -9.632  18.574  69.550  1.00  0.00     0.329 C  
ENDBRANCH   3   7
BRANCH   5  11
HETATM   11  C   UNL     1     -10.336  13.074  66.646  1.00  0.00    -0.260 C  
HETATM   12  O   UNL     1      -9.532  12.905  65.732  1.00  0.00    -0.138 OA 
BRANCH  11  13
HETATM   13  C   UNL     1     -11.374  12.010  66.874  1.00  0.00    -0.400 A  
HETATM   14  C   UNL     1     -11.522  11.425  68.141  1.00  0.00    -0.375 A  
HETATM   15  C   UNL     1     -12.474  10.414  68.349  1.00  0.00     1.886 A  
HETATM   16  C   UNL     1     -13.281   9.969  67.294  1.00  0.00    12.851 A  
HETATM   17  C   UNL     1     -14.301   8.882  67.479  1.00  0.00    24.918 C  
HETATM   18  C   UNL     1     -13.132  10.558  66.033  1.00  0.00    10.938 A  
HETATM   19  C   UNL     1     -12.175  11.553  65.821  1.00  0.00     1.234 A  
ENDBRANCH  11  13
ENDBRANCH   5  11
TORSDOF 3
ENDMDL
MODEL      200
REMARK 921   NORMALIZED FREE ENERGY PREDICTED BY IDOCK:   57.15 KCAL/MOL
REMARK 922        TOTAL FREE ENERGY PREDICTED BY IDOCK:   66.54 KCAL/MOL
REMARK 923 INTER-LIGAND FREE ENERGY PREDICTED BY IDOCK:   60.79 KCAL/MOL
REMARK 924 INTRA-LIGAND FREE ENERGY PREDICTED BY IDOCK:    5.75 KCAL/MOL
REMARK 927      BINDING AFFINITY PREDICTED BY RF-SCORE:    0.00 PKD
ROOT
HETATM    1  C   UNL     1     -11.015  11.842  65.937  1.00  0.00    -0.307 C  
HETATM    2  N   UNL     1     -12.174  11.060  66.330  1.00  0.00     1.473 NA 
HETATM    3  C   UNL     1     -13.487  11.367  66.003  1.00  0.00     9.007 A  
HETATM    4  C   UNL     1     -14.287  10.389  66.557  1.00  0.00    24.790 A  
HETATM    5  C   UNL     1     -12.134   9.908  67.111  1.00  0.00     4.200 A  
HETATM    6  C   UNL     1     -13.453   9.504  67.267  1.00  0.00    17.578 A  
ENDROOT
BRANCH   3   7
HETATM    7  C   UNL     1     -13.921  12.619  65.281  1.00  0.00     4.233 C  
HETATM    8  O   UNL     1     -13.033  14.528  64.117  1.00  0.00    -0.470 OA 
HETATM    9  O   UNL     1     -11.587  12.880  64.596  1.00  0.00    -0.319 OA 
HETATM   10  C   UNL     1     -12.819  13.430  64.623  1.00  0.00    -0.083 C  
ENDBRANCH   3   7
BRANCH   5  11
HETATM   11  C   UNL     1     -10.934   9.305  67.703  1.00  0.00    -0.001 C  
HETATM   12  O   UNL     1     -10.735   8.092  67.712  1.00  0.00    -0.194 OA 
BRANCH  11  13
HETATM   13  C   UNL     1      -9.895  10.192  68.331  1.00  0.00    -0.164 A  
HETATM   14  C   UNL     1     -10.108  11.575  68.423  1.00  0.00    -0.207 A  
HETATM   15  C   UNL     1      -9.127  12.408  68.987  1.00  0.00     0.449 A  
HETATM   16  C   UNL     1      -7.921  11.871  69.454  1.00  0.00     0.564 A  
HETATM   17  C   UNL     1      -6.846  12.734  70.051  1.00  0.00     0.523 C  
HETATM   18  C   UNL     1      -7.715  10.490  69.362  1.00  0.00    -0.157 A  
HETATM   19  C   UNL     1      -8.683   9.663  68.789  1.00  0.00    -0.126 A  
ENDBRANCH  11  13
ENDBRANCH   5  11
TORSDOF 3
ENDMDL
