MODEL        1
REMARK 921   NORMALIZED FREE ENERGY PREDICTED BY IDOCK:   -6.63 KCAL/MOL
REMARK 922        TOTAL FREE ENERGY PREDICTED BY IDOCK:   -9.02 KCAL/MOL
REMARK 923 INTER-LIGAND FREE ENERGY PREDICTED BY IDOCK:   -8.18 KCAL/MOL
REMARK 924 INTRA-LIGAND FREE ENERGY PREDICTED BY IDOCK:   -0.84 KCAL/MOL
REMARK 927      BINDING AFFINITY PREDICTED BY RF-SCORE:    0.00 PKD
ROOT
HETATM    1  C   UNL     1     -11.486  15.274  71.443  1.00  0.00    -0.444 C  
HETATM    2  C   UNL     1     -12.537  14.149  71.264  1.00  0.00    -0.363 C  
HETATM    3  C   UNL     1     -13.892  14.879  71.218  1.00  0.00    -0.500 C  
ENDROOT
BRANCH   2   4
HETATM    4  N   UNL     1     -12.260  13.279  70.080  1.00  0.00    -0.305 NA 
BRANCH   4   5
HETATM    5  C   UNL     1     -11.321  13.907  69.112  1.00  0.00    -0.286 C  
BRANCH   5   6
HETATM    6  C   UNL     1     -11.902  14.884  68.071  1.00  0.00    -0.296 C  
HETATM    7  C   UNL     1     -11.149  14.983  66.706  1.00  0.00    -0.326 C  
HETATM    8  C   UNL     1     -11.080  13.684  65.880  1.00  0.00    -0.289 A  
HETATM    9  C   UNL     1      -9.813  15.746  66.758  1.00  0.00    -0.256 A  
HETATM   10  C   UNL     1      -9.609  17.032  66.233  1.00  0.00    -0.267 A  
HETATM   11  C   UNL     1     -10.321  12.565  66.266  1.00  0.00    -0.269 A  
HETATM   12  O   UNL     1     -10.589  17.818  65.696  1.00  0.00    -0.577 OA 
HETATM   13  C   UNL     1     -10.171  11.451  65.440  1.00  0.00    -0.320 A  
HETATM   14  C   UNL     1      -8.334  17.614  66.208  1.00  0.00    -0.251 A  
HETATM   15  C   UNL     1      -7.223  16.925  66.686  1.00  0.00    -0.294 A  
HETATM   16  C   UNL     1     -10.816  11.406  64.215  1.00  0.00    -0.416 A  
HETATM   17  H   UNL     1     -10.451  18.688  65.341  1.00  0.00     0.000 HD 
HETATM   18  C   UNL     1      -7.386  15.658  67.226  1.00  0.00    -0.255 A  
HETATM   19  C   UNL     1     -11.613  12.481  63.819  1.00  0.00    -0.552 A  
HETATM   20  C   UNL     1     -11.740  13.609  64.643  1.00  0.00    -0.414 A  
HETATM   21  C   UNL     1      -6.233  14.822  67.693  1.00  0.00    -0.114 C  
HETATM   22  C   UNL     1      -8.676  15.110  67.290  1.00  0.00    -0.221 A  
ENDBRANCH   5   6
ENDBRANCH   4   5
BRANCH   4  23
HETATM   23  C   UNL     1     -11.937  11.842  70.337  1.00  0.00    -0.332 C  
HETATM   24  C   UNL     1     -12.788  11.168  71.428  1.00  0.00    -0.544 C  
HETATM   25  C   UNL     1     -12.135  10.954  69.083  1.00  0.00    -0.292 C  
ENDBRANCH   4  23
ENDBRANCH   2   4
TORSDOF 4
ENDMDL
MODEL        2
REMARK 921   NORMALIZED FREE ENERGY PREDICTED BY IDOCK:   -6.49 KCAL/MOL
REMARK 922        TOTAL FREE ENERGY PREDICTED BY IDOCK:   -8.85 KCAL/MOL
REMARK 923 INTER-LIGAND FREE ENERGY PREDICTED BY IDOCK:   -8.02 KCAL/MOL
REMARK 924 INTRA-LIGAND FREE ENERGY PREDICTED BY IDOCK:   -0.82 KCAL/MOL
REMARK 927      BINDING AFFINITY PREDICTED BY RF-SCORE:    0.00 PKD
ROOT
HETATM    1  C   UNL     1     -12.270   9.049  71.995  1.00  0.00    -0.446 C  
HETATM    2  C   UNL     1     -11.019   9.442  71.167  1.00  0.00    -0.360 C  
HETATM    3  C   UNL     1      -9.842   8.747  71.877  1.00  0.00    -0.395 C  
ENDROOT
BRANCH   2   4
HETATM    4  N   UNL     1     -11.155   9.106  69.717  1.00  0.00    -0.179 NA 
BRANCH   4   5
HETATM    5  C   UNL     1     -10.907  10.273  68.830  1.00  0.00    -0.230 C  
BRANCH   5   6
HETATM    6  C   UNL     1     -12.010  11.344  68.717  1.00  0.00    -0.353 C  
HETATM    7  C   UNL     1     -11.733  12.540  67.751  1.00  0.00    -0.419 C  
HETATM    8  C   UNL     1     -11.530  12.173  66.268  1.00  0.00    -0.433 A  
HETATM    9  C   UNL     1     -10.712  13.567  68.272  1.00  0.00    -0.271 A  
HETATM   10  C   UNL     1     -11.040  14.851  68.735  1.00  0.00    -0.264 A  
HETATM   11  C   UNL     1     -10.406  11.473  65.794  1.00  0.00    -0.295 A  
HETATM   12  O   UNL     1     -12.313  15.326  68.878  1.00  0.00    -0.593 OA 
HETATM   13  C   UNL     1     -10.183  11.267  64.433  1.00  0.00    -0.377 A  
HETATM   14  C   UNL     1     -10.045  15.778  69.078  1.00  0.00    -0.225 A  
HETATM   15  C   UNL     1      -8.696  15.459  68.953  1.00  0.00    -0.208 A  
HETATM   16  C   UNL     1     -11.104  11.719  63.504  1.00  0.00    -0.503 A  
HETATM   17  H   UNL     1     -12.535  16.194  69.192  1.00  0.00     0.000 HD 
HETATM   18  C   UNL     1      -8.332  14.195  68.514  1.00  0.00    -0.155 A  
HETATM   19  C   UNL     1     -12.253  12.380  63.942  1.00  0.00    -0.603 A  
HETATM   20  C   UNL     1     -12.460  12.606  65.311  1.00  0.00    -0.483 A  
HETATM   21  C   UNL     1      -6.905  13.798  68.280  1.00  0.00    -0.109 C  
HETATM   22  C   UNL     1      -9.339  13.263  68.222  1.00  0.00    -0.205 A  
ENDBRANCH   5   6
ENDBRANCH   4   5
BRANCH   4  23
HETATM   23  C   UNL     1     -10.480   7.865  69.227  1.00  0.00    -0.216 C  
HETATM   24  C   UNL     1     -11.271   6.563  69.446  1.00  0.00    -0.418 C  
HETATM   25  C   UNL     1     -10.201   7.900  67.703  1.00  0.00    -0.289 C  
ENDBRANCH   4  23
ENDBRANCH   2   4
TORSDOF 4
ENDMDL
MODEL        3
REMARK 921   NORMALIZED FREE ENERGY PREDICTED BY IDOCK:   -6.37 KCAL/MOL
REMARK 922        TOTAL FREE ENERGY PREDICTED BY IDOCK:   -8.70 KCAL/MOL
REMARK 923 INTER-LIGAND FREE ENERGY PREDICTED BY IDOCK:   -8.00 KCAL/MOL
REMARK 924 INTRA-LIGAND FREE ENERGY PREDICTED BY IDOCK:   -0.70 KCAL/MOL
REMARK 927      BINDING AFFINITY PREDICTED BY RF-SCORE:    0.00 PKD
ROOT
HETATM    1  C   UNL     1     -11.862  12.048  69.537  1.00  0.00    -0.390 C  
HETATM    2  C   UNL     1     -12.613  12.998  70.505  1.00  0.00    -0.147 C  
HETATM    3  C   UNL     1     -12.790  12.183  71.799  1.00  0.00    -0.367 C  
ENDROOT
BRANCH   2   4
HETATM    4  N   UNL     1     -11.916  14.309  70.687  1.00  0.00    -0.317 NA 
BRANCH   4   5
HETATM    5  C   UNL     1     -11.027  14.652  69.545  1.00  0.00    -0.245 C  
BRANCH   5   6
HETATM    6  C   UNL     1     -11.497  15.745  68.566  1.00  0.00    -0.381 C  
HETATM    7  C   UNL     1     -10.851  15.738  67.143  1.00  0.00    -0.289 C  
HETATM    8  C   UNL     1     -11.091  14.469  66.302  1.00  0.00    -0.332 A  
HETATM    9  C   UNL     1      -9.397  16.239  67.091  1.00  0.00    -0.232 A  
HETATM   10  C   UNL     1      -9.000  17.478  66.564  1.00  0.00    -0.261 A  
HETATM   11  C   UNL     1     -10.525  13.220  66.612  1.00  0.00    -0.279 A  
HETATM   12  O   UNL     1      -9.856  18.445  66.118  1.00  0.00    -0.443 OA 
HETATM   13  C   UNL     1     -10.652  12.119  65.766  1.00  0.00    -0.295 A  
HETATM   14  C   UNL     1      -7.646  17.816  66.438  1.00  0.00    -0.313 A  
HETATM   15  C   UNL     1      -6.647  16.922  66.815  1.00  0.00    -0.260 A  
HETATM   16  C   UNL     1     -11.390  12.224  64.599  1.00  0.00    -0.375 A  
HETATM   17  H   UNL     1      -9.588  19.283  65.762  1.00  0.00     0.000 HD 
HETATM   18  C   UNL     1      -6.999  15.694  67.355  1.00  0.00    -0.234 A  
HETATM   19  C   UNL     1     -12.002  13.437  64.281  1.00  0.00    -0.481 A  
HETATM   20  C   UNL     1     -11.851  14.548  65.124  1.00  0.00    -0.374 A  
HETATM   21  C   UNL     1      -5.988  14.647  67.716  1.00  0.00    -0.119 C  
HETATM   22  C   UNL     1      -8.359  15.392  67.520  1.00  0.00    -0.190 A  
ENDBRANCH   5   6
ENDBRANCH   4   5
BRANCH   4  23
HETATM   23  C   UNL     1     -12.738  15.473  71.139  1.00  0.00    -0.463 C  
HETATM   24  C   UNL     1     -14.220  15.158  71.409  1.00  0.00    -0.597 C  
HETATM   25  C   UNL     1     -12.222  16.089  72.463  1.00  0.00    -0.612 C  
ENDBRANCH   4  23
ENDBRANCH   2   4
TORSDOF 4
ENDMDL
MODEL        4
REMARK 921   NORMALIZED FREE ENERGY PREDICTED BY IDOCK:   -6.34 KCAL/MOL
REMARK 922        TOTAL FREE ENERGY PREDICTED BY IDOCK:   -8.67 KCAL/MOL
REMARK 923 INTER-LIGAND FREE ENERGY PREDICTED BY IDOCK:   -7.28 KCAL/MOL
REMARK 924 INTRA-LIGAND FREE ENERGY PREDICTED BY IDOCK:   -1.39 KCAL/MOL
REMARK 927      BINDING AFFINITY PREDICTED BY RF-SCORE:    0.00 PKD
ROOT
HETATM    1  C   UNL     1      -6.955  16.752  66.956  1.00  0.00    -0.242 C  
HETATM    2  C   UNL     1      -7.670  18.090  66.641  1.00  0.00    -0.238 C  
HETATM    3  C   UNL     1      -6.718  18.830  65.683  1.00  0.00    -0.311 C  
ENDROOT
BRANCH   2   4
HETATM    4  N   UNL     1      -9.056  17.896  66.112  1.00  0.00    -0.496 NA 
BRANCH   4   5
HETATM    5  C   UNL     1      -9.370  16.470  65.830  1.00  0.00    -0.191 C  
BRANCH   5   6
HETATM    6  C   UNL     1     -10.851  16.074  65.672  1.00  0.00    -0.273 C  
HETATM    7  C   UNL     1     -11.366  14.909  66.577  1.00  0.00    -0.319 C  
HETATM    8  C   UNL     1     -11.290  15.153  68.097  1.00  0.00    -0.345 A  
HETATM    9  C   UNL     1     -10.889  13.506  66.159  1.00  0.00    -0.284 A  
HETATM   10  C   UNL     1     -11.702  12.537  65.550  1.00  0.00    -0.409 A  
HETATM   11  C   UNL     1     -10.078  15.225  68.805  1.00  0.00    -0.219 A  
HETATM   12  O   UNL     1     -12.995  12.740  65.158  1.00  0.00    -0.768 OA 
HETATM   13  C   UNL     1     -10.038  15.318  70.196  1.00  0.00    -0.116 A  
HETATM   14  C   UNL     1     -11.231  11.239  65.309  1.00  0.00    -0.067 A  
HETATM   15  C   UNL     1      -9.944  10.863  65.685  1.00  0.00    -0.305 A  
HETATM   16  C   UNL     1     -11.217  15.386  70.920  1.00  0.00    -0.397 A  
HETATM   17  H   UNL     1     -13.545  12.085  64.746  1.00  0.00     0.000 HD 
HETATM   18  C   UNL     1      -9.106  11.797  66.275  1.00  0.00    -0.209 A  
HETATM   19  C   UNL     1     -12.438  15.361  70.245  1.00  0.00    -0.413 A  
HETATM   20  C   UNL     1     -12.472  15.242  68.848  1.00  0.00     0.146 A  
HETATM   21  C   UNL     1      -7.734  11.453  66.775  1.00  0.00    -0.150 C  
HETATM   22  C   UNL     1      -9.575  13.105  66.463  1.00  0.00    -0.268 A  
ENDBRANCH   5   6
ENDBRANCH   4   5
BRANCH   4  23
HETATM   23  C   UNL     1     -10.171  18.596  66.819  1.00  0.00    -0.393 C  
HETATM   24  C   UNL     1      -9.978  18.761  68.337  1.00  0.00    -0.441 C  
HETATM   25  C   UNL     1     -10.398  20.037  66.296  1.00  0.00    -0.570 C  
ENDBRANCH   4  23
ENDBRANCH   2   4
TORSDOF 4
ENDMDL
MODEL        5
REMARK 921   NORMALIZED FREE ENERGY PREDICTED BY IDOCK:   -6.34 KCAL/MOL
REMARK 922        TOTAL FREE ENERGY PREDICTED BY IDOCK:   -8.66 KCAL/MOL
REMARK 923 INTER-LIGAND FREE ENERGY PREDICTED BY IDOCK:   -7.81 KCAL/MOL
REMARK 924 INTRA-LIGAND FREE ENERGY PREDICTED BY IDOCK:   -0.86 KCAL/MOL
REMARK 927      BINDING AFFINITY PREDICTED BY RF-SCORE:    0.00 PKD
ROOT
HETATM    1  C   UNL     1     -12.201  14.960  72.668  1.00  0.00    -0.395 C  
HETATM    2  C   UNL     1     -13.190  14.145  71.797  1.00  0.00    -0.373 C  
HETATM    3  C   UNL     1     -14.355  15.111  71.514  1.00  0.00    -0.660 C  
ENDROOT
BRANCH   2   4
HETATM    4  N   UNL     1     -12.549  13.572  70.574  1.00  0.00    -0.279 NA 
BRANCH   4   5
HETATM    5  C   UNL     1     -11.525  14.475  69.984  1.00  0.00    -0.258 C  
BRANCH   5   6
HETATM    6  C   UNL     1     -12.004  15.585  69.027  1.00  0.00    -0.323 C  
HETATM    7  C   UNL     1     -11.054  15.949  67.842  1.00  0.00    -0.317 C  
HETATM    8  C   UNL     1     -10.757  14.812  66.844  1.00  0.00    -0.308 A  
HETATM    9  C   UNL     1      -9.804  16.754  68.239  1.00  0.00    -0.257 A  
HETATM   10  C   UNL     1      -9.617  18.119  67.967  1.00  0.00    -0.300 A  
HETATM   11  C   UNL     1      -9.988  13.681  67.171  1.00  0.00    -0.247 A  
HETATM   12  O   UNL     1     -10.554  18.936  67.403  1.00  0.00    -0.422 OA 
HETATM   13  C   UNL     1      -9.626  12.731  66.217  1.00  0.00    -0.242 A  
HETATM   14  C   UNL     1      -8.401  18.757  68.250  1.00  0.00    -0.360 A  
HETATM   15  C   UNL     1      -7.331  18.052  68.794  1.00  0.00    -0.279 A  
HETATM   16  C   UNL     1     -10.063  12.862  64.909  1.00  0.00    -0.229 A  
HETATM   17  H   UNL     1     -10.427  19.859  67.219  1.00  0.00     0.000 HD 
HETATM   18  C   UNL     1      -7.483  16.705  69.091  1.00  0.00    -0.207 A  
HETATM   19  C   UNL     1     -10.865  13.949  64.559  1.00  0.00    -0.381 A  
HETATM   20  C   UNL     1     -11.205  14.915  65.518  1.00  0.00    -0.348 A  
HETATM   21  C   UNL     1      -6.359  15.858  69.608  1.00  0.00    -0.186 C  
HETATM   22  C   UNL     1      -8.721  16.093  68.848  1.00  0.00    -0.248 A  
ENDBRANCH   5   6
ENDBRANCH   4   5
BRANCH   4  23
HETATM   23  C   UNL     1     -12.087  12.151  70.635  1.00  0.00    -0.250 C  
HETATM   24  C   UNL     1     -12.972  11.215  71.477  1.00  0.00    -0.542 C  
HETATM   25  C   UNL     1     -12.030  11.482  69.239  1.00  0.00    -0.397 C  
ENDBRANCH   4  23
ENDBRANCH   2   4
TORSDOF 4
ENDMDL
MODEL        6
REMARK 921   NORMALIZED FREE ENERGY PREDICTED BY IDOCK:   -6.34 KCAL/MOL
REMARK 922        TOTAL FREE ENERGY PREDICTED BY IDOCK:   -8.66 KCAL/MOL
REMARK 923 INTER-LIGAND FREE ENERGY PREDICTED BY IDOCK:   -7.70 KCAL/MOL
REMARK 924 INTRA-LIGAND FREE ENERGY PREDICTED BY IDOCK:   -0.96 KCAL/MOL
REMARK 927      BINDING AFFINITY PREDICTED BY RF-SCORE:    0.00 PKD
ROOT
HETATM    1  C   UNL     1      -9.905  11.418  62.835  1.00  0.00    -0.314 C  
HETATM    2  C   UNL     1     -10.682  12.172  63.944  1.00  0.00    -0.407 C  
HETATM    3  C   UNL     1     -12.162  12.064  63.532  1.00  0.00    -0.653 C  
ENDROOT
BRANCH   2   4
HETATM    4  N   UNL     1     -10.381  11.657  65.315  1.00  0.00    -0.258 NA 
BRANCH   4   5
HETATM    5  C   UNL     1     -11.435  12.003  66.305  1.00  0.00    -0.345 C  
BRANCH   5   6
HETATM    6  C   UNL     1     -11.533  13.468  66.775  1.00  0.00    -0.374 C  
HETATM    7  C   UNL     1     -10.924  13.798  68.175  1.00  0.00    -0.265 C  
HETATM    8  C   UNL     1      -9.411  13.543  68.328  1.00  0.00    -0.212 A  
HETATM    9  C   UNL     1     -11.751  13.301  69.374  1.00  0.00    -0.383 A  
HETATM   10  C   UNL     1     -12.506  14.130  70.219  1.00  0.00    -0.353 A  
HETATM   11  C   UNL     1      -8.844  12.257  68.336  1.00  0.00    -0.137 A  
HETATM   12  O   UNL     1     -12.687  15.471  70.035  1.00  0.00    -0.598 OA 
HETATM   13  C   UNL     1      -7.492  12.046  68.604  1.00  0.00    -0.113 A  
HETATM   14  C   UNL     1     -13.135  13.622  71.364  1.00  0.00    -0.396 A  
HETATM   15  C   UNL     1     -13.015  12.279  71.710  1.00  0.00    -0.431 A  
HETATM   16  C   UNL     1      -6.654  13.125  68.830  1.00  0.00    -0.096 A  
HETATM   17  H   UNL     1     -13.198  16.031  70.607  1.00  0.00     0.000 HD 
HETATM   18  C   UNL     1     -12.291  11.425  70.892  1.00  0.00    -0.483 A  
HETATM   19  C   UNL     1      -7.175  14.419  68.786  1.00  0.00    -0.128 A  
HETATM   20  C   UNL     1      -8.541  14.624  68.540  1.00  0.00    -0.170 A  
HETATM   21  C   UNL     1     -12.052   9.984  71.233  1.00  0.00    -0.487 C  
HETATM   22  C   UNL     1     -11.709  11.939  69.724  1.00  0.00    -0.403 A  
ENDBRANCH   5   6
ENDBRANCH   4   5
BRANCH   4  23
HETATM   23  C   UNL     1      -9.929  10.237  65.438  1.00  0.00    -0.302 C  
HETATM   24  C   UNL     1      -8.409  10.048  65.588  1.00  0.00    -0.148 C  
HETATM   25  C   UNL     1     -10.534   9.524  66.673  1.00  0.00    -0.241 C  
ENDBRANCH   4  23
ENDBRANCH   2   4
TORSDOF 4
ENDMDL
MODEL        7
REMARK 921   NORMALIZED FREE ENERGY PREDICTED BY IDOCK:   -6.29 KCAL/MOL
REMARK 922        TOTAL FREE ENERGY PREDICTED BY IDOCK:   -8.61 KCAL/MOL
REMARK 923 INTER-LIGAND FREE ENERGY PREDICTED BY IDOCK:   -7.37 KCAL/MOL
REMARK 924 INTRA-LIGAND FREE ENERGY PREDICTED BY IDOCK:   -1.24 KCAL/MOL
REMARK 927      BINDING AFFINITY PREDICTED BY RF-SCORE:    0.00 PKD
ROOT
HETATM    1  C   UNL     1      -7.187  16.220  69.314  1.00  0.00    -0.221 C  
HETATM    2  C   UNL     1      -7.434  17.004  68.000  1.00  0.00    -0.182 C  
HETATM    3  C   UNL     1      -7.457  15.930  66.898  1.00  0.00    -0.233 C  
ENDROOT
BRANCH   2   4
HETATM    4  N   UNL     1      -8.658  17.862  68.058  1.00  0.00    -0.249 NA 
BRANCH   4   5
HETATM    5  C   UNL     1      -9.728  17.280  68.911  1.00  0.00    -0.251 C  
BRANCH   5   6
HETATM    6  C   UNL     1     -11.119  17.069  68.282  1.00  0.00    -0.172 C  
HETATM    7  C   UNL     1     -11.868  15.751  68.662  1.00  0.00    -0.287 C  
HETATM    8  C   UNL     1     -12.194  15.570  70.158  1.00  0.00    -0.404 A  
HETATM    9  C   UNL     1     -11.314  14.478  68.000  1.00  0.00    -0.326 A  
HETATM   10  C   UNL     1     -11.948  13.781  66.959  1.00  0.00    -0.413 A  
HETATM   11  C   UNL     1     -11.211  15.346  71.139  1.00  0.00    -0.410 A  
HETATM   12  O   UNL     1     -13.089  14.191  66.329  1.00  0.00    -0.398 OA 
HETATM   13  C   UNL     1     -11.540  15.057  72.463  1.00  0.00    -0.348 A  
HETATM   14  C   UNL     1     -11.445  12.560  66.488  1.00  0.00    -0.418 A  
HETATM   15  C   UNL     1     -10.308  11.989  67.052  1.00  0.00    -0.235 A  
HETATM   16  C   UNL     1     -12.867  15.028  72.857  1.00  0.00    -0.542 A  
HETATM   17  H   UNL     1     -13.518  13.720  65.625  1.00  0.00     0.000 HD 
HETATM   18  C   UNL     1      -9.644  12.655  68.072  1.00  0.00    -0.213 A  
HETATM   19  C   UNL     1     -13.867  15.289  71.918  1.00  0.00    -0.624 A  
HETATM   20  C   UNL     1     -13.532  15.555  70.583  1.00  0.00    -0.104 A  
HETATM   21  C   UNL     1      -8.458  12.073  68.782  1.00  0.00     0.065 C  
HETATM   22  C   UNL     1     -10.132  13.899  68.497  1.00  0.00    -0.234 A  
ENDBRANCH   5   6
ENDBRANCH   4   5
BRANCH   4  23
HETATM   23  C   UNL     1      -8.468  19.325  68.300  1.00  0.00    -0.331 C  
HETATM   24  C   UNL     1      -7.027  19.834  68.115  1.00  0.00    -0.324 C  
HETATM   25  C   UNL     1      -9.318  20.202  67.347  1.00  0.00    -0.513 C  
ENDBRANCH   4  23
ENDBRANCH   2   4
TORSDOF 4
ENDMDL
MODEL        8
REMARK 921   NORMALIZED FREE ENERGY PREDICTED BY IDOCK:   -6.29 KCAL/MOL
REMARK 922        TOTAL FREE ENERGY PREDICTED BY IDOCK:   -8.60 KCAL/MOL
REMARK 923 INTER-LIGAND FREE ENERGY PREDICTED BY IDOCK:   -7.10 KCAL/MOL
REMARK 924 INTRA-LIGAND FREE ENERGY PREDICTED BY IDOCK:   -1.50 KCAL/MOL
REMARK 927      BINDING AFFINITY PREDICTED BY RF-SCORE:    0.00 PKD
ROOT
HETATM    1  C   UNL     1     -11.372  15.949  69.296  1.00  0.00    -0.355 C  
HETATM    2  C   UNL     1     -10.458  16.543  68.194  1.00  0.00    -0.313 C  
HETATM    3  C   UNL     1     -10.256  18.015  68.600  1.00  0.00    -0.385 C  
ENDROOT
BRANCH   2   4
HETATM    4  N   UNL     1      -9.191  15.770  68.013  1.00  0.00    -0.188 NA 
BRANCH   4   5
HETATM    5  C   UNL     1      -9.214  14.456  68.710  1.00  0.00    -0.144 C  
BRANCH   5   6
HETATM    6  C   UNL     1      -8.542  13.257  68.013  1.00  0.00    -0.178 C  
HETATM    7  C   UNL     1      -9.480  12.091  67.563  1.00  0.00    -0.178 C  
HETATM    8  C   UNL     1     -10.562  12.460  66.529  1.00  0.00    -0.261 A  
HETATM    9  C   UNL     1     -10.005  11.205  68.706  1.00  0.00    -0.207 A  
HETATM   10  C   UNL     1      -9.567   9.896  68.964  1.00  0.00    -0.186 A  
HETATM   11  C   UNL     1     -11.660  13.288  66.825  1.00  0.00    -0.408 A  
HETATM   12  O   UNL     1      -8.550   9.270  68.300  1.00  0.00    -0.123 OA 
HETATM   13  C   UNL     1     -12.692  13.502  65.911  1.00  0.00    -0.382 A  
HETATM   14  C   UNL     1     -10.177   9.105  69.946  1.00  0.00    -0.222 A  
HETATM   15  C   UNL     1     -11.253   9.586  70.687  1.00  0.00    -0.364 A  
HETATM   16  C   UNL     1     -12.634  12.928  64.653  1.00  0.00    -0.459 A  
HETATM   17  H   UNL     1      -8.254   8.385  68.475  1.00  0.00     0.000 HD 
HETATM   18  C   UNL     1     -11.705  10.879  70.472  1.00  0.00    -0.441 A  
HETATM   19  C   UNL     1     -11.537  12.136  64.310  1.00  0.00    -0.444 A  
HETATM   20  C   UNL     1     -10.514  11.903  65.241  1.00  0.00    -0.317 A  
HETATM   21  C   UNL     1     -12.904  11.446  71.173  1.00  0.00    -0.440 C  
HETATM   22  C   UNL     1     -11.051  11.675  69.520  1.00  0.00    -0.230 A  
ENDBRANCH   5   6
ENDBRANCH   4   5
BRANCH   4  23
HETATM   23  C   UNL     1      -8.633  15.671  66.629  1.00  0.00    -0.295 C  
HETATM   24  C   UNL     1      -9.663  15.835  65.497  1.00  0.00    -0.255 C  
HETATM   25  C   UNL     1      -7.561  16.751  66.341  1.00  0.00    -0.325 C  
ENDBRANCH   4  23
ENDBRANCH   2   4
TORSDOF 4
ENDMDL
MODEL        9
REMARK 921   NORMALIZED FREE ENERGY PREDICTED BY IDOCK:   -6.25 KCAL/MOL
REMARK 922        TOTAL FREE ENERGY PREDICTED BY IDOCK:   -8.56 KCAL/MOL
REMARK 923 INTER-LIGAND FREE ENERGY PREDICTED BY IDOCK:   -7.59 KCAL/MOL
REMARK 924 INTRA-LIGAND FREE ENERGY PREDICTED BY IDOCK:   -0.97 KCAL/MOL
REMARK 927      BINDING AFFINITY PREDICTED BY RF-SCORE:    0.00 PKD
ROOT
HETATM    1  C   UNL     1      -9.276   9.296  70.534  1.00  0.00    -0.311 C  
HETATM    2  C   UNL     1     -10.153   8.331  69.696  1.00  0.00    -0.199 C  
HETATM    3  C   UNL     1     -11.179   7.763  70.693  1.00  0.00    -0.278 C  
ENDROOT
BRANCH   2   4
HETATM    4  N   UNL     1     -10.753   8.989  68.495  1.00  0.00    -0.148 NA 
BRANCH   4   5
HETATM    5  C   UNL     1     -10.521  10.457  68.467  1.00  0.00    -0.186 C  
BRANCH   5   6
HETATM    6  C   UNL     1     -11.752  11.384  68.487  1.00  0.00    -0.386 C  
HETATM    7  C   UNL     1     -11.693  12.650  67.573  1.00  0.00    -0.429 C  
HETATM    8  C   UNL     1     -11.554  12.383  66.061  1.00  0.00    -0.455 A  
HETATM    9  C   UNL     1     -10.770  13.772  68.082  1.00  0.00    -0.258 A  
HETATM   10  C   UNL     1     -11.218  14.982  68.636  1.00  0.00    -0.278 A  
HETATM   11  C   UNL     1     -10.390  11.852  65.477  1.00  0.00    -0.303 A  
HETATM   12  O   UNL     1     -12.526  15.285  68.889  1.00  0.00    -0.589 OA 
HETATM   13  C   UNL     1     -10.242  11.740  64.094  1.00  0.00    -0.363 A  
HETATM   14  C   UNL     1     -10.322  16.008  68.965  1.00  0.00    -0.242 A  
HETATM   15  C   UNL     1      -8.957  15.868  68.734  1.00  0.00    -0.216 A  
HETATM   16  C   UNL     1     -11.276  12.116  63.254  1.00  0.00    -0.409 A  
HETATM   17  H   UNL     1     -12.829  16.103  69.264  1.00  0.00     0.000 HD 
HETATM   18  C   UNL     1      -8.473  14.682  68.201  1.00  0.00    -0.156 A  
HETATM   19  C   UNL     1     -12.462  12.606  63.803  1.00  0.00    -0.514 A  
HETATM   20  C   UNL     1     -12.597  12.740  65.192  1.00  0.00    -0.513 A  
HETATM   21  C   UNL     1      -7.029  14.479  67.853  1.00  0.00    -0.173 C  
HETATM   22  C   UNL     1      -9.377  13.646  67.925  1.00  0.00    -0.206 A  
ENDBRANCH   5   6
ENDBRANCH   4   5
BRANCH   4  23
HETATM   23  C   UNL     1     -10.516   8.349  67.164  1.00  0.00    -0.310 C  
HETATM   24  C   UNL     1      -9.076   8.464  66.633  1.00  0.00    -0.202 C  
HETATM   25  C   UNL     1     -10.809   6.828  67.174  1.00  0.00    -0.462 C  
ENDBRANCH   4  23
ENDBRANCH   2   4
TORSDOF 4
ENDMDL
MODEL       10
REMARK 921   NORMALIZED FREE ENERGY PREDICTED BY IDOCK:   -6.25 KCAL/MOL
REMARK 922        TOTAL FREE ENERGY PREDICTED BY IDOCK:   -8.55 KCAL/MOL
REMARK 923 INTER-LIGAND FREE ENERGY PREDICTED BY IDOCK:   -7.32 KCAL/MOL
REMARK 924 INTRA-LIGAND FREE ENERGY PREDICTED BY IDOCK:   -1.23 KCAL/MOL
REMARK 927      BINDING AFFINITY PREDICTED BY RF-SCORE:    0.00 PKD
ROOT
HETATM    1  C   UNL     1      -9.304  15.379  69.504  1.00  0.00    -0.252 C  
HETATM    2  C   UNL     1     -10.665  15.954  69.973  1.00  0.00    -0.339 C  
HETATM    3  C   UNL     1     -11.032  17.011  68.915  1.00  0.00    -0.141 C  
ENDROOT
BRANCH   2   4
HETATM    4  N   UNL     1     -11.702  14.896  70.178  1.00  0.00    -0.276 NA 
BRANCH   4   5
HETATM    5  C   UNL     1     -11.234  13.545  69.771  1.00  0.00    -0.001 C  
BRANCH   5   6
HETATM    6  C   UNL     1     -12.137  12.719  68.834  1.00  0.00    -0.175 C  
HETATM    7  C   UNL     1     -11.550  12.359  67.432  1.00  0.00    -0.433 C  
HETATM    8  C   UNL     1     -10.271  11.498  67.438  1.00  0.00    -0.228 A  
HETATM    9  C   UNL     1     -11.492  13.531  66.435  1.00  0.00    -0.356 A  
HETATM   10  C   UNL     1     -12.344  13.678  65.329  1.00  0.00    -0.465 A  
HETATM   11  C   UNL     1      -9.026  11.972  67.886  1.00  0.00    -0.182 A  
HETATM   12  O   UNL     1     -13.399  12.859  65.045  1.00  0.00    -0.682 OA 
HETATM   13  C   UNL     1      -7.859  11.218  67.762  1.00  0.00    -0.115 A  
HETATM   14  C   UNL     1     -12.154  14.706  64.395  1.00  0.00    -0.481 A  
HETATM   15  C   UNL     1     -11.098  15.604  64.525  1.00  0.00    -0.303 A  
HETATM   16  C   UNL     1      -7.912   9.944  67.224  1.00  0.00    -0.109 A  
HETATM   17  H   UNL     1     -13.976  12.959  64.297  1.00  0.00     0.000 HD 
HETATM   18  C   UNL     1     -10.244  15.501  65.612  1.00  0.00    -0.403 A  
HETATM   19  C   UNL     1      -9.140   9.425  66.809  1.00  0.00    -0.168 A  
HETATM   20  C   UNL     1     -10.306  10.197  66.913  1.00  0.00    -0.298 A  
HETATM   21  C   UNL     1      -9.041  16.380  65.785  1.00  0.00    -0.078 C  
HETATM   22  C   UNL     1     -10.478  14.498  66.564  1.00  0.00    -0.285 A  
ENDBRANCH   5   6
ENDBRANCH   4   5
BRANCH   4  23
HETATM   23  C   UNL     1     -12.423  14.879  71.488  1.00  0.00    -0.331 C  
HETATM   24  C   UNL     1     -11.918  15.900  72.523  1.00  0.00    -0.622 C  
HETATM   25  C   UNL     1     -13.934  15.187  71.341  1.00  0.00    -0.595 C  
ENDBRANCH   4  23
ENDBRANCH   2   4
TORSDOF 4
ENDMDL
MODEL       11
REMARK 921   NORMALIZED FREE ENERGY PREDICTED BY IDOCK:   -6.16 KCAL/MOL
REMARK 922        TOTAL FREE ENERGY PREDICTED BY IDOCK:   -8.44 KCAL/MOL
REMARK 923 INTER-LIGAND FREE ENERGY PREDICTED BY IDOCK:   -7.21 KCAL/MOL
REMARK 924 INTRA-LIGAND FREE ENERGY PREDICTED BY IDOCK:   -1.23 KCAL/MOL
REMARK 927      BINDING AFFINITY PREDICTED BY RF-SCORE:    0.00 PKD
ROOT
HETATM    1  C   UNL     1      -8.102   9.276  67.918  1.00  0.00    -0.104 C  
HETATM    2  C   UNL     1      -8.407   9.532  69.416  1.00  0.00    -0.140 C  
HETATM    3  C   UNL     1      -7.376  10.587  69.855  1.00  0.00    -0.116 C  
ENDROOT
BRANCH   2   4
HETATM    4  N   UNL     1      -9.832   9.917  69.660  1.00  0.00    -0.219 NA 
BRANCH   4   5
HETATM    5  C   UNL     1     -10.586  10.159  68.401  1.00  0.00    -0.217 C  
BRANCH   5   6
HETATM    6  C   UNL     1     -11.771  11.143  68.446  1.00  0.00    -0.349 C  
HETATM    7  C   UNL     1     -11.647  12.433  67.573  1.00  0.00    -0.431 C  
HETATM    8  C   UNL     1     -11.513  12.207  66.055  1.00  0.00    -0.427 A  
HETATM    9  C   UNL     1     -10.674  13.493  68.121  1.00  0.00    -0.265 A  
HETATM   10  C   UNL     1     -11.066  14.704  68.712  1.00  0.00    -0.260 A  
HETATM   11  C   UNL     1     -10.374  11.640  65.457  1.00  0.00    -0.309 A  
HETATM   12  O   UNL     1     -12.359  15.062  68.969  1.00  0.00    -0.567 OA 
HETATM   13  C   UNL     1     -10.224  11.564  64.073  1.00  0.00    -0.394 A  
HETATM   14  C   UNL     1     -10.124  15.675  69.076  1.00  0.00    -0.227 A  
HETATM   15  C   UNL     1      -8.765  15.477  68.845  1.00  0.00    -0.206 A  
HETATM   16  C   UNL     1     -11.235  12.016  63.241  1.00  0.00    -0.403 A  
HETATM   17  H   UNL     1     -12.625  15.881  69.369  1.00  0.00     0.000 HD 
HETATM   18  C   UNL     1      -8.337  14.286  68.277  1.00  0.00    -0.165 A  
HETATM   19  C   UNL     1     -12.399  12.545  63.801  1.00  0.00    -0.595 A  
HETATM   20  C   UNL     1     -12.534  12.641  65.194  1.00  0.00    -0.531 A  
HETATM   21  C   UNL     1      -6.902  14.025  67.927  1.00  0.00    -0.172 C  
HETATM   22  C   UNL     1      -9.288  13.304  67.964  1.00  0.00    -0.218 A  
ENDBRANCH   5   6
ENDBRANCH   4   5
BRANCH   4  23
HETATM   23  C   UNL     1     -10.611   9.104  70.643  1.00  0.00    -0.246 C  
HETATM   24  C   UNL     1     -11.026   7.707  70.149  1.00  0.00    -0.255 C  
HETATM   25  C   UNL     1      -9.825   8.837  71.951  1.00  0.00    -0.395 C  
ENDBRANCH   4  23
ENDBRANCH   2   4
TORSDOF 4
ENDMDL
MODEL       12
REMARK 921   NORMALIZED FREE ENERGY PREDICTED BY IDOCK:   -6.16 KCAL/MOL
REMARK 922        TOTAL FREE ENERGY PREDICTED BY IDOCK:   -8.44 KCAL/MOL
REMARK 923 INTER-LIGAND FREE ENERGY PREDICTED BY IDOCK:   -7.58 KCAL/MOL
REMARK 924 INTRA-LIGAND FREE ENERGY PREDICTED BY IDOCK:   -0.86 KCAL/MOL
REMARK 927      BINDING AFFINITY PREDICTED BY RF-SCORE:    0.00 PKD
ROOT
HETATM    1  C   UNL     1     -12.487  14.366  70.229  1.00  0.00    -0.413 C  
HETATM    2  C   UNL     1     -12.448  13.216  71.268  1.00  0.00    -0.232 C  
HETATM    3  C   UNL     1     -13.672  13.458  72.170  1.00  0.00    -0.646 C  
ENDROOT
BRANCH   2   4
HETATM    4  N   UNL     1     -12.402  11.863  70.633  1.00  0.00    -0.349 NA 
BRANCH   4   5
HETATM    5  C   UNL     1     -11.537  11.823  69.424  1.00  0.00    -0.322 C  
BRANCH   5   6
HETATM    6  C   UNL     1     -12.124  11.217  68.134  1.00  0.00    -0.009 C  
HETATM    7  C   UNL     1     -11.297  11.418  66.824  1.00  0.00    -0.252 C  
HETATM    8  C   UNL     1      -9.885  10.800  66.820  1.00  0.00    -0.233 A  
HETATM    9  C   UNL     1     -11.342  12.842  66.242  1.00  0.00    -0.365 A  
HETATM   10  C   UNL     1     -12.052  13.208  65.088  1.00  0.00    -0.421 A  
HETATM   11  C   UNL     1      -8.829  11.285  67.612  1.00  0.00    -0.138 A  
HETATM   12  O   UNL     1     -12.875  12.376  64.384  1.00  0.00    -0.683 OA 
HETATM   13  C   UNL     1      -7.529  10.792  67.496  1.00  0.00    -0.093 A  
HETATM   14  C   UNL     1     -11.949  14.497  64.548  1.00  0.00    -0.482 A  
HETATM   15  C   UNL     1     -11.121  15.453  65.130  1.00  0.00    -0.402 A  
HETATM   16  C   UNL     1      -7.255   9.765  66.609  1.00  0.00    -0.090 A  
HETATM   17  H   UNL     1     -13.356  12.624  63.603  1.00  0.00     0.000 HD 
HETATM   18  C   UNL     1     -10.414  15.134  66.280  1.00  0.00    -0.312 A  
HETATM   19  C   UNL     1      -8.288   9.230  65.838  1.00  0.00    -0.122 A  
HETATM   20  C   UNL     1      -9.588   9.746  65.941  1.00  0.00    -0.313 A  
HETATM   21  C   UNL     1      -9.445  16.080  66.925  1.00  0.00    -0.242 C  
HETATM   22  C   UNL     1     -10.568  13.856  66.836  1.00  0.00    -0.280 A  
ENDBRANCH   5   6
ENDBRANCH   4   5
BRANCH   4  23
HETATM   23  C   UNL     1     -12.185  10.685  71.528  1.00  0.00    -0.244 C  
HETATM   24  C   UNL     1     -13.410   9.772  71.714  1.00  0.00    -0.506 C  
HETATM   25  C   UNL     1     -11.070   9.742  71.011  1.00  0.00    -0.431 C  
ENDBRANCH   4  23
ENDBRANCH   2   4
TORSDOF 4
ENDMDL
MODEL       13
REMARK 921   NORMALIZED FREE ENERGY PREDICTED BY IDOCK:   -6.12 KCAL/MOL
REMARK 922        TOTAL FREE ENERGY PREDICTED BY IDOCK:   -8.39 KCAL/MOL
REMARK 923 INTER-LIGAND FREE ENERGY PREDICTED BY IDOCK:   -7.41 KCAL/MOL
REMARK 924 INTRA-LIGAND FREE ENERGY PREDICTED BY IDOCK:   -0.99 KCAL/MOL
REMARK 927      BINDING AFFINITY PREDICTED BY RF-SCORE:    0.00 PKD
ROOT
HETATM    1  C   UNL     1      -8.914  10.664  63.068  1.00  0.00    -0.254 C  
HETATM    2  C   UNL     1      -9.683  10.275  64.357  1.00  0.00    -0.315 C  
HETATM    3  C   UNL     1      -8.588  10.043  65.415  1.00  0.00    -0.162 C  
ENDROOT
BRANCH   2   4
HETATM    4  N   UNL     1     -10.715  11.286  64.743  1.00  0.00    -0.305 NA 
BRANCH   4   5
HETATM    5  C   UNL     1     -10.601  11.712  66.163  1.00  0.00    -0.262 C  
BRANCH   5   6
HETATM    6  C   UNL     1     -11.885  11.740  67.015  1.00  0.00    -0.126 C  
HETATM    7  C   UNL     1     -11.714  12.078  68.531  1.00  0.00    -0.387 C  
HETATM    8  C   UNL     1     -11.124  13.466  68.848  1.00  0.00    -0.307 A  
HETATM    9  C   UNL     1     -11.107  10.948  69.382  1.00  0.00    -0.317 A  
HETATM   10  C   UNL     1     -11.829  10.165  70.296  1.00  0.00    -0.261 A  
HETATM   11  C   UNL     1      -9.790  13.817  68.575  1.00  0.00    -0.204 A  
HETATM   12  O   UNL     1     -13.181  10.232  70.483  1.00  0.00    -0.542 OA 
HETATM   13  C   UNL     1      -9.244  15.033  68.987  1.00  0.00    -0.205 A  
HETATM   14  C   UNL     1     -11.186   9.236  71.126  1.00  0.00    -0.413 A  
HETATM   15  C   UNL     1      -9.804   9.074  71.082  1.00  0.00    -0.371 A  
HETATM   16  C   UNL     1     -10.035  15.957  69.650  1.00  0.00    -0.255 A  
HETATM   17  H   UNL     1     -13.669   9.702  71.101  1.00  0.00     0.000 HD 
HETATM   18  C   UNL     1      -9.058   9.818  70.181  1.00  0.00    -0.240 A  
HETATM   19  C   UNL     1     -11.375  15.659  69.899  1.00  0.00    -0.340 A  
HETATM   20  C   UNL     1     -11.912  14.425  69.504  1.00  0.00    -0.376 A  
HETATM   21  C   UNL     1      -7.561   9.758  70.123  1.00  0.00    -0.180 C  
HETATM   22  C   UNL     1      -9.722  10.707  69.323  1.00  0.00    -0.181 A  
ENDBRANCH   5   6
ENDBRANCH   4   5
BRANCH   4  23
HETATM   23  C   UNL     1     -10.934  12.440  63.818  1.00  0.00    -0.447 C  
HETATM   24  C   UNL     1     -12.385  12.623  63.337  1.00  0.00    -0.553 C  
HETATM   25  C   UNL     1     -10.562  13.799  64.462  1.00  0.00    -0.405 C  
ENDBRANCH   4  23
ENDBRANCH   2   4
TORSDOF 4
ENDMDL
MODEL       14
REMARK 921   NORMALIZED FREE ENERGY PREDICTED BY IDOCK:   -6.10 KCAL/MOL
REMARK 922        TOTAL FREE ENERGY PREDICTED BY IDOCK:   -8.37 KCAL/MOL
REMARK 923 INTER-LIGAND FREE ENERGY PREDICTED BY IDOCK:   -7.16 KCAL/MOL
REMARK 924 INTRA-LIGAND FREE ENERGY PREDICTED BY IDOCK:   -1.21 KCAL/MOL
REMARK 927      BINDING AFFINITY PREDICTED BY RF-SCORE:    0.00 PKD
ROOT
HETATM    1  C   UNL     1     -10.515   9.016  68.325  1.00  0.00    -0.247 C  
HETATM    2  C   UNL     1     -10.630   9.341  69.836  1.00  0.00    -0.226 C  
HETATM    3  C   UNL     1      -9.183   9.588  70.299  1.00  0.00    -0.303 C  
ENDROOT
BRANCH   2   4
HETATM    4  N   UNL     1     -11.572  10.469  70.116  1.00  0.00    -0.300 NA 
BRANCH   4   5
HETATM    5  C   UNL     1     -11.921  11.244  68.896  1.00  0.00    -0.310 C  
BRANCH   5   6
HETATM    6  C   UNL     1     -11.889  12.783  68.983  1.00  0.00    -0.344 C  
HETATM    7  C   UNL     1     -11.015  13.527  67.923  1.00  0.00    -0.275 C  
HETATM    8  C   UNL     1     -11.428  13.327  66.451  1.00  0.00    -0.364 A  
HETATM    9  C   UNL     1      -9.496  13.427  68.150  1.00  0.00    -0.218 A  
HETATM   10  C   UNL     1      -8.690  14.478  68.613  1.00  0.00    -0.172 A  
HETATM   11  C   UNL     1     -11.288  12.104  65.771  1.00  0.00    -0.402 A  
HETATM   12  O   UNL     1      -9.155  15.698  69.015  1.00  0.00    -0.204 OA 
HETATM   13  C   UNL     1     -11.547  11.982  64.406  1.00  0.00    -0.411 A  
HETATM   14  C   UNL     1      -7.295  14.351  68.679  1.00  0.00    -0.123 A  
HETATM   15  C   UNL     1      -6.663  13.180  68.269  1.00  0.00    -0.101 A  
HETATM   16  C   UNL     1     -11.999  13.076  63.687  1.00  0.00    -0.608 A  
HETATM   17  H   UNL     1      -8.609  16.409  69.328  1.00  0.00     0.000 HD 
HETATM   18  C   UNL     1      -7.427  12.113  67.821  1.00  0.00    -0.122 A  
HETATM   19  C   UNL     1     -12.191  14.295  64.339  1.00  0.00    -0.471 A  
HETATM   20  C   UNL     1     -11.905  14.418  65.707  1.00  0.00    -0.365 A  
HETATM   21  C   UNL     1      -6.821  10.848  67.292  1.00  0.00    -0.084 C  
HETATM   22  C   UNL     1      -8.824  12.239  67.808  1.00  0.00    -0.174 A  
ENDBRANCH   5   6
ENDBRANCH   4   5
BRANCH   4  23
HETATM   23  C   UNL     1     -12.767  10.178  70.967  1.00  0.00    -0.386 C  
HETATM   24  C   UNL     1     -12.585   9.029  71.974  1.00  0.00    -0.464 C  
HETATM   25  C   UNL     1     -13.191  11.392  71.832  1.00  0.00    -0.485 C  
ENDBRANCH   4  23
ENDBRANCH   2   4
TORSDOF 4
ENDMDL
MODEL       15
REMARK 921   NORMALIZED FREE ENERGY PREDICTED BY IDOCK:   -6.09 KCAL/MOL
REMARK 922        TOTAL FREE ENERGY PREDICTED BY IDOCK:   -8.36 KCAL/MOL
REMARK 923 INTER-LIGAND FREE ENERGY PREDICTED BY IDOCK:   -7.20 KCAL/MOL
REMARK 924 INTRA-LIGAND FREE ENERGY PREDICTED BY IDOCK:   -1.16 KCAL/MOL
REMARK 927      BINDING AFFINITY PREDICTED BY RF-SCORE:    0.00 PKD
ROOT
HETATM    1  C   UNL     1     -12.487  11.616  70.746  1.00  0.00    -0.425 C  
HETATM    2  C   UNL     1     -11.359  10.565  70.586  1.00  0.00    -0.275 C  
HETATM    3  C   UNL     1     -11.776   9.396  71.497  1.00  0.00    -0.465 C  
ENDROOT
BRANCH   2   4
HETATM    4  N   UNL     1     -11.118  10.185  69.160  1.00  0.00    -0.224 NA 
BRANCH   4   5
HETATM    5  C   UNL     1     -10.834  11.359  68.292  1.00  0.00    -0.209 C  
BRANCH   5   6
HETATM    6  C   UNL     1     -11.774  11.620  67.099  1.00  0.00    -0.215 C  
HETATM    7  C   UNL     1     -11.117  12.184  65.798  1.00  0.00    -0.362 C  
HETATM    8  C   UNL     1     -10.052  11.287  65.139  1.00  0.00    -0.326 A  
HETATM    9  C   UNL     1     -10.707  13.666  65.871  1.00  0.00    -0.281 A  
HETATM   10  C   UNL     1     -11.379  14.711  65.218  1.00  0.00    -0.354 A  
HETATM   11  C   UNL     1      -8.795  11.033  65.716  1.00  0.00    -0.200 A  
HETATM   12  O   UNL     1     -12.540  14.570  64.513  1.00  0.00    -0.644 OA 
HETATM   13  C   UNL     1      -7.801  10.323  65.041  1.00  0.00    -0.133 A  
HETATM   14  C   UNL     1     -10.877  16.020  65.230  1.00  0.00    -0.376 A  
HETATM   15  C   UNL     1      -9.682  16.322  65.877  1.00  0.00    -0.354 A  
HETATM   16  C   UNL     1      -8.052   9.807  63.781  1.00  0.00    -0.149 A  
HETATM   17  H   UNL     1     -12.995  15.277  64.071  1.00  0.00     0.000 HD 
HETATM   18  C   UNL     1      -8.996  15.319  66.546  1.00  0.00    -0.340 A  
HETATM   19  C   UNL     1      -9.305  10.004  63.197  1.00  0.00    -0.297 A  
HETATM   20  C   UNL     1     -10.292  10.739  63.869  1.00  0.00    -0.329 A  
HETATM   21  C   UNL     1      -7.667  15.545  67.203  1.00  0.00    -0.257 C  
HETATM   22  C   UNL     1      -9.538  14.026  66.567  1.00  0.00    -0.307 A  
ENDBRANCH   5   6
ENDBRANCH   4   5
BRANCH   4  23
HETATM   23  C   UNL     1     -10.191   9.042  68.895  1.00  0.00    -0.208 C  
HETATM   24  C   UNL     1     -10.379   8.355  67.531  1.00  0.00    -0.333 C  
HETATM   25  C   UNL     1      -8.701   9.466  68.917  1.00  0.00    -0.132 C  
ENDBRANCH   4  23
ENDBRANCH   2   4
TORSDOF 4
ENDMDL
MODEL       16
REMARK 921   NORMALIZED FREE ENERGY PREDICTED BY IDOCK:   -6.09 KCAL/MOL
REMARK 922        TOTAL FREE ENERGY PREDICTED BY IDOCK:   -8.36 KCAL/MOL
REMARK 923 INTER-LIGAND FREE ENERGY PREDICTED BY IDOCK:   -7.43 KCAL/MOL
REMARK 924 INTRA-LIGAND FREE ENERGY PREDICTED BY IDOCK:   -0.92 KCAL/MOL
REMARK 927      BINDING AFFINITY PREDICTED BY RF-SCORE:    0.00 PKD
ROOT
HETATM    1  C   UNL     1      -9.714  20.369  67.546  1.00  0.00    -0.571 C  
HETATM    2  C   UNL     1      -9.127  18.972  67.220  1.00  0.00    -0.283 C  
HETATM    3  C   UNL     1      -8.080  19.230  66.121  1.00  0.00    -0.294 C  
ENDROOT
BRANCH   2   4
HETATM    4  N   UNL     1      -8.597  18.269  68.429  1.00  0.00    -0.295 NA 
BRANCH   4   5
HETATM    5  C   UNL     1      -9.456  17.133  68.857  1.00  0.00    -0.217 C  
BRANCH   5   6
HETATM    6  C   UNL     1     -10.846  16.993  68.207  1.00  0.00    -0.341 C  
HETATM    7  C   UNL     1     -11.662  15.710  68.566  1.00  0.00    -0.339 C  
HETATM    8  C   UNL     1     -12.018  15.534  70.055  1.00  0.00    -0.385 A  
HETATM    9  C   UNL     1     -11.159  14.416  67.901  1.00  0.00    -0.288 A  
HETATM   10  C   UNL     1     -11.811  13.758  66.845  1.00  0.00    -0.413 A  
HETATM   11  C   UNL     1     -11.062  15.256  71.048  1.00  0.00    -0.337 A  
HETATM   12  O   UNL     1     -12.921  14.227  66.203  1.00  0.00    -0.454 OA 
HETATM   13  C   UNL     1     -11.423  14.973  72.365  1.00  0.00    -0.285 A  
HETATM   14  C   UNL     1     -11.359  12.518  66.372  1.00  0.00    -0.379 A  
HETATM   15  C   UNL     1     -10.259  11.889  66.948  1.00  0.00    -0.233 A  
HETATM   16  C   UNL     1     -12.756  15.005  72.739  1.00  0.00    -0.494 A  
HETATM   17  H   UNL     1     -13.361  13.781  65.489  1.00  0.00     0.000 HD 
HETATM   18  C   UNL     1      -9.580  12.515  67.982  1.00  0.00    -0.212 A  
HETATM   19  C   UNL     1     -13.729  15.320  71.789  1.00  0.00    -0.605 A  
HETATM   20  C   UNL     1     -13.361  15.579  70.460  1.00  0.00    -0.079 A  
HETATM   21  C   UNL     1      -8.433  11.873  68.705  1.00  0.00    -0.045 C  
HETATM   22  C   UNL     1     -10.013  13.778  68.411  1.00  0.00    -0.229 A  
ENDBRANCH   5   6
ENDBRANCH   4   5
BRANCH   4  23
HETATM   23  C   UNL     1      -7.142  17.922  68.446  1.00  0.00    -0.245 C  
HETATM   24  C   UNL     1      -6.328  18.582  69.573  1.00  0.00    -0.257 C  
HETATM   25  C   UNL     1      -6.895  16.403  68.624  1.00  0.00    -0.152 C  
ENDBRANCH   4  23
ENDBRANCH   2   4
TORSDOF 4
ENDMDL
MODEL       17
REMARK 921   NORMALIZED FREE ENERGY PREDICTED BY IDOCK:   -6.08 KCAL/MOL
REMARK 922        TOTAL FREE ENERGY PREDICTED BY IDOCK:   -8.35 KCAL/MOL
REMARK 923 INTER-LIGAND FREE ENERGY PREDICTED BY IDOCK:   -7.33 KCAL/MOL
REMARK 924 INTRA-LIGAND FREE ENERGY PREDICTED BY IDOCK:   -1.01 KCAL/MOL
REMARK 927      BINDING AFFINITY PREDICTED BY RF-SCORE:    0.00 PKD
ROOT
HETATM    1  C   UNL     1     -12.648  14.922  69.708  1.00  0.00    -0.147 C  
HETATM    2  C   UNL     1     -11.541  15.895  70.188  1.00  0.00    -0.351 C  
HETATM    3  C   UNL     1     -11.122  15.364  71.572  1.00  0.00    -0.295 C  
ENDROOT
BRANCH   2   4
HETATM    4  N   UNL     1     -10.419  16.025  69.208  1.00  0.00    -0.237 NA 
BRANCH   4   5
HETATM    5  C   UNL     1     -10.581  15.136  68.027  1.00  0.00    -0.258 C  
BRANCH   5   6
HETATM    6  C   UNL     1      -9.345  14.357  67.534  1.00  0.00    -0.198 C  
HETATM    7  C   UNL     1      -9.584  12.885  67.068  1.00  0.00    -0.231 C  
HETATM    8  C   UNL     1     -10.538  12.705  65.871  1.00  0.00    -0.297 A  
HETATM    9  C   UNL     1      -9.834  11.879  68.205  1.00  0.00    -0.199 A  
HETATM   10  C   UNL     1      -8.908  10.915  68.634  1.00  0.00    -0.158 A  
HETATM   11  C   UNL     1     -11.920  12.952  65.944  1.00  0.00    -0.504 A  
HETATM   12  O   UNL     1      -7.628  10.804  68.169  1.00  0.00    -0.088 OA 
HETATM   13  C   UNL     1     -12.781  12.660  64.887  1.00  0.00    -0.450 A  
HETATM   14  C   UNL     1      -9.251   9.952  69.593  1.00  0.00    -0.246 A  
HETATM   15  C   UNL     1     -10.531   9.909  70.138  1.00  0.00    -0.339 A  
HETATM   16  C   UNL     1     -12.276  12.149  63.703  1.00  0.00    -0.663 A  
HETATM   17  H   UNL     1      -7.002  10.152  68.460  1.00  0.00     0.000 HD 
HETATM   18  C   UNL     1     -11.470  10.854  69.751  1.00  0.00    -0.390 A  
HETATM   19  C   UNL     1     -10.902  11.933  63.580  1.00  0.00    -0.510 A  
HETATM   20  C   UNL     1     -10.044  12.206  64.656  1.00  0.00    -0.282 A  
HETATM   21  C   UNL     1     -12.889  10.831  70.234  1.00  0.00    -0.226 C  
HETATM   22  C   UNL     1     -11.095  11.841  68.828  1.00  0.00    -0.293 A  
ENDBRANCH   5   6
ENDBRANCH   4   5
BRANCH   4  23
HETATM   23  C   UNL     1      -9.990  17.406  68.827  1.00  0.00    -0.329 C  
HETATM   24  C   UNL     1      -8.476  17.580  68.606  1.00  0.00    -0.258 C  
HETATM   25  C   UNL     1     -10.635  17.887  67.504  1.00  0.00    -0.386 C  
ENDBRANCH   4  23
ENDBRANCH   2   4
TORSDOF 4
ENDMDL
MODEL       18
REMARK 921   NORMALIZED FREE ENERGY PREDICTED BY IDOCK:   -6.05 KCAL/MOL
REMARK 922        TOTAL FREE ENERGY PREDICTED BY IDOCK:   -8.31 KCAL/MOL
REMARK 923 INTER-LIGAND FREE ENERGY PREDICTED BY IDOCK:   -6.92 KCAL/MOL
REMARK 924 INTRA-LIGAND FREE ENERGY PREDICTED BY IDOCK:   -1.38 KCAL/MOL
REMARK 927      BINDING AFFINITY PREDICTED BY RF-SCORE:    0.00 PKD
ROOT
HETATM    1  C   UNL     1     -12.152  14.797  64.427  1.00  0.00    -0.457 C  
HETATM    2  C   UNL     1     -11.762  13.352  64.829  1.00  0.00    -0.361 C  
HETATM    3  C   UNL     1     -11.893  12.532  63.532  1.00  0.00    -0.616 C  
ENDROOT
BRANCH   2   4
HETATM    4  N   UNL     1     -10.417  13.274  65.479  1.00  0.00    -0.282 NA 
BRANCH   4   5
HETATM    5  C   UNL     1      -9.815  14.613  65.719  1.00  0.00    -0.328 C  
BRANCH   5   6
HETATM    6  C   UNL     1      -8.717  14.729  66.795  1.00  0.00    -0.255 C  
HETATM    7  C   UNL     1      -8.939  15.799  67.912  1.00  0.00    -0.180 C  
HETATM    8  C   UNL     1     -10.190  15.604  68.791  1.00  0.00    -0.215 A  
HETATM    9  C   UNL     1      -8.731  17.256  67.461  1.00  0.00    -0.212 A  
HETATM   10  C   UNL     1      -7.627  18.048  67.815  1.00  0.00    -0.220 A  
HETATM   11  C   UNL     1     -11.502  15.768  68.312  1.00  0.00    -0.338 A  
HETATM   12  O   UNL     1      -6.545  17.605  68.522  1.00  0.00    -0.189 OA 
HETATM   13  C   UNL     1     -12.610  15.713  69.157  1.00  0.00     0.325 A  
HETATM   14  C   UNL     1      -7.564  19.405  67.469  1.00  0.00    -0.282 A  
HETATM   15  C   UNL     1      -8.606  20.017  66.779  1.00  0.00    -0.396 A  
HETATM   16  C   UNL     1     -12.441  15.446  70.505  1.00  0.00    -0.468 A  
HETATM   17  H   UNL     1      -5.798  18.141  68.761  1.00  0.00     0.000 HD 
HETATM   18  C   UNL     1      -9.707  19.264  66.398  1.00  0.00    -0.435 A  
HETATM   19  C   UNL     1     -11.155  15.235  71.007  1.00  0.00    -0.337 A  
HETATM   20  C   UNL     1     -10.042  15.316  70.157  1.00  0.00    -0.116 A  
HETATM   21  C   UNL     1     -10.903  19.862  65.719  1.00  0.00    -0.333 C  
HETATM   22  C   UNL     1      -9.732  17.896  66.708  1.00  0.00    -0.314 A  
ENDBRANCH   5   6
ENDBRANCH   4   5
BRANCH   4  23
HETATM   23  C   UNL     1     -10.269  12.363  66.656  1.00  0.00    -0.224 C  
HETATM   24  C   UNL     1     -11.518  12.240  67.546  1.00  0.00    -0.414 C  
HETATM   25  C   UNL     1      -9.938  10.907  66.243  1.00  0.00    -0.274 C  
ENDBRANCH   4  23
ENDBRANCH   2   4
TORSDOF 4
ENDMDL
MODEL       19
REMARK 921   NORMALIZED FREE ENERGY PREDICTED BY IDOCK:   -6.04 KCAL/MOL
REMARK 922        TOTAL FREE ENERGY PREDICTED BY IDOCK:   -8.30 KCAL/MOL
REMARK 923 INTER-LIGAND FREE ENERGY PREDICTED BY IDOCK:   -7.20 KCAL/MOL
REMARK 924 INTRA-LIGAND FREE ENERGY PREDICTED BY IDOCK:   -1.09 KCAL/MOL
REMARK 927      BINDING AFFINITY PREDICTED BY RF-SCORE:    0.00 PKD
ROOT
HETATM    1  C   UNL     1     -12.376  14.256  66.342  1.00  0.00    -0.378 C  
HETATM    2  C   UNL     1     -11.476  14.342  65.083  1.00  0.00    -0.351 C  
HETATM    3  C   UNL     1     -10.556  15.550  65.336  1.00  0.00    -0.428 C  
ENDROOT
BRANCH   2   4
HETATM    4  N   UNL     1     -10.756  13.062  64.797  1.00  0.00    -0.332 NA 
BRANCH   4   5
HETATM    5  C   UNL     1     -10.794  12.112  65.941  1.00  0.00    -0.278 C  
BRANCH   5   6
HETATM    6  C   UNL     1      -9.461  11.505  66.421  1.00  0.00    -0.230 C  
HETATM    7  C   UNL     1      -9.107  11.695  67.931  1.00  0.00    -0.171 C  
HETATM    8  C   UNL     1     -10.092  11.068  68.936  1.00  0.00    -0.212 A  
HETATM    9  C   UNL     1      -8.662  13.117  68.317  1.00  0.00    -0.165 A  
HETATM   10  C   UNL     1      -7.342  13.483  68.622  1.00  0.00    -0.112 A  
HETATM   11  C   UNL     1     -11.398  11.548  69.138  1.00  0.00    -0.351 A  
HETATM   12  O   UNL     1      -6.261  12.654  68.522  1.00  0.00    -0.061 OA 
HETATM   13  C   UNL     1     -12.224  11.047  70.143  1.00  0.00    -0.424 A  
HETATM   14  C   UNL     1      -7.031  14.769  69.084  1.00  0.00    -0.138 A  
HETATM   15  C   UNL     1      -8.028  15.722  69.275  1.00  0.00    -0.239 A  
HETATM   16  C   UNL     1     -11.782  10.014  70.952  1.00  0.00    -0.462 A  
HETATM   17  H   UNL     1      -5.368  12.901  68.728  1.00  0.00     0.000 HD 
HETATM   18  C   UNL     1      -9.343  15.403  68.970  1.00  0.00    -0.232 A  
HETATM   19  C   UNL     1     -10.507   9.483  70.751  1.00  0.00    -0.384 A  
HETATM   20  C   UNL     1      -9.671  10.008  69.755  1.00  0.00    -0.259 A  
HETATM   21  C   UNL     1     -10.484  16.344  69.217  1.00  0.00    -0.303 C  
HETATM   22  C   UNL     1      -9.630  14.128  68.461  1.00  0.00    -0.214 A  
ENDBRANCH   5   6
ENDBRANCH   4   5
BRANCH   4  23
HETATM   23  C   UNL     1     -11.030  12.390  63.490  1.00  0.00    -0.450 C  
HETATM   24  C   UNL     1     -10.234  11.097  63.242  1.00  0.00    -0.403 C  
HETATM   25  C   UNL     1     -12.514  11.971  63.335  1.00  0.00    -0.625 C  
ENDBRANCH   4  23
ENDBRANCH   2   4
TORSDOF 4
ENDMDL
MODEL       20
REMARK 921   NORMALIZED FREE ENERGY PREDICTED BY IDOCK:   -5.98 KCAL/MOL
REMARK 922        TOTAL FREE ENERGY PREDICTED BY IDOCK:   -8.22 KCAL/MOL
REMARK 923 INTER-LIGAND FREE ENERGY PREDICTED BY IDOCK:   -7.04 KCAL/MOL
REMARK 924 INTRA-LIGAND FREE ENERGY PREDICTED BY IDOCK:   -1.19 KCAL/MOL
REMARK 927      BINDING AFFINITY PREDICTED BY RF-SCORE:    0.00 PKD
ROOT
HETATM    1  C   UNL     1      -9.874  15.545  65.206  1.00  0.00    -0.201 C  
HETATM    2  C   UNL     1     -11.191  14.728  65.228  1.00  0.00    -0.366 C  
HETATM    3  C   UNL     1     -12.077  15.377  64.149  1.00  0.00    -0.104 C  
ENDROOT
BRANCH   2   4
HETATM    4  N   UNL     1     -10.966  13.261  65.047  1.00  0.00    -0.301 NA 
BRANCH   4   5
HETATM    5  C   UNL     1     -11.552  12.448  66.146  1.00  0.00    -0.396 C  
BRANCH   5   6
HETATM    6  C   UNL     1     -12.245  13.192  67.305  1.00  0.00    -0.234 C  
HETATM    7  C   UNL     1     -11.485  13.227  68.670  1.00  0.00    -0.339 C  
HETATM    8  C   UNL     1     -10.110  13.922  68.657  1.00  0.00    -0.203 A  
HETATM    9  C   UNL     1     -11.490  11.898  69.446  1.00  0.00    -0.366 A  
HETATM   10  C   UNL     1     -12.247  11.655  70.604  1.00  0.00    -0.366 A  
HETATM   11  C   UNL     1      -8.986  13.396  67.996  1.00  0.00    -0.190 A  
HETATM   12  O   UNL     1     -13.151  12.527  71.140  1.00  0.00    -0.207 OA 
HETATM   13  C   UNL     1      -7.723  13.976  68.106  1.00  0.00    -0.143 A  
HETATM   14  C   UNL     1     -12.107  10.463  71.328  1.00  0.00    -0.461 A  
HETATM   15  C   UNL     1     -11.198   9.487  70.931  1.00  0.00    -0.411 A  
HETATM   16  C   UNL     1      -7.555  15.133  68.849  1.00  0.00    -0.148 A  
HETATM   17  H   UNL     1     -13.663  12.363  71.923  1.00  0.00     0.000 HD 
HETATM   18  C   UNL     1     -10.444   9.683  69.784  1.00  0.00    -0.263 A  
HETATM   19  C   UNL     1      -8.658  15.707  69.483  1.00  0.00    -0.191 A  
HETATM   20  C   UNL     1      -9.921  15.105  69.389  1.00  0.00    -0.232 A  
HETATM   21  C   UNL     1      -9.391   8.716  69.330  1.00  0.00    -0.150 C  
HETATM   22  C   UNL     1     -10.631  10.859  69.043  1.00  0.00    -0.248 A  
ENDBRANCH   5   6
ENDBRANCH   4   5
BRANCH   4  23
HETATM   23  C   UNL     1     -11.246  12.679  63.698  1.00  0.00    -0.466 C  
HETATM   24  C   UNL     1     -10.246  11.607  63.231  1.00  0.00    -0.445 C  
HETATM   25  C   UNL     1     -12.628  11.983  63.624  1.00  0.00    -0.605 C  
ENDBRANCH   4  23
ENDBRANCH   2   4
TORSDOF 4
ENDMDL
MODEL       21
REMARK 921   NORMALIZED FREE ENERGY PREDICTED BY IDOCK:   -5.97 KCAL/MOL
REMARK 922        TOTAL FREE ENERGY PREDICTED BY IDOCK:   -8.21 KCAL/MOL
REMARK 923 INTER-LIGAND FREE ENERGY PREDICTED BY IDOCK:   -7.39 KCAL/MOL
REMARK 924 INTRA-LIGAND FREE ENERGY PREDICTED BY IDOCK:   -0.82 KCAL/MOL
REMARK 927      BINDING AFFINITY PREDICTED BY RF-SCORE:    0.00 PKD
ROOT
HETATM    1  C   UNL     1     -11.975  14.066  64.072  1.00  0.00    -0.388 C  
HETATM    2  C   UNL     1     -12.063  12.565  64.450  1.00  0.00    -0.424 C  
HETATM    3  C   UNL     1     -12.753  11.895  63.248  1.00  0.00    -0.407 C  
ENDROOT
BRANCH   2   4
HETATM    4  N   UNL     1     -10.734  11.980  64.810  1.00  0.00    -0.293 NA 
BRANCH   4   5
HETATM    5  C   UNL     1     -10.617  11.665  66.258  1.00  0.00    -0.258 C  
BRANCH   5   6
HETATM    6  C   UNL     1     -11.900  11.699  67.112  1.00  0.00    -0.090 C  
HETATM    7  C   UNL     1     -11.728  12.062  68.622  1.00  0.00    -0.380 C  
HETATM    8  C   UNL     1     -11.145  13.458  68.916  1.00  0.00    -0.307 A  
HETATM    9  C   UNL     1     -11.115  10.949  69.489  1.00  0.00    -0.326 A  
HETATM   10  C   UNL     1     -11.832  10.176  70.417  1.00  0.00    -0.288 A  
HETATM   11  C   UNL     1      -9.813  13.811  68.635  1.00  0.00    -0.158 A  
HETATM   12  O   UNL     1     -13.183  10.240  70.604  1.00  0.00    -0.519 OA 
HETATM   13  C   UNL     1      -9.273  15.036  69.028  1.00  0.00    -0.205 A  
HETATM   14  C   UNL     1     -11.183   9.263  71.260  1.00  0.00    -0.425 A  
HETATM   15  C   UNL     1      -9.800   9.107  71.216  1.00  0.00    -0.363 A  
HETATM   16  C   UNL     1     -10.067  15.966  69.677  1.00  0.00    -0.271 A  
HETATM   17  H   UNL     1     -13.668   9.717  71.232  1.00  0.00     0.000 HD 
HETATM   18  C   UNL     1      -9.059   9.841  70.302  1.00  0.00    -0.208 A  
HETATM   19  C   UNL     1     -11.406  15.666  69.933  1.00  0.00    -0.340 A  
HETATM   20  C   UNL     1     -11.936  14.423  69.558  1.00  0.00    -0.376 A  
HETATM   21  C   UNL     1      -7.562   9.787  70.243  1.00  0.00    -0.184 C  
HETATM   22  C   UNL     1      -9.729  10.714  69.432  1.00  0.00    -0.141 A  
ENDBRANCH   5   6
ENDBRANCH   4   5
BRANCH   4  23
HETATM   23  C   UNL     1     -10.205  10.882  63.943  1.00  0.00    -0.354 C  
HETATM   24  C   UNL     1      -9.258  11.338  62.819  1.00  0.00    -0.354 C  
HETATM   25  C   UNL     1      -9.387   9.835  64.741  1.00  0.00    -0.327 C  
ENDBRANCH   4  23
ENDBRANCH   2   4
TORSDOF 4
ENDMDL
MODEL       22
REMARK 921   NORMALIZED FREE ENERGY PREDICTED BY IDOCK:   -5.96 KCAL/MOL
REMARK 922        TOTAL FREE ENERGY PREDICTED BY IDOCK:   -8.19 KCAL/MOL
REMARK 923 INTER-LIGAND FREE ENERGY PREDICTED BY IDOCK:   -7.28 KCAL/MOL
REMARK 924 INTRA-LIGAND FREE ENERGY PREDICTED BY IDOCK:   -0.91 KCAL/MOL
REMARK 927      BINDING AFFINITY PREDICTED BY RF-SCORE:    0.00 PKD
ROOT
HETATM    1  C   UNL     1     -12.245  11.911  70.582  1.00  0.00    -0.424 C  
HETATM    2  C   UNL     1     -11.909  10.464  71.025  1.00  0.00    -0.361 C  
HETATM    3  C   UNL     1     -13.155   9.988  71.795  1.00  0.00    -0.562 C  
ENDROOT
BRANCH   2   4
HETATM    4  N   UNL     1     -11.512   9.586  69.882  1.00  0.00    -0.131 NA 
BRANCH   4   5
HETATM    5  C   UNL     1     -11.204  10.354  68.646  1.00  0.00    -0.248 C  
BRANCH   5   6
HETATM    6  C   UNL     1     -10.309   9.685  67.584  1.00  0.00    -0.290 C  
HETATM    7  C   UNL     1      -9.574  10.636  66.586  1.00  0.00    -0.209 C  
HETATM    8  C   UNL     1      -8.583  11.634  67.215  1.00  0.00    -0.154 A  
HETATM    9  C   UNL     1     -10.476  11.266  65.510  1.00  0.00    -0.323 A  
HETATM   10  C   UNL     1     -10.478  10.895  64.156  1.00  0.00    -0.327 A  
HETATM   11  C   UNL     1      -8.985  12.717  68.017  1.00  0.00    -0.200 A  
HETATM   12  O   UNL     1      -9.755   9.863  63.630  1.00  0.00    -0.475 OA 
HETATM   13  C   UNL     1      -8.082  13.679  68.468  1.00  0.00    -0.118 A  
HETATM   14  C   UNL     1     -11.239  11.597  63.210  1.00  0.00    -0.305 A  
HETATM   15  C   UNL     1     -12.003  12.699  63.582  1.00  0.00    -0.615 A  
HETATM   16  C   UNL     1      -6.736  13.563  68.163  1.00  0.00    -0.120 A  
HETATM   17  H   UNL     1      -9.756   9.612  62.714  1.00  0.00     0.000 HD 
HETATM   18  C   UNL     1     -12.039  13.087  64.913  1.00  0.00    -0.459 A  
HETATM   19  C   UNL     1      -6.296  12.477  67.405  1.00  0.00    -0.157 A  
HETATM   20  C   UNL     1      -7.212  11.525  66.934  1.00  0.00    -0.137 A  
HETATM   21  C   UNL     1     -12.777  14.305  65.383  1.00  0.00    -0.385 C  
HETATM   22  C   UNL     1     -11.312  12.344  65.855  1.00  0.00    -0.399 A  
ENDBRANCH   5   6
ENDBRANCH   4   5
BRANCH   4  23
HETATM   23  C   UNL     1     -10.506   8.512  70.151  1.00  0.00    -0.220 C  
HETATM   24  C   UNL     1      -9.588   8.768  71.360  1.00  0.00    -0.337 C  
HETATM   25  C   UNL     1     -11.164   7.140  70.444  1.00  0.00    -0.320 C  
ENDBRANCH   4  23
ENDBRANCH   2   4
TORSDOF 4
ENDMDL
MODEL       23
REMARK 921   NORMALIZED FREE ENERGY PREDICTED BY IDOCK:   -5.93 KCAL/MOL
REMARK 922        TOTAL FREE ENERGY PREDICTED BY IDOCK:   -8.16 KCAL/MOL
REMARK 923 INTER-LIGAND FREE ENERGY PREDICTED BY IDOCK:   -6.83 KCAL/MOL
REMARK 924 INTRA-LIGAND FREE ENERGY PREDICTED BY IDOCK:   -1.33 KCAL/MOL
REMARK 927      BINDING AFFINITY PREDICTED BY RF-SCORE:    0.00 PKD
ROOT
HETATM    1  C   UNL     1     -10.049  10.781  67.521  1.00  0.00    -0.218 C  
HETATM    2  C   UNL     1      -8.814  10.957  66.601  1.00  0.00    -0.159 C  
HETATM    3  C   UNL     1      -9.394  11.070  65.179  1.00  0.00    -0.249 C  
ENDROOT
BRANCH   2   4
HETATM    4  N   UNL     1      -7.945  12.104  67.010  1.00  0.00    -0.162 NA 
BRANCH   4   5
HETATM    5  C   UNL     1      -8.520  12.889  68.134  1.00  0.00    -0.176 C  
BRANCH   5   6
HETATM    6  C   UNL     1      -8.431  14.426  68.062  1.00  0.00    -0.164 C  
HETATM    7  C   UNL     1      -9.782  15.204  67.962  1.00  0.00    -0.209 C  
HETATM    8  C   UNL     1     -10.751  15.023  69.147  1.00  0.00    -0.249 A  
HETATM    9  C   UNL     1     -10.475  15.124  66.590  1.00  0.00    -0.287 A  
HETATM   10  C   UNL     1     -10.537  16.180  65.667  1.00  0.00    -0.363 A  
HETATM   11  C   UNL     1     -11.417  13.816  69.421  1.00  0.00    -0.341 A  
HETATM   12  O   UNL     1      -9.911  17.384  65.818  1.00  0.00    -0.536 OA 
HETATM   13  C   UNL     1     -12.384  13.714  70.420  1.00  0.00    -0.415 A  
HETATM   14  C   UNL     1     -11.290  16.074  64.489  1.00  0.00    -0.303 A  
HETATM   15  C   UNL     1     -12.017  14.921  64.206  1.00  0.00    -0.355 A  
HETATM   16  C   UNL     1     -12.685  14.813  71.207  1.00  0.00    -0.407 A  
HETATM   17  H   UNL     1      -9.953  18.099  65.193  1.00  0.00     0.000 HD 
HETATM   18  C   UNL     1     -11.968  13.850  65.086  1.00  0.00    -0.394 A  
HETATM   19  C   UNL     1     -12.012  16.016  70.991  1.00  0.00    -0.407 A  
HETATM   20  C   UNL     1     -11.057  16.119  69.969  1.00  0.00    -0.363 A  
HETATM   21  C   UNL     1     -12.780  12.604  64.892  1.00  0.00    -0.450 C  
HETATM   22  C   UNL     1     -11.171  13.954  66.235  1.00  0.00    -0.310 A  
ENDBRANCH   5   6
ENDBRANCH   4   5
BRANCH   4  23
HETATM   23  C   UNL     1      -6.485  11.836  67.190  1.00  0.00    -0.146 C  
HETATM   24  C   UNL     1      -6.121  11.034  68.453  1.00  0.00    -0.042 C  
HETATM   25  C   UNL     1      -5.880  11.019  66.021  1.00  0.00    -0.125 C  
ENDBRANCH   4  23
ENDBRANCH   2   4
TORSDOF 4
ENDMDL
MODEL       24
REMARK 921   NORMALIZED FREE ENERGY PREDICTED BY IDOCK:   -5.93 KCAL/MOL
REMARK 922        TOTAL FREE ENERGY PREDICTED BY IDOCK:   -8.16 KCAL/MOL
REMARK 923 INTER-LIGAND FREE ENERGY PREDICTED BY IDOCK:   -6.68 KCAL/MOL
REMARK 924 INTRA-LIGAND FREE ENERGY PREDICTED BY IDOCK:   -1.48 KCAL/MOL
REMARK 927      BINDING AFFINITY PREDICTED BY RF-SCORE:    0.00 PKD
ROOT
HETATM    1  C   UNL     1     -10.482  11.368  65.708  1.00  0.00    -0.314 C  
HETATM    2  C   UNL     1     -10.514  12.668  64.865  1.00  0.00    -0.309 C  
HETATM    3  C   UNL     1     -10.719  12.194  63.414  1.00  0.00    -0.461 C  
ENDROOT
BRANCH   2   4
HETATM    4  N   UNL     1     -11.537  13.647  65.348  1.00  0.00    -0.314 NA 
BRANCH   4   5
HETATM    5  C   UNL     1     -12.141  13.252  66.648  1.00  0.00    -0.361 C  
BRANCH   5   6
HETATM    6  C   UNL     1     -12.411  14.360  67.686  1.00  0.00    -0.029 C  
HETATM    7  C   UNL     1     -11.631  14.261  69.036  1.00  0.00    -0.342 C  
HETATM    8  C   UNL     1     -10.095  14.326  68.932  1.00  0.00    -0.179 A  
HETATM    9  C   UNL     1     -12.133  13.166  69.994  1.00  0.00    -0.375 A  
HETATM   10  C   UNL     1     -12.860  13.408  71.170  1.00  0.00    -0.291 A  
HETATM   11  C   UNL     1      -9.318  13.304  68.359  1.00  0.00    -0.157 A  
HETATM   12  O   UNL     1     -13.304  14.636  71.571  1.00  0.00    -0.327 OA 
HETATM   13  C   UNL     1      -7.924  13.327  68.392  1.00  0.00    -0.132 A  
HETATM   14  C   UNL     1     -13.178  12.370  72.056  1.00  0.00    -0.514 A  
HETATM   15  C   UNL     1     -12.764  11.064  71.807  1.00  0.00    -0.408 A  
HETATM   16  C   UNL     1      -7.262  14.400  68.965  1.00  0.00    -0.129 A  
HETATM   17  H   UNL     1     -13.797  14.800  72.367  1.00  0.00     0.000 HD 
HETATM   18  C   UNL     1     -12.057  10.782  70.648  1.00  0.00    -0.467 A  
HETATM   19  C   UNL     1      -8.002  15.454  69.505  1.00  0.00    -0.204 A  
HETATM   20  C   UNL     1      -9.404  15.413  69.490  1.00  0.00    -0.252 A  
HETATM   21  C   UNL     1     -11.512   9.419  70.342  1.00  0.00    -0.272 C  
HETATM   22  C   UNL     1     -11.791  11.823  69.747  1.00  0.00    -0.420 A  
ENDBRANCH   5   6
ENDBRANCH   4   5
BRANCH   4  23
HETATM   23  C   UNL     1     -11.182  15.098  65.302  1.00  0.00    -0.358 C  
HETATM   24  C   UNL     1      -9.673  15.399  65.256  1.00  0.00    -0.145 C  
HETATM   25  C   UNL     1     -11.760  15.814  64.055  1.00  0.00     0.087 C  
ENDBRANCH   4  23
ENDBRANCH   2   4
TORSDOF 4
ENDMDL
MODEL       25
REMARK 921   NORMALIZED FREE ENERGY PREDICTED BY IDOCK:   -5.90 KCAL/MOL
REMARK 922        TOTAL FREE ENERGY PREDICTED BY IDOCK:   -8.13 KCAL/MOL
REMARK 923 INTER-LIGAND FREE ENERGY PREDICTED BY IDOCK:   -7.11 KCAL/MOL
REMARK 924 INTRA-LIGAND FREE ENERGY PREDICTED BY IDOCK:   -1.01 KCAL/MOL
REMARK 927      BINDING AFFINITY PREDICTED BY RF-SCORE:    0.00 PKD
ROOT
HETATM    1  C   UNL     1      -6.295  16.498  69.463  1.00  0.00    -0.214 C  
HETATM    2  C   UNL     1      -7.377  16.020  68.460  1.00  0.00    -0.146 C  
HETATM    3  C   UNL     1      -6.935  16.592  67.101  1.00  0.00    -0.230 C  
ENDROOT
BRANCH   2   4
HETATM    4  N   UNL     1      -7.568  14.537  68.478  1.00  0.00    -0.115 NA 
BRANCH   4   5
HETATM    5  C   UNL     1      -8.554  14.072  67.467  1.00  0.00    -0.192 C  
BRANCH   5   6
HETATM    6  C   UNL     1     -10.030  14.473  67.660  1.00  0.00    -0.224 C  
HETATM    7  C   UNL     1     -11.091  13.335  67.516  1.00  0.00    -0.292 C  
HETATM    8  C   UNL     1     -10.971  12.172  68.520  1.00  0.00    -0.276 A  
HETATM    9  C   UNL     1     -11.348  12.870  66.071  1.00  0.00    -0.354 A  
HETATM   10  C   UNL     1     -12.506  13.166  65.334  1.00  0.00    -0.481 A  
HETATM   11  C   UNL     1      -9.913  11.247  68.505  1.00  0.00    -0.206 A  
HETATM   12  O   UNL     1     -13.512  13.985  65.760  1.00  0.00    -0.669 OA 
HETATM   13  C   UNL     1      -9.893  10.130  69.340  1.00  0.00    -0.247 A  
HETATM   14  C   UNL     1     -12.725  12.605  64.068  1.00  0.00    -0.363 A  
HETATM   15  C   UNL     1     -11.808  11.720  63.508  1.00  0.00    -0.481 A  
HETATM   16  C   UNL     1     -10.917   9.930  70.252  1.00  0.00    -0.366 A  
HETATM   17  H   UNL     1     -14.295  14.185  65.261  1.00  0.00     0.000 HD 
HETATM   18  C   UNL     1     -10.645  11.415  64.199  1.00  0.00    -0.430 A  
HETATM   19  C   UNL     1     -11.962  10.852  70.324  1.00  0.00    -0.448 A  
HETATM   20  C   UNL     1     -11.988  11.960  69.464  1.00  0.00    -0.355 A  
HETATM   21  C   UNL     1      -9.644  10.416  63.700  1.00  0.00    -0.364 C  
HETATM   22  C   UNL     1     -10.417  12.023  65.442  1.00  0.00    -0.313 A  
ENDBRANCH   5   6
ENDBRANCH   4   5
BRANCH   4  23
HETATM   23  C   UNL     1      -6.342  13.681  68.513  1.00  0.00    -0.092 C  
HETATM   24  C   UNL     1      -6.169  12.842  69.791  1.00  0.00    -0.105 C  
HETATM   25  C   UNL     1      -6.304  12.648  67.359  1.00  0.00    -0.152 C  
ENDBRANCH   4  23
ENDBRANCH   2   4
TORSDOF 4
ENDMDL
MODEL       26
REMARK 921   NORMALIZED FREE ENERGY PREDICTED BY IDOCK:   -5.90 KCAL/MOL
REMARK 922        TOTAL FREE ENERGY PREDICTED BY IDOCK:   -8.12 KCAL/MOL
REMARK 923 INTER-LIGAND FREE ENERGY PREDICTED BY IDOCK:   -6.93 KCAL/MOL
REMARK 924 INTRA-LIGAND FREE ENERGY PREDICTED BY IDOCK:   -1.19 KCAL/MOL
REMARK 927      BINDING AFFINITY PREDICTED BY RF-SCORE:    0.00 PKD
ROOT
HETATM    1  C   UNL     1      -6.969  17.339  66.552  1.00  0.00    -0.298 C  
HETATM    2  C   UNL     1      -7.330  16.119  67.437  1.00  0.00    -0.176 C  
HETATM    3  C   UNL     1      -7.253  16.644  68.882  1.00  0.00    -0.219 C  
ENDROOT
BRANCH   2   4
HETATM    4  N   UNL     1      -8.642  15.504  67.068  1.00  0.00    -0.213 NA 
BRANCH   4   5
HETATM    5  C   UNL     1      -8.907  14.235  67.798  1.00  0.00    -0.185 C  
BRANCH   5   6
HETATM    6  C   UNL     1      -8.306  12.935  67.228  1.00  0.00    -0.185 C  
HETATM    7  C   UNL     1      -9.302  11.761  66.957  1.00  0.00    -0.187 C  
HETATM    8  C   UNL     1     -10.412  12.046  65.926  1.00  0.00    -0.290 A  
HETATM    9  C   UNL     1      -9.810  11.040  68.218  1.00  0.00    -0.185 A  
HETATM   10  C   UNL     1      -9.408   9.756  68.617  1.00  0.00    -0.147 A  
HETATM   11  C   UNL     1     -11.467  12.945  66.158  1.00  0.00    -0.393 A  
HETATM   12  O   UNL     1      -8.441   9.015  67.998  1.00  0.00    -0.123 OA 
HETATM   13  C   UNL     1     -12.527  13.089  65.264  1.00  0.00    -0.555 A  
HETATM   14  C   UNL     1     -10.005   9.113  69.710  1.00  0.00    -0.204 A  
HETATM   15  C   UNL     1     -11.033   9.721  70.425  1.00  0.00    -0.371 A  
HETATM   16  C   UNL     1     -12.541  12.366  64.083  1.00  0.00    -0.498 A  
HETATM   17  H   UNL     1      -8.169   8.146  68.268  1.00  0.00     0.000 HD 
HETATM   18  C   UNL     1     -11.448  10.996  70.070  1.00  0.00    -0.398 A  
HETATM   19  C   UNL     1     -11.487  11.496  63.800  1.00  0.00    -0.380 A  
HETATM   20  C   UNL     1     -10.435  11.337  64.714  1.00  0.00    -0.384 A  
HETATM   21  C   UNL     1     -12.596  11.690  70.740  1.00  0.00    -0.365 C  
HETATM   22  C   UNL     1     -10.806  11.646  69.006  1.00  0.00    -0.247 A  
ENDBRANCH   5   6
ENDBRANCH   4   5
BRANCH   4  23
HETATM   23  C   UNL     1      -9.839  16.398  67.028  1.00  0.00    -0.251 C  
HETATM   24  C   UNL     1     -10.575  16.440  65.677  1.00  0.00    -0.337 C  
HETATM   25  C   UNL     1     -10.926  15.986  68.052  1.00  0.00    -0.341 C  
ENDBRANCH   4  23
ENDBRANCH   2   4
TORSDOF 4
ENDMDL
MODEL       27
REMARK 921   NORMALIZED FREE ENERGY PREDICTED BY IDOCK:   -5.89 KCAL/MOL
REMARK 922        TOTAL FREE ENERGY PREDICTED BY IDOCK:   -8.11 KCAL/MOL
REMARK 923 INTER-LIGAND FREE ENERGY PREDICTED BY IDOCK:   -6.71 KCAL/MOL
REMARK 924 INTRA-LIGAND FREE ENERGY PREDICTED BY IDOCK:   -1.39 KCAL/MOL
REMARK 927      BINDING AFFINITY PREDICTED BY RF-SCORE:    0.00 PKD
ROOT
HETATM    1  C   UNL     1      -6.930  11.383  66.660  1.00  0.00    -0.102 C  
HETATM    2  C   UNL     1      -7.482  10.184  67.472  1.00  0.00    -0.090 C  
HETATM    3  C   UNL     1      -6.358   9.824  68.460  1.00  0.00    -0.047 C  
ENDROOT
BRANCH   2   4
HETATM    4  N   UNL     1      -8.802  10.476  68.113  1.00  0.00    -0.131 NA 
BRANCH   4   5
HETATM    5  C   UNL     1      -9.049  11.932  68.283  1.00  0.00    -0.183 C  
BRANCH   5   6
HETATM    6  C   UNL     1     -10.493  12.392  68.566  1.00  0.00    -0.244 C  
HETATM    7  C   UNL     1     -11.106  13.429  67.571  1.00  0.00    -0.294 C  
HETATM    8  C   UNL     1     -11.229  12.963  66.107  1.00  0.00    -0.326 A  
HETATM    9  C   UNL     1     -10.563  14.862  67.713  1.00  0.00    -0.262 A  
HETATM   10  C   UNL     1     -11.279  15.933  68.268  1.00  0.00    -0.354 A  
HETATM   11  C   UNL     1     -10.120  12.752  65.269  1.00  0.00    -0.263 A  
HETATM   12  O   UNL     1     -12.513  15.829  68.846  1.00  0.00    -0.527 OA 
HETATM   13  C   UNL     1     -10.261  12.456  63.914  1.00  0.00    -0.409 A  
HETATM   14  C   UNL     1     -10.767  17.238  68.253  1.00  0.00    -0.349 A  
HETATM   15  C   UNL     1      -9.535  17.516  67.667  1.00  0.00    -0.256 A  
HETATM   16  C   UNL     1     -11.524  12.320  63.362  1.00  0.00    -0.512 A  
HETATM   17  H   UNL     1     -12.998  16.554  69.222  1.00  0.00     0.000 HD 
HETATM   18  C   UNL     1      -8.790  16.481  67.121  1.00  0.00    -0.213 A  
HETATM   19  C   UNL     1     -12.648  12.481  64.174  1.00  0.00    -0.474 A  
HETATM   20  C   UNL     1     -12.500  12.802  65.532  1.00  0.00    -0.419 A  
HETATM   21  C   UNL     1      -7.491  16.706  66.407  1.00  0.00    -0.260 C  
HETATM   22  C   UNL     1      -9.295  15.174  67.190  1.00  0.00    -0.223 A  
ENDBRANCH   5   6
ENDBRANCH   4   5
BRANCH   4  23
HETATM   23  C   UNL     1     -10.001   9.752  67.589  1.00  0.00    -0.174 C  
HETATM   24  C   UNL     1      -9.901   9.301  66.121  1.00  0.00    -0.363 C  
HETATM   25  C   UNL     1     -10.304   8.453  68.377  1.00  0.00    -0.239 C  
ENDBRANCH   4  23
ENDBRANCH   2   4
TORSDOF 4
ENDMDL
MODEL       28
REMARK 921   NORMALIZED FREE ENERGY PREDICTED BY IDOCK:   -5.85 KCAL/MOL
REMARK 922        TOTAL FREE ENERGY PREDICTED BY IDOCK:   -8.06 KCAL/MOL
REMARK 923 INTER-LIGAND FREE ENERGY PREDICTED BY IDOCK:   -7.00 KCAL/MOL
REMARK 924 INTRA-LIGAND FREE ENERGY PREDICTED BY IDOCK:   -1.06 KCAL/MOL
REMARK 927      BINDING AFFINITY PREDICTED BY RF-SCORE:    0.00 PKD
ROOT
HETATM    1  C   UNL     1      -7.620  16.353  69.089  1.00  0.00    -0.225 C  
HETATM    2  C   UNL     1      -7.972  16.694  67.618  1.00  0.00    -0.174 C  
HETATM    3  C   UNL     1      -6.630  16.631  66.866  1.00  0.00    -0.242 C  
ENDROOT
BRANCH   2   4
HETATM    4  N   UNL     1      -9.040  15.810  67.057  1.00  0.00    -0.209 NA 
BRANCH   4   5
HETATM    5  C   UNL     1      -9.160  14.520  67.787  1.00  0.00    -0.190 C  
BRANCH   5   6
HETATM    6  C   UNL     1      -8.422  13.294  67.215  1.00  0.00    -0.203 C  
HETATM    7  C   UNL     1      -9.290  12.032  66.907  1.00  0.00    -0.200 C  
HETATM    8  C   UNL     1     -10.401  12.221  65.855  1.00  0.00    -0.280 A  
HETATM    9  C   UNL     1      -9.751  11.246  68.147  1.00  0.00    -0.188 A  
HETATM   10  C   UNL     1      -9.231  10.002  68.539  1.00  0.00    -0.141 A  
HETATM   11  C   UNL     1     -11.545  13.008  66.075  1.00  0.00    -0.409 A  
HETATM   12  O   UNL     1      -8.183   9.369  67.933  1.00  0.00    -0.113 OA 
HETATM   13  C   UNL     1     -12.595  13.059  65.159  1.00  0.00    -0.530 A  
HETATM   14  C   UNL     1      -9.784   9.287  69.611  1.00  0.00    -0.192 A  
HETATM   15  C   UNL     1     -10.882   9.780  70.310  1.00  0.00    -0.356 A  
HETATM   16  C   UNL     1     -12.512  12.355  63.970  1.00  0.00    -0.554 A  
HETATM   17  H   UNL     1      -7.832   8.528  68.198  1.00  0.00     0.000 HD 
HETATM   18  C   UNL     1     -11.414  11.013  69.962  1.00  0.00    -0.398 A  
HETATM   19  C   UNL     1     -11.371  11.598  63.699  1.00  0.00    -0.485 A  
HETATM   20  C   UNL     1     -10.328  11.530  64.635  1.00  0.00    -0.349 A  
HETATM   21  C   UNL     1     -12.639  11.581  70.615  1.00  0.00    -0.337 C  
HETATM   22  C   UNL     1     -10.818  11.739  68.921  1.00  0.00    -0.265 A  
ENDBRANCH   5   6
ENDBRANCH   4   5
BRANCH   4  23
HETATM   23  C   UNL     1     -10.370  16.428  66.769  1.00  0.00    -0.293 C  
HETATM   24  C   UNL     1     -10.510  17.901  67.195  1.00  0.00    -0.359 C  
HETATM   25  C   UNL     1     -10.715  16.424  65.259  1.00  0.00    -0.312 C  
ENDBRANCH   4  23
ENDBRANCH   2   4
TORSDOF 4
ENDMDL
MODEL       29
REMARK 921   NORMALIZED FREE ENERGY PREDICTED BY IDOCK:   -5.84 KCAL/MOL
REMARK 922        TOTAL FREE ENERGY PREDICTED BY IDOCK:   -8.05 KCAL/MOL
REMARK 923 INTER-LIGAND FREE ENERGY PREDICTED BY IDOCK:   -7.27 KCAL/MOL
REMARK 924 INTRA-LIGAND FREE ENERGY PREDICTED BY IDOCK:   -0.78 KCAL/MOL
REMARK 927      BINDING AFFINITY PREDICTED BY RF-SCORE:    0.00 PKD
ROOT
HETATM    1  C   UNL     1     -10.244  11.314  64.014  1.00  0.00    -0.403 C  
HETATM    2  C   UNL     1     -11.176  12.517  63.717  1.00  0.00    -0.462 C  
HETATM    3  C   UNL     1     -12.534  11.885  63.359  1.00  0.00    -0.582 C  
ENDROOT
BRANCH   2   4
HETATM    4  N   UNL     1     -11.227  13.502  64.841  1.00  0.00    -0.328 NA 
BRANCH   4   5
HETATM    5  C   UNL     1     -10.863  12.900  66.151  1.00  0.00    -0.279 C  
BRANCH   5   6
HETATM    6  C   UNL     1     -11.998  12.331  67.025  1.00  0.00    -0.213 C  
HETATM    7  C   UNL     1     -11.768  12.346  68.571  1.00  0.00    -0.373 C  
HETATM    8  C   UNL     1     -11.578  13.736  69.209  1.00  0.00    -0.362 A  
HETATM    9  C   UNL     1     -10.768  11.295  69.086  1.00  0.00    -0.247 A  
HETATM   10  C   UNL     1     -11.125  10.138  69.796  1.00  0.00    -0.279 A  
HETATM   11  C   UNL     1     -10.443  14.536  68.989  1.00  0.00    -0.241 A  
HETATM   12  O   UNL     1     -12.409   9.738  70.039  1.00  0.00    -0.470 OA 
HETATM   13  C   UNL     1     -10.234  15.731  69.677  1.00  0.00    -0.289 A  
HETATM   14  C   UNL     1     -10.152   9.289  70.341  1.00  0.00    -0.287 A  
HETATM   15  C   UNL     1      -8.796   9.578  70.211  1.00  0.00    -0.281 A  
HETATM   16  C   UNL     1     -11.182  16.185  70.578  1.00  0.00    -0.381 A  
HETATM   17  H   UNL     1     -12.650   8.955  70.519  1.00  0.00     0.000 HD 
HETATM   18  C   UNL     1      -8.404  10.704  69.503  1.00  0.00    -0.013 A  
HETATM   19  C   UNL     1     -12.342  15.437  70.789  1.00  0.00    -0.447 A  
HETATM   20  C   UNL     1     -12.535  14.224  70.112  1.00  0.00    -0.393 A  
HETATM   21  C   UNL     1      -6.970  11.126  69.381  1.00  0.00    -0.124 C  
HETATM   22  C   UNL     1      -9.389  11.516  68.922  1.00  0.00    -0.006 A  
ENDBRANCH   5   6
ENDBRANCH   4   5
BRANCH   4  23
HETATM   23  C   UNL     1     -10.579  14.832  64.626  1.00  0.00    -0.206 C  
HETATM   24  C   UNL     1     -11.551  15.993  64.350  1.00  0.00    -0.212 C  
HETATM   25  C   UNL     1      -9.753  15.298  65.851  1.00  0.00    -0.390 C  
ENDBRANCH   4  23
ENDBRANCH   2   4
TORSDOF 4
ENDMDL
MODEL       30
REMARK 921   NORMALIZED FREE ENERGY PREDICTED BY IDOCK:   -5.83 KCAL/MOL
REMARK 922        TOTAL FREE ENERGY PREDICTED BY IDOCK:   -8.03 KCAL/MOL
REMARK 923 INTER-LIGAND FREE ENERGY PREDICTED BY IDOCK:   -7.14 KCAL/MOL
REMARK 924 INTRA-LIGAND FREE ENERGY PREDICTED BY IDOCK:   -0.90 KCAL/MOL
REMARK 927      BINDING AFFINITY PREDICTED BY RF-SCORE:    0.00 PKD
ROOT
HETATM    1  C   UNL     1      -6.919  14.525  69.675  1.00  0.00    -0.122 C  
HETATM    2  C   UNL     1      -6.559  15.446  68.482  1.00  0.00    -0.109 C  
HETATM    3  C   UNL     1      -5.256  14.860  67.908  1.00  0.00    -0.091 C  
ENDROOT
BRANCH   2   4
HETATM    4  N   UNL     1      -7.672  15.572  67.491  1.00  0.00    -0.154 NA 
BRANCH   4   5
HETATM    5  C   UNL     1      -8.600  14.410  67.516  1.00  0.00    -0.191 C  
BRANCH   5   6
HETATM    6  C   UNL     1     -10.109  14.693  67.656  1.00  0.00    -0.228 C  
HETATM    7  C   UNL     1     -11.069  13.470  67.504  1.00  0.00    -0.293 C  
HETATM    8  C   UNL     1     -10.887  12.339  68.535  1.00  0.00    -0.267 A  
HETATM    9  C   UNL     1     -11.241  12.959  66.062  1.00  0.00    -0.325 A  
HETATM   10  C   UNL     1     -12.395  13.146  65.284  1.00  0.00    -0.481 A  
HETATM   11  C   UNL     1      -9.757  11.503  68.570  1.00  0.00    -0.191 A  
HETATM   12  O   UNL     1     -13.478  13.888  65.662  1.00  0.00    -0.655 OA 
HETATM   13  C   UNL     1      -9.674  10.407  69.429  1.00  0.00    -0.222 A  
HETATM   14  C   UNL     1     -12.528  12.548  64.023  1.00  0.00    -0.527 A  
HETATM   15  C   UNL     1     -11.525  11.730  63.510  1.00  0.00    -0.489 A  
HETATM   16  C   UNL     1     -10.706  10.140  70.313  1.00  0.00    -0.352 A  
HETATM   17  H   UNL     1     -14.258  14.015  65.136  1.00  0.00     0.000 HD 
HETATM   18  C   UNL     1     -10.363  11.534  64.242  1.00  0.00    -0.376 A  
HETATM   19  C   UNL     1     -11.824  10.975  70.335  1.00  0.00    -0.460 A  
HETATM   20  C   UNL     1     -11.913  12.062  69.452  1.00  0.00    -0.334 A  
HETATM   21  C   UNL     1      -9.270  10.610  63.795  1.00  0.00    -0.280 C  
HETATM   22  C   UNL     1     -10.225  12.180  65.479  1.00  0.00    -0.294 A  
ENDBRANCH   5   6
ENDBRANCH   4   5
BRANCH   4  23
HETATM   23  C   UNL     1      -8.397  16.878  67.426  1.00  0.00    -0.186 C  
HETATM   24  C   UNL     1      -8.182  17.804  68.637  1.00  0.00    -0.272 C  
HETATM   25  C   UNL     1      -7.978  17.732  66.203  1.00  0.00    -0.237 C  
ENDBRANCH   4  23
ENDBRANCH   2   4
TORSDOF 4
ENDMDL
MODEL       31
REMARK 921   NORMALIZED FREE ENERGY PREDICTED BY IDOCK:   -5.80 KCAL/MOL
REMARK 922        TOTAL FREE ENERGY PREDICTED BY IDOCK:   -8.00 KCAL/MOL
REMARK 923 INTER-LIGAND FREE ENERGY PREDICTED BY IDOCK:   -7.06 KCAL/MOL
REMARK 924 INTRA-LIGAND FREE ENERGY PREDICTED BY IDOCK:   -0.94 KCAL/MOL
REMARK 927      BINDING AFFINITY PREDICTED BY RF-SCORE:    0.00 PKD
ROOT
HETATM    1  C   UNL     1     -12.747  11.968  63.206  1.00  0.00    -0.437 C  
HETATM    2  C   UNL     1     -11.577  12.187  64.199  1.00  0.00    -0.390 C  
HETATM    3  C   UNL     1     -10.307  12.135  63.330  1.00  0.00    -0.438 C  
ENDROOT
BRANCH   2   4
HETATM    4  N   UNL     1     -11.727  13.438  65.005  1.00  0.00    -0.314 NA 
BRANCH   4   5
HETATM    5  C   UNL     1     -11.766  13.179  66.469  1.00  0.00    -0.382 C  
BRANCH   5   6
HETATM    6  C   UNL     1     -11.488  11.743  66.956  1.00  0.00    -0.368 C  
HETATM    7  C   UNL     1     -10.881  11.593  68.387  1.00  0.00    -0.257 C  
HETATM    8  C   UNL     1     -11.746  12.131  69.544  1.00  0.00    -0.402 A  
HETATM    9  C   UNL     1      -9.396  11.980  68.504  1.00  0.00    -0.127 A  
HETATM   10  C   UNL     1      -8.345  11.062  68.658  1.00  0.00    -0.153 A  
HETATM   11  C   UNL     1     -11.996  13.500  69.747  1.00  0.00    -0.405 A  
HETATM   12  O   UNL     1      -8.485   9.704  68.628  1.00  0.00    -0.115 OA 
HETATM   13  C   UNL     1     -12.673  13.970  70.872  1.00  0.00    -0.420 A  
HETATM   14  C   UNL     1      -7.029  11.494  68.881  1.00  0.00    -0.100 A  
HETATM   15  C   UNL     1      -6.727  12.849  68.975  1.00  0.00    -0.095 A  
HETATM   16  C   UNL     1     -13.160  13.076  71.811  1.00  0.00    -0.469 A  
HETATM   17  H   UNL     1      -7.774   9.084  68.732  1.00  0.00     0.000 HD 
HETATM   18  C   UNL     1      -7.736  13.786  68.812  1.00  0.00    -0.080 A  
HETATM   19  C   UNL     1     -12.968  11.707  71.619  1.00  0.00    -0.483 A  
HETATM   20  C   UNL     1     -12.265  11.241  70.498  1.00  0.00    -0.474 A  
HETATM   21  C   UNL     1      -7.508  15.260  68.973  1.00  0.00    -0.163 C  
HETATM   22  C   UNL     1      -9.038  13.339  68.541  1.00  0.00    -0.064 A  
ENDBRANCH   5   6
ENDBRANCH   4   5
BRANCH   4  23
HETATM   23  C   UNL     1     -10.849  14.597  64.655  1.00  0.00    -0.313 C  
HETATM   24  C   UNL     1     -11.592  15.910  64.352  1.00  0.00    -0.234 C  
HETATM   25  C   UNL     1      -9.862  14.960  65.792  1.00  0.00    -0.380 C  
ENDBRANCH   4  23
ENDBRANCH   2   4
TORSDOF 4
ENDMDL
MODEL       32
REMARK 921   NORMALIZED FREE ENERGY PREDICTED BY IDOCK:   -5.77 KCAL/MOL
REMARK 922        TOTAL FREE ENERGY PREDICTED BY IDOCK:   -7.97 KCAL/MOL
REMARK 923 INTER-LIGAND FREE ENERGY PREDICTED BY IDOCK:   -6.72 KCAL/MOL
REMARK 924 INTRA-LIGAND FREE ENERGY PREDICTED BY IDOCK:   -1.25 KCAL/MOL
REMARK 927      BINDING AFFINITY PREDICTED BY RF-SCORE:    0.00 PKD
ROOT
HETATM    1  C   UNL     1      -5.217  15.409  69.962  1.00  0.00    -0.106 C  
HETATM    2  C   UNL     1      -5.690  14.029  69.437  1.00  0.00    -0.088 C  
HETATM    3  C   UNL     1      -5.827  13.154  70.696  1.00  0.00    -0.143 C  
ENDROOT
BRANCH   2   4
HETATM    4  N   UNL     1      -6.930  14.120  68.606  1.00  0.00    -0.100 NA 
BRANCH   4   5
HETATM    5  C   UNL     1      -7.232  15.510  68.172  1.00  0.00    -0.117 C  
BRANCH   5   6
HETATM    6  C   UNL     1      -7.668  15.732  66.711  1.00  0.00    -0.216 C  
HETATM    7  C   UNL     1      -9.129  16.237  66.484  1.00  0.00    -0.302 C  
HETATM    8  C   UNL     1      -9.472  17.606  67.102  1.00  0.00    -0.267 A  
HETATM    9  C   UNL     1     -10.222  15.176  66.707  1.00  0.00    -0.265 A  
HETATM   10  C   UNL     1     -10.957  14.562  65.680  1.00  0.00    -0.323 A  
HETATM   11  C   UNL     1      -9.566  17.824  68.488  1.00  0.00    -0.322 A  
HETATM   12  O   UNL     1     -10.736  14.749  64.345  1.00  0.00    -0.599 OA 
HETATM   13  C   UNL     1     -10.002  19.038  69.019  1.00  0.00    -0.390 A  
HETATM   14  C   UNL     1     -12.021  13.695  65.965  1.00  0.00    -0.447 A  
HETATM   15  C   UNL     1     -12.395  13.429  67.279  1.00  0.00    -0.157 A  
HETATM   16  C   UNL     1     -10.318  20.089  68.174  1.00  0.00    -0.503 A  
HETATM   17  H   UNL     1     -11.233  14.333  63.651  1.00  0.00     0.000 HD 
HETATM   18  C   UNL     1     -11.683  14.004  68.321  1.00  0.00    -0.392 A  
HETATM   19  C   UNL     1     -10.194  19.922  66.794  1.00  0.00    -0.603 A  
HETATM   20  C   UNL     1      -9.778  18.691  66.265  1.00  0.00    -0.324 A  
HETATM   21  C   UNL     1     -12.068  13.829  69.760  1.00  0.00    -0.400 C  
HETATM   22  C   UNL     1     -10.590  14.830  68.020  1.00  0.00    -0.244 A  
ENDBRANCH   5   6
ENDBRANCH   4   5
BRANCH   4  23
HETATM   23  C   UNL     1      -7.094  13.129  67.498  1.00  0.00    -0.150 C  
HETATM   24  C   UNL     1      -5.824  12.339  67.137  1.00  0.00    -0.111 C  
HETATM   25  C   UNL     1      -8.150  12.043  67.821  1.00  0.00    -0.149 C  
ENDBRANCH   4  23
ENDBRANCH   2   4
TORSDOF 4
ENDMDL
MODEL       33
REMARK 921   NORMALIZED FREE ENERGY PREDICTED BY IDOCK:   -5.76 KCAL/MOL
REMARK 922        TOTAL FREE ENERGY PREDICTED BY IDOCK:   -7.95 KCAL/MOL
REMARK 923 INTER-LIGAND FREE ENERGY PREDICTED BY IDOCK:   -7.44 KCAL/MOL
REMARK 924 INTRA-LIGAND FREE ENERGY PREDICTED BY IDOCK:   -0.51 KCAL/MOL
REMARK 927      BINDING AFFINITY PREDICTED BY RF-SCORE:    0.00 PKD
ROOT
HETATM    1  C   UNL     1     -13.239  11.786  71.971  1.00  0.00    -0.460 C  
HETATM    2  C   UNL     1     -13.496  13.150  71.282  1.00  0.00     0.083 C  
HETATM    3  C   UNL     1     -14.403  13.921  72.258  1.00  0.00    -0.502 C  
ENDROOT
BRANCH   2   4
HETATM    4  N   UNL     1     -12.232  13.861  70.916  1.00  0.00    -0.358 NA 
BRANCH   4   5
HETATM    5  C   UNL     1     -11.491  13.188  69.816  1.00  0.00    -0.145 C  
BRANCH   5   6
HETATM    6  C   UNL     1     -12.309  12.439  68.745  1.00  0.00     0.249 C  
HETATM    7  C   UNL     1     -11.621  12.223  67.360  1.00  0.00    -0.425 C  
HETATM    8  C   UNL     1     -10.326  11.387  67.375  1.00  0.00    -0.232 A  
HETATM    9  C   UNL     1     -11.523  13.484  66.482  1.00  0.00    -0.365 A  
HETATM   10  C   UNL     1     -12.303  13.720  65.339  1.00  0.00    -0.475 A  
HETATM   11  C   UNL     1      -9.125  11.838  67.950  1.00  0.00    -0.181 A  
HETATM   12  O   UNL     1     -13.317  12.913  64.907  1.00  0.00    -0.716 OA 
HETATM   13  C   UNL     1      -7.935  11.119  67.838  1.00  0.00    -0.114 A  
HETATM   14  C   UNL     1     -12.074  14.834  64.519  1.00  0.00    -0.460 A  
HETATM   15  C   UNL     1     -11.051  15.734  64.804  1.00  0.00    -0.413 A  
HETATM   16  C   UNL     1      -7.921   9.900  67.181  1.00  0.00    -0.109 A  
HETATM   17  H   UNL     1     -13.844  13.073  64.133  1.00  0.00     0.000 HD 
HETATM   18  C   UNL     1     -10.269  15.544  65.934  1.00  0.00    -0.367 A  
HETATM   19  C   UNL     1      -9.106   9.402  66.636  1.00  0.00    -0.181 A  
HETATM   20  C   UNL     1     -10.294  10.141  66.730  1.00  0.00    -0.285 A  
HETATM   21  C   UNL     1      -9.102  16.423  66.270  1.00  0.00    -0.362 C  
HETATM   22  C   UNL     1     -10.544  14.452  66.771  1.00  0.00    -0.282 A  
ENDBRANCH   5   6
ENDBRANCH   4   5
BRANCH   4  23
HETATM   23  C   UNL     1     -12.300  15.344  70.733  1.00  0.00    -0.396 C  
HETATM   24  C   UNL     1     -11.942  16.171  71.980  1.00  0.00    -0.607 C  
HETATM   25  C   UNL     1     -11.333  15.854  69.635  1.00  0.00    -0.342 C  
ENDBRANCH   4  23
ENDBRANCH   2   4
TORSDOF 4
ENDMDL
MODEL       34
REMARK 921   NORMALIZED FREE ENERGY PREDICTED BY IDOCK:   -5.76 KCAL/MOL
REMARK 922        TOTAL FREE ENERGY PREDICTED BY IDOCK:   -7.95 KCAL/MOL
REMARK 923 INTER-LIGAND FREE ENERGY PREDICTED BY IDOCK:   -7.43 KCAL/MOL
REMARK 924 INTRA-LIGAND FREE ENERGY PREDICTED BY IDOCK:   -0.52 KCAL/MOL
REMARK 927      BINDING AFFINITY PREDICTED BY RF-SCORE:    0.00 PKD
ROOT
HETATM    1  C   UNL     1     -11.897  15.750  69.805  1.00  0.00    -0.352 C  
HETATM    2  C   UNL     1     -12.443  14.598  70.687  1.00  0.00    -0.344 C  
HETATM    3  C   UNL     1     -13.800  15.107  71.207  1.00  0.00    -0.553 C  
ENDROOT
BRANCH   2   4
HETATM    4  N   UNL     1     -12.507  13.293  69.961  1.00  0.00    -0.168 NA 
BRANCH   4   5
HETATM    5  C   UNL     1     -11.748  13.307  68.682  1.00  0.00    -0.341 C  
BRANCH   5   6
HETATM    6  C   UNL     1     -10.294  12.794  68.698  1.00  0.00    -0.194 C  
HETATM    7  C   UNL     1      -9.431  13.089  67.430  1.00  0.00    -0.210 C  
HETATM    8  C   UNL     1      -9.211  14.578  67.098  1.00  0.00    -0.233 A  
HETATM    9  C   UNL     1      -9.779  12.235  66.198  1.00  0.00    -0.256 A  
HETATM   10  C   UNL     1      -8.985  11.186  65.707  1.00  0.00    -0.196 A  
HETATM   11  C   UNL     1     -10.237  15.428  66.651  1.00  0.00    -0.281 A  
HETATM   12  O   UNL     1      -7.852  10.719  66.310  1.00  0.00    -0.147 OA 
HETATM   13  C   UNL     1      -9.987  16.736  66.236  1.00  0.00    -0.336 A  
HETATM   14  C   UNL     1      -9.302  10.532  64.509  1.00  0.00    -0.299 A  
HETATM   15  C   UNL     1     -10.408  10.915  63.755  1.00  0.00    -0.384 A  
HETATM   16  C   UNL     1      -8.702  17.248  66.297  1.00  0.00    -0.259 A  
HETATM   17  H   UNL     1      -7.315  10.010  65.978  1.00  0.00     0.000 HD 
HETATM   18  C   UNL     1     -11.226  11.937  64.215  1.00  0.00    -0.424 A  
HETATM   19  C   UNL     1      -7.666  16.446  66.777  1.00  0.00    -0.298 A  
HETATM   20  C   UNL     1      -7.919  15.124  67.171  1.00  0.00    -0.248 A  
HETATM   21  C   UNL     1     -12.390  12.459  63.428  1.00  0.00    -0.603 C  
HETATM   22  C   UNL     1     -10.922  12.548  65.440  1.00  0.00    -0.329 A  
ENDBRANCH   5   6
ENDBRANCH   4   5
BRANCH   4  23
HETATM   23  C   UNL     1     -12.265  12.047  70.752  1.00  0.00    -0.286 C  
HETATM   24  C   UNL     1     -13.052  11.950  72.071  1.00  0.00    -0.441 C  
HETATM   25  C   UNL     1     -12.646  10.763  69.974  1.00  0.00    -0.247 C  
ENDBRANCH   4  23
ENDBRANCH   2   4
TORSDOF 4
ENDMDL
MODEL       35
REMARK 921   NORMALIZED FREE ENERGY PREDICTED BY IDOCK:   -5.75 KCAL/MOL
REMARK 922        TOTAL FREE ENERGY PREDICTED BY IDOCK:   -7.94 KCAL/MOL
REMARK 923 INTER-LIGAND FREE ENERGY PREDICTED BY IDOCK:   -6.61 KCAL/MOL
REMARK 924 INTRA-LIGAND FREE ENERGY PREDICTED BY IDOCK:   -1.33 KCAL/MOL
REMARK 927      BINDING AFFINITY PREDICTED BY RF-SCORE:    0.00 PKD
ROOT
HETATM    1  C   UNL     1      -9.971   7.553  66.921  1.00  0.00    -0.318 C  
HETATM    2  C   UNL     1      -9.097   6.626  67.803  1.00  0.00    -0.113 C  
HETATM    3  C   UNL     1      -7.785   7.403  68.014  1.00  0.00    -0.116 C  
ENDROOT
BRANCH   2   4
HETATM    4  N   UNL     1      -9.783   6.211  69.065  1.00  0.00    -0.133 NA 
BRANCH   4   5
HETATM    5  C   UNL     1     -11.121   6.841  69.227  1.00  0.00    -0.239 C  
BRANCH   5   6
HETATM    6  C   UNL     1     -11.810   6.731  70.601  1.00  0.00    -0.442 C  
HETATM    7  C   UNL     1     -11.478   7.847  71.643  1.00  0.00    -0.304 C  
HETATM    8  C   UNL     1     -11.865   9.283  71.237  1.00  0.00    -0.415 A  
HETATM    9  C   UNL     1     -10.078   7.747  72.275  1.00  0.00    -0.277 A  
HETATM   10  C   UNL     1      -9.828   7.335  73.594  1.00  0.00    -0.307 A  
HETATM   11  C   UNL     1     -11.220   9.992  70.208  1.00  0.00    -0.379 A  
HETATM   12  O   UNL     1     -10.778   6.875  74.460  1.00  0.00    -0.400 OA 
HETATM   13  C   UNL     1     -11.500  11.333  69.945  1.00  0.00    -0.373 A  
HETATM   14  C   UNL     1      -8.537   7.386  74.139  1.00  0.00    -0.257 A  
HETATM   15  C   UNL     1      -7.464   7.865  73.394  1.00  0.00    -0.175 A  
HETATM   16  C   UNL     1     -12.470  11.994  70.680  1.00  0.00    -0.335 A  
HETATM   17  H   UNL     1     -10.609   6.597  75.352  1.00  0.00     0.000 HD 
HETATM   18  C   UNL     1      -7.669   8.267  72.083  1.00  0.00    -0.162 A  
HETATM   19  C   UNL     1     -13.160  11.308  71.680  1.00  0.00    -0.513 A  
HETATM   20  C   UNL     1     -12.857   9.967  71.957  1.00  0.00    -0.488 A  
HETATM   21  C   UNL     1      -6.582   8.865  71.239  1.00  0.00    -0.080 C  
HETATM   22  C   UNL     1      -8.956   8.163  71.536  1.00  0.00    -0.201 A  
ENDBRANCH   5   6
ENDBRANCH   4   5
BRANCH   4  23
HETATM   23  C   UNL     1      -9.795   4.754  69.401  1.00  0.00    -0.212 C  
HETATM   24  C   UNL     1      -9.263   3.826  68.294  1.00  0.00    -0.215 C  
HETATM   25  C   UNL     1      -8.927   4.421  70.640  1.00  0.00    -0.158 C  
ENDBRANCH   4  23
ENDBRANCH   2   4
TORSDOF 4
ENDMDL
MODEL       36
REMARK 921   NORMALIZED FREE ENERGY PREDICTED BY IDOCK:   -5.74 KCAL/MOL
REMARK 922        TOTAL FREE ENERGY PREDICTED BY IDOCK:   -7.93 KCAL/MOL
REMARK 923 INTER-LIGAND FREE ENERGY PREDICTED BY IDOCK:   -7.01 KCAL/MOL
REMARK 924 INTRA-LIGAND FREE ENERGY PREDICTED BY IDOCK:   -0.92 KCAL/MOL
REMARK 927      BINDING AFFINITY PREDICTED BY RF-SCORE:    0.00 PKD
ROOT
HETATM    1  C   UNL     1     -12.261  15.040  64.353  1.00  0.00    -0.353 C  
HETATM    2  C   UNL     1     -10.898  14.333  64.566  1.00  0.00    -0.288 C  
HETATM    3  C   UNL     1     -10.059  15.331  65.383  1.00  0.00    -0.397 C  
ENDROOT
BRANCH   2   4
HETATM    4  N   UNL     1     -11.038  12.981  65.191  1.00  0.00    -0.287 NA 
BRANCH   4   5
HETATM    5  C   UNL     1     -11.991  12.971  66.333  1.00  0.00    -0.402 C  
BRANCH   5   6
HETATM    6  C   UNL     1     -12.001  11.735  67.254  1.00  0.00    -0.013 C  
HETATM    7  C   UNL     1     -11.289  11.886  68.637  1.00  0.00    -0.331 C  
HETATM    8  C   UNL     1     -11.871  12.957  69.580  1.00  0.00    -0.383 A  
HETATM    9  C   UNL     1      -9.751  11.897  68.575  1.00  0.00    -0.173 A  
HETATM   10  C   UNL     1      -8.931  10.836  68.990  1.00  0.00    -0.132 A  
HETATM   11  C   UNL     1     -11.773  14.338  69.330  1.00  0.00    -0.363 A  
HETATM   12  O   UNL     1      -9.385   9.618  69.410  1.00  0.00    -0.169 OA 
HETATM   13  C   UNL     1     -12.193  15.289  70.260  1.00  0.00    -0.403 A  
HETATM   14  C   UNL     1      -7.535  10.964  69.019  1.00  0.00    -0.124 A  
HETATM   15  C   UNL     1      -6.918  12.157  68.655  1.00  0.00    -0.097 A  
HETATM   16  C   UNL     1     -12.766  14.885  71.454  1.00  0.00    -0.408 A  
HETATM   17  H   UNL     1      -8.829   8.900  69.690  1.00  0.00     0.000 HD 
HETATM   18  C   UNL     1      -7.694  13.223  68.225  1.00  0.00    -0.141 A  
HETATM   19  C   UNL     1     -12.919  13.523  71.715  1.00  0.00    -0.439 A  
HETATM   20  C   UNL     1     -12.472  12.570  70.787  1.00  0.00    -0.357 A  
HETATM   21  C   UNL     1      -7.114  14.564  67.887  1.00  0.00    -0.168 C  
HETATM   22  C   UNL     1      -9.085  13.062  68.154  1.00  0.00    -0.204 A  
ENDBRANCH   5   6
ENDBRANCH   4   5
BRANCH   4  23
HETATM   23  C   UNL     1     -11.230  11.813  64.278  1.00  0.00    -0.344 C  
HETATM   24  C   UNL     1     -12.517  11.849  63.435  1.00  0.00    -0.582 C  
HETATM   25  C   UNL     1     -10.088  11.673  63.240  1.00  0.00    -0.454 C  
ENDBRANCH   4  23
ENDBRANCH   2   4
TORSDOF 4
ENDMDL
MODEL       37
REMARK 921   NORMALIZED FREE ENERGY PREDICTED BY IDOCK:   -5.68 KCAL/MOL
REMARK 922        TOTAL FREE ENERGY PREDICTED BY IDOCK:   -7.85 KCAL/MOL
REMARK 923 INTER-LIGAND FREE ENERGY PREDICTED BY IDOCK:   -7.03 KCAL/MOL
REMARK 924 INTRA-LIGAND FREE ENERGY PREDICTED BY IDOCK:   -0.82 KCAL/MOL
REMARK 927      BINDING AFFINITY PREDICTED BY RF-SCORE:    0.00 PKD
ROOT
HETATM    1  C   UNL     1     -12.037  12.058  70.293  1.00  0.00    -0.395 C  
HETATM    2  C   UNL     1     -11.732  10.603  70.732  1.00  0.00    -0.335 C  
HETATM    3  C   UNL     1     -13.042  10.099  71.365  1.00  0.00    -0.512 C  
ENDROOT
BRANCH   2   4
HETATM    4  N   UNL     1     -11.218   9.756  69.613  1.00  0.00    -0.214 NA 
BRANCH   4   5
HETATM    5  C   UNL     1     -10.739  10.559  68.456  1.00  0.00    -0.224 C  
BRANCH   5   6
HETATM    6  C   UNL     1     -10.900   9.959  67.045  1.00  0.00    -0.186 C  
HETATM    7  C   UNL     1     -10.180  10.710  65.878  1.00  0.00    -0.314 C  
HETATM    8  C   UNL     1      -8.646  10.802  65.983  1.00  0.00    -0.181 A  
HETATM    9  C   UNL     1     -10.844  12.032  65.453  1.00  0.00    -0.336 A  
HETATM   10  C   UNL     1     -11.571  12.211  64.265  1.00  0.00    -0.370 A  
HETATM   11  C   UNL     1      -7.985  11.581  66.949  1.00  0.00    -0.164 A  
HETATM   12  O   UNL     1     -11.871  11.217  63.378  1.00  0.00    -0.681 OA 
HETATM   13  C   UNL     1      -6.601  11.750  66.944  1.00  0.00    -0.114 A  
HETATM   14  C   UNL     1     -12.043  13.475  63.885  1.00  0.00    -0.493 A  
HETATM   15  C   UNL     1     -11.788  14.599  64.666  1.00  0.00    -0.459 A  
HETATM   16  C   UNL     1      -5.828  11.106  65.992  1.00  0.00    -0.087 A  
HETATM   17  H   UNL     1     -12.362  11.339  62.574  1.00  0.00     0.000 HD 
HETATM   18  C   UNL     1     -11.087  14.459  65.854  1.00  0.00    -0.319 A  
HETATM   19  C   UNL     1      -6.447  10.290  65.044  1.00  0.00    -0.120 A  
HETATM   20  C   UNL     1      -7.842  10.143  65.040  1.00  0.00    -0.140 A  
HETATM   21  C   UNL     1     -10.707  15.628  66.714  1.00  0.00    -0.300 C  
HETATM   22  C   UNL     1     -10.665  13.180  66.245  1.00  0.00    -0.295 A  
ENDBRANCH   5   6
ENDBRANCH   4   5
BRANCH   4  23
HETATM   23  C   UNL     1     -10.280   8.644  69.961  1.00  0.00    -0.194 C  
HETATM   24  C   UNL     1      -9.495   8.839  71.270  1.00  0.00    -0.320 C  
HETATM   25  C   UNL     1     -11.006   7.287  70.140  1.00  0.00    -0.280 C  
ENDBRANCH   4  23
ENDBRANCH   2   4
TORSDOF 4
ENDMDL
MODEL       38
REMARK 921   NORMALIZED FREE ENERGY PREDICTED BY IDOCK:   -5.67 KCAL/MOL
REMARK 922        TOTAL FREE ENERGY PREDICTED BY IDOCK:   -7.84 KCAL/MOL
REMARK 923 INTER-LIGAND FREE ENERGY PREDICTED BY IDOCK:   -6.98 KCAL/MOL
REMARK 924 INTRA-LIGAND FREE ENERGY PREDICTED BY IDOCK:   -0.86 KCAL/MOL
REMARK 927      BINDING AFFINITY PREDICTED BY RF-SCORE:    0.00 PKD
ROOT
HETATM    1  C   UNL     1      -6.223  14.140  69.823  1.00  0.00    -0.138 C  
HETATM    2  C   UNL     1      -6.218  14.247  68.276  1.00  0.00    -0.117 C  
HETATM    3  C   UNL     1      -5.506  12.970  67.795  1.00  0.00    -0.118 C  
ENDROOT
BRANCH   2   4
HETATM    4  N   UNL     1      -7.585  14.449  67.705  1.00  0.00    -0.165 NA 
BRANCH   4   5
HETATM    5  C   UNL     1      -8.641  13.734  68.472  1.00  0.00    -0.122 C  
BRANCH   5   6
HETATM    6  C   UNL     1      -8.955  12.276  68.083  1.00  0.00    -0.192 C  
HETATM    7  C   UNL     1     -10.461  11.915  67.876  1.00  0.00    -0.225 C  
HETATM    8  C   UNL     1     -11.188  12.679  66.752  1.00  0.00    -0.347 A  
HETATM    9  C   UNL     1     -11.284  11.805  69.172  1.00  0.00    -0.324 A  
HETATM   10  C   UNL     1     -11.733  10.598  69.730  1.00  0.00    -0.310 A  
HETATM   11  C   UNL     1     -11.483  14.052  66.821  1.00  0.00    -0.379 A  
HETATM   12  O   UNL     1     -11.419   9.356  69.256  1.00  0.00    -0.439 OA 
HETATM   13  C   UNL     1     -12.253  14.693  65.851  1.00  0.00    -0.165 A  
HETATM   14  C   UNL     1     -12.582  10.583  70.846  1.00  0.00    -0.493 A  
HETATM   15  C   UNL     1     -13.023  11.769  71.425  1.00  0.00    -0.408 A  
HETATM   16  C   UNL     1     -12.718  13.984  64.756  1.00  0.00    -0.236 A  
HETATM   17  H   UNL     1     -11.723   8.539  69.634  1.00  0.00     0.000 HD 
HETATM   18  C   UNL     1     -12.589  12.982  70.912  1.00  0.00    -0.364 A  
HETATM   19  C   UNL     1     -12.407  12.629  64.634  1.00  0.00    -0.546 A  
HETATM   20  C   UNL     1     -11.652  11.984  65.625  1.00  0.00    -0.356 A  
HETATM   21  C   UNL     1     -13.075  14.303  71.430  1.00  0.00    -0.421 C  
HETATM   22  C   UNL     1     -11.700  12.979  69.827  1.00  0.00    -0.346 A  
ENDBRANCH   5   6
ENDBRANCH   4   5
BRANCH   4  23
HETATM   23  C   UNL     1      -7.987  15.843  67.346  1.00  0.00    -0.161 C  
HETATM   24  C   UNL     1      -8.916  15.960  66.124  1.00  0.00    -0.376 C  
HETATM   25  C   UNL     1      -8.754  16.555  68.489  1.00  0.00    -0.228 C  
ENDBRANCH   4  23
ENDBRANCH   2   4
TORSDOF 4
ENDMDL
MODEL       39
REMARK 921   NORMALIZED FREE ENERGY PREDICTED BY IDOCK:   -5.60 KCAL/MOL
REMARK 922        TOTAL FREE ENERGY PREDICTED BY IDOCK:   -7.75 KCAL/MOL
REMARK 923 INTER-LIGAND FREE ENERGY PREDICTED BY IDOCK:   -6.68 KCAL/MOL
REMARK 924 INTRA-LIGAND FREE ENERGY PREDICTED BY IDOCK:   -1.07 KCAL/MOL
REMARK 927      BINDING AFFINITY PREDICTED BY RF-SCORE:    0.00 PKD
ROOT
HETATM    1  C   UNL     1      -9.543  20.188  67.573  1.00  0.00    -0.547 C  
HETATM    2  C   UNL     1      -8.875  19.226  66.557  1.00  0.00    -0.346 C  
HETATM    3  C   UNL     1      -7.698  20.026  65.971  1.00  0.00    -0.318 C  
ENDROOT
BRANCH   2   4
HETATM    4  N   UNL     1      -8.492  17.915  67.166  1.00  0.00    -0.228 NA 
BRANCH   4   5
HETATM    5  C   UNL     1      -8.925  16.751  66.347  1.00  0.00    -0.289 C  
BRANCH   5   6
HETATM    6  C   UNL     1     -10.428  16.603  66.039  1.00  0.00    -0.306 C  
HETATM    7  C   UNL     1     -11.170  15.409  66.720  1.00  0.00    -0.197 C  
HETATM    8  C   UNL     1     -11.188  15.420  68.261  1.00  0.00    -0.325 A  
HETATM    9  C   UNL     1     -10.854  14.026  66.122  1.00  0.00    -0.291 A  
HETATM   10  C   UNL     1     -11.738  13.284  65.323  1.00  0.00    -0.330 A  
HETATM   11  C   UNL     1     -10.041  15.211  69.046  1.00  0.00    -0.244 A  
HETATM   12  O   UNL     1     -12.953  13.728  64.887  1.00  0.00    -0.712 OA 
HETATM   13  C   UNL     1     -10.105  15.098  70.435  1.00  0.00     0.155 A  
HETATM   14  C   UNL     1     -11.429  11.979  64.915  1.00  0.00    -0.352 A  
HETATM   15  C   UNL     1     -10.241  11.368  65.308  1.00  0.00    -0.320 A  
HETATM   16  C   UNL     1     -11.320  15.233  71.085  1.00  0.00    -0.402 A  
HETATM   17  H   UNL     1     -13.551  13.226  64.346  1.00  0.00     0.000 HD 
HETATM   18  C   UNL     1      -9.336  12.075  66.085  1.00  0.00    -0.217 A  
HETATM   19  C   UNL     1     -12.473  15.484  70.340  1.00  0.00    -0.443 A  
HETATM   20  C   UNL     1     -12.406  15.573  68.942  1.00  0.00     0.055 A  
HETATM   21  C   UNL     1      -8.070  11.466  66.612  1.00  0.00    -0.155 C  
HETATM   22  C   UNL     1      -9.637  13.397  66.443  1.00  0.00    -0.265 A  
ENDBRANCH   5   6
ENDBRANCH   4   5
BRANCH   4  23
HETATM   23  C   UNL     1      -7.092  17.768  67.670  1.00  0.00    -0.186 C  
HETATM   24  C   UNL     1      -6.970  17.379  69.154  1.00  0.00    -0.209 C  
HETATM   25  C   UNL     1      -6.299  16.673  66.913  1.00  0.00    -0.208 C  
ENDBRANCH   4  23
ENDBRANCH   2   4
TORSDOF 4
ENDMDL
MODEL       40
REMARK 921   NORMALIZED FREE ENERGY PREDICTED BY IDOCK:   -5.56 KCAL/MOL
REMARK 922        TOTAL FREE ENERGY PREDICTED BY IDOCK:   -7.70 KCAL/MOL
REMARK 923 INTER-LIGAND FREE ENERGY PREDICTED BY IDOCK:   -6.34 KCAL/MOL
REMARK 924 INTRA-LIGAND FREE ENERGY PREDICTED BY IDOCK:   -1.36 KCAL/MOL
REMARK 927      BINDING AFFINITY PREDICTED BY RF-SCORE:    0.00 PKD
ROOT
HETATM    1  C   UNL     1     -11.902  14.010  67.030  1.00  0.00    -0.458 C  
HETATM    2  C   UNL     1     -11.232  13.792  65.650  1.00  0.00    -0.302 C  
HETATM    3  C   UNL     1     -10.000  14.715  65.658  1.00  0.00    -0.381 C  
ENDROOT
BRANCH   2   4
HETATM    4  N   UNL     1     -10.928  12.354  65.374  1.00  0.00    -0.290 NA 
BRANCH   4   5
HETATM    5  C   UNL     1     -11.373  11.451  66.469  1.00  0.00    -0.122 C  
BRANCH   5   6
HETATM    6  C   UNL     1     -10.422  10.318  66.903  1.00  0.00    -0.291 C  
HETATM    7  C   UNL     1      -9.814  10.424  68.338  1.00  0.00    -0.173 C  
HETATM    8  C   UNL     1     -10.826  10.416  69.500  1.00  0.00    -0.295 A  
HETATM    9  C   UNL     1      -8.711  11.486  68.496  1.00  0.00    -0.138 A  
HETATM   10  C   UNL     1      -7.343  11.199  68.633  1.00  0.00    -0.110 A  
HETATM   11  C   UNL     1     -11.717  11.474  69.753  1.00  0.00    -0.426 A  
HETATM   12  O   UNL     1      -6.797   9.950  68.545  1.00  0.00    -0.058 OA 
HETATM   13  C   UNL     1     -12.533  11.500  70.884  1.00  0.00    -0.464 A  
HETATM   14  C   UNL     1      -6.410  12.212  68.896  1.00  0.00    -0.083 A  
HETATM   15  C   UNL     1      -6.814  13.535  69.050  1.00  0.00    -0.107 A  
HETATM   16  C   UNL     1     -12.513  10.442  71.777  1.00  0.00    -0.400 A  
HETATM   17  H   UNL     1      -5.872   9.757  68.638  1.00  0.00     0.000 HD 
HETATM   18  C   UNL     1      -8.155  13.860  68.907  1.00  0.00     0.033 A  
HETATM   19  C   UNL     1     -11.672   9.355  71.534  1.00  0.00    -0.465 A  
HETATM   20  C   UNL     1     -10.836   9.345  70.408  1.00  0.00    -0.321 A  
HETATM   21  C   UNL     1      -8.681  15.247  69.130  1.00  0.00    -0.238 C  
HETATM   22  C   UNL     1      -9.068  12.843  68.594  1.00  0.00     0.044 A  
ENDBRANCH   5   6
ENDBRANCH   4   5
BRANCH   4  23
HETATM   23  C   UNL     1     -11.274  11.820  64.020  1.00  0.00    -0.385 C  
HETATM   24  C   UNL     1     -12.262  12.681  63.214  1.00  0.00    -0.512 C  
HETATM   25  C   UNL     1     -10.036  11.682  63.100  1.00  0.00    -0.400 C  
ENDBRANCH   4  23
ENDBRANCH   2   4
TORSDOF 4
ENDMDL
MODEL       41
REMARK 921   NORMALIZED FREE ENERGY PREDICTED BY IDOCK:   -5.56 KCAL/MOL
REMARK 922        TOTAL FREE ENERGY PREDICTED BY IDOCK:   -7.70 KCAL/MOL
REMARK 923 INTER-LIGAND FREE ENERGY PREDICTED BY IDOCK:   -6.74 KCAL/MOL
REMARK 924 INTRA-LIGAND FREE ENERGY PREDICTED BY IDOCK:   -0.96 KCAL/MOL
REMARK 927      BINDING AFFINITY PREDICTED BY RF-SCORE:    0.00 PKD
ROOT
HETATM    1  C   UNL     1      -6.925  18.276  66.184  1.00  0.00    -0.301 C  
HETATM    2  C   UNL     1      -7.911  17.624  67.187  1.00  0.00    -0.209 C  
HETATM    3  C   UNL     1      -7.410  18.063  68.575  1.00  0.00    -0.276 C  
ENDROOT
BRANCH   2   4
HETATM    4  N   UNL     1      -9.338  17.969  66.904  1.00  0.00    -0.268 NA 
BRANCH   4   5
HETATM    5  C   UNL     1     -10.290  17.257  67.798  1.00  0.00    -0.356 C  
BRANCH   5   6
HETATM    6  C   UNL     1     -10.902  15.935  67.295  1.00  0.00    -0.279 C  
HETATM    7  C   UNL     1     -10.761  14.694  68.234  1.00  0.00    -0.240 C  
HETATM    8  C   UNL     1     -11.431  14.818  69.616  1.00  0.00    -0.327 A  
HETATM    9  C   UNL     1      -9.349  14.084  68.292  1.00  0.00    -0.208 A  
HETATM   10  C   UNL     1      -8.982  12.868  67.694  1.00  0.00    -0.192 A  
HETATM   11  C   UNL     1     -10.969  15.686  70.621  1.00  0.00    -0.364 A  
HETATM   12  O   UNL     1      -9.798  12.114  66.899  1.00  0.00    -0.198 OA 
HETATM   13  C   UNL     1     -11.512  15.687  71.906  1.00  0.00    -0.501 A  
HETATM   14  C   UNL     1      -7.710  12.314  67.892  1.00  0.00    -0.133 A  
HETATM   15  C   UNL     1      -6.774  12.944  68.706  1.00  0.00    -0.093 A  
HETATM   16  C   UNL     1     -12.569  14.845  72.212  1.00  0.00    -0.413 A  
HETATM   17  H   UNL     1      -9.550  11.291  66.495  1.00  0.00     0.000 HD 
HETATM   18  C   UNL     1      -7.094  14.155  69.303  1.00  0.00    -0.079 A  
HETATM   19  C   UNL     1     -13.081  14.001  71.225  1.00  0.00    -0.399 A  
HETATM   20  C   UNL     1     -12.515  13.987  69.942  1.00  0.00    -0.301 A  
HETATM   21  C   UNL     1      -6.171  14.860  70.252  1.00  0.00    -0.152 C  
HETATM   22  C   UNL     1      -8.353  14.721  69.054  1.00  0.00    -0.144 A  
ENDBRANCH   5   6
ENDBRANCH   4   5
BRANCH   4  23
HETATM   23  C   UNL     1      -9.682  19.415  66.743  1.00  0.00    -0.350 C  
HETATM   24  C   UNL     1     -10.719  19.720  65.647  1.00  0.00    -0.418 C  
HETATM   25  C   UNL     1     -10.282  20.033  68.031  1.00  0.00    -0.538 C  
ENDBRANCH   4  23
ENDBRANCH   2   4
TORSDOF 4
ENDMDL
MODEL       42
REMARK 921   NORMALIZED FREE ENERGY PREDICTED BY IDOCK:   -5.56 KCAL/MOL
REMARK 922        TOTAL FREE ENERGY PREDICTED BY IDOCK:   -7.70 KCAL/MOL
REMARK 923 INTER-LIGAND FREE ENERGY PREDICTED BY IDOCK:   -6.71 KCAL/MOL
REMARK 924 INTRA-LIGAND FREE ENERGY PREDICTED BY IDOCK:   -0.99 KCAL/MOL
REMARK 927      BINDING AFFINITY PREDICTED BY RF-SCORE:    0.00 PKD
ROOT
HETATM    1  C   UNL     1     -10.168   9.656  70.373  1.00  0.00    -0.348 C  
HETATM    2  C   UNL     1     -10.371   8.137  70.136  1.00  0.00    -0.215 C  
HETATM    3  C   UNL     1     -11.570   7.756  71.023  1.00  0.00    -0.301 C  
ENDROOT
BRANCH   2   4
HETATM    4  N   UNL     1     -10.534   7.793  68.690  1.00  0.00    -0.196 NA 
BRANCH   4   5
HETATM    5  C   UNL     1     -10.571   8.994  67.813  1.00  0.00    -0.214 C  
BRANCH   5   6
HETATM    6  C   UNL     1     -10.117   8.833  66.349  1.00  0.00    -0.313 C  
HETATM    7  C   UNL     1      -9.496  10.094  65.665  1.00  0.00    -0.275 C  
HETATM    8  C   UNL     1      -8.210  10.645  66.310  1.00  0.00    -0.153 A  
HETATM    9  C   UNL     1     -10.509  11.190  65.289  1.00  0.00    -0.326 A  
HETATM   10  C   UNL     1     -10.925  11.474  63.978  1.00  0.00    -0.383 A  
HETATM   11  C   UNL     1      -8.186  11.265  67.572  1.00  0.00    -0.124 A  
HETATM   12  O   UNL     1     -10.564  10.756  62.874  1.00  0.00    -0.745 OA 
HETATM   13  C   UNL     1      -7.035  11.869  68.078  1.00  0.00    -0.078 A  
HETATM   14  C   UNL     1     -11.756  12.568  63.700  1.00  0.00    -0.594 A  
HETATM   15  C   UNL     1     -12.183  13.420  64.715  1.00  0.00    -0.454 A  
HETATM   16  C   UNL     1      -5.857  11.833  67.351  1.00  0.00    -0.104 A  
HETATM   17  H   UNL     1     -10.845  10.949  61.987  1.00  0.00     0.000 HD 
HETATM   18  C   UNL     1     -11.806  13.163  66.025  1.00  0.00    -0.457 A  
HETATM   19  C   UNL     1      -5.834  11.188  66.113  1.00  0.00    -0.120 A  
HETATM   20  C   UNL     1      -7.000  10.603  65.599  1.00  0.00    -0.078 A  
HETATM   21  C   UNL     1     -12.159  14.072  67.163  1.00  0.00    -0.436 C  
HETATM   22  C   UNL     1     -11.014  12.036  66.293  1.00  0.00    -0.340 A  
ENDBRANCH   5   6
ENDBRANCH   4   5
BRANCH   4  23
HETATM   23  C   UNL     1      -9.667   6.708  68.135  1.00  0.00    -0.130 C  
HETATM   24  C   UNL     1      -8.530   6.244  69.061  1.00  0.00    -0.120 C  
HETATM   25  C   UNL     1     -10.461   5.417  67.814  1.00  0.00    -0.208 C  
ENDBRANCH   4  23
ENDBRANCH   2   4
TORSDOF 4
ENDMDL
MODEL       43
REMARK 921   NORMALIZED FREE ENERGY PREDICTED BY IDOCK:   -5.55 KCAL/MOL
REMARK 922        TOTAL FREE ENERGY PREDICTED BY IDOCK:   -7.69 KCAL/MOL
REMARK 923 INTER-LIGAND FREE ENERGY PREDICTED BY IDOCK:   -6.93 KCAL/MOL
REMARK 924 INTRA-LIGAND FREE ENERGY PREDICTED BY IDOCK:   -0.76 KCAL/MOL
REMARK 927      BINDING AFFINITY PREDICTED BY RF-SCORE:    0.00 PKD
ROOT
HETATM    1  C   UNL     1     -10.135  13.087  66.661  1.00  0.00    -0.251 C  
HETATM    2  C   UNL     1     -11.642  12.875  66.954  1.00  0.00    -0.368 C  
HETATM    3  C   UNL     1     -12.245  12.419  65.613  1.00  0.00    -0.322 C  
ENDROOT
BRANCH   2   4
HETATM    4  N   UNL     1     -11.884  11.938  68.094  1.00  0.00    -0.497 NA 
BRANCH   4   5
HETATM    5  C   UNL     1     -11.241  10.612  67.896  1.00  0.00    -0.308 C  
BRANCH   5   6
HETATM    6  C   UNL     1      -9.818  10.408  68.452  1.00  0.00    -0.173 C  
HETATM    7  C   UNL     1      -9.489   8.999  69.040  1.00  0.00    -0.155 C  
HETATM    8  C   UNL     1      -9.588   7.819  68.053  1.00  0.00    -0.166 A  
HETATM    9  C   UNL     1     -10.127   8.704  70.410  1.00  0.00    -0.213 A  
HETATM   10  C   UNL     1      -9.423   8.667  71.624  1.00  0.00    -0.269 A  
HETATM   11  C   UNL     1     -10.805   7.360  67.520  1.00  0.00    -0.257 A  
HETATM   12  O   UNL     1      -8.102   8.983  71.768  1.00  0.00    -0.348 OA 
HETATM   13  C   UNL     1     -10.882   6.212  66.732  1.00  0.00    -0.360 A  
HETATM   14  C   UNL     1     -10.047   8.272  72.815  1.00  0.00    -0.333 A  
HETATM   15  C   UNL     1     -11.384   7.884  72.828  1.00  0.00    -0.453 A  
HETATM   16  C   UNL     1      -9.731   5.510  66.416  1.00  0.00    -0.182 A  
HETATM   17  H   UNL     1      -7.626   8.958  72.590  1.00  0.00     0.000 HD 
HETATM   18  C   UNL     1     -12.117   7.922  71.651  1.00  0.00    -0.333 A  
HETATM   19  C   UNL     1      -8.500   5.962  66.893  1.00  0.00    -0.108 A  
HETATM   20  C   UNL     1      -8.431   7.103  67.705  1.00  0.00    -0.120 A  
HETATM   21  C   UNL     1     -13.538   7.450  71.566  1.00  0.00    -0.454 C  
HETATM   22  C   UNL     1     -11.491   8.368  70.478  1.00  0.00    -0.189 A  
ENDBRANCH   5   6
ENDBRANCH   4   5
BRANCH   4  23
HETATM   23  C   UNL     1     -11.686  12.466  69.479  1.00  0.00    -0.322 C  
HETATM   24  C   UNL     1     -12.098  13.934  69.682  1.00  0.00    -0.404 C  
HETATM   25  C   UNL     1     -12.500  11.682  70.538  1.00  0.00    -0.344 C  
ENDBRANCH   4  23
ENDBRANCH   2   4
TORSDOF 4
ENDMDL
MODEL       44
REMARK 921   NORMALIZED FREE ENERGY PREDICTED BY IDOCK:   -5.53 KCAL/MOL
REMARK 922        TOTAL FREE ENERGY PREDICTED BY IDOCK:   -7.67 KCAL/MOL
REMARK 923 INTER-LIGAND FREE ENERGY PREDICTED BY IDOCK:   -6.84 KCAL/MOL
REMARK 924 INTRA-LIGAND FREE ENERGY PREDICTED BY IDOCK:   -0.82 KCAL/MOL
REMARK 927      BINDING AFFINITY PREDICTED BY RF-SCORE:    0.00 PKD
ROOT
HETATM    1  C   UNL     1     -12.457  11.338  70.936  1.00  0.00    -0.493 C  
HETATM    2  C   UNL     1     -12.099   9.934  71.485  1.00  0.00    -0.410 C  
HETATM    3  C   UNL     1     -13.439   9.339  71.954  1.00  0.00    -0.497 C  
ENDROOT
BRANCH   2   4
HETATM    4  N   UNL     1     -11.361   9.094  70.492  1.00  0.00    -0.264 NA 
BRANCH   4   5
HETATM    5  C   UNL     1     -10.696   9.903  69.435  1.00  0.00    -0.232 C  
BRANCH   5   6
HETATM    6  C   UNL     1     -11.269   9.834  68.006  1.00  0.00    -0.059 C  
HETATM    7  C   UNL     1     -10.660  10.821  66.958  1.00  0.00    -0.312 C  
HETATM    8  C   UNL     1      -9.154  10.657  66.677  1.00  0.00    -0.176 A  
HETATM    9  C   UNL     1     -11.096  12.288  67.122  1.00  0.00    -0.330 A  
HETATM   10  C   UNL     1     -11.995  12.951  66.272  1.00  0.00    -0.408 A  
HETATM   11  C   UNL     1      -8.156  10.972  67.617  1.00  0.00    -0.116 A  
HETATM   12  O   UNL     1     -12.678  12.360  65.248  1.00  0.00    -0.617 OA 
HETATM   13  C   UNL     1      -6.799  10.938  67.295  1.00  0.00    -0.084 A  
HETATM   14  C   UNL     1     -12.250  14.323  66.411  1.00  0.00    -0.426 A  
HETATM   15  C   UNL     1     -11.604  15.076  67.386  1.00  0.00    -0.304 A  
HETATM   16  C   UNL     1      -6.397  10.545  66.030  1.00  0.00    -0.124 A  
HETATM   17  H   UNL     1     -13.286  12.809  64.673  1.00  0.00     0.000 HD 
HETATM   18  C   UNL     1     -10.720  14.454  68.255  1.00  0.00    -0.246 A  
HETATM   19  C   UNL     1      -7.360  10.184  65.085  1.00  0.00    -0.141 A  
HETATM   20  C   UNL     1      -8.724  10.243  65.407  1.00  0.00    -0.183 A  
HETATM   21  C   UNL     1      -9.928  15.206  69.282  1.00  0.00    -0.243 C  
HETATM   22  C   UNL     1     -10.513  13.072  68.135  1.00  0.00    -0.252 A  
ENDBRANCH   5   6
ENDBRANCH   4   5
BRANCH   4  23
HETATM   23  C   UNL     1     -10.475   8.012  71.022  1.00  0.00    -0.203 C  
HETATM   24  C   UNL     1      -9.976   8.226  72.462  1.00  0.00    -0.373 C  
HETATM   25  C   UNL     1     -11.176   6.631  71.054  1.00  0.00    -0.349 C  
ENDBRANCH   4  23
ENDBRANCH   2   4
TORSDOF 4
ENDMDL
MODEL       45
REMARK 921   NORMALIZED FREE ENERGY PREDICTED BY IDOCK:   -5.45 KCAL/MOL
REMARK 922        TOTAL FREE ENERGY PREDICTED BY IDOCK:   -7.57 KCAL/MOL
REMARK 923 INTER-LIGAND FREE ENERGY PREDICTED BY IDOCK:   -6.66 KCAL/MOL
REMARK 924 INTRA-LIGAND FREE ENERGY PREDICTED BY IDOCK:   -0.92 KCAL/MOL
REMARK 927      BINDING AFFINITY PREDICTED BY RF-SCORE:    0.00 PKD
ROOT
HETATM    1  C   UNL     1     -11.160   6.369  68.135  1.00  0.00    -0.358 C  
HETATM    2  C   UNL     1      -9.877   6.823  68.877  1.00  0.00    -0.145 C  
HETATM    3  C   UNL     1      -8.746   5.977  68.264  1.00  0.00    -0.113 C  
ENDROOT
BRANCH   2   4
HETATM    4  N   UNL     1      -9.657   8.300  68.804  1.00  0.00    -0.148 NA 
BRANCH   4   5
HETATM    5  C   UNL     1     -10.426   8.943  67.705  1.00  0.00    -0.255 C  
BRANCH   5   6
HETATM    6  C   UNL     1      -9.944   8.718  66.258  1.00  0.00    -0.315 C  
HETATM    7  C   UNL     1      -9.298   9.943  65.534  1.00  0.00    -0.280 C  
HETATM    8  C   UNL     1      -8.020  10.510  66.183  1.00  0.00    -0.147 A  
HETATM    9  C   UNL     1     -10.294  11.031  65.092  1.00  0.00    -0.346 A  
HETATM   10  C   UNL     1     -10.680  11.263  63.763  1.00  0.00    -0.379 A  
HETATM   11  C   UNL     1      -8.016  11.182  67.417  1.00  0.00    -0.125 A  
HETATM   12  O   UNL     1     -10.304  10.496  62.697  1.00  0.00    -0.715 OA 
HETATM   13  C   UNL     1      -6.870  11.798  67.921  1.00  0.00    -0.077 A  
HETATM   14  C   UNL     1     -11.496  12.350  63.422  1.00  0.00    -0.526 A  
HETATM   15  C   UNL     1     -11.935  13.248  64.391  1.00  0.00    -0.459 A  
HETATM   16  C   UNL     1      -5.678  11.722  67.220  1.00  0.00    -0.118 A  
HETATM   17  H   UNL     1     -10.566  10.654  61.798  1.00  0.00     0.000 HD 
HETATM   18  C   UNL     1     -11.587  13.043  65.718  1.00  0.00    -0.396 A  
HETATM   19  C   UNL     1      -5.636  11.025  66.012  1.00  0.00    -0.143 A  
HETATM   20  C   UNL     1      -6.797  10.428  65.498  1.00  0.00    -0.125 A  
HETATM   21  C   UNL     1     -11.956  14.002  66.810  1.00  0.00    -0.473 C  
HETATM   22  C   UNL     1     -10.812  11.922  66.049  1.00  0.00    -0.342 A  
ENDBRANCH   5   6
ENDBRANCH   4   5
BRANCH   4  23
HETATM   23  C   UNL     1      -9.732   9.076  70.080  1.00  0.00    -0.188 C  
HETATM   24  C   UNL     1      -8.373   9.464  70.688  1.00  0.00    -0.217 C  
HETATM   25  C   UNL     1     -10.485  10.420  69.917  1.00  0.00    -0.266 C  
ENDBRANCH   4  23
ENDBRANCH   2   4
TORSDOF 4
ENDMDL
MODEL       46
REMARK 921   NORMALIZED FREE ENERGY PREDICTED BY IDOCK:   -5.42 KCAL/MOL
REMARK 922        TOTAL FREE ENERGY PREDICTED BY IDOCK:   -7.53 KCAL/MOL
REMARK 923 INTER-LIGAND FREE ENERGY PREDICTED BY IDOCK:   -6.47 KCAL/MOL
REMARK 924 INTRA-LIGAND FREE ENERGY PREDICTED BY IDOCK:   -1.07 KCAL/MOL
REMARK 927      BINDING AFFINITY PREDICTED BY RF-SCORE:    0.00 PKD
ROOT
HETATM    1  C   UNL     1      -9.497  10.223  63.323  1.00  0.00    -0.342 C  
HETATM    2  C   UNL     1      -9.766  10.455  64.832  1.00  0.00    -0.309 C  
HETATM    3  C   UNL     1      -8.411  10.903  65.410  1.00  0.00    -0.088 C  
ENDROOT
BRANCH   2   4
HETATM    4  N   UNL     1     -10.892  11.407  65.080  1.00  0.00    -0.275 NA 
BRANCH   4   5
HETATM    5  C   UNL     1     -11.171  11.605  66.527  1.00  0.00    -0.294 C  
BRANCH   5   6
HETATM    6  C   UNL     1     -11.279  10.353  67.420  1.00  0.00    -0.205 C  
HETATM    7  C   UNL     1     -10.819  10.508  68.905  1.00  0.00    -0.275 C  
HETATM    8  C   UNL     1     -11.601  11.535  69.747  1.00  0.00    -0.401 A  
HETATM    9  C   UNL     1      -9.295  10.588  69.106  1.00  0.00    -0.200 A  
HETATM   10  C   UNL     1      -8.508   9.557  69.641  1.00  0.00    -0.169 A  
HETATM   11  C   UNL     1     -11.527  12.923  69.534  1.00  0.00    -0.292 A  
HETATM   12  O   UNL     1      -8.969   8.312  69.964  1.00  0.00    -0.140 OA 
HETATM   13  C   UNL     1     -12.142  13.837  70.389  1.00  0.00    -0.421 A  
HETATM   14  C   UNL     1      -7.145   9.745  69.908  1.00  0.00    -0.108 A  
HETATM   15  C   UNL     1      -6.531  10.971  69.668  1.00  0.00    -0.123 A  
HETATM   16  C   UNL     1     -12.889  13.386  71.464  1.00  0.00    -0.427 A  
HETATM   17  H   UNL     1      -8.436   7.615  70.327  1.00  0.00     0.000 HD 
HETATM   18  C   UNL     1      -7.272  12.010  69.124  1.00  0.00     0.002 A  
HETATM   19  C   UNL     1     -13.020  12.013  71.680  1.00  0.00    -0.439 A  
HETATM   20  C   UNL     1     -12.380  11.099  70.831  1.00  0.00    -0.500 A  
HETATM   21  C   UNL     1      -6.707  13.382  68.905  1.00  0.00    -0.110 C  
HETATM   22  C   UNL     1      -8.623  11.790  68.816  1.00  0.00     0.013 A  
ENDBRANCH   5   6
ENDBRANCH   4   5
BRANCH   4  23
HETATM   23  C   UNL     1     -10.891  12.695  64.319  1.00  0.00    -0.379 C  
HETATM   24  C   UNL     1     -12.159  12.962  63.489  1.00  0.00    -0.633 C  
HETATM   25  C   UNL     1     -10.760  13.932  65.243  1.00  0.00    -0.352 C  
ENDBRANCH   4  23
ENDBRANCH   2   4
TORSDOF 4
ENDMDL
MODEL       47
REMARK 921   NORMALIZED FREE ENERGY PREDICTED BY IDOCK:   -5.40 KCAL/MOL
REMARK 922        TOTAL FREE ENERGY PREDICTED BY IDOCK:   -7.51 KCAL/MOL
REMARK 923 INTER-LIGAND FREE ENERGY PREDICTED BY IDOCK:   -6.85 KCAL/MOL
REMARK 924 INTRA-LIGAND FREE ENERGY PREDICTED BY IDOCK:   -0.66 KCAL/MOL
REMARK 927      BINDING AFFINITY PREDICTED BY RF-SCORE:    0.00 PKD
ROOT
HETATM    1  C   UNL     1     -12.054  12.889  70.028  1.00  0.00    -0.357 C  
HETATM    2  C   UNL     1     -11.900  13.327  68.549  1.00  0.00    -0.349 C  
HETATM    3  C   UNL     1     -11.234  14.713  68.614  1.00  0.00    -0.293 C  
ENDROOT
BRANCH   2   4
HETATM    4  N   UNL     1     -11.164  12.322  67.721  1.00  0.00    -0.257 NA 
BRANCH   4   5
HETATM    5  C   UNL     1     -10.916  11.048  68.447  1.00  0.00    -0.230 C  
BRANCH   5   6
HETATM    6  C   UNL     1      -9.500  10.796  69.001  1.00  0.00    -0.179 C  
HETATM    7  C   UNL     1      -9.156   9.326  69.405  1.00  0.00    -0.152 C  
HETATM    8  C   UNL     1      -9.215   8.286  68.269  1.00  0.00    -0.135 A  
HETATM    9  C   UNL     1      -9.814   8.843  70.710  1.00  0.00    -0.278 A  
HETATM   10  C   UNL     1      -9.132   8.657  71.923  1.00  0.00    -0.256 A  
HETATM   11  C   UNL     1     -10.414   7.882  67.655  1.00  0.00    -0.303 A  
HETATM   12  O   UNL     1      -7.819   8.971  72.135  1.00  0.00    -0.355 OA 
HETATM   13  C   UNL     1     -10.455   6.848  66.721  1.00  0.00    -0.300 A  
HETATM   14  C   UNL     1      -9.770   8.098  73.039  1.00  0.00    -0.327 A  
HETATM   15  C   UNL     1     -11.100   7.690  72.973  1.00  0.00    -0.437 A  
HETATM   16  C   UNL     1      -9.286   6.212  66.339  1.00  0.00    -0.166 A  
HETATM   17  H   UNL     1      -7.358   8.845  72.956  1.00  0.00     0.000 HD 
HETATM   18  C   UNL     1     -11.811   7.872  71.796  1.00  0.00    -0.333 A  
HETATM   19  C   UNL     1      -8.072   6.616  66.897  1.00  0.00    -0.113 A  
HETATM   20  C   UNL     1      -8.039   7.641  67.854  1.00  0.00    -0.123 A  
HETATM   21  C   UNL     1     -13.222   7.393  71.620  1.00  0.00    -0.416 C  
HETATM   22  C   UNL     1     -11.172   8.479  70.705  1.00  0.00    -0.289 A  
ENDBRANCH   5   6
ENDBRANCH   4   5
BRANCH   4  23
HETATM   23  C   UNL     1     -11.639  12.097  66.321  1.00  0.00    -0.360 C  
HETATM   24  C   UNL     1     -12.192  13.346  65.612  1.00  0.00    -0.510 C  
HETATM   25  C   UNL     1     -10.516  11.582  65.387  1.00  0.00    -0.333 C  
ENDBRANCH   4  23
ENDBRANCH   2   4
TORSDOF 4
ENDMDL
MODEL       48
REMARK 921   NORMALIZED FREE ENERGY PREDICTED BY IDOCK:   -5.34 KCAL/MOL
REMARK 922        TOTAL FREE ENERGY PREDICTED BY IDOCK:   -7.43 KCAL/MOL
REMARK 923 INTER-LIGAND FREE ENERGY PREDICTED BY IDOCK:   -6.48 KCAL/MOL
REMARK 924 INTRA-LIGAND FREE ENERGY PREDICTED BY IDOCK:   -0.95 KCAL/MOL
REMARK 927      BINDING AFFINITY PREDICTED BY RF-SCORE:    0.00 PKD
ROOT
HETATM    1  C   UNL     1      -9.170   7.471  67.717  1.00  0.00    -0.139 C  
HETATM    2  C   UNL     1     -10.447   7.873  68.499  1.00  0.00    -0.167 C  
HETATM    3  C   UNL     1     -11.079   6.539  68.935  1.00  0.00    -0.371 C  
ENDROOT
BRANCH   2   4
HETATM    4  N   UNL     1     -10.165   8.822  69.619  1.00  0.00    -0.204 NA 
BRANCH   4   5
HETATM    5  C   UNL     1     -10.291  10.247  69.212  1.00  0.00    -0.231 C  
BRANCH   5   6
HETATM    6  C   UNL     1     -11.398  10.615  68.204  1.00  0.00    -0.354 C  
HETATM    7  C   UNL     1     -10.979  11.522  67.002  1.00  0.00    -0.347 C  
HETATM    8  C   UNL     1      -9.908  10.938  66.060  1.00  0.00    -0.280 A  
HETATM    9  C   UNL     1     -10.737  12.999  67.361  1.00  0.00    -0.256 A  
HETATM   10  C   UNL     1     -11.602  14.052  67.024  1.00  0.00    -0.371 A  
HETATM   11  C   UNL     1      -8.568  10.749  66.441  1.00  0.00    -0.159 A  
HETATM   12  O   UNL     1     -12.819  13.898  66.422  1.00  0.00    -0.420 OA 
HETATM   13  C   UNL     1      -7.591  10.340  65.533  1.00  0.00    -0.149 A  
HETATM   14  C   UNL     1     -11.257  15.387  67.276  1.00  0.00    -0.270 A  
HETATM   15  C   UNL     1     -10.033  15.713  67.853  1.00  0.00    -0.223 A  
HETATM   16  C   UNL     1      -7.938  10.066  64.220  1.00  0.00    -0.152 A  
HETATM   17  H   UNL     1     -13.404  14.610  66.194  1.00  0.00     0.000 HD 
HETATM   18  C   UNL     1      -9.158  14.700  68.214  1.00  0.00    -0.189 A  
HETATM   19  C   UNL     1      -9.268  10.201  63.819  1.00  0.00    -0.321 A  
HETATM   20  C   UNL     1     -10.241  10.636  64.730  1.00  0.00    -0.401 A  
HETATM   21  C   UNL     1      -7.791  14.969  68.771  1.00  0.00    -0.151 C  
HETATM   22  C   UNL     1      -9.539  13.367  68.001  1.00  0.00    -0.219 A  
ENDBRANCH   5   6
ENDBRANCH   4   5
BRANCH   4  23
HETATM   23  C   UNL     1     -10.812   8.547  70.939  1.00  0.00    -0.232 C  
HETATM   24  C   UNL     1      -9.845   8.467  72.134  1.00  0.00    -0.388 C  
HETATM   25  C   UNL     1     -11.837   9.638  71.338  1.00  0.00    -0.484 C  
ENDBRANCH   4  23
ENDBRANCH   2   4
TORSDOF 4
ENDMDL
MODEL       49
REMARK 921   NORMALIZED FREE ENERGY PREDICTED BY IDOCK:   -5.32 KCAL/MOL
REMARK 922        TOTAL FREE ENERGY PREDICTED BY IDOCK:   -7.41 KCAL/MOL
REMARK 923 INTER-LIGAND FREE ENERGY PREDICTED BY IDOCK:   -5.93 KCAL/MOL
REMARK 924 INTRA-LIGAND FREE ENERGY PREDICTED BY IDOCK:   -1.48 KCAL/MOL
REMARK 927      BINDING AFFINITY PREDICTED BY RF-SCORE:    0.00 PKD
ROOT
HETATM    1  C   UNL     1     -10.897   5.983  68.530  1.00  0.00    -0.363 C  
HETATM    2  C   UNL     1      -9.977   6.020  67.282  1.00  0.00    -0.150 C  
HETATM    3  C   UNL     1     -10.593   4.999  66.308  1.00  0.00    -0.332 C  
ENDROOT
BRANCH   2   4
HETATM    4  N   UNL     1      -9.817   7.396  66.720  1.00  0.00    -0.215 NA 
BRANCH   4   5
HETATM    5  C   UNL     1     -10.638   8.409  67.436  1.00  0.00    -0.243 C  
BRANCH   5   6
HETATM    6  C   UNL     1     -10.175   9.879  67.389  1.00  0.00    -0.275 C  
HETATM    7  C   UNL     1      -9.784  10.535  68.751  1.00  0.00    -0.187 C  
HETATM    8  C   UNL     1      -8.605   9.882  69.499  1.00  0.00    -0.194 A  
HETATM    9  C   UNL     1     -10.972  10.881  69.667  1.00  0.00    -0.311 A  
HETATM   10  C   UNL     1     -11.440  12.183  69.906  1.00  0.00    -0.133 A  
HETATM   11  C   UNL     1      -8.677   8.606  70.085  1.00  0.00    -0.144 A  
HETATM   12  O   UNL     1     -10.971  13.305  69.285  1.00  0.00    -0.391 OA 
HETATM   13  C   UNL     1      -7.643   8.091  70.866  1.00  0.00    -0.078 A  
HETATM   14  C   UNL     1     -12.449  12.432  70.847  1.00  0.00    -0.367 A  
HETATM   15  C   UNL     1     -13.006  11.396  71.591  1.00  0.00    -0.523 A  
HETATM   16  C   UNL     1      -6.482   8.823  71.048  1.00  0.00    -0.056 A  
HETATM   17  H   UNL     1     -11.288  14.186  69.447  1.00  0.00     0.000 HD 
HETATM   18  C   UNL     1     -12.580  10.094  71.372  1.00  0.00    -0.526 A  
HETATM   19  C   UNL     1      -6.359  10.076  70.444  1.00  0.00    -0.115 A  
HETATM   20  C   UNL     1      -7.412  10.599  69.681  1.00  0.00    -0.121 A  
HETATM   21  C   UNL     1     -13.075   8.933  72.182  1.00  0.00    -0.475 C  
HETATM   22  C   UNL     1     -11.606   9.856  70.391  1.00  0.00    -0.356 A  
ENDBRANCH   5   6
ENDBRANCH   4   5
BRANCH   4  23
HETATM   23  C   UNL     1      -8.427   7.877  66.451  1.00  0.00    -0.138 C  
HETATM   24  C   UNL     1      -7.310   7.030  67.087  1.00  0.00    -0.090 C  
HETATM   25  C   UNL     1      -8.087   7.899  64.939  1.00  0.00    -0.144 C  
ENDBRANCH   4  23
ENDBRANCH   2   4
TORSDOF 4
ENDMDL
MODEL       50
REMARK 921   NORMALIZED FREE ENERGY PREDICTED BY IDOCK:   -5.30 KCAL/MOL
REMARK 922        TOTAL FREE ENERGY PREDICTED BY IDOCK:   -7.39 KCAL/MOL
REMARK 923 INTER-LIGAND FREE ENERGY PREDICTED BY IDOCK:   -6.64 KCAL/MOL
REMARK 924 INTRA-LIGAND FREE ENERGY PREDICTED BY IDOCK:   -0.75 KCAL/MOL
REMARK 927      BINDING AFFINITY PREDICTED BY RF-SCORE:    0.00 PKD
ROOT
HETATM    1  C   UNL     1     -12.631  10.061  71.529  1.00  0.00    -0.525 C  
HETATM    2  C   UNL     1     -11.200   9.669  71.080  1.00  0.00    -0.384 C  
HETATM    3  C   UNL     1     -10.697   8.701  72.167  1.00  0.00    -0.417 C  
ENDROOT
BRANCH   2   4
HETATM    4  N   UNL     1     -11.159   9.118  69.691  1.00  0.00    -0.150 NA 
BRANCH   4   5
HETATM    5  C   UNL     1     -11.108  10.180  68.651  1.00  0.00    -0.205 C  
BRANCH   5   6
HETATM    6  C   UNL     1     -11.143  11.649  69.117  1.00  0.00    -0.302 C  
HETATM    7  C   UNL     1     -10.524  12.707  68.149  1.00  0.00    -0.239 C  
HETATM    8  C   UNL     1     -11.191  12.824  66.765  1.00  0.00    -0.338 A  
HETATM    9  C   UNL     1      -8.986  12.705  68.087  1.00  0.00    -0.199 A  
HETATM   10  C   UNL     1      -8.165  13.691  68.659  1.00  0.00    -0.058 A  
HETATM   11  C   UNL     1     -11.114  11.819  65.785  1.00  0.00    -0.351 A  
HETATM   12  O   UNL     1      -8.612  14.727  69.428  1.00  0.00    -0.378 OA 
HETATM   13  C   UNL     1     -11.616  12.001  64.496  1.00  0.00    -0.387 A  
HETATM   14  C   UNL     1      -6.778  13.689  68.458  1.00  0.00    -0.095 A  
HETATM   15  C   UNL     1      -6.170  12.718  67.666  1.00  0.00    -0.153 A  
HETATM   16  C   UNL     1     -12.252  13.185  64.162  1.00  0.00    -0.465 A  
HETATM   17  H   UNL     1      -8.057  15.393  69.815  1.00  0.00     0.000 HD 
HETATM   18  C   UNL     1      -6.946  11.719  67.097  1.00  0.00    -0.145 A  
HETATM   19  C   UNL     1     -12.385  14.188  65.123  1.00  0.00    -0.460 A  
HETATM   20  C   UNL     1     -11.856  14.009  66.410  1.00  0.00    -0.437 A  
HETATM   21  C   UNL     1      -6.381  10.682  66.173  1.00  0.00    -0.128 C  
HETATM   22  C   UNL     1      -8.326  11.706  67.349  1.00  0.00    -0.152 A  
ENDBRANCH   5   6
ENDBRANCH   4   5
BRANCH   4  23
HETATM   23  C   UNL     1     -10.199   8.005  69.415  1.00  0.00    -0.210 C  
HETATM   24  C   UNL     1     -10.844   6.688  68.948  1.00  0.00    -0.326 C  
HETATM   25  C   UNL     1      -9.182   8.358  68.301  1.00  0.00    -0.136 C  
ENDBRANCH   4  23
ENDBRANCH   2   4
TORSDOF 4
ENDMDL
MODEL       51
REMARK 921   NORMALIZED FREE ENERGY PREDICTED BY IDOCK:   -5.30 KCAL/MOL
REMARK 922        TOTAL FREE ENERGY PREDICTED BY IDOCK:   -7.39 KCAL/MOL
REMARK 923 INTER-LIGAND FREE ENERGY PREDICTED BY IDOCK:   -5.90 KCAL/MOL
REMARK 924 INTRA-LIGAND FREE ENERGY PREDICTED BY IDOCK:   -1.48 KCAL/MOL
REMARK 927      BINDING AFFINITY PREDICTED BY RF-SCORE:    0.00 PKD
ROOT
HETATM    1  C   UNL     1     -10.830   5.414  66.332  1.00  0.00    -0.202 C  
HETATM    2  C   UNL     1     -10.648   6.709  67.164  1.00  0.00    -0.331 C  
HETATM    3  C   UNL     1     -10.810   6.264  68.629  1.00  0.00    -0.401 C  
ENDROOT
BRANCH   2   4
HETATM    4  N   UNL     1      -9.361   7.412  66.867  1.00  0.00    -0.149 NA 
BRANCH   4   5
HETATM    5  C   UNL     1      -9.522   8.887  66.763  1.00  0.00    -0.187 C  
BRANCH   5   6
HETATM    6  C   UNL     1     -10.893   9.492  67.122  1.00  0.00    -0.156 C  
HETATM    7  C   UNL     1     -10.939  10.439  68.363  1.00  0.00    -0.312 C  
HETATM    8  C   UNL     1     -10.075  11.711  68.271  1.00  0.00    -0.206 A  
HETATM    9  C   UNL     1     -10.835   9.727  69.724  1.00  0.00    -0.285 A  
HETATM   10  C   UNL     1     -11.905   9.557  70.617  1.00  0.00    -0.233 A  
HETATM   11  C   UNL     1      -8.669  11.690  68.285  1.00  0.00    -0.163 A  
HETATM   12  O   UNL     1     -13.199   9.911  70.360  1.00  0.00    -0.590 OA 
HETATM   13  C   UNL     1      -7.911  12.860  68.330  1.00  0.00    -0.137 A  
HETATM   14  C   UNL     1     -11.708   9.007  71.892  1.00  0.00    -0.445 A  
HETATM   15  C   UNL     1     -10.439   8.629  72.320  1.00  0.00    -0.376 A  
HETATM   16  C   UNL     1      -8.541  14.094  68.318  1.00  0.00    -0.175 A  
HETATM   17  H   UNL     1     -13.922   9.796  70.964  1.00  0.00     0.000 HD 
HETATM   18  C   UNL     1      -9.359   8.767  71.460  1.00  0.00    -0.337 A  
HETATM   19  C   UNL     1      -9.934  14.152  68.261  1.00  0.00    -0.241 A  
HETATM   20  C   UNL     1     -10.692  12.972  68.240  1.00  0.00    -0.261 A  
HETATM   21  C   UNL     1      -7.951   8.454  71.870  1.00  0.00    -0.180 C  
HETATM   22  C   UNL     1      -9.581   9.272  70.171  1.00  0.00    -0.254 A  
ENDBRANCH   5   6
ENDBRANCH   4   5
BRANCH   4  23
HETATM   23  C   UNL     1      -8.160   7.025  67.670  1.00  0.00    -0.114 C  
HETATM   24  C   UNL     1      -7.300   5.906  67.056  1.00  0.00    -0.076 C  
HETATM   25  C   UNL     1      -7.177   8.204  67.876  1.00  0.00    -0.091 C  
ENDBRANCH   4  23
ENDBRANCH   2   4
TORSDOF 4
ENDMDL
MODEL       52
REMARK 921   NORMALIZED FREE ENERGY PREDICTED BY IDOCK:   -5.28 KCAL/MOL
REMARK 922        TOTAL FREE ENERGY PREDICTED BY IDOCK:   -7.36 KCAL/MOL
REMARK 923 INTER-LIGAND FREE ENERGY PREDICTED BY IDOCK:   -6.43 KCAL/MOL
REMARK 924 INTRA-LIGAND FREE ENERGY PREDICTED BY IDOCK:   -0.93 KCAL/MOL
REMARK 927      BINDING AFFINITY PREDICTED BY RF-SCORE:    0.00 PKD
ROOT
HETATM    1  C   UNL     1      -5.737  11.810  67.389  1.00  0.00    -0.102 C  
HETATM    2  C   UNL     1      -6.509  11.570  68.712  1.00  0.00    -0.058 C  
HETATM    3  C   UNL     1      -6.012  12.673  69.664  1.00  0.00    -0.122 C  
ENDROOT
BRANCH   2   4
HETATM    4  N   UNL     1      -7.991  11.538  68.520  1.00  0.00    -0.139 NA 
BRANCH   4   5
HETATM    5  C   UNL     1      -8.440  12.353  67.360  1.00  0.00    -0.179 C  
BRANCH   5   6
HETATM    6  C   UNL     1      -8.374  13.888  67.487  1.00  0.00    -0.202 C  
HETATM    7  C   UNL     1      -9.739  14.643  67.577  1.00  0.00    -0.210 C  
HETATM    8  C   UNL     1     -10.626  14.288  68.786  1.00  0.00    -0.255 A  
HETATM    9  C   UNL     1     -10.519  14.730  66.252  1.00  0.00    -0.300 A  
HETATM   10  C   UNL     1     -10.654  15.897  65.484  1.00  0.00    -0.401 A  
HETATM   11  C   UNL     1     -11.257  13.041  68.939  1.00  0.00    -0.326 A  
HETATM   12  O   UNL     1     -10.034  17.084  65.753  1.00  0.00    -0.524 OA 
HETATM   13  C   UNL     1     -12.156  12.789  69.975  1.00  0.00    -0.355 A  
HETATM   14  C   UNL     1     -11.481  15.931  64.352  1.00  0.00    -0.268 A  
HETATM   15  C   UNL     1     -12.211  14.811  63.965  1.00  0.00    -0.185 A  
HETATM   16  C   UNL     1     -12.418  13.768  70.919  1.00  0.00    -0.451 A  
HETATM   17  H   UNL     1     -10.126  17.873  65.233  1.00  0.00     0.000 HD 
HETATM   18  C   UNL     1     -12.092  13.635  64.690  1.00  0.00    -0.449 A  
HETATM   19  C   UNL     1     -11.775  15.003  70.822  1.00  0.00    -0.371 A  
HETATM   20  C   UNL     1     -10.891  15.260  69.764  1.00  0.00    -0.300 A  
HETATM   21  C   UNL     1     -12.899  12.408  64.385  1.00  0.00    -0.344 C  
HETATM   22  C   UNL     1     -11.222  13.603  65.790  1.00  0.00    -0.302 A  
ENDBRANCH   5   6
ENDBRANCH   4   5
BRANCH   4  23
HETATM   23  C   UNL     1      -8.667  10.205  68.575  1.00  0.00    -0.123 C  
HETATM   24  C   UNL     1      -9.353   9.877  69.913  1.00  0.00    -0.250 C  
HETATM   25  C   UNL     1      -9.789  10.062  67.516  1.00  0.00    -0.211 C  
ENDBRANCH   4  23
ENDBRANCH   2   4
TORSDOF 4
ENDMDL
MODEL       53
REMARK 921   NORMALIZED FREE ENERGY PREDICTED BY IDOCK:   -5.24 KCAL/MOL
REMARK 922        TOTAL FREE ENERGY PREDICTED BY IDOCK:   -7.31 KCAL/MOL
REMARK 923 INTER-LIGAND FREE ENERGY PREDICTED BY IDOCK:   -6.45 KCAL/MOL
REMARK 924 INTRA-LIGAND FREE ENERGY PREDICTED BY IDOCK:   -0.86 KCAL/MOL
REMARK 927      BINDING AFFINITY PREDICTED BY RF-SCORE:    0.00 PKD
ROOT
HETATM    1  C   UNL     1      -8.841   9.832  70.315  1.00  0.00    -0.188 C  
HETATM    2  C   UNL     1      -8.970   9.002  69.012  1.00  0.00    -0.140 C  
HETATM    3  C   UNL     1     -10.190   8.092  69.243  1.00  0.00    -0.216 C  
ENDROOT
BRANCH   2   4
HETATM    4  N   UNL     1      -9.054   9.855  67.787  1.00  0.00    -0.131 NA 
BRANCH   4   5
HETATM    5  C   UNL     1      -9.241  11.297  68.102  1.00  0.00    -0.170 C  
BRANCH   5   6
HETATM    6  C   UNL     1     -10.657  11.779  68.474  1.00  0.00    -0.242 C  
HETATM    7  C   UNL     1     -11.219  12.993  67.668  1.00  0.00    -0.315 C  
HETATM    8  C   UNL     1     -11.374  12.779  66.149  1.00  0.00    -0.371 A  
HETATM    9  C   UNL     1     -10.600  14.354  68.033  1.00  0.00    -0.241 A  
HETATM   10  C   UNL     1     -11.256  15.357  68.764  1.00  0.00    -0.301 A  
HETATM   11  C   UNL     1     -10.281  12.649  65.275  1.00  0.00    -0.302 A  
HETATM   12  O   UNL     1     -12.491  15.224  69.333  1.00  0.00    -0.578 OA 
HETATM   13  C   UNL     1     -10.444  12.586  63.891  1.00  0.00    -0.464 A  
HETATM   14  C   UNL     1     -10.675  16.618  68.954  1.00  0.00    -0.337 A  
HETATM   15  C   UNL     1      -9.433  16.924  68.405  1.00  0.00    -0.258 A  
HETATM   16  C   UNL     1     -11.715  12.606  63.342  1.00  0.00    -0.571 A  
HETATM   17  H   UNL     1     -12.935  15.902  69.828  1.00  0.00     0.000 HD 
HETATM   18  C   UNL     1      -8.747  15.954  67.688  1.00  0.00    -0.174 A  
HETATM   19  C   UNL     1     -12.825  12.690  64.184  1.00  0.00    -0.279 A  
HETATM   20  C   UNL     1     -12.654  12.779  65.573  1.00  0.00    -0.292 A  
HETATM   21  C   UNL     1      -7.441  16.226  67.003  1.00  0.00    -0.257 C  
HETATM   22  C   UNL     1      -9.320  14.682  67.551  1.00  0.00    -0.195 A  
ENDBRANCH   5   6
ENDBRANCH   4   5
BRANCH   4  23
HETATM   23  C   UNL     1      -8.035   9.633  66.717  1.00  0.00    -0.105 C  
HETATM   24  C   UNL     1      -8.592   9.092  65.388  1.00  0.00    -0.200 C  
HETATM   25  C   UNL     1      -7.288  10.933  66.326  1.00  0.00    -0.127 C  
ENDBRANCH   4  23
ENDBRANCH   2   4
TORSDOF 4
ENDMDL
MODEL       54
REMARK 921   NORMALIZED FREE ENERGY PREDICTED BY IDOCK:   -5.22 KCAL/MOL
REMARK 922        TOTAL FREE ENERGY PREDICTED BY IDOCK:   -7.28 KCAL/MOL
REMARK 923 INTER-LIGAND FREE ENERGY PREDICTED BY IDOCK:   -6.00 KCAL/MOL
REMARK 924 INTRA-LIGAND FREE ENERGY PREDICTED BY IDOCK:   -1.27 KCAL/MOL
REMARK 927      BINDING AFFINITY PREDICTED BY RF-SCORE:    0.00 PKD
ROOT
HETATM    1  C   UNL     1     -12.633  13.977  70.401  1.00  0.00    -0.374 C  
HETATM    2  C   UNL     1     -11.931  14.407  69.088  1.00  0.00    -0.322 C  
HETATM    3  C   UNL     1     -11.109  15.651  69.469  1.00  0.00    -0.298 C  
ENDROOT
BRANCH   2   4
HETATM    4  N   UNL     1     -11.135  13.302  68.468  1.00  0.00    -0.252 NA 
BRANCH   4   5
HETATM    5  C   UNL     1     -11.435  11.973  69.063  1.00  0.00    -0.300 C  
BRANCH   5   6
HETATM    6  C   UNL     1     -11.656  10.786  68.105  1.00  0.00    -0.276 C  
HETATM    7  C   UNL     1     -10.560   9.672  68.103  1.00  0.00    -0.273 C  
HETATM    8  C   UNL     1     -10.351   8.933  69.439  1.00  0.00    -0.217 A  
HETATM    9  C   UNL     1      -9.243  10.061  67.407  1.00  0.00    -0.153 A  
HETATM   10  C   UNL     1      -8.830   9.575  66.157  1.00  0.00    -0.152 A  
HETATM   11  C   UNL     1      -9.792   9.542  70.577  1.00  0.00    -0.331 A  
HETATM   12  O   UNL     1      -9.580   8.770  65.347  1.00  0.00    -0.449 OA 
HETATM   13  C   UNL     1      -9.494   8.819  71.732  1.00  0.00    -0.363 A  
HETATM   14  C   UNL     1      -7.562   9.878  65.642  1.00  0.00    -0.119 A  
HETATM   15  C   UNL     1      -6.663  10.658  66.364  1.00  0.00    -0.124 A  
HETATM   16  C   UNL     1      -9.788   7.468  71.799  1.00  0.00    -0.192 A  
HETATM   17  H   UNL     1      -9.300   8.441  64.502  1.00  0.00     0.000 HD 
HETATM   18  C   UNL     1      -7.041  11.170  67.596  1.00  0.00    -0.089 A  
HETATM   19  C   UNL     1     -10.383   6.840  70.703  1.00  0.00    -0.225 A  
HETATM   20  C   UNL     1     -10.658   7.567  69.535  1.00  0.00    -0.239 A  
HETATM   21  C   UNL     1      -6.108  11.955  68.469  1.00  0.00    -0.050 C  
HETATM   22  C   UNL     1      -8.331  10.899  68.075  1.00  0.00    -0.122 A  
ENDBRANCH   5   6
ENDBRANCH   4   5
BRANCH   4  23
HETATM   23  C   UNL     1     -11.061  13.255  66.976  1.00  0.00    -0.282 C  
HETATM   24  C   UNL     1     -12.193  13.998  66.244  1.00  0.00    -0.493 C  
HETATM   25  C   UNL     1      -9.759  13.887  66.423  1.00  0.00    -0.309 C  
ENDBRANCH   4  23
ENDBRANCH   2   4
TORSDOF 4
ENDMDL
MODEL       55
REMARK 921   NORMALIZED FREE ENERGY PREDICTED BY IDOCK:   -5.21 KCAL/MOL
REMARK 922        TOTAL FREE ENERGY PREDICTED BY IDOCK:   -7.28 KCAL/MOL
REMARK 923 INTER-LIGAND FREE ENERGY PREDICTED BY IDOCK:   -6.35 KCAL/MOL
REMARK 924 INTRA-LIGAND FREE ENERGY PREDICTED BY IDOCK:   -0.93 KCAL/MOL
REMARK 927      BINDING AFFINITY PREDICTED BY RF-SCORE:    0.00 PKD
ROOT
HETATM    1  C   UNL     1     -10.582   7.516  67.035  1.00  0.00    -0.409 C  
HETATM    2  C   UNL     1      -9.323   8.194  66.437  1.00  0.00    -0.210 C  
HETATM    3  C   UNL     1      -8.505   7.040  65.827  1.00  0.00    -0.154 C  
ENDROOT
BRANCH   2   4
HETATM    4  N   UNL     1      -9.656   9.292  65.479  1.00  0.00    -0.260 NA 
BRANCH   4   5
HETATM    5  C   UNL     1      -9.875  10.599  66.155  1.00  0.00    -0.217 C  
BRANCH   5   6
HETATM    6  C   UNL     1     -11.270  10.882  66.746  1.00  0.00    -0.109 C  
HETATM    7  C   UNL     1     -11.313  11.503  68.179  1.00  0.00    -0.367 C  
HETATM    8  C   UNL     1     -10.645  12.884  68.333  1.00  0.00    -0.267 A  
HETATM    9  C   UNL     1     -10.968  10.527  69.318  1.00  0.00    -0.291 A  
HETATM   10  C   UNL     1     -11.903   9.991  70.218  1.00  0.00    -0.216 A  
HETATM   11  C   UNL     1      -9.257  13.082  68.242  1.00  0.00    -0.191 A  
HETATM   12  O   UNL     1     -13.253  10.185  70.146  1.00  0.00    -0.552 OA 
HETATM   13  C   UNL     1      -8.666  14.316  68.513  1.00  0.00    -0.175 A  
HETATM   14  C   UNL     1     -11.498   9.205  71.305  1.00  0.00    -0.405 A  
HETATM   15  C   UNL     1     -10.150   8.945  71.539  1.00  0.00    -0.394 A  
HETATM   16  C   UNL     1      -9.456  15.405  68.842  1.00  0.00    -0.219 A  
HETATM   17  H   UNL     1     -13.885   9.823  70.755  1.00  0.00     0.000 HD 
HETATM   18  C   UNL     1      -9.198   9.444  70.662  1.00  0.00    -0.303 A  
HETATM   19  C   UNL     1     -10.842  15.254  68.900  1.00  0.00    -0.247 A  
HETATM   20  C   UNL     1     -11.429  14.004  68.651  1.00  0.00    -0.337 A  
HETATM   21  C   UNL     1      -7.724   9.272  70.883  1.00  0.00    -0.134 C  
HETATM   22  C   UNL     1      -9.623  10.187  69.551  1.00  0.00    -0.243 A  
ENDBRANCH   5   6
ENDBRANCH   4   5
BRANCH   4  23
HETATM   23  C   UNL     1      -8.811   9.421  64.252  1.00  0.00    -0.184 C  
HETATM   24  C   UNL     1      -9.448  10.223  63.104  1.00  0.00    -0.337 C  
HETATM   25  C   UNL     1      -7.465  10.136  64.528  1.00  0.00    -0.127 C  
ENDBRANCH   4  23
ENDBRANCH   2   4
TORSDOF 4
ENDMDL
MODEL       56
REMARK 921   NORMALIZED FREE ENERGY PREDICTED BY IDOCK:   -5.17 KCAL/MOL
REMARK 922        TOTAL FREE ENERGY PREDICTED BY IDOCK:   -7.23 KCAL/MOL
REMARK 923 INTER-LIGAND FREE ENERGY PREDICTED BY IDOCK:   -6.36 KCAL/MOL
REMARK 924 INTRA-LIGAND FREE ENERGY PREDICTED BY IDOCK:   -0.87 KCAL/MOL
REMARK 927      BINDING AFFINITY PREDICTED BY RF-SCORE:    0.00 PKD
ROOT
HETATM    1  C   UNL     1     -10.763  10.404  67.151  1.00  0.00    -0.316 C  
HETATM    2  C   UNL     1     -10.002  11.658  66.649  1.00  0.00    -0.203 C  
HETATM    3  C   UNL     1      -9.089  11.142  65.523  1.00  0.00    -0.211 C  
ENDROOT
BRANCH   2   4
HETATM    4  N   UNL     1     -10.919  12.768  66.246  1.00  0.00    -0.274 NA 
BRANCH   4   5
HETATM    5  C   UNL     1     -10.652  14.032  66.984  1.00  0.00    -0.279 C  
BRANCH   5   6
HETATM    6  C   UNL     1      -9.529  14.029  68.039  1.00  0.00    -0.206 C  
HETATM    7  C   UNL     1      -9.562  15.173  69.103  1.00  0.00    -0.232 C  
HETATM    8  C   UNL     1     -10.811  15.215  70.006  1.00  0.00    -0.275 A  
HETATM    9  C   UNL     1      -9.142  16.557  68.577  1.00  0.00    -0.231 A  
HETATM   10  C   UNL     1      -7.923  17.186  68.878  1.00  0.00    -0.208 A  
HETATM   11  C   UNL     1     -12.091  15.556  69.535  1.00  0.00    -0.326 A  
HETATM   12  O   UNL     1      -6.908  16.616  69.593  1.00  0.00    -0.210 OA 
HETATM   13  C   UNL     1     -13.178  15.712  70.395  1.00  0.00     0.090 A  
HETATM   14  C   UNL     1      -7.660  18.499  68.464  1.00  0.00    -0.328 A  
HETATM   15  C   UNL     1      -8.609  19.230  67.756  1.00  0.00    -0.341 A  
HETATM   16  C   UNL     1     -13.025  15.488  71.752  1.00  0.00    -0.528 A  
HETATM   17  H   UNL     1      -6.084  17.041  69.796  1.00  0.00     0.000 HD 
HETATM   18  C   UNL     1      -9.820  18.638  67.426  1.00  0.00    -0.347 A  
HETATM   19  C   UNL     1     -11.778  15.105  72.248  1.00  0.00    -0.496 A  
HETATM   20  C   UNL     1     -10.682  14.973  71.383  1.00  0.00     0.334 A  
HETATM   21  C   UNL     1     -10.923  19.380  66.732  1.00  0.00    -0.372 C  
HETATM   22  C   UNL     1     -10.047  17.307  67.805  1.00  0.00    -0.311 A  
ENDBRANCH   5   6
ENDBRANCH   4   5
BRANCH   4  23
HETATM   23  C   UNL     1     -11.128  12.997  64.783  1.00  0.00    -0.322 C  
HETATM   24  C   UNL     1     -12.396  12.350  64.197  1.00  0.00    -0.558 C  
HETATM   25  C   UNL     1     -11.256  14.499  64.426  1.00  0.00    -0.208 C  
ENDBRANCH   4  23
ENDBRANCH   2   4
TORSDOF 4
ENDMDL
MODEL       57
REMARK 921   NORMALIZED FREE ENERGY PREDICTED BY IDOCK:   -5.17 KCAL/MOL
REMARK 922        TOTAL FREE ENERGY PREDICTED BY IDOCK:   -7.21 KCAL/MOL
REMARK 923 INTER-LIGAND FREE ENERGY PREDICTED BY IDOCK:   -5.71 KCAL/MOL
REMARK 924 INTRA-LIGAND FREE ENERGY PREDICTED BY IDOCK:   -1.51 KCAL/MOL
REMARK 927      BINDING AFFINITY PREDICTED BY RF-SCORE:    0.00 PKD
ROOT
HETATM    1  C   UNL     1     -10.815   8.481  69.831  1.00  0.00    -0.205 C  
HETATM    2  C   UNL     1     -10.248   7.323  68.972  1.00  0.00    -0.197 C  
HETATM    3  C   UNL     1     -11.138   6.111  69.305  1.00  0.00    -0.463 C  
ENDROOT
BRANCH   2   4
HETATM    4  N   UNL     1     -10.178   7.661  67.517  1.00  0.00    -0.206 NA 
BRANCH   4   5
HETATM    5  C   UNL     1     -10.670   9.032  67.221  1.00  0.00    -0.151 C  
BRANCH   5   6
HETATM    6  C   UNL     1     -10.034   9.789  66.038  1.00  0.00    -0.342 C  
HETATM    7  C   UNL     1      -9.315  11.135  66.371  1.00  0.00    -0.207 C  
HETATM    8  C   UNL     1      -8.115  11.037  67.334  1.00  0.00    -0.122 A  
HETATM    9  C   UNL     1     -10.258  12.310  66.687  1.00  0.00    -0.235 A  
HETATM   10  C   UNL     1     -10.498  13.392  65.826  1.00  0.00    -0.290 A  
HETATM   11  C   UNL     1      -8.246  10.719  68.697  1.00  0.00    -0.139 A  
HETATM   12  O   UNL     1     -10.007  13.500  64.556  1.00  0.00    -0.631 OA 
HETATM   13  C   UNL     1      -7.162  10.763  69.574  1.00  0.00    -0.132 A  
HETATM   14  C   UNL     1     -11.273  14.487  66.231  1.00  0.00    -0.342 A  
HETATM   15  C   UNL     1     -11.816  14.545  67.512  1.00  0.00    -0.404 A  
HETATM   16  C   UNL     1      -5.901  11.085  69.101  1.00  0.00    -0.041 A  
HETATM   17  H   UNL     1     -10.170  14.232  63.973  1.00  0.00     0.000 HD 
HETATM   18  C   UNL     1     -11.613  13.488  68.387  1.00  0.00    -0.378 A  
HETATM   19  C   UNL     1      -5.728  11.364  67.745  1.00  0.00    -0.046 A  
HETATM   20  C   UNL     1      -6.825  11.342  66.872  1.00  0.00    -0.142 A  
HETATM   21  C   UNL     1     -12.099  13.506  69.806  1.00  0.00    -0.381 C  
HETATM   22  C   UNL     1     -10.877  12.378  67.949  1.00  0.00    -0.253 A  
ENDBRANCH   5   6
ENDBRANCH   4   5
BRANCH   4  23
HETATM   23  C   UNL     1      -8.909   7.342  66.792  1.00  0.00    -0.134 C  
HETATM   24  C   UNL     1      -7.651   7.280  67.677  1.00  0.00    -0.110 C  
HETATM   25  C   UNL     1      -8.957   5.964  66.085  1.00  0.00    -0.157 C  
ENDBRANCH   4  23
ENDBRANCH   2   4
TORSDOF 4
ENDMDL
MODEL       58
REMARK 921   NORMALIZED FREE ENERGY PREDICTED BY IDOCK:   -5.16 KCAL/MOL
REMARK 922        TOTAL FREE ENERGY PREDICTED BY IDOCK:   -7.21 KCAL/MOL
REMARK 923 INTER-LIGAND FREE ENERGY PREDICTED BY IDOCK:   -6.38 KCAL/MOL
REMARK 924 INTRA-LIGAND FREE ENERGY PREDICTED BY IDOCK:   -0.83 KCAL/MOL
REMARK 927      BINDING AFFINITY PREDICTED BY RF-SCORE:    0.00 PKD
ROOT
HETATM    1  C   UNL     1     -12.226  12.377  64.609  1.00  0.00    -0.499 C  
HETATM    2  C   UNL     1     -11.386  13.663  64.819  1.00  0.00    -0.354 C  
HETATM    3  C   UNL     1     -12.266  14.803  64.275  1.00  0.00    -0.402 C  
ENDROOT
BRANCH   2   4
HETATM    4  N   UNL     1     -10.945  13.841  66.237  1.00  0.00    -0.296 NA 
BRANCH   4   5
HETATM    5  C   UNL     1     -10.310  15.164  66.480  1.00  0.00    -0.282 C  
BRANCH   5   6
HETATM    6  C   UNL     1      -9.019  15.499  65.707  1.00  0.00     0.040 C  
HETATM    7  C   UNL     1      -7.924  16.300  66.483  1.00  0.00    -0.326 C  
HETATM    8  C   UNL     1      -7.345  15.609  67.733  1.00  0.00    -0.169 A  
HETATM    9  C   UNL     1      -8.246  17.789  66.701  1.00  0.00    -0.287 A  
HETATM   10  C   UNL     1      -7.624  18.846  66.017  1.00  0.00    -0.231 A  
HETATM   11  C   UNL     1      -8.086  15.399  68.909  1.00  0.00    -0.185 A  
HETATM   12  O   UNL     1      -6.724  18.694  65.001  1.00  0.00    -0.526 OA 
HETATM   13  C   UNL     1      -7.503  14.889  70.070  1.00  0.00     0.126 A  
HETATM   14  C   UNL     1      -7.880  20.182  66.356  1.00  0.00    -0.294 A  
HETATM   15  C   UNL     1      -8.747  20.503  67.396  1.00  0.00    -0.373 A  
HETATM   16  C   UNL     1      -6.165  14.533  70.073  1.00  0.00    -0.159 A  
HETATM   17  H   UNL     1      -6.304  19.409  64.539  1.00  0.00     0.000 HD 
HETATM   18  C   UNL     1      -9.392  19.487  68.085  1.00  0.00    -0.422 A  
HETATM   19  C   UNL     1      -5.410  14.688  68.910  1.00  0.00    -0.088 A  
HETATM   20  C   UNL     1      -5.995  15.224  67.753  1.00  0.00    -0.157 A  
HETATM   21  C   UNL     1     -10.282  19.745  69.265  1.00  0.00    -0.225 C  
HETATM   22  C   UNL     1      -9.164  18.158  67.701  1.00  0.00    -0.259 A  
ENDBRANCH   5   6
ENDBRANCH   4   5
BRANCH   4  23
HETATM   23  C   UNL     1     -11.912  13.467  67.315  1.00  0.00    -0.365 C  
HETATM   24  C   UNL     1     -11.556  12.189  68.094  1.00  0.00    -0.397 C  
HETATM   25  C   UNL     1     -12.045  14.563  68.402  1.00  0.00    -0.249 C  
ENDBRANCH   4  23
ENDBRANCH   2   4
TORSDOF 4
ENDMDL
MODEL       59
REMARK 921   NORMALIZED FREE ENERGY PREDICTED BY IDOCK:   -5.13 KCAL/MOL
REMARK 922        TOTAL FREE ENERGY PREDICTED BY IDOCK:   -7.18 KCAL/MOL
REMARK 923 INTER-LIGAND FREE ENERGY PREDICTED BY IDOCK:   -5.93 KCAL/MOL
REMARK 924 INTRA-LIGAND FREE ENERGY PREDICTED BY IDOCK:   -1.25 KCAL/MOL
REMARK 927      BINDING AFFINITY PREDICTED BY RF-SCORE:    0.00 PKD
ROOT
HETATM    1  C   UNL     1     -11.760  14.971  69.172  1.00  0.00    -0.345 C  
HETATM    2  C   UNL     1     -11.033  13.739  68.576  1.00  0.00    -0.262 C  
HETATM    3  C   UNL     1     -11.926  12.539  68.942  1.00  0.00    -0.282 C  
ENDROOT
BRANCH   2   4
HETATM    4  N   UNL     1     -10.754  13.882  67.114  1.00  0.00    -0.281 NA 
BRANCH   4   5
HETATM    5  C   UNL     1     -10.480  15.288  66.715  1.00  0.00    -0.293 C  
BRANCH   5   6
HETATM    6  C   UNL     1      -9.224  15.567  65.866  1.00  0.00    -0.305 C  
HETATM    7  C   UNL     1      -8.063  16.344  66.565  1.00  0.00    -0.345 C  
HETATM    8  C   UNL     1      -7.437  15.655  67.794  1.00  0.00    -0.163 A  
HETATM    9  C   UNL     1      -8.324  17.846  66.774  1.00  0.00    -0.273 A  
HETATM   10  C   UNL     1      -7.707  18.871  66.038  1.00  0.00    -0.213 A  
HETATM   11  C   UNL     1      -8.118  15.488  69.013  1.00  0.00    -0.220 A  
HETATM   12  O   UNL     1      -6.871  18.672  64.977  1.00  0.00    -0.511 OA 
HETATM   13  C   UNL     1      -7.488  14.979  70.149  1.00  0.00     0.239 A  
HETATM   14  C   UNL     1      -7.900  20.220  66.366  1.00  0.00    -0.248 A  
HETATM   15  C   UNL     1      -8.698  20.587  67.447  1.00  0.00    -0.373 A  
HETATM   16  C   UNL     1      -6.164  14.579  70.085  1.00  0.00    -0.167 A  
HETATM   17  H   UNL     1      -6.454  19.366  64.479  1.00  0.00     0.000 HD 
HETATM   18  C   UNL     1      -9.336  19.604  68.188  1.00  0.00    -0.433 A  
HETATM   19  C   UNL     1      -5.470  14.690  68.879  1.00  0.00    -0.087 A  
HETATM   20  C   UNL     1      -6.102  15.225  67.747  1.00  0.00    -0.169 A  
HETATM   21  C   UNL     1     -10.150  19.910  69.410  1.00  0.00    -0.186 C  
HETATM   22  C   UNL     1      -9.172  18.262  67.817  1.00  0.00    -0.276 A  
ENDBRANCH   5   6
ENDBRANCH   4   5
BRANCH   4  23
HETATM   23  C   UNL     1      -9.794  12.917  66.495  1.00  0.00    -0.254 C  
HETATM   24  C   UNL     1      -8.828  12.236  67.480  1.00  0.00    -0.182 C  
HETATM   25  C   UNL     1     -10.508  11.745  65.776  1.00  0.00    -0.302 C  
ENDBRANCH   4  23
ENDBRANCH   2   4
TORSDOF 4
ENDMDL
MODEL       60
REMARK 921   NORMALIZED FREE ENERGY PREDICTED BY IDOCK:   -5.13 KCAL/MOL
REMARK 922        TOTAL FREE ENERGY PREDICTED BY IDOCK:   -7.17 KCAL/MOL
REMARK 923 INTER-LIGAND FREE ENERGY PREDICTED BY IDOCK:   -5.57 KCAL/MOL
REMARK 924 INTRA-LIGAND FREE ENERGY PREDICTED BY IDOCK:   -1.60 KCAL/MOL
REMARK 927      BINDING AFFINITY PREDICTED BY RF-SCORE:    0.00 PKD
ROOT
HETATM    1  C   UNL     1      -8.155   8.591  63.901  1.00  0.00    -0.155 C  
HETATM    2  C   UNL     1      -8.464   9.267  65.261  1.00  0.00    -0.154 C  
HETATM    3  C   UNL     1      -7.415  10.387  65.393  1.00  0.00    -0.127 C  
ENDROOT
BRANCH   2   4
HETATM    4  N   UNL     1      -9.882   9.730  65.370  1.00  0.00    -0.319 NA 
BRANCH   4   5
HETATM    5  C   UNL     1     -10.528   9.313  66.643  1.00  0.00    -0.167 C  
BRANCH   5   6
HETATM    6  C   UNL     1      -9.669   8.554  67.674  1.00  0.00    -0.201 C  
HETATM    7  C   UNL     1      -9.415   9.270  69.039  1.00  0.00    -0.155 C  
HETATM    8  C   UNL     1     -10.669   9.584  69.877  1.00  0.00    -0.268 A  
HETATM    9  C   UNL     1      -8.412  10.437  68.979  1.00  0.00    -0.155 A  
HETATM   10  C   UNL     1      -7.106  10.390  69.491  1.00  0.00    -0.113 A  
HETATM   11  C   UNL     1     -11.626  10.543  69.503  1.00  0.00    -0.332 A  
HETATM   12  O   UNL     1      -6.516   9.278  70.020  1.00  0.00    -0.043 OA 
HETATM   13  C   UNL     1     -12.683  10.900  70.340  1.00  0.00    -0.326 A  
HETATM   14  C   UNL     1      -6.291  11.531  69.512  1.00  0.00    -0.116 A  
HETATM   15  C   UNL     1      -6.760  12.754  69.041  1.00  0.00    -0.096 A  
HETATM   16  C   UNL     1     -12.839  10.273  71.565  1.00  0.00    -0.557 A  
HETATM   17  H   UNL     1      -5.632   9.246  70.366  1.00  0.00     0.000 HD 
HETATM   18  C   UNL     1      -8.040  12.837  68.513  1.00  0.00    -0.080 A  
HETATM   19  C   UNL     1     -11.931   9.285  71.950  1.00  0.00    -0.433 A  
HETATM   20  C   UNL     1     -10.856   8.947  71.114  1.00  0.00    -0.352 A  
HETATM   21  C   UNL     1      -8.646  14.130  68.055  1.00  0.00    -0.172 C  
HETATM   22  C   UNL     1      -8.824  11.675  68.454  1.00  0.00    -0.161 A  
ENDBRANCH   5   6
ENDBRANCH   4   5
BRANCH   4  23
HETATM   23  C   UNL     1     -10.174  11.155  65.023  1.00  0.00    -0.296 C  
HETATM   24  C   UNL     1     -10.653  11.389  63.580  1.00  0.00    -0.468 C  
HETATM   25  C   UNL     1     -11.287  11.767  65.909  1.00  0.00    -0.324 C  
ENDBRANCH   4  23
ENDBRANCH   2   4
TORSDOF 4
ENDMDL
MODEL       61
REMARK 921   NORMALIZED FREE ENERGY PREDICTED BY IDOCK:   -5.11 KCAL/MOL
REMARK 922        TOTAL FREE ENERGY PREDICTED BY IDOCK:   -7.14 KCAL/MOL
REMARK 923 INTER-LIGAND FREE ENERGY PREDICTED BY IDOCK:   -5.75 KCAL/MOL
REMARK 924 INTRA-LIGAND FREE ENERGY PREDICTED BY IDOCK:   -1.39 KCAL/MOL
REMARK 927      BINDING AFFINITY PREDICTED BY RF-SCORE:    0.00 PKD
ROOT
HETATM    1  C   UNL     1      -9.743   8.827  66.632  1.00  0.00    -0.309 C  
HETATM    2  C   UNL     1      -8.576   8.789  67.652  1.00  0.00    -0.128 C  
HETATM    3  C   UNL     1      -7.540   7.835  67.031  1.00  0.00    -0.100 C  
ENDROOT
BRANCH   2   4
HETATM    4  N   UNL     1      -8.049  10.149  67.981  1.00  0.00    -0.111 NA 
BRANCH   4   5
HETATM    5  C   UNL     1      -8.625  11.214  67.117  1.00  0.00    -0.139 C  
BRANCH   5   6
HETATM    6  C   UNL     1      -8.609  12.662  67.646  1.00  0.00    -0.180 C  
HETATM    7  C   UNL     1      -9.995  13.357  67.830  1.00  0.00    -0.233 C  
HETATM    8  C   UNL     1     -10.955  12.690  68.835  1.00  0.00    -0.273 A  
HETATM    9  C   UNL     1     -10.683  13.785  66.520  1.00  0.00    -0.284 A  
HETATM   10  C   UNL     1     -10.795  15.112  66.077  1.00  0.00    -0.335 A  
HETATM   11  C   UNL     1     -11.562  11.443  68.608  1.00  0.00    -0.384 A  
HETATM   12  O   UNL     1     -10.226  16.190  66.693  1.00  0.00    -0.271 OA 
HETATM   13  C   UNL     1     -12.524  10.920  69.472  1.00  0.00    -0.126 A  
HETATM   14  C   UNL     1     -11.542  15.437  64.936  1.00  0.00    -0.248 A  
HETATM   15  C   UNL     1     -12.214  14.454  64.215  1.00  0.00    -0.450 A  
HETATM   16  C   UNL     1     -12.877  11.614  70.617  1.00  0.00    -0.124 A  
HETATM   17  H   UNL     1     -10.302  17.088  66.393  1.00  0.00     0.000 HD 
HETATM   18  C   UNL     1     -12.114  13.129  64.614  1.00  0.00    -0.462 A  
HETATM   19  C   UNL     1     -12.262  12.836  70.895  1.00  0.00    -0.284 A  
HETATM   20  C   UNL     1     -11.313  13.368  70.011  1.00  0.00    -0.009 A  
HETATM   21  C   UNL     1     -12.866  12.021  63.938  1.00  0.00    -0.400 C  
HETATM   22  C   UNL     1     -11.323  12.814  65.728  1.00  0.00    -0.357 A  
ENDBRANCH   5   6
ENDBRANCH   4   5
BRANCH   4  23
HETATM   23  C   UNL     1      -8.007  10.546  69.422  1.00  0.00    -0.140 C  
HETATM   24  C   UNL     1      -8.668   9.550  70.391  1.00  0.00    -0.265 C  
HETATM   25  C   UNL     1      -6.561  10.706  69.953  1.00  0.00    -0.137 C  
ENDBRANCH   4  23
ENDBRANCH   2   4
TORSDOF 4
ENDMDL
MODEL       62
REMARK 921   NORMALIZED FREE ENERGY PREDICTED BY IDOCK:   -5.07 KCAL/MOL
REMARK 922        TOTAL FREE ENERGY PREDICTED BY IDOCK:   -7.10 KCAL/MOL
REMARK 923 INTER-LIGAND FREE ENERGY PREDICTED BY IDOCK:   -5.91 KCAL/MOL
REMARK 924 INTRA-LIGAND FREE ENERGY PREDICTED BY IDOCK:   -1.18 KCAL/MOL
REMARK 927      BINDING AFFINITY PREDICTED BY RF-SCORE:    0.00 PKD
ROOT
HETATM    1  C   UNL     1     -12.431  12.254  63.389  1.00  0.00    -0.592 C  
HETATM    2  C   UNL     1     -11.319  11.496  64.158  1.00  0.00    -0.267 C  
HETATM    3  C   UNL     1     -10.070  11.615  63.265  1.00  0.00    -0.454 C  
ENDROOT
BRANCH   2   4
HETATM    4  N   UNL     1     -11.134  11.999  65.554  1.00  0.00    -0.305 NA 
BRANCH   4   5
HETATM    5  C   UNL     1     -10.008  11.333  66.261  1.00  0.00    -0.221 C  
BRANCH   5   6
HETATM    6  C   UNL     1     -10.259   9.937  66.866  1.00  0.00    -0.302 C  
HETATM    7  C   UNL     1     -10.084   9.800  68.412  1.00  0.00    -0.189 C  
HETATM    8  C   UNL     1     -11.025  10.665  69.275  1.00  0.00    -0.294 A  
HETATM    9  C   UNL     1      -8.625   9.811  68.902  1.00  0.00    -0.134 A  
HETATM   10  C   UNL     1      -7.934   8.681  69.368  1.00  0.00    -0.102 A  
HETATM   11  C   UNL     1     -10.934  12.067  69.345  1.00  0.00    -0.128 A  
HETATM   12  O   UNL     1      -8.428   7.408  69.360  1.00  0.00    -0.131 OA 
HETATM   13  C   UNL     1     -11.710  12.815  70.229  1.00  0.00    -0.188 A  
HETATM   14  C   UNL     1      -6.647   8.789  69.913  1.00  0.00    -0.041 A  
HETATM   15  C   UNL     1      -6.019  10.026  70.026  1.00  0.00    -0.053 A  
HETATM   16  C   UNL     1     -12.636  12.184  71.043  1.00  0.00    -0.359 A  
HETATM   17  H   UNL     1      -7.960   6.644  69.676  1.00  0.00     0.000 HD 
HETATM   18  C   UNL     1      -6.663  11.163  69.561  1.00  0.00    -0.132 A  
HETATM   19  C   UNL     1     -12.783  10.798  70.968  1.00  0.00    -0.513 A  
HETATM   20  C   UNL     1     -11.983  10.048  70.094  1.00  0.00    -0.204 A  
HETATM   21  C   UNL     1      -6.088  12.540  69.713  1.00  0.00    -0.134 C  
HETATM   22  C   UNL     1      -7.930  11.032  68.974  1.00  0.00    -0.114 A  
ENDBRANCH   5   6
ENDBRANCH   4   5
BRANCH   4  23
HETATM   23  C   UNL     1     -11.141  13.480  65.763  1.00  0.00    -0.286 C  
HETATM   24  C   UNL     1     -12.246  14.000  66.699  1.00  0.00    -0.463 C  
HETATM   25  C   UNL     1      -9.822  14.000  66.389  1.00  0.00    -0.306 C  
ENDBRANCH   4  23
ENDBRANCH   2   4
TORSDOF 4
ENDMDL
MODEL       63
REMARK 921   NORMALIZED FREE ENERGY PREDICTED BY IDOCK:   -5.06 KCAL/MOL
REMARK 922        TOTAL FREE ENERGY PREDICTED BY IDOCK:   -7.08 KCAL/MOL
REMARK 923 INTER-LIGAND FREE ENERGY PREDICTED BY IDOCK:   -6.46 KCAL/MOL
REMARK 924 INTRA-LIGAND FREE ENERGY PREDICTED BY IDOCK:   -0.62 KCAL/MOL
REMARK 927      BINDING AFFINITY PREDICTED BY RF-SCORE:    0.00 PKD
ROOT
HETATM    1  C   UNL     1     -12.835  11.800  63.476  1.00  0.00    -0.347 C  
HETATM    2  C   UNL     1     -11.719  12.872  63.563  1.00  0.00    -0.512 C  
HETATM    3  C   UNL     1     -12.411  14.114  64.155  1.00  0.00    -0.372 C  
ENDROOT
BRANCH   2   4
HETATM    4  N   UNL     1     -10.524  12.403  64.330  1.00  0.00    -0.339 NA 
BRANCH   4   5
HETATM    5  C   UNL     1     -10.529  12.865  65.744  1.00  0.00    -0.278 C  
BRANCH   5   6
HETATM    6  C   UNL     1      -9.889  14.232  66.059  1.00  0.00    -0.336 C  
HETATM    7  C   UNL     1      -9.353  14.436  67.513  1.00  0.00    -0.198 C  
HETATM    8  C   UNL     1      -8.230  13.479  67.956  1.00  0.00    -0.163 A  
HETATM    9  C   UNL     1     -10.442  14.636  68.582  1.00  0.00    -0.244 A  
HETATM   10  C   UNL     1     -10.733  15.861  69.203  1.00  0.00    -0.259 A  
HETATM   11  C   UNL     1      -8.431  12.105  68.177  1.00  0.00    -0.175 A  
HETATM   12  O   UNL     1     -10.159  17.056  68.874  1.00  0.00    -0.276 OA 
HETATM   13  C   UNL     1      -7.431  11.286  68.701  1.00  0.00    -0.118 A  
HETATM   14  C   UNL     1     -11.655  15.943  70.256  1.00  0.00    -0.365 A  
HETATM   15  C   UNL     1     -12.299  14.805  70.733  1.00  0.00    -0.397 A  
HETATM   16  C   UNL     1      -6.180  11.811  68.979  1.00  0.00    -0.072 A  
HETATM   17  H   UNL     1     -10.356  17.885  69.294  1.00  0.00     0.000 HD 
HETATM   18  C   UNL     1     -12.050  13.579  70.135  1.00  0.00    -0.425 A  
HETATM   19  C   UNL     1      -5.933  13.162  68.731  1.00  0.00    -0.076 A  
HETATM   20  C   UNL     1      -6.949  13.986  68.227  1.00  0.00    -0.107 A  
HETATM   21  C   UNL     1     -12.645  12.296  70.636  1.00  0.00    -0.241 C  
HETATM   22  C   UNL     1     -11.163  13.522  69.050  1.00  0.00    -0.314 A  
ENDBRANCH   5   6
ENDBRANCH   4   5
BRANCH   4  23
HETATM   23  C   UNL     1     -10.141  10.963  64.203  1.00  0.00    -0.355 C  
HETATM   24  C   UNL     1      -8.755  10.710  63.583  1.00  0.00    -0.146 C  
HETATM   25  C   UNL     1     -10.096  10.236  65.570  1.00  0.00    -0.351 C  
ENDBRANCH   4  23
ENDBRANCH   2   4
TORSDOF 4
ENDMDL
MODEL       64
REMARK 921   NORMALIZED FREE ENERGY PREDICTED BY IDOCK:   -5.03 KCAL/MOL
REMARK 922        TOTAL FREE ENERGY PREDICTED BY IDOCK:   -7.05 KCAL/MOL
REMARK 923 INTER-LIGAND FREE ENERGY PREDICTED BY IDOCK:   -6.01 KCAL/MOL
REMARK 924 INTRA-LIGAND FREE ENERGY PREDICTED BY IDOCK:   -1.04 KCAL/MOL
REMARK 927      BINDING AFFINITY PREDICTED BY RF-SCORE:    0.00 PKD
ROOT
HETATM    1  C   UNL     1      -8.608   9.274  70.768  1.00  0.00    -0.254 C  
HETATM    2  C   UNL     1      -9.923   8.462  70.650  1.00  0.00    -0.185 C  
HETATM    3  C   UNL     1     -10.788   8.937  71.831  1.00  0.00    -0.433 C  
ENDROOT
BRANCH   2   4
HETATM    4  N   UNL     1     -10.571   8.601  69.310  1.00  0.00    -0.218 NA 
BRANCH   4   5
HETATM    5  C   UNL     1     -10.213   9.873  68.627  1.00  0.00    -0.178 C  
BRANCH   5   6
HETATM    6  C   UNL     1     -11.285  10.548  67.749  1.00  0.00    -0.344 C  
HETATM    7  C   UNL     1     -10.780  11.598  66.707  1.00  0.00    -0.299 C  
HETATM    8  C   UNL     1      -9.815  11.065  65.631  1.00  0.00    -0.287 A  
HETATM    9  C   UNL     1     -10.342  12.946  67.308  1.00  0.00    -0.234 A  
HETATM   10  C   UNL     1     -11.072  14.140  67.200  1.00  0.00    -0.307 A  
HETATM   11  C   UNL     1      -8.502  10.648  65.911  1.00  0.00    -0.167 A  
HETATM   12  O   UNL     1     -12.311  14.247  66.635  1.00  0.00    -0.511 OA 
HETATM   13  C   UNL     1      -7.606  10.293  64.903  1.00  0.00    -0.119 A  
HETATM   14  C   UNL     1     -10.552  15.355  67.666  1.00  0.00    -0.280 A  
HETATM   15  C   UNL     1      -9.284  15.420  68.236  1.00  0.00    -0.188 A  
HETATM   16  C   UNL     1      -8.014  10.303  63.580  1.00  0.00    -0.143 A  
HETATM   17  H   UNL     1     -12.805  15.055  66.562  1.00  0.00     0.000 HD 
HETATM   18  C   UNL     1      -8.538  14.259  68.374  1.00  0.00    -0.175 A  
HETATM   19  C   UNL     1      -9.324  10.670  63.268  1.00  0.00    -0.329 A  
HETATM   20  C   UNL     1     -10.213  11.050  64.285  1.00  0.00    -0.414 A  
HETATM   21  C   UNL     1      -7.137  14.254  68.908  1.00  0.00    -0.113 C  
HETATM   22  C   UNL     1      -9.093  13.043  67.948  1.00  0.00    -0.207 A  
ENDBRANCH   5   6
ENDBRANCH   4   5
BRANCH   4  23
HETATM   23  C   UNL     1     -10.517   7.425  68.388  1.00  0.00    -0.185 C  
HETATM   24  C   UNL     1      -9.350   7.436  67.385  1.00  0.00    -0.154 C  
HETATM   25  C   UNL     1     -10.368   6.081  69.146  1.00  0.00    -0.289 C  
ENDBRANCH   4  23
ENDBRANCH   2   4
TORSDOF 4
ENDMDL
MODEL       65
REMARK 921   NORMALIZED FREE ENERGY PREDICTED BY IDOCK:   -5.03 KCAL/MOL
REMARK 922        TOTAL FREE ENERGY PREDICTED BY IDOCK:   -7.04 KCAL/MOL
REMARK 923 INTER-LIGAND FREE ENERGY PREDICTED BY IDOCK:   -5.92 KCAL/MOL
REMARK 924 INTRA-LIGAND FREE ENERGY PREDICTED BY IDOCK:   -1.13 KCAL/MOL
REMARK 927      BINDING AFFINITY PREDICTED BY RF-SCORE:    0.00 PKD
ROOT
HETATM    1  C   UNL     1     -10.603   7.772  67.074  1.00  0.00    -0.396 C  
HETATM    2  C   UNL     1      -9.936   7.738  68.473  1.00  0.00    -0.182 C  
HETATM    3  C   UNL     1      -8.480   7.317  68.206  1.00  0.00    -0.124 C  
ENDROOT
BRANCH   2   4
HETATM    4  N   UNL     1     -10.083   9.028  69.216  1.00  0.00    -0.189 NA 
BRANCH   4   5
HETATM    5  C   UNL     1     -10.378  10.178  68.320  1.00  0.00    -0.186 C  
BRANCH   5   6
HETATM    6  C   UNL     1      -9.426  11.389  68.362  1.00  0.00    -0.194 C  
HETATM    7  C   UNL     1      -8.914  11.928  66.988  1.00  0.00    -0.190 C  
HETATM    8  C   UNL     1      -9.998  12.442  66.021  1.00  0.00    -0.270 A  
HETATM    9  C   UNL     1      -7.853  11.047  66.303  1.00  0.00    -0.141 A  
HETATM   10  C   UNL     1      -6.490  11.370  66.211  1.00  0.00     0.033 A  
HETATM   11  C   UNL     1     -10.932  11.600  65.392  1.00  0.00    -0.328 A  
HETATM   12  O   UNL     1      -5.905  12.455  66.800  1.00  0.00    -0.481 OA 
HETATM   13  C   UNL     1     -11.820  12.070  64.424  1.00  0.00    -0.395 A  
HETATM   14  C   UNL     1      -5.604  10.579  65.466  1.00  0.00    -0.124 A  
HETATM   15  C   UNL     1      -6.052   9.457  64.776  1.00  0.00    -0.072 A  
HETATM   16  C   UNL     1     -11.828  13.413  64.087  1.00  0.00    -0.492 A  
HETATM   17  H   UNL     1      -4.983  12.672  66.738  1.00  0.00     0.000 HD 
HETATM   18  C   UNL     1      -7.390   9.097  64.855  1.00  0.00    -0.101 A  
HETATM   19  C   UNL     1     -10.943  14.286  64.723  1.00  0.00    -0.408 A  
HETATM   20  C   UNL     1     -10.037  13.803  65.678  1.00  0.00    -0.315 A  
HETATM   21  C   UNL     1      -7.967   7.948  64.083  1.00  0.00    -0.125 C  
HETATM   22  C   UNL     1      -8.253   9.870  65.645  1.00  0.00    -0.138 A  
ENDBRANCH   5   6
ENDBRANCH   4   5
BRANCH   4  23
HETATM   23  C   UNL     1     -10.938   9.027  70.442  1.00  0.00    -0.247 C  
HETATM   24  C   UNL     1     -10.175   8.868  71.769  1.00  0.00    -0.414 C  
HETATM   25  C   UNL     1     -11.741  10.341  70.609  1.00  0.00    -0.438 C  
ENDBRANCH   4  23
ENDBRANCH   2   4
TORSDOF 4
ENDMDL
MODEL       66
REMARK 921   NORMALIZED FREE ENERGY PREDICTED BY IDOCK:   -5.03 KCAL/MOL
REMARK 922        TOTAL FREE ENERGY PREDICTED BY IDOCK:   -7.04 KCAL/MOL
REMARK 923 INTER-LIGAND FREE ENERGY PREDICTED BY IDOCK:   -6.89 KCAL/MOL
REMARK 924 INTRA-LIGAND FREE ENERGY PREDICTED BY IDOCK:   -0.15 KCAL/MOL
REMARK 927      BINDING AFFINITY PREDICTED BY RF-SCORE:    0.00 PKD
ROOT
HETATM    1  C   UNL     1     -12.771  12.282  71.291  1.00  0.00    -0.351 C  
HETATM    2  C   UNL     1     -12.178  10.862  71.107  1.00  0.00    -0.336 C  
HETATM    3  C   UNL     1     -13.315   9.904  71.508  1.00  0.00    -0.462 C  
ENDROOT
BRANCH   2   4
HETATM    4  N   UNL     1     -11.631  10.635  69.734  1.00  0.00    -0.284 NA 
BRANCH   4   5
HETATM    5  C   UNL     1     -10.856  11.797  69.224  1.00  0.00    -0.133 C  
BRANCH   5   6
HETATM    6  C   UNL     1     -11.641  13.021  68.712  1.00  0.00    -0.350 C  
HETATM    7  C   UNL     1     -11.116  13.696  67.404  1.00  0.00    -0.299 C  
HETATM    8  C   UNL     1     -11.109  12.807  66.145  1.00  0.00    -0.322 A  
HETATM    9  C   UNL     1      -9.829  14.523  67.575  1.00  0.00    -0.222 A  
HETATM   10  C   UNL     1      -9.776  15.925  67.557  1.00  0.00    -0.223 A  
HETATM   11  C   UNL     1     -10.242  11.712  65.980  1.00  0.00    -0.270 A  
HETATM   12  O   UNL     1     -10.866  16.745  67.485  1.00  0.00    -0.307 OA 
HETATM   13  C   UNL     1     -10.166  11.002  64.782  1.00  0.00    -0.381 A  
HETATM   14  C   UNL     1      -8.552  16.608  67.596  1.00  0.00    -0.207 A  
HETATM   15  C   UNL     1      -7.346  15.914  67.635  1.00  0.00    -0.180 A  
HETATM   16  C   UNL     1     -10.990  11.343  63.722  1.00  0.00    -0.448 A  
HETATM   17  H   UNL     1     -10.830  17.694  67.473  1.00  0.00     0.000 HD 
HETATM   18  C   UNL     1      -7.358  14.527  67.670  1.00  0.00    -0.201 A  
HETATM   19  C   UNL     1     -11.893  12.397  63.866  1.00  0.00    -0.551 A  
HETATM   20  C   UNL     1     -11.948  13.122  65.066  1.00  0.00    -0.423 A  
HETATM   21  C   UNL     1      -6.104  13.705  67.637  1.00  0.00    -0.108 C  
HETATM   22  C   UNL     1      -8.592  13.861  67.681  1.00  0.00    -0.190 A  
ENDBRANCH   5   6
ENDBRANCH   4   5
BRANCH   4  23
HETATM   23  C   UNL     1     -10.946   9.333  69.467  1.00  0.00    -0.151 C  
HETATM   24  C   UNL     1     -10.627   9.055  67.988  1.00  0.00    -0.242 C  
HETATM   25  C   UNL     1      -9.580   9.219  70.189  1.00  0.00    -0.254 C  
ENDBRANCH   4  23
ENDBRANCH   2   4
TORSDOF 4
ENDMDL
MODEL       67
REMARK 921   NORMALIZED FREE ENERGY PREDICTED BY IDOCK:   -5.01 KCAL/MOL
REMARK 922        TOTAL FREE ENERGY PREDICTED BY IDOCK:   -7.03 KCAL/MOL
REMARK 923 INTER-LIGAND FREE ENERGY PREDICTED BY IDOCK:   -5.86 KCAL/MOL
REMARK 924 INTRA-LIGAND FREE ENERGY PREDICTED BY IDOCK:   -1.17 KCAL/MOL
REMARK 927      BINDING AFFINITY PREDICTED BY RF-SCORE:    0.00 PKD
ROOT
HETATM    1  C   UNL     1      -7.403   7.098  66.880  1.00  0.00    -0.088 C  
HETATM    2  C   UNL     1      -8.196   7.280  68.199  1.00  0.00    -0.124 C  
HETATM    3  C   UNL     1      -8.687   8.740  68.167  1.00  0.00    -0.134 C  
ENDROOT
BRANCH   2   4
HETATM    4  N   UNL     1      -9.281   6.265  68.369  1.00  0.00    -0.113 NA 
BRANCH   4   5
HETATM    5  C   UNL     1     -10.587   6.873  68.736  1.00  0.00    -0.220 C  
BRANCH   5   6
HETATM    6  C   UNL     1     -11.395   6.219  69.874  1.00  0.00    -0.504 C  
HETATM    7  C   UNL     1     -11.387   6.954  71.253  1.00  0.00    -0.319 C  
HETATM    8  C   UNL     1     -11.975   8.378  71.259  1.00  0.00    -0.323 A  
HETATM    9  C   UNL     1     -10.071   6.833  72.042  1.00  0.00    -0.198 A  
HETATM   10  C   UNL     1      -9.900   6.039  73.187  1.00  0.00    -0.169 A  
HETATM   11  C   UNL     1     -11.356   9.470  70.625  1.00  0.00    -0.364 A  
HETATM   12  O   UNL     1     -10.844   5.194  73.697  1.00  0.00    -0.272 OA 
HETATM   13  C   UNL     1     -11.840  10.772  70.753  1.00  0.00    -0.443 A  
HETATM   14  C   UNL     1      -8.709   6.073  73.925  1.00  0.00    -0.123 A  
HETATM   15  C   UNL     1      -7.661   6.912  73.556  1.00  0.00    -0.091 A  
HETATM   16  C   UNL     1     -12.988  11.015  71.489  1.00  0.00    -0.553 A  
HETATM   17  H   UNL     1     -10.729   4.657  74.472  1.00  0.00     0.000 HD 
HETATM   18  C   UNL     1      -7.787   7.700  72.421  1.00  0.00    -0.120 A  
HETATM   19  C   UNL     1     -13.652   9.948  72.096  1.00  0.00    -0.392 A  
HETATM   20  C   UNL     1     -13.148   8.644  71.983  1.00  0.00    -0.417 A  
HETATM   21  C   UNL     1      -6.737   8.683  71.998  1.00  0.00    -0.078 C  
HETATM   22  C   UNL     1      -8.965   7.617  71.666  1.00  0.00    -0.148 A  
ENDBRANCH   5   6
ENDBRANCH   4   5
BRANCH   4  23
HETATM   23  C   UNL     1      -9.418   5.215  67.313  1.00  0.00    -0.131 C  
HETATM   24  C   UNL     1      -9.486   3.769  67.836  1.00  0.00    -0.224 C  
HETATM   25  C   UNL     1     -10.704   5.386  66.467  1.00  0.00    -0.309 C  
ENDBRANCH   4  23
ENDBRANCH   2   4
TORSDOF 4
ENDMDL
MODEL       68
REMARK 921   NORMALIZED FREE ENERGY PREDICTED BY IDOCK:   -4.99 KCAL/MOL
REMARK 922        TOTAL FREE ENERGY PREDICTED BY IDOCK:   -7.00 KCAL/MOL
REMARK 923 INTER-LIGAND FREE ENERGY PREDICTED BY IDOCK:   -6.87 KCAL/MOL
REMARK 924 INTRA-LIGAND FREE ENERGY PREDICTED BY IDOCK:   -0.13 KCAL/MOL
REMARK 927      BINDING AFFINITY PREDICTED BY RF-SCORE:    0.00 PKD
ROOT
HETATM    1  C   UNL     1     -13.966  13.077  72.223  1.00  0.00    -0.421 C  
HETATM    2  C   UNL     1     -12.619  12.547  71.669  1.00  0.00    -0.084 C  
HETATM    3  C   UNL     1     -12.903  11.089  71.264  1.00  0.00    -0.528 C  
ENDROOT
BRANCH   2   4
HETATM    4  N   UNL     1     -12.068  13.400  70.571  1.00  0.00    -0.347 NA 
BRANCH   4   5
HETATM    5  C   UNL     1     -12.233  12.785  69.227  1.00  0.00    -0.054 C  
BRANCH   5   6
HETATM    6  C   UNL     1     -11.249  11.671  68.817  1.00  0.00    -0.304 C  
HETATM    7  C   UNL     1     -10.165  12.047  67.756  1.00  0.00    -0.211 C  
HETATM    8  C   UNL     1      -9.186  13.166  68.164  1.00  0.00    -0.215 A  
HETATM    9  C   UNL     1     -10.691  12.190  66.317  1.00  0.00    -0.296 A  
HETATM   10  C   UNL     1     -10.455  11.264  65.288  1.00  0.00    -0.282 A  
HETATM   11  C   UNL     1      -9.570  14.510  68.311  1.00  0.00    -0.212 A  
HETATM   12  O   UNL     1      -9.815  10.068  65.448  1.00  0.00    -0.281 OA 
HETATM   13  C   UNL     1      -8.643  15.523  68.554  1.00  0.00    -0.176 A  
HETATM   14  C   UNL     1     -10.861  11.520  63.971  1.00  0.00    -0.453 A  
HETATM   15  C   UNL     1     -11.496  12.713  63.637  1.00  0.00    -0.563 A  
HETATM   16  C   UNL     1      -7.301  15.212  68.700  1.00  0.00    -0.121 A  
HETATM   17  H   UNL     1      -9.656   9.442  64.752  1.00  0.00     0.000 HD 
HETATM   18  C   UNL     1     -11.760  13.646  64.629  1.00  0.00    -0.414 A  
HETATM   19  C   UNL     1      -6.890  13.882  68.603  1.00  0.00    -0.101 A  
HETATM   20  C   UNL     1      -7.824  12.871  68.334  1.00  0.00    -0.133 A  
HETATM   21  C   UNL     1     -12.372  14.985  64.340  1.00  0.00    -0.283 C  
HETATM   22  C   UNL     1     -11.392  13.353  65.950  1.00  0.00    -0.327 A  
ENDBRANCH   5   6
ENDBRANCH   4   5
BRANCH   4  23
HETATM   23  C   UNL     1     -12.422  14.853  70.579  1.00  0.00    -0.363 C  
HETATM   24  C   UNL     1     -11.590  15.721  71.539  1.00  0.00    -0.531 C  
HETATM   25  C   UNL     1     -12.238  15.519  69.192  1.00  0.00    -0.175 C  
ENDBRANCH   4  23
ENDBRANCH   2   4
TORSDOF 4
ENDMDL
MODEL       69
REMARK 921   NORMALIZED FREE ENERGY PREDICTED BY IDOCK:   -4.97 KCAL/MOL
REMARK 922        TOTAL FREE ENERGY PREDICTED BY IDOCK:   -6.98 KCAL/MOL
REMARK 923 INTER-LIGAND FREE ENERGY PREDICTED BY IDOCK:   -5.76 KCAL/MOL
REMARK 924 INTRA-LIGAND FREE ENERGY PREDICTED BY IDOCK:   -1.22 KCAL/MOL
REMARK 927      BINDING AFFINITY PREDICTED BY RF-SCORE:    0.00 PKD
ROOT
HETATM    1  C   UNL     1     -13.294  10.277  71.984  1.00  0.00    -0.466 C  
HETATM    2  C   UNL     1     -12.996   8.757  72.037  1.00  0.00    -0.390 C  
HETATM    3  C   UNL     1     -14.350   8.078  71.762  1.00  0.00    -0.583 C  
ENDROOT
BRANCH   2   4
HETATM    4  N   UNL     1     -11.897   8.349  71.108  1.00  0.00    -0.287 NA 
BRANCH   4   5
HETATM    5  C   UNL     1     -11.381   9.482  70.294  1.00  0.00    -0.236 C  
BRANCH   5   6
HETATM    6  C   UNL     1      -9.883   9.826  70.402  1.00  0.00    -0.269 C  
HETATM    7  C   UNL     1      -9.040   9.711  69.091  1.00  0.00    -0.154 C  
HETATM    8  C   UNL     1      -9.469  10.635  67.934  1.00  0.00    -0.168 A  
HETATM    9  C   UNL     1      -8.735   8.271  68.643  1.00  0.00    -0.133 A  
HETATM   10  C   UNL     1      -7.477   7.656  68.744  1.00  0.00    -0.100 A  
HETATM   11  C   UNL     1     -10.673  10.474  67.225  1.00  0.00    -0.333 A  
HETATM   12  O   UNL     1      -6.383   8.214  69.341  1.00  0.00    -0.034 OA 
HETATM   13  C   UNL     1     -10.978  11.241  66.101  1.00  0.00    -0.252 A  
HETATM   14  C   UNL     1      -7.243   6.384  68.202  1.00  0.00    -0.085 A  
HETATM   15  C   UNL     1      -8.249   5.697  67.528  1.00  0.00    -0.101 A  
HETATM   16  C   UNL     1     -10.102  12.225  65.676  1.00  0.00    -0.275 A  
HETATM   17  H   UNL     1      -5.532   7.798  69.410  1.00  0.00     0.000 HD 
HETATM   18  C   UNL     1      -9.509   6.266  67.421  1.00  0.00    -0.120 A  
HETATM   19  C   UNL     1      -8.917  12.441  66.381  1.00  0.00    -0.101 A  
HETATM   20  C   UNL     1      -8.604  11.651  67.497  1.00  0.00    -0.149 A  
HETATM   21  C   UNL     1     -10.624   5.626  66.648  1.00  0.00    -0.361 C  
HETATM   22  C   UNL     1      -9.741   7.516  68.012  1.00  0.00    -0.165 A  
ENDBRANCH   5   6
ENDBRANCH   4   5
BRANCH   4  23
HETATM   23  C   UNL     1     -10.799   7.501  71.664  1.00  0.00    -0.219 C  
HETATM   24  C   UNL     1     -10.647   7.552  73.195  1.00  0.00    -0.442 C  
HETATM   25  C   UNL     1     -10.985   5.997  71.340  1.00  0.00    -0.336 C  
ENDBRANCH   4  23
ENDBRANCH   2   4
TORSDOF 4
ENDMDL
MODEL       70
REMARK 921   NORMALIZED FREE ENERGY PREDICTED BY IDOCK:   -4.96 KCAL/MOL
REMARK 922        TOTAL FREE ENERGY PREDICTED BY IDOCK:   -6.97 KCAL/MOL
REMARK 923 INTER-LIGAND FREE ENERGY PREDICTED BY IDOCK:   -6.11 KCAL/MOL
REMARK 924 INTRA-LIGAND FREE ENERGY PREDICTED BY IDOCK:   -0.86 KCAL/MOL
REMARK 927      BINDING AFFINITY PREDICTED BY RF-SCORE:    0.00 PKD
ROOT
HETATM    1  C   UNL     1     -12.505  12.187  63.362  1.00  0.00    -0.625 C  
HETATM    2  C   UNL     1     -11.335  11.490  64.102  1.00  0.00    -0.267 C  
HETATM    3  C   UNL     1     -10.082  11.840  63.279  1.00  0.00    -0.448 C  
ENDROOT
BRANCH   2   4
HETATM    4  N   UNL     1     -11.255  11.870  65.546  1.00  0.00    -0.317 NA 
BRANCH   4   5
HETATM    5  C   UNL     1     -10.373  10.965  66.331  1.00  0.00    -0.251 C  
BRANCH   5   6
HETATM    6  C   UNL     1     -10.973  10.262  67.565  1.00  0.00    -0.344 C  
HETATM    7  C   UNL     1     -10.110   9.137  68.220  1.00  0.00    -0.221 C  
HETATM    8  C   UNL     1      -8.740   9.576  68.773  1.00  0.00    -0.128 A  
HETATM    9  C   UNL     1     -10.055   7.819  67.427  1.00  0.00    -0.288 A  
HETATM   10  C   UNL     1     -10.720   6.639  67.796  1.00  0.00    -0.283 A  
HETATM   11  C   UNL     1      -7.671   9.977  67.952  1.00  0.00    -0.090 A  
HETATM   12  O   UNL     1     -11.580   6.527  68.851  1.00  0.00    -0.606 OA 
HETATM   13  C   UNL     1      -6.403  10.246  68.467  1.00  0.00    -0.051 A  
HETATM   14  C   UNL     1     -10.525   5.443  67.092  1.00  0.00    -0.298 A  
HETATM   15  C   UNL     1      -9.649   5.383  66.011  1.00  0.00    -0.149 A  
HETATM   16  C   UNL     1      -6.177  10.162  69.831  1.00  0.00    -0.063 A  
HETATM   17  H   UNL     1     -12.029   5.729  69.101  1.00  0.00     0.000 HD 
HETATM   18  C   UNL     1      -8.986   6.532  65.606  1.00  0.00    -0.007 A  
HETATM   19  C   UNL     1      -7.227   9.808  70.680  1.00  0.00    -0.084 A  
HETATM   20  C   UNL     1      -8.494   9.516  70.154  1.00  0.00    -0.227 A  
HETATM   21  C   UNL     1      -7.972   6.536  64.501  1.00  0.00    -0.110 C  
HETATM   22  C   UNL     1      -9.230   7.732  66.290  1.00  0.00    -0.217 A  
ENDBRANCH   5   6
ENDBRANCH   4   5
BRANCH   4  23
HETATM   23  C   UNL     1     -11.026  13.312  65.871  1.00  0.00    -0.274 C  
HETATM   24  C   UNL     1     -12.076  13.944  66.802  1.00  0.00    -0.476 C  
HETATM   25  C   UNL     1      -9.674  13.554  66.587  1.00  0.00    -0.281 C  
ENDBRANCH   4  23
ENDBRANCH   2   4
TORSDOF 4
ENDMDL
MODEL       71
REMARK 921   NORMALIZED FREE ENERGY PREDICTED BY IDOCK:   -4.96 KCAL/MOL
REMARK 922        TOTAL FREE ENERGY PREDICTED BY IDOCK:   -6.96 KCAL/MOL
REMARK 923 INTER-LIGAND FREE ENERGY PREDICTED BY IDOCK:   -5.62 KCAL/MOL
REMARK 924 INTRA-LIGAND FREE ENERGY PREDICTED BY IDOCK:   -1.35 KCAL/MOL
REMARK 927      BINDING AFFINITY PREDICTED BY RF-SCORE:    0.00 PKD
ROOT
HETATM    1  C   UNL     1     -10.613  13.445  68.670  1.00  0.00    -0.257 C  
HETATM    2  C   UNL     1     -10.580  13.593  67.127  1.00  0.00    -0.272 C  
HETATM    3  C   UNL     1      -9.130  13.996  66.800  1.00  0.00    -0.250 C  
ENDROOT
BRANCH   2   4
HETATM    4  N   UNL     1     -11.059  12.368  66.417  1.00  0.00    -0.286 NA 
BRANCH   4   5
HETATM    5  C   UNL     1     -11.301  11.226  67.339  1.00  0.00    -0.276 C  
BRANCH   5   6
HETATM    6  C   UNL     1     -10.879   9.819  66.873  1.00  0.00    -0.120 C  
HETATM    7  C   UNL     1      -9.899   9.035  67.804  1.00  0.00    -0.209 C  
HETATM    8  C   UNL     1     -10.419   8.729  69.222  1.00  0.00    -0.228 A  
HETATM    9  C   UNL     1      -8.445   9.539  67.783  1.00  0.00    -0.119 A  
HETATM   10  C   UNL     1      -7.378   8.867  67.165  1.00  0.00    -0.084 A  
HETATM   11  C   UNL     1     -10.624   9.720  70.198  1.00  0.00    -0.337 A  
HETATM   12  O   UNL     1      -7.502   7.729  66.420  1.00  0.00    -0.081 OA 
HETATM   13  C   UNL     1     -10.971   9.404  71.512  1.00  0.00    -0.429 A  
HETATM   14  C   UNL     1      -6.059   9.324  67.292  1.00  0.00    -0.057 A  
HETATM   15  C   UNL     1      -5.762  10.452  68.051  1.00  0.00    -0.040 A  
HETATM   16  C   UNL     1     -11.168   8.083  71.878  1.00  0.00    -0.335 A  
HETATM   17  H   UNL     1      -6.780   7.274  66.002  1.00  0.00     0.000 HD 
HETATM   18  C   UNL     1      -6.790  11.152  68.663  1.00  0.00    -0.070 A  
HETATM   19  C   UNL     1     -11.016   7.077  70.923  1.00  0.00    -0.282 A  
HETATM   20  C   UNL     1     -10.642   7.398  69.609  1.00  0.00    -0.243 A  
HETATM   21  C   UNL     1      -6.548  12.331  69.558  1.00  0.00    -0.052 C  
HETATM   22  C   UNL     1      -8.110  10.711  68.486  1.00  0.00    -0.125 A  
ENDBRANCH   5   6
ENDBRANCH   4   5
BRANCH   4  23
HETATM   23  C   UNL     1     -12.156  12.532  65.414  1.00  0.00    -0.435 C  
HETATM   24  C   UNL     1     -12.781  13.938  65.358  1.00  0.00    -0.525 C  
HETATM   25  C   UNL     1     -11.684  12.257  63.965  1.00  0.00    -0.506 C  
ENDBRANCH   4  23
ENDBRANCH   2   4
TORSDOF 4
ENDMDL
MODEL       72
REMARK 921   NORMALIZED FREE ENERGY PREDICTED BY IDOCK:   -4.96 KCAL/MOL
REMARK 922        TOTAL FREE ENERGY PREDICTED BY IDOCK:   -6.96 KCAL/MOL
REMARK 923 INTER-LIGAND FREE ENERGY PREDICTED BY IDOCK:   -5.78 KCAL/MOL
REMARK 924 INTRA-LIGAND FREE ENERGY PREDICTED BY IDOCK:   -1.18 KCAL/MOL
REMARK 927      BINDING AFFINITY PREDICTED BY RF-SCORE:    0.00 PKD
ROOT
HETATM    1  C   UNL     1      -6.878  10.401  70.174  1.00  0.00    -0.155 C  
HETATM    2  C   UNL     1      -6.734  10.629  68.648  1.00  0.00    -0.057 C  
HETATM    3  C   UNL     1      -5.629   9.653  68.205  1.00  0.00    -0.040 C  
ENDROOT
BRANCH   2   4
HETATM    4  N   UNL     1      -8.029  10.475  67.915  1.00  0.00    -0.105 NA 
BRANCH   4   5
HETATM    5  C   UNL     1      -8.263  11.561  66.926  1.00  0.00    -0.167 C  
BRANCH   5   6
HETATM    6  C   UNL     1      -8.448  12.996  67.458  1.00  0.00    -0.190 C  
HETATM    7  C   UNL     1      -9.918  13.506  67.602  1.00  0.00    -0.229 C  
HETATM    8  C   UNL     1     -10.812  12.716  68.577  1.00  0.00    -0.279 A  
HETATM    9  C   UNL     1     -10.616  13.849  66.274  1.00  0.00    -0.289 A  
HETATM   10  C   UNL     1     -10.885  15.153  65.830  1.00  0.00    -0.353 A  
HETATM   11  C   UNL     1     -11.247  11.401  68.330  1.00  0.00    -0.326 A  
HETATM   12  O   UNL     1     -10.478  16.292  66.465  1.00  0.00    -0.301 OA 
HETATM   13  C   UNL     1     -12.159  10.755  69.164  1.00  0.00    -0.227 A  
HETATM   14  C   UNL     1     -11.634  15.387  64.668  1.00  0.00    -0.311 A  
HETATM   15  C   UNL     1     -12.153  14.329  63.926  1.00  0.00    -0.247 A  
HETATM   16  C   UNL     1     -12.631  11.391  70.299  1.00  0.00    -0.225 A  
HETATM   17  H   UNL     1     -10.660  17.174  66.164  1.00  0.00     0.000 HD 
HETATM   18  C   UNL     1     -11.895  13.025  64.324  1.00  0.00    -0.456 A  
HETATM   19  C   UNL     1     -12.187  12.680  70.598  1.00  0.00    -0.373 A  
HETATM   20  C   UNL     1     -11.289  13.335  69.743  1.00  0.00    -0.132 A  
HETATM   21  C   UNL     1     -12.478  11.834  63.625  1.00  0.00    -0.482 C  
HETATM   22  C   UNL     1     -11.102  12.809  65.461  1.00  0.00    -0.318 A  
ENDBRANCH   5   6
ENDBRANCH   4   5
BRANCH   4  23
HETATM   23  C   UNL     1      -8.357   9.124  67.365  1.00  0.00    -0.115 C  
HETATM   24  C   UNL     1      -9.162   8.214  68.310  1.00  0.00    -0.134 C  
HETATM   25  C   UNL     1      -9.209   9.197  66.073  1.00  0.00    -0.271 C  
ENDBRANCH   4  23
ENDBRANCH   2   4
TORSDOF 4
ENDMDL
MODEL       73
REMARK 921   NORMALIZED FREE ENERGY PREDICTED BY IDOCK:   -4.94 KCAL/MOL
REMARK 922        TOTAL FREE ENERGY PREDICTED BY IDOCK:   -6.94 KCAL/MOL
REMARK 923 INTER-LIGAND FREE ENERGY PREDICTED BY IDOCK:   -5.47 KCAL/MOL
REMARK 924 INTRA-LIGAND FREE ENERGY PREDICTED BY IDOCK:   -1.47 KCAL/MOL
REMARK 927      BINDING AFFINITY PREDICTED BY RF-SCORE:    0.00 PKD
ROOT
HETATM    1  C   UNL     1      -8.156   7.541  64.637  1.00  0.00    -0.101 C  
HETATM    2  C   UNL     1      -8.469   8.340  65.927  1.00  0.00    -0.140 C  
HETATM    3  C   UNL     1      -7.143   9.030  66.296  1.00  0.00    -0.086 C  
ENDROOT
BRANCH   2   4
HETATM    4  N   UNL     1      -9.629   9.270  65.766  1.00  0.00    -0.271 NA 
BRANCH   4   5
HETATM    5  C   UNL     1     -10.521   9.290  66.956  1.00  0.00    -0.233 C  
BRANCH   5   6
HETATM    6  C   UNL     1     -10.350   8.174  68.006  1.00  0.00    -0.267 C  
HETATM    7  C   UNL     1     -10.024   8.627  69.465  1.00  0.00    -0.196 C  
HETATM    8  C   UNL     1     -11.085   9.510  70.149  1.00  0.00    -0.294 A  
HETATM    9  C   UNL     1      -8.583   9.125  69.680  1.00  0.00    -0.143 A  
HETATM   10  C   UNL     1      -7.587   8.410  70.363  1.00  0.00    -0.072 A  
HETATM   11  C   UNL     1     -11.358  10.831  69.754  1.00  0.00    -0.372 A  
HETATM   12  O   UNL     1      -7.730   7.138  70.840  1.00  0.00    -0.091 OA 
HETATM   13  C   UNL     1     -12.231  11.652  70.468  1.00  0.00    -0.451 A  
HETATM   14  C   UNL     1      -6.333   8.980  70.627  1.00  0.00    -0.049 A  
HETATM   15  C   UNL     1      -6.043  10.284  70.236  1.00  0.00    -0.098 A  
HETATM   16  C   UNL     1     -12.892  11.158  71.580  1.00  0.00    -0.542 A  
HETATM   17  H   UNL     1      -7.055   6.655  71.302  1.00  0.00     0.000 HD 
HETATM   18  C   UNL     1      -6.997  11.017  69.546  1.00  0.00    -0.126 A  
HETATM   19  C   UNL     1     -12.678   9.837  71.975  1.00  0.00    -0.463 A  
HETATM   20  C   UNL     1     -11.781   9.023  71.267  1.00  0.00    -0.382 A  
HETATM   21  C   UNL     1      -6.791  12.451  69.156  1.00  0.00    -0.069 C  
HETATM   22  C   UNL     1      -8.227  10.415  69.246  1.00  0.00    -0.163 A  
ENDBRANCH   5   6
ENDBRANCH   4   5
BRANCH   4  23
HETATM   23  C   UNL     1      -9.348  10.642  65.242  1.00  0.00    -0.214 C  
HETATM   24  C   UNL     1      -9.844  10.906  63.809  1.00  0.00    -0.391 C  
HETATM   25  C   UNL     1     -10.010  11.753  66.095  1.00  0.00    -0.254 C  
ENDBRANCH   4  23
ENDBRANCH   2   4
TORSDOF 4
ENDMDL
MODEL       74
REMARK 921   NORMALIZED FREE ENERGY PREDICTED BY IDOCK:   -4.93 KCAL/MOL
REMARK 922        TOTAL FREE ENERGY PREDICTED BY IDOCK:   -6.92 KCAL/MOL
REMARK 923 INTER-LIGAND FREE ENERGY PREDICTED BY IDOCK:   -5.54 KCAL/MOL
REMARK 924 INTRA-LIGAND FREE ENERGY PREDICTED BY IDOCK:   -1.38 KCAL/MOL
REMARK 927      BINDING AFFINITY PREDICTED BY RF-SCORE:    0.00 PKD
ROOT
HETATM    1  C   UNL     1     -10.583   9.044  68.307  1.00  0.00    -0.213 C  
HETATM    2  C   UNL     1      -9.778   8.650  67.042  1.00  0.00    -0.201 C  
HETATM    3  C   UNL     1     -10.240   7.220  66.710  1.00  0.00    -0.305 C  
ENDROOT
BRANCH   2   4
HETATM    4  N   UNL     1      -9.940   9.630  65.924  1.00  0.00    -0.294 NA 
BRANCH   4   5
HETATM    5  C   UNL     1     -10.728  10.828  66.318  1.00  0.00    -0.138 C  
BRANCH   5   6
HETATM    6  C   UNL     1     -10.230  12.208  65.846  1.00  0.00    -0.272 C  
HETATM    7  C   UNL     1      -9.626  13.148  66.938  1.00  0.00    -0.248 C  
HETATM    8  C   UNL     1      -8.374  12.619  67.663  1.00  0.00    -0.174 A  
HETATM    9  C   UNL     1     -10.659  13.783  67.887  1.00  0.00    -0.257 A  
HETATM   10  C   UNL     1     -11.046  15.132  67.853  1.00  0.00    -0.321 A  
HETATM   11  C   UNL     1      -8.401  11.530  68.553  1.00  0.00    -0.146 A  
HETATM   12  O   UNL     1     -10.636  16.038  66.916  1.00  0.00    -0.312 OA 
HETATM   13  C   UNL     1      -7.282  11.152  69.294  1.00  0.00    -0.112 A  
HETATM   14  C   UNL     1     -11.900  15.669  68.827  1.00  0.00    -0.336 A  
HETATM   15  C   UNL     1     -12.377  14.883  69.872  1.00  0.00    -0.322 A  
HETATM   16  C   UNL     1      -6.084  11.828  69.134  1.00  0.00    -0.076 A  
HETATM   17  H   UNL     1     -10.898  16.950  66.894  1.00  0.00     0.000 HD 
HETATM   18  C   UNL     1     -12.029  13.541  69.931  1.00  0.00    -0.416 A  
HETATM   19  C   UNL     1      -6.010  12.886  68.226  1.00  0.00    -0.079 A  
HETATM   20  C   UNL     1      -7.145  13.277  67.501  1.00  0.00    -0.156 A  
HETATM   21  C   UNL     1     -12.439  12.646  71.062  1.00  0.00    -0.354 C  
HETATM   22  C   UNL     1     -11.214  13.008  68.921  1.00  0.00    -0.326 A  
ENDBRANCH   5   6
ENDBRANCH   4   5
BRANCH   4  23
HETATM   23  C   UNL     1      -8.721   9.985  65.133  1.00  0.00    -0.164 C  
HETATM   24  C   UNL     1      -7.393   9.474  65.718  1.00  0.00    -0.097 C  
HETATM   25  C   UNL     1      -8.759   9.413  63.693  1.00  0.00    -0.222 C  
ENDBRANCH   4  23
ENDBRANCH   2   4
TORSDOF 4
ENDMDL
MODEL       75
REMARK 921   NORMALIZED FREE ENERGY PREDICTED BY IDOCK:   -4.93 KCAL/MOL
REMARK 922        TOTAL FREE ENERGY PREDICTED BY IDOCK:   -6.92 KCAL/MOL
REMARK 923 INTER-LIGAND FREE ENERGY PREDICTED BY IDOCK:   -5.32 KCAL/MOL
REMARK 924 INTRA-LIGAND FREE ENERGY PREDICTED BY IDOCK:   -1.60 KCAL/MOL
REMARK 927      BINDING AFFINITY PREDICTED BY RF-SCORE:    0.00 PKD
ROOT
HETATM    1  C   UNL     1     -10.415   9.304  67.990  1.00  0.00    -0.275 C  
HETATM    2  C   UNL     1     -10.016   8.618  69.321  1.00  0.00    -0.195 C  
HETATM    3  C   UNL     1      -9.023   9.591  69.984  1.00  0.00    -0.249 C  
ENDROOT
BRANCH   2   4
HETATM    4  N   UNL     1     -11.196   8.263  70.168  1.00  0.00    -0.190 NA 
BRANCH   4   5
HETATM    5  C   UNL     1     -11.360   6.795  70.341  1.00  0.00    -0.347 C  
BRANCH   5   6
HETATM    6  C   UNL     1     -10.324   5.869  69.674  1.00  0.00    -0.313 C  
HETATM    7  C   UNL     1      -9.350   5.104  70.626  1.00  0.00    -0.211 C  
HETATM    8  C   UNL     1     -10.010   4.132  71.624  1.00  0.00    -0.240 A  
HETATM    9  C   UNL     1      -8.248   5.973  71.257  1.00  0.00    -0.123 A  
HETATM   10  C   UNL     1      -6.894   5.934  70.888  1.00  0.00    -0.062 A  
HETATM   11  C   UNL     1     -10.801   4.558  72.705  1.00  0.00    -0.239 A  
HETATM   12  O   UNL     1      -6.389   5.195  69.856  1.00  0.00    -0.025 OA 
HETATM   13  C   UNL     1     -11.280   3.669  73.667  1.00  0.00    -0.278 A  
HETATM   14  C   UNL     1      -5.926   6.665  71.591  1.00  0.00    -0.037 A  
HETATM   15  C   UNL     1      -6.276   7.441  72.693  1.00  0.00    -0.051 A  
HETATM   16  C   UNL     1     -11.016   2.315  73.551  1.00  0.00    -0.292 A  
HETATM   17  H   UNL     1      -5.473   5.168  69.607  1.00  0.00     0.000 HD 
HETATM   18  C   UNL     1      -7.606   7.517  73.079  1.00  0.00    -0.110 A  
HETATM   19  C   UNL     1     -10.270   1.852  72.466  1.00  0.00    -0.221 A  
HETATM   20  C   UNL     1      -9.770   2.753  71.515  1.00  0.00    -0.225 A  
HETATM   21  C   UNL     1      -8.055   8.268  74.297  1.00  0.00    -0.279 C  
HETATM   22  C   UNL     1      -8.568   6.819  72.335  1.00  0.00    -0.126 A  
ENDBRANCH   5   6
ENDBRANCH   4   5
BRANCH   4  23
HETATM   23  C   UNL     1     -11.380   9.012  71.449  1.00  0.00    -0.323 C  
HETATM   24  C   UNL     1     -12.447  10.121  71.408  1.00  0.00    -0.524 C  
HETATM   25  C   UNL     1     -11.816   8.094  72.618  1.00  0.00    -0.389 C  
ENDBRANCH   4  23
ENDBRANCH   2   4
TORSDOF 4
ENDMDL
MODEL       76
REMARK 921   NORMALIZED FREE ENERGY PREDICTED BY IDOCK:   -4.91 KCAL/MOL
REMARK 922        TOTAL FREE ENERGY PREDICTED BY IDOCK:   -6.90 KCAL/MOL
REMARK 923 INTER-LIGAND FREE ENERGY PREDICTED BY IDOCK:   -6.27 KCAL/MOL
REMARK 924 INTRA-LIGAND FREE ENERGY PREDICTED BY IDOCK:   -0.63 KCAL/MOL
REMARK 927      BINDING AFFINITY PREDICTED BY RF-SCORE:    0.00 PKD
ROOT
HETATM    1  C   UNL     1      -8.565  18.811  68.795  1.00  0.00    -0.316 C  
HETATM    2  C   UNL     1      -7.919  17.522  68.227  1.00  0.00    -0.259 C  
HETATM    3  C   UNL     1      -6.581  17.984  67.621  1.00  0.00    -0.191 C  
ENDROOT
BRANCH   2   4
HETATM    4  N   UNL     1      -7.796  16.436  69.248  1.00  0.00    -0.212 NA 
BRANCH   4   5
HETATM    5  C   UNL     1      -9.099  15.793  69.564  1.00  0.00    -0.202 C  
BRANCH   5   6
HETATM    6  C   UNL     1     -10.314  16.153  68.687  1.00  0.00    -0.252 C  
HETATM    7  C   UNL     1     -11.548  15.197  68.771  1.00  0.00    -0.369 C  
HETATM    8  C   UNL     1     -12.213  15.078  70.157  1.00  0.00    -0.392 A  
HETATM    9  C   UNL     1     -11.367  13.843  68.062  1.00  0.00    -0.317 A  
HETATM   10  C   UNL     1     -11.984  13.490  66.852  1.00  0.00    -0.399 A  
HETATM   11  C   UNL     1     -11.598  14.451  71.255  1.00  0.00    -0.061 A  
HETATM   12  O   UNL     1     -12.747  14.331  66.092  1.00  0.00    -0.489 OA 
HETATM   13  C   UNL     1     -12.269  14.242  72.459  1.00  0.00    -0.060 A  
HETATM   14  C   UNL     1     -11.870  12.195  66.327  1.00  0.00    -0.320 A  
HETATM   15  C   UNL     1     -11.154  11.210  67.002  1.00  0.00    -0.339 A  
HETATM   16  C   UNL     1     -13.568  14.695  72.615  1.00  0.00    -0.571 A  
HETATM   17  H   UNL     1     -13.165  14.091  65.274  1.00  0.00     0.000 HD 
HETATM   18  C   UNL     1     -10.517  11.525  68.193  1.00  0.00    -0.216 A  
HETATM   19  C   UNL     1     -14.195  15.360  71.560  1.00  0.00    -0.584 A  
HETATM   20  C   UNL     1     -13.523  15.546  70.343  1.00  0.00     0.188 A  
HETATM   21  C   UNL     1      -9.790  10.505  69.018  1.00  0.00    -0.224 C  
HETATM   22  C   UNL     1     -10.599  12.838  68.679  1.00  0.00    -0.256 A  
ENDBRANCH   5   6
ENDBRANCH   4   5
BRANCH   4  23
HETATM   23  C   UNL     1      -6.696  15.438  69.069  1.00  0.00    -0.128 C  
HETATM   24  C   UNL     1      -6.329  14.640  70.332  1.00  0.00    -0.153 C  
HETATM   25  C   UNL     1      -7.038  14.359  68.011  1.00  0.00    -0.144 C  
ENDBRANCH   4  23
ENDBRANCH   2   4
TORSDOF 4
ENDMDL
MODEL       77
REMARK 921   NORMALIZED FREE ENERGY PREDICTED BY IDOCK:   -4.88 KCAL/MOL
REMARK 922        TOTAL FREE ENERGY PREDICTED BY IDOCK:   -6.87 KCAL/MOL
REMARK 923 INTER-LIGAND FREE ENERGY PREDICTED BY IDOCK:   -5.66 KCAL/MOL
REMARK 924 INTRA-LIGAND FREE ENERGY PREDICTED BY IDOCK:   -1.20 KCAL/MOL
REMARK 927      BINDING AFFINITY PREDICTED BY RF-SCORE:    0.00 PKD
ROOT
HETATM    1  C   UNL     1     -11.508  13.741  69.353  1.00  0.00    -0.341 C  
HETATM    2  C   UNL     1     -10.592  13.555  68.117  1.00  0.00    -0.245 C  
HETATM    3  C   UNL     1      -9.343  14.403  68.418  1.00  0.00    -0.206 C  
ENDROOT
BRANCH   2   4
HETATM    4  N   UNL     1     -10.308  12.117  67.817  1.00  0.00    -0.202 NA 
BRANCH   4   5
HETATM    5  C   UNL     1     -10.500  11.234  68.998  1.00  0.00    -0.194 C  
BRANCH   5   6
HETATM    6  C   UNL     1     -11.516  10.081  68.881  1.00  0.00    -0.057 C  
HETATM    7  C   UNL     1     -10.990   8.647  69.210  1.00  0.00     0.008 C  
HETATM    8  C   UNL     1     -10.472   8.434  70.646  1.00  0.00    -0.227 A  
HETATM    9  C   UNL     1     -10.079   8.029  68.135  1.00  0.00    -0.234 A  
HETATM   10  C   UNL     1     -10.461   6.994  67.267  1.00  0.00    -0.293 A  
HETATM   11  C   UNL     1      -9.294   9.025  71.136  1.00  0.00    -0.336 A  
HETATM   12  O   UNL     1     -11.718   6.464  67.192  1.00  0.00    -0.602 OA 
HETATM   13  C   UNL     1      -8.779   8.716  72.394  1.00  0.00    -0.167 A  
HETATM   14  C   UNL     1      -9.539   6.397  66.395  1.00  0.00    -0.156 A  
HETATM   15  C   UNL     1      -8.207   6.801  66.376  1.00  0.00    -0.117 A  
HETATM   16  C   UNL     1      -9.454   7.834  73.222  1.00  0.00    -0.344 A  
HETATM   17  H   UNL     1     -11.976   5.764  66.605  1.00  0.00     0.000 HD 
HETATM   18  C   UNL     1      -7.795   7.831  67.208  1.00  0.00    -0.117 A  
HETATM   19  C   UNL     1     -10.649   7.262  72.784  1.00  0.00    -0.322 A  
HETATM   20  C   UNL     1     -11.150   7.558  71.508  1.00  0.00    -0.263 A  
HETATM   21  C   UNL     1      -6.365   8.274  67.302  1.00  0.00    -0.057 C  
HETATM   22  C   UNL     1      -8.740   8.451  68.038  1.00  0.00    -0.139 A  
ENDBRANCH   5   6
ENDBRANCH   4   5
BRANCH   4  23
HETATM   23  C   UNL     1     -10.900  11.539  66.572  1.00  0.00    -0.288 C  
HETATM   24  C   UNL     1     -11.752  12.516  65.742  1.00  0.00    -0.478 C  
HETATM   25  C   UNL     1      -9.823  11.024  65.584  1.00  0.00    -0.287 C  
ENDBRANCH   4  23
ENDBRANCH   2   4
TORSDOF 4
ENDMDL
MODEL       78
REMARK 921   NORMALIZED FREE ENERGY PREDICTED BY IDOCK:   -4.88 KCAL/MOL
REMARK 922        TOTAL FREE ENERGY PREDICTED BY IDOCK:   -6.86 KCAL/MOL
REMARK 923 INTER-LIGAND FREE ENERGY PREDICTED BY IDOCK:   -5.65 KCAL/MOL
REMARK 924 INTRA-LIGAND FREE ENERGY PREDICTED BY IDOCK:   -1.21 KCAL/MOL
REMARK 927      BINDING AFFINITY PREDICTED BY RF-SCORE:    0.00 PKD
ROOT
HETATM    1  C   UNL     1      -9.337   9.757  70.178  1.00  0.00    -0.261 C  
HETATM    2  C   UNL     1     -10.827   9.961  69.801  1.00  0.00    -0.269 C  
HETATM    3  C   UNL     1     -10.858   9.894  68.263  1.00  0.00    -0.275 C  
ENDROOT
BRANCH   2   4
HETATM    4  N   UNL     1     -11.735   8.988  70.483  1.00  0.00    -0.189 NA 
BRANCH   4   5
HETATM    5  C   UNL     1     -11.088   7.672  70.730  1.00  0.00    -0.264 C  
BRANCH   5   6
HETATM    6  C   UNL     1     -11.593   6.457  69.927  1.00  0.00    -0.422 C  
HETATM    7  C   UNL     1     -10.505   5.499  69.344  1.00  0.00    -0.360 C  
HETATM    8  C   UNL     1      -9.594   4.808  70.378  1.00  0.00    -0.267 A  
HETATM    9  C   UNL     1      -9.739   6.054  68.130  1.00  0.00    -0.137 A  
HETATM   10  C   UNL     1      -9.917   5.614  66.808  1.00  0.00    -0.178 A  
HETATM   11  C   UNL     1      -8.639   5.497  71.146  1.00  0.00    -0.127 A  
HETATM   12  O   UNL     1     -10.859   4.709  66.409  1.00  0.00    -0.446 OA 
HETATM   13  C   UNL     1      -7.740   4.832  71.979  1.00  0.00    -0.095 A  
HETATM   14  C   UNL     1      -9.097   6.078  65.770  1.00  0.00    -0.083 A  
HETATM   15  C   UNL     1      -8.065   6.979  66.021  1.00  0.00    -0.122 A  
HETATM   16  C   UNL     1      -7.799   3.454  72.103  1.00  0.00    -0.059 A  
HETATM   17  H   UNL     1     -10.979   4.412  65.515  1.00  0.00     0.000 HD 
HETATM   18  C   UNL     1      -7.868   7.448  67.311  1.00  0.00    -0.114 A  
HETATM   19  C   UNL     1      -8.764   2.742  71.388  1.00  0.00    -0.115 A  
HETATM   20  C   UNL     1      -9.650   3.414  70.533  1.00  0.00    -0.231 A  
HETATM   21  C   UNL     1      -6.735   8.359  67.678  1.00  0.00    -0.066 C  
HETATM   22  C   UNL     1      -8.728   7.012  68.329  1.00  0.00    -0.127 A  
ENDBRANCH   5   6
ENDBRANCH   4   5
BRANCH   4  23
HETATM   23  C   UNL     1     -12.506   9.475  71.668  1.00  0.00    -0.391 C  
HETATM   24  C   UNL     1     -12.968  10.941  71.588  1.00  0.00    -0.569 C  
HETATM   25  C   UNL     1     -13.808   8.668  71.904  1.00  0.00    -0.481 C  
ENDBRANCH   4  23
ENDBRANCH   2   4
TORSDOF 4
ENDMDL
MODEL       79
REMARK 921   NORMALIZED FREE ENERGY PREDICTED BY IDOCK:   -4.85 KCAL/MOL
REMARK 922        TOTAL FREE ENERGY PREDICTED BY IDOCK:   -6.83 KCAL/MOL
REMARK 923 INTER-LIGAND FREE ENERGY PREDICTED BY IDOCK:   -5.65 KCAL/MOL
REMARK 924 INTRA-LIGAND FREE ENERGY PREDICTED BY IDOCK:   -1.18 KCAL/MOL
REMARK 927      BINDING AFFINITY PREDICTED BY RF-SCORE:    0.00 PKD
ROOT
HETATM    1  C   UNL     1      -9.008   5.759  69.867  1.00  0.00    -0.139 C  
HETATM    2  C   UNL     1     -10.132   5.641  68.807  1.00  0.00    -0.186 C  
HETATM    3  C   UNL     1     -11.409   6.104  69.532  1.00  0.00    -0.426 C  
ENDROOT
BRANCH   2   4
HETATM    4  N   UNL     1      -9.825   6.393  67.551  1.00  0.00    -0.119 NA 
BRANCH   4   5
HETATM    5  C   UNL     1      -9.025   7.623  67.797  1.00  0.00    -0.131 C  
BRANCH   5   6
HETATM    6  C   UNL     1      -9.613   8.971  67.336  1.00  0.00    -0.195 C  
HETATM    7  C   UNL     1      -9.641  10.122  68.392  1.00  0.00    -0.150 C  
HETATM    8  C   UNL     1      -8.269  10.571  68.933  1.00  0.00    -0.141 A  
HETATM    9  C   UNL     1     -10.709   9.968  69.489  1.00  0.00    -0.269 A  
HETATM   10  C   UNL     1     -11.884  10.733  69.569  1.00  0.00    -0.308 A  
HETATM   11  C   UNL     1      -7.469   9.769  69.765  1.00  0.00    -0.127 A  
HETATM   12  O   UNL     1     -12.284  11.645  68.635  1.00  0.00    -0.455 OA 
HETATM   13  C   UNL     1      -6.294  10.246  70.346  1.00  0.00    -0.127 A  
HETATM   14  C   UNL     1     -12.752  10.621  70.664  1.00  0.00    -0.445 A  
HETATM   15  C   UNL     1     -12.466   9.760  71.720  1.00  0.00    -0.485 A  
HETATM   16  C   UNL     1      -5.860  11.533  70.075  1.00  0.00    -0.134 A  
HETATM   17  H   UNL     1     -13.079  12.162  68.689  1.00  0.00     0.000 HD 
HETATM   18  C   UNL     1     -11.322   8.976  71.670  1.00  0.00    -0.430 A  
HETATM   19  C   UNL     1      -6.608  12.342  69.218  1.00  0.00    -0.093 A  
HETATM   20  C   UNL     1      -7.801  11.866  68.656  1.00  0.00    -0.104 A  
HETATM   21  C   UNL     1     -10.904   8.080  72.797  1.00  0.00    -0.438 C  
HETATM   22  C   UNL     1     -10.491   9.063  70.544  1.00  0.00    -0.271 A  
ENDBRANCH   5   6
ENDBRANCH   4   5
BRANCH   4  23
HETATM   23  C   UNL     1      -9.320   5.610  66.381  1.00  0.00    -0.154 C  
HETATM   24  C   UNL     1      -7.790   5.607  66.211  1.00  0.00    -0.100 C  
HETATM   25  C   UNL     1      -9.707   4.112  66.455  1.00  0.00    -0.228 C  
ENDBRANCH   4  23
ENDBRANCH   2   4
TORSDOF 4
ENDMDL
MODEL       80
REMARK 921   NORMALIZED FREE ENERGY PREDICTED BY IDOCK:   -4.85 KCAL/MOL
REMARK 922        TOTAL FREE ENERGY PREDICTED BY IDOCK:   -6.83 KCAL/MOL
REMARK 923 INTER-LIGAND FREE ENERGY PREDICTED BY IDOCK:   -5.66 KCAL/MOL
REMARK 924 INTRA-LIGAND FREE ENERGY PREDICTED BY IDOCK:   -1.16 KCAL/MOL
REMARK 927      BINDING AFFINITY PREDICTED BY RF-SCORE:    0.00 PKD
ROOT
HETATM    1  C   UNL     1     -11.408  13.291  69.091  1.00  0.00    -0.336 C  
HETATM    2  C   UNL     1     -10.667  14.086  67.986  1.00  0.00    -0.246 C  
HETATM    3  C   UNL     1      -9.266  14.356  68.565  1.00  0.00    -0.198 C  
ENDROOT
BRANCH   2   4
HETATM    4  N   UNL     1     -10.668  13.381  66.667  1.00  0.00    -0.280 NA 
BRANCH   4   5
HETATM    5  C   UNL     1     -11.222  12.004  66.750  1.00  0.00    -0.322 C  
BRANCH   5   6
HETATM    6  C   UNL     1     -10.882  11.018  65.615  1.00  0.00    -0.160 C  
HETATM    7  C   UNL     1      -9.848   9.895  65.947  1.00  0.00    -0.342 C  
HETATM    8  C   UNL     1     -10.252   8.919  67.070  1.00  0.00    -0.345 A  
HETATM    9  C   UNL     1      -8.387  10.370  66.048  1.00  0.00    -0.149 A  
HETATM   10  C   UNL     1      -7.397  10.109  65.087  1.00  0.00    -0.141 A  
HETATM   11  C   UNL     1     -10.343   9.295  68.422  1.00  0.00    -0.244 A  
HETATM   12  O   UNL     1      -7.617   9.486  63.891  1.00  0.00    -0.112 OA 
HETATM   13  C   UNL     1     -10.584   8.366  69.434  1.00  0.00    -0.204 A  
HETATM   14  C   UNL     1      -6.060  10.468  65.304  1.00  0.00    -0.110 A  
HETATM   15  C   UNL     1      -5.666  11.080  66.491  1.00  0.00    -0.119 A  
HETATM   16  C   UNL     1     -10.786   7.034  69.117  1.00  0.00    -0.240 A  
HETATM   17  H   UNL     1      -6.948   9.310  63.242  1.00  0.00     0.000 HD 
HETATM   18  C   UNL     1      -6.618  11.368  67.458  1.00  0.00    -0.078 A  
HETATM   19  C   UNL     1     -10.745   6.632  67.780  1.00  0.00    -0.352 A  
HETATM   20  C   UNL     1     -10.478   7.567  66.769  1.00  0.00    -0.319 A  
HETATM   21  C   UNL     1      -6.265  11.956  68.792  1.00  0.00    -0.058 C  
HETATM   22  C   UNL     1      -7.959  11.048  67.204  1.00  0.00    -0.135 A  
ENDBRANCH   5   6
ENDBRANCH   4   5
BRANCH   4  23
HETATM   23  C   UNL     1     -11.184  14.132  65.481  1.00  0.00    -0.317 C  
HETATM   24  C   UNL     1     -12.717  14.217  65.381  1.00  0.00    -0.453 C  
HETATM   25  C   UNL     1     -10.709  15.607  65.457  1.00  0.00    -0.403 C  
ENDBRANCH   4  23
ENDBRANCH   2   4
TORSDOF 4
ENDMDL
MODEL       81
REMARK 921   NORMALIZED FREE ENERGY PREDICTED BY IDOCK:   -4.85 KCAL/MOL
REMARK 922        TOTAL FREE ENERGY PREDICTED BY IDOCK:   -6.83 KCAL/MOL
REMARK 923 INTER-LIGAND FREE ENERGY PREDICTED BY IDOCK:   -5.89 KCAL/MOL
REMARK 924 INTRA-LIGAND FREE ENERGY PREDICTED BY IDOCK:   -0.94 KCAL/MOL
REMARK 927      BINDING AFFINITY PREDICTED BY RF-SCORE:    0.00 PKD
ROOT
HETATM    1  C   UNL     1      -8.286   9.110  69.185  1.00  0.00    -0.123 C  
HETATM    2  C   UNL     1      -9.495   9.245  70.147  1.00  0.00    -0.226 C  
HETATM    3  C   UNL     1      -8.873   9.332  71.553  1.00  0.00     0.133 C  
ENDROOT
BRANCH   2   4
HETATM    4  N   UNL     1     -10.392  10.387  69.793  1.00  0.00    -0.233 NA 
BRANCH   4   5
HETATM    5  C   UNL     1     -10.127  10.928  68.433  1.00  0.00    -0.183 C  
BRANCH   5   6
HETATM    6  C   UNL     1     -11.112  10.561  67.305  1.00  0.00    -0.284 C  
HETATM    7  C   UNL     1     -10.735  11.034  65.864  1.00  0.00    -0.226 C  
HETATM    8  C   UNL     1      -9.418  10.472  65.296  1.00  0.00    -0.281 A  
HETATM    9  C   UNL     1     -10.918  12.540  65.609  1.00  0.00    -0.323 A  
HETATM   10  C   UNL     1     -11.945  13.097  64.831  1.00  0.00    -0.388 A  
HETATM   11  C   UNL     1      -8.151  10.829  65.790  1.00  0.00    -0.135 A  
HETATM   12  O   UNL     1     -12.974  12.390  64.279  1.00  0.00    -0.737 OA 
HETATM   13  C   UNL     1      -6.971  10.408  65.177  1.00  0.00    -0.082 A  
HETATM   14  C   UNL     1     -11.977  14.469  64.542  1.00  0.00    -0.482 A  
HETATM   15  C   UNL     1     -10.977  15.321  65.003  1.00  0.00    -0.450 A  
HETATM   16  C   UNL     1      -7.024   9.578  64.070  1.00  0.00    -0.105 A  
HETATM   17  H   UNL     1     -13.669  12.767  63.753  1.00  0.00     0.000 HD 
HETATM   18  C   UNL     1      -9.954  14.811  65.787  1.00  0.00    -0.375 A  
HETATM   19  C   UNL     1      -8.265   9.168  63.578  1.00  0.00    -0.178 A  
HETATM   20  C   UNL     1      -9.448   9.614  64.185  1.00  0.00    -0.044 A  
HETATM   21  C   UNL     1      -8.801  15.646  66.260  1.00  0.00    -0.364 C  
HETATM   22  C   UNL     1      -9.964  13.446  66.109  1.00  0.00    -0.299 A  
ENDBRANCH   5   6
ENDBRANCH   4   5
BRANCH   4  23
HETATM   23  C   UNL     1     -11.854  10.231  70.069  1.00  0.00    -0.228 C  
HETATM   24  C   UNL     1     -12.285   8.823  70.517  1.00  0.00     0.171 C  
HETATM   25  C   UNL     1     -12.351  11.169  71.198  1.00  0.00    -0.451 C  
ENDBRANCH   4  23
ENDBRANCH   2   4
TORSDOF 4
ENDMDL
MODEL       82
REMARK 921   NORMALIZED FREE ENERGY PREDICTED BY IDOCK:   -4.85 KCAL/MOL
REMARK 922        TOTAL FREE ENERGY PREDICTED BY IDOCK:   -6.82 KCAL/MOL
REMARK 923 INTER-LIGAND FREE ENERGY PREDICTED BY IDOCK:   -5.56 KCAL/MOL
REMARK 924 INTRA-LIGAND FREE ENERGY PREDICTED BY IDOCK:   -1.26 KCAL/MOL
REMARK 927      BINDING AFFINITY PREDICTED BY RF-SCORE:    0.00 PKD
ROOT
HETATM    1  C   UNL     1     -11.375  13.029  65.386  1.00  0.00    -0.327 C  
HETATM    2  C   UNL     1     -10.746  11.833  66.145  1.00  0.00    -0.277 C  
HETATM    3  C   UNL     1      -9.890  11.103  65.094  1.00  0.00    -0.307 C  
ENDROOT
BRANCH   2   4
HETATM    4  N   UNL     1      -9.998  12.254  67.371  1.00  0.00    -0.200 NA 
BRANCH   4   5
HETATM    5  C   UNL     1     -10.138  11.286  68.491  1.00  0.00    -0.204 C  
BRANCH   5   6
HETATM    6  C   UNL     1     -11.204  10.180  68.361  1.00  0.00    -0.238 C  
HETATM    7  C   UNL     1     -10.770   8.736  68.770  1.00  0.00    -0.111 C  
HETATM    8  C   UNL     1     -10.338   8.553  70.238  1.00  0.00    -0.218 A  
HETATM    9  C   UNL     1      -9.838   8.032  67.767  1.00  0.00    -0.207 A  
HETATM   10  C   UNL     1     -10.228   6.984  66.918  1.00  0.00    -0.248 A  
HETATM   11  C   UNL     1      -9.157   9.104  70.767  1.00  0.00    -0.313 A  
HETATM   12  O   UNL     1     -11.505   6.514  66.797  1.00  0.00    -0.774 OA 
HETATM   13  C   UNL     1      -8.723   8.819  72.062  1.00  0.00    -0.160 A  
HETATM   14  C   UNL     1      -9.295   6.310  66.118  1.00  0.00    -0.117 A  
HETATM   15  C   UNL     1      -7.945   6.646  66.155  1.00  0.00    -0.110 A  
HETATM   16  C   UNL     1      -9.483   8.004  72.884  1.00  0.00    -0.346 A  
HETATM   17  H   UNL     1     -11.769   5.806  66.222  1.00  0.00     0.000 HD 
HETATM   18  C   UNL     1      -7.523   7.687  66.970  1.00  0.00    -0.095 A  
HETATM   19  C   UNL     1     -10.683   7.475  72.405  1.00  0.00    -0.311 A  
HETATM   20  C   UNL     1     -11.103   7.746  71.094  1.00  0.00    -0.269 A  
HETATM   21  C   UNL     1      -6.079   8.062  67.123  1.00  0.00    -0.054 C  
HETATM   22  C   UNL     1      -8.477   8.384  67.726  1.00  0.00    -0.131 A  
ENDBRANCH   5   6
ENDBRANCH   4   5
BRANCH   4  23
HETATM   23  C   UNL     1      -8.589  12.722  67.195  1.00  0.00    -0.197 C  
HETATM   24  C   UNL     1      -8.403  14.250  67.214  1.00  0.00    -0.222 C  
HETATM   25  C   UNL     1      -7.645  12.201  68.308  1.00  0.00    -0.132 C  
ENDBRANCH   4  23
ENDBRANCH   2   4
TORSDOF 4
ENDMDL
MODEL       83
REMARK 921   NORMALIZED FREE ENERGY PREDICTED BY IDOCK:   -4.80 KCAL/MOL
REMARK 922        TOTAL FREE ENERGY PREDICTED BY IDOCK:   -6.77 KCAL/MOL
REMARK 923 INTER-LIGAND FREE ENERGY PREDICTED BY IDOCK:   -5.32 KCAL/MOL
REMARK 924 INTRA-LIGAND FREE ENERGY PREDICTED BY IDOCK:   -1.45 KCAL/MOL
REMARK 927      BINDING AFFINITY PREDICTED BY RF-SCORE:    0.00 PKD
ROOT
HETATM    1  C   UNL     1     -11.464  11.103  67.943  1.00  0.00    -0.359 C  
HETATM    2  C   UNL     1     -10.375  11.249  66.849  1.00  0.00    -0.234 C  
HETATM    3  C   UNL     1     -10.450  12.723  66.412  1.00  0.00    -0.265 C  
ENDROOT
BRANCH   2   4
HETATM    4  N   UNL     1      -9.024  10.806  67.314  1.00  0.00    -0.140 NA 
BRANCH   4   5
HETATM    5  C   UNL     1      -9.024  10.346  68.728  1.00  0.00    -0.157 C  
BRANCH   5   6
HETATM    6  C   UNL     1      -7.933   9.348  69.163  1.00  0.00    -0.091 C  
HETATM    7  C   UNL     1      -8.414   7.925  69.592  1.00  0.00    -0.132 C  
HETATM    8  C   UNL     1      -9.143   7.106  68.509  1.00  0.00    -0.132 A  
HETATM    9  C   UNL     1      -9.099   7.862  70.969  1.00  0.00    -0.155 A  
HETATM   10  C   UNL     1      -8.518   7.313  72.123  1.00  0.00    -0.105 A  
HETATM   11  C   UNL     1     -10.420   7.438  68.021  1.00  0.00    -0.253 A  
HETATM   12  O   UNL     1      -7.235   6.851  72.204  1.00  0.00    -0.080 OA 
HETATM   13  C   UNL     1     -11.112   6.612  67.136  1.00  0.00    -0.427 A  
HETATM   14  C   UNL     1      -9.247   7.179  73.312  1.00  0.00    -0.193 A  
HETATM   15  C   UNL     1     -10.581   7.570  73.382  1.00  0.00    -0.409 A  
HETATM   16  C   UNL     1     -10.526   5.444  66.677  1.00  0.00    -0.356 A  
HETATM   17  H   UNL     1      -6.842   6.479  72.985  1.00  0.00     0.000 HD 
HETATM   18  C   UNL     1     -11.186   8.132  72.267  1.00  0.00    -0.425 A  
HETATM   19  C   UNL     1      -9.242   5.105  67.107  1.00  0.00    -0.119 A  
HETATM   20  C   UNL     1      -8.560   5.928  68.016  1.00  0.00    -0.113 A  
HETATM   21  C   UNL     1     -12.637   8.510  72.237  1.00  0.00    -0.438 C  
HETATM   22  C   UNL     1     -10.428   8.305  71.100  1.00  0.00    -0.254 A  
ENDBRANCH   5   6
ENDBRANCH   4   5
BRANCH   4  23
HETATM   23  C   UNL     1      -8.249   9.895  66.418  1.00  0.00    -0.117 C  
HETATM   24  C   UNL     1      -9.045   9.305  65.240  1.00  0.00    -0.271 C  
HETATM   25  C   UNL     1      -7.037  10.598  65.756  1.00  0.00    -0.096 C  
ENDBRANCH   4  23
ENDBRANCH   2   4
TORSDOF 4
ENDMDL
MODEL       84
REMARK 921   NORMALIZED FREE ENERGY PREDICTED BY IDOCK:   -4.80 KCAL/MOL
REMARK 922        TOTAL FREE ENERGY PREDICTED BY IDOCK:   -6.76 KCAL/MOL
REMARK 923 INTER-LIGAND FREE ENERGY PREDICTED BY IDOCK:   -5.97 KCAL/MOL
REMARK 924 INTRA-LIGAND FREE ENERGY PREDICTED BY IDOCK:   -0.80 KCAL/MOL
REMARK 927      BINDING AFFINITY PREDICTED BY RF-SCORE:    0.00 PKD
ROOT
HETATM    1  C   UNL     1     -11.637  14.277  67.260  1.00  0.00    -0.401 C  
HETATM    2  C   UNL     1     -10.990  13.685  68.538  1.00  0.00    -0.267 C  
HETATM    3  C   UNL     1     -10.044  14.787  69.049  1.00  0.00    -0.232 C  
ENDROOT
BRANCH   2   4
HETATM    4  N   UNL     1     -12.001  13.223  69.538  1.00  0.00    -0.317 NA 
BRANCH   4   5
HETATM    5  C   UNL     1     -11.852  11.784  69.884  1.00  0.00    -0.348 C  
BRANCH   5   6
HETATM    6  C   UNL     1     -12.045  10.746  68.761  1.00  0.00    -0.042 C  
HETATM    7  C   UNL     1     -10.930   9.662  68.608  1.00  0.00    -0.152 C  
HETATM    8  C   UNL     1     -10.719   8.739  69.825  1.00  0.00    -0.220 A  
HETATM    9  C   UNL     1      -9.614  10.169  67.991  1.00  0.00    -0.160 A  
HETATM   10  C   UNL     1      -9.182   9.877  66.688  1.00  0.00    -0.153 A  
HETATM   11  C   UNL     1     -10.180   9.184  71.045  1.00  0.00    -0.372 A  
HETATM   12  O   UNL     1      -9.911   9.188  65.761  1.00  0.00    -0.423 OA 
HETATM   13  C   UNL     1      -9.880   8.305  72.085  1.00  0.00    -0.342 A  
HETATM   14  C   UNL     1      -7.915  10.272  66.236  1.00  0.00    -0.124 A  
HETATM   15  C   UNL     1      -7.036  10.952  67.074  1.00  0.00    -0.105 A  
HETATM   16  C   UNL     1     -10.152   6.954  71.951  1.00  0.00    -0.198 A  
HETATM   17  H   UNL     1      -9.619   8.990  64.880  1.00  0.00     0.000 HD 
HETATM   18  C   UNL     1      -7.433  11.273  68.364  1.00  0.00    -0.108 A  
HETATM   19  C   UNL     1     -10.727   6.484  70.769  1.00  0.00    -0.290 A  
HETATM   20  C   UNL     1     -11.004   7.369  69.717  1.00  0.00    -0.215 A  
HETATM   21  C   UNL     1      -6.520  11.937  69.351  1.00  0.00    -0.119 C  
HETATM   22  C   UNL     1      -8.722  10.914  68.784  1.00  0.00    -0.158 A  
ENDBRANCH   5   6
ENDBRANCH   4   5
BRANCH   4  23
HETATM   23  C   UNL     1     -12.224  14.078  70.744  1.00  0.00    -0.367 C  
HETATM   24  C   UNL     1     -12.968  15.399  70.476  1.00  0.00    -0.379 C  
HETATM   25  C   UNL     1     -13.069  13.368  71.830  1.00  0.00    -0.476 C  
ENDBRANCH   4  23
ENDBRANCH   2   4
TORSDOF 4
ENDMDL
MODEL       85
REMARK 921   NORMALIZED FREE ENERGY PREDICTED BY IDOCK:   -4.79 KCAL/MOL
REMARK 922        TOTAL FREE ENERGY PREDICTED BY IDOCK:   -6.75 KCAL/MOL
REMARK 923 INTER-LIGAND FREE ENERGY PREDICTED BY IDOCK:   -5.45 KCAL/MOL
REMARK 924 INTRA-LIGAND FREE ENERGY PREDICTED BY IDOCK:   -1.30 KCAL/MOL
REMARK 927      BINDING AFFINITY PREDICTED BY RF-SCORE:    0.00 PKD
ROOT
HETATM    1  C   UNL     1      -8.066   9.465  63.651  1.00  0.00    -0.154 C  
HETATM    2  C   UNL     1      -6.683   9.267  64.321  1.00  0.00    -0.087 C  
HETATM    3  C   UNL     1      -5.668   9.815  63.302  1.00  0.00    -0.095 C  
ENDROOT
BRANCH   2   4
HETATM    4  N   UNL     1      -6.601   9.893  65.677  1.00  0.00    -0.087 NA 
BRANCH   4   5
HETATM    5  C   UNL     1      -7.601  10.976  65.873  1.00  0.00     0.007 C  
BRANCH   5   6
HETATM    6  C   UNL     1      -7.893  11.439  67.314  1.00  0.00    -0.149 C  
HETATM    7  C   UNL     1      -9.345  11.212  67.843  1.00  0.00    -0.161 C  
HETATM    8  C   UNL     1      -9.816   9.746  67.906  1.00  0.00    -0.176 A  
HETATM    9  C   UNL     1     -10.402  12.169  67.262  1.00  0.00    -0.230 A  
HETATM   10  C   UNL     1     -10.995  13.225  67.972  1.00  0.00    -0.244 A  
HETATM   11  C   UNL     1     -10.065   8.966  66.763  1.00  0.00    -0.350 A  
HETATM   12  O   UNL     1     -10.646  13.607  69.236  1.00  0.00    -0.422 OA 
HETATM   13  C   UNL     1     -10.613   7.686  66.844  1.00  0.00    -0.359 A  
HETATM   14  C   UNL     1     -12.039  13.978  67.418  1.00  0.00    -0.384 A  
HETATM   15  C   UNL     1     -12.536  13.689  66.150  1.00  0.00    -0.449 A  
HETATM   16  C   UNL     1     -10.889   7.129  68.081  1.00  0.00    -0.170 A  
HETATM   17  H   UNL     1     -11.047  14.321  69.716  1.00  0.00     0.000 HD 
HETATM   18  C   UNL     1     -11.965  12.663  65.411  1.00  0.00    -0.496 A  
HETATM   19  C   UNL     1     -10.614   7.858  69.239  1.00  0.00    -0.195 A  
HETATM   20  C   UNL     1     -10.086   9.154  69.150  1.00  0.00    -0.199 A  
HETATM   21  C   UNL     1     -12.489  12.241  64.071  1.00  0.00    -0.556 C  
HETATM   22  C   UNL     1     -10.888  11.952  65.960  1.00  0.00    -0.342 A  
ENDBRANCH   5   6
ENDBRANCH   4   5
BRANCH   4  23
HETATM   23  C   UNL     1      -6.512   8.980  66.857  1.00  0.00    -0.064 C  
HETATM   24  C   UNL     1      -6.593   7.479  66.527  1.00  0.00    -0.053 C  
HETATM   25  C   UNL     1      -5.181   9.137  67.634  1.00  0.00    -0.034 C  
ENDBRANCH   4  23
ENDBRANCH   2   4
TORSDOF 4
ENDMDL
MODEL       86
REMARK 921   NORMALIZED FREE ENERGY PREDICTED BY IDOCK:   -4.78 KCAL/MOL
REMARK 922        TOTAL FREE ENERGY PREDICTED BY IDOCK:   -6.75 KCAL/MOL
REMARK 923 INTER-LIGAND FREE ENERGY PREDICTED BY IDOCK:   -5.87 KCAL/MOL
REMARK 924 INTRA-LIGAND FREE ENERGY PREDICTED BY IDOCK:   -0.87 KCAL/MOL
REMARK 927      BINDING AFFINITY PREDICTED BY RF-SCORE:    0.00 PKD
ROOT
HETATM    1  C   UNL     1     -12.500   9.913  71.372  1.00  0.00    -0.495 C  
HETATM    2  C   UNL     1     -11.104   9.360  70.984  1.00  0.00    -0.344 C  
HETATM    3  C   UNL     1     -10.744   8.374  72.110  1.00  0.00    -0.407 C  
ENDROOT
BRANCH   2   4
HETATM    4  N   UNL     1     -11.075   8.772  69.610  1.00  0.00    -0.104 NA 
BRANCH   4   5
HETATM    5  C   UNL     1     -10.792   9.783  68.557  1.00  0.00    -0.188 C  
BRANCH   5   6
HETATM    6  C   UNL     1      -9.916  10.994  68.934  1.00  0.00    -0.201 C  
HETATM    7  C   UNL     1      -9.384  11.870  67.755  1.00  0.00    -0.184 C  
HETATM    8  C   UNL     1     -10.459  12.548  66.883  1.00  0.00    -0.244 A  
HETATM    9  C   UNL     1      -8.248  11.231  66.936  1.00  0.00    -0.153 A  
HETATM   10  C   UNL     1      -6.903  11.631  66.994  1.00  0.00    -0.144 A  
HETATM   11  C   UNL     1     -11.317  11.837  66.025  1.00  0.00    -0.335 A  
HETATM   12  O   UNL     1      -6.406  12.571  67.852  1.00  0.00    -0.077 OA 
HETATM   13  C   UNL     1     -12.192  12.482  65.152  1.00  0.00    -0.509 A  
HETATM   14  C   UNL     1      -5.944  11.086  66.129  1.00  0.00    -0.132 A  
HETATM   15  C   UNL     1      -6.299  10.142  65.170  1.00  0.00    -0.121 A  
HETATM   16  C   UNL     1     -12.267  13.865  65.143  1.00  0.00    -0.443 A  
HETATM   17  H   UNL     1      -5.497  12.841  67.891  1.00  0.00     0.000 HD 
HETATM   18  C   UNL     1      -7.614   9.710  65.093  1.00  0.00    -0.114 A  
HETATM   19  C   UNL     1     -11.461  14.601  66.013  1.00  0.00    -0.332 A  
HETATM   20  C   UNL     1     -10.564  13.948  66.871  1.00  0.00    -0.280 A  
HETATM   21  C   UNL     1      -8.092   8.753  64.041  1.00  0.00    -0.164 C  
HETATM   22  C   UNL     1      -8.552  10.228  65.998  1.00  0.00    -0.153 A  
ENDBRANCH   5   6
ENDBRANCH   4   5
BRANCH   4  23
HETATM   23  C   UNL     1     -10.296   7.511  69.413  1.00  0.00    -0.213 C  
HETATM   24  C   UNL     1     -10.990   6.444  68.548  1.00  0.00    -0.396 C  
HETATM   25  C   UNL     1      -8.935   7.755  68.715  1.00  0.00    -0.141 C  
ENDBRANCH   4  23
ENDBRANCH   2   4
TORSDOF 4
ENDMDL
MODEL       87
REMARK 921   NORMALIZED FREE ENERGY PREDICTED BY IDOCK:   -4.78 KCAL/MOL
REMARK 922        TOTAL FREE ENERGY PREDICTED BY IDOCK:   -6.74 KCAL/MOL
REMARK 923 INTER-LIGAND FREE ENERGY PREDICTED BY IDOCK:   -5.57 KCAL/MOL
REMARK 924 INTRA-LIGAND FREE ENERGY PREDICTED BY IDOCK:   -1.17 KCAL/MOL
REMARK 927      BINDING AFFINITY PREDICTED BY RF-SCORE:    0.00 PKD
ROOT
HETATM    1  C   UNL     1      -8.152  11.202  66.777  1.00  0.00    -0.155 C  
HETATM    2  C   UNL     1      -9.558  11.594  66.254  1.00  0.00    -0.221 C  
HETATM    3  C   UNL     1      -9.810  10.659  65.058  1.00  0.00    -0.353 C  
ENDROOT
BRANCH   2   4
HETATM    4  N   UNL     1     -10.608  11.539  67.317  1.00  0.00    -0.218 NA 
BRANCH   4   5
HETATM    5  C   UNL     1     -10.049  11.244  68.664  1.00  0.00    -0.208 C  
BRANCH   5   6
HETATM    6  C   UNL     1     -10.829  10.275  69.574  1.00  0.00    -0.292 C  
HETATM    7  C   UNL     1     -10.141   8.910  69.900  1.00  0.00    -0.204 C  
HETATM    8  C   UNL     1      -8.798   8.997  70.650  1.00  0.00    -0.259 A  
HETATM    9  C   UNL     1     -10.129   7.899  68.739  1.00  0.00    -0.203 A  
HETATM   10  C   UNL     1     -10.931   6.749  68.678  1.00  0.00    -0.199 A  
HETATM   11  C   UNL     1      -7.621   9.501  70.067  1.00  0.00    -0.134 A  
HETATM   12  O   UNL     1     -11.897   6.424  69.586  1.00  0.00    -0.594 OA 
HETATM   13  C   UNL     1      -6.391   9.450  70.722  1.00  0.00    -0.081 A  
HETATM   14  C   UNL     1     -10.778   5.809  67.649  1.00  0.00    -0.313 A  
HETATM   15  C   UNL     1      -9.809   5.978  66.663  1.00  0.00    -0.202 A  
HETATM   16  C   UNL     1      -6.309   8.930  72.003  1.00  0.00    -0.048 A  
HETATM   17  H   UNL     1     -12.440   5.645  69.544  1.00  0.00     0.000 HD 
HETATM   18  C   UNL     1      -9.007   7.110  66.682  1.00  0.00    -0.164 A  
HETATM   19  C   UNL     1      -7.465   8.461  72.629  1.00  0.00    -0.122 A  
HETATM   20  C   UNL     1      -8.696   8.493  71.956  1.00  0.00    -0.265 A  
HETATM   21  C   UNL     1      -7.893   7.329  65.702  1.00  0.00    -0.112 C  
HETATM   22  C   UNL     1      -9.207   8.065  67.689  1.00  0.00    -0.145 A  
ENDBRANCH   5   6
ENDBRANCH   4   5
BRANCH   4  23
HETATM   23  C   UNL     1     -11.619  12.640  67.350  1.00  0.00    -0.360 C  
HETATM   24  C   UNL     1     -11.692  13.419  68.675  1.00  0.00    -0.384 C  
HETATM   25  C   UNL     1     -11.355  13.724  66.275  1.00  0.00    -0.329 C  
ENDBRANCH   4  23
ENDBRANCH   2   4
TORSDOF 4
ENDMDL
MODEL       88
REMARK 921   NORMALIZED FREE ENERGY PREDICTED BY IDOCK:   -4.75 KCAL/MOL
REMARK 922        TOTAL FREE ENERGY PREDICTED BY IDOCK:   -6.70 KCAL/MOL
REMARK 923 INTER-LIGAND FREE ENERGY PREDICTED BY IDOCK:   -5.96 KCAL/MOL
REMARK 924 INTRA-LIGAND FREE ENERGY PREDICTED BY IDOCK:   -0.73 KCAL/MOL
REMARK 927      BINDING AFFINITY PREDICTED BY RF-SCORE:    0.00 PKD
ROOT
HETATM    1  C   UNL     1     -12.095  12.034  70.400  1.00  0.00    -0.407 C  
HETATM    2  C   UNL     1     -11.889  12.975  69.185  1.00  0.00    -0.310 C  
HETATM    3  C   UNL     1     -11.920  14.396  69.776  1.00  0.00    -0.385 C  
ENDROOT
BRANCH   2   4
HETATM    4  N   UNL     1     -10.654  12.654  68.406  1.00  0.00    -0.238 NA 
BRANCH   4   5
HETATM    5  C   UNL     1     -10.164  11.270  68.649  1.00  0.00    -0.203 C  
BRANCH   5   6
HETATM    6  C   UNL     1     -10.962  10.103  68.035  1.00  0.00    -0.326 C  
HETATM    7  C   UNL     1     -10.581   8.665  68.513  1.00  0.00    -0.162 C  
HETATM    8  C   UNL     1     -10.765   8.385  70.017  1.00  0.00    -0.236 A  
HETATM    9  C   UNL     1      -9.254   8.127  67.949  1.00  0.00    -0.138 A  
HETATM   10  C   UNL     1      -9.153   7.133  66.963  1.00  0.00    -0.134 A  
HETATM   11  C   UNL     1      -9.966   8.974  71.013  1.00  0.00    -0.349 A  
HETATM   12  O   UNL     1     -10.214   6.580  66.302  1.00  0.00    -0.417 OA 
HETATM   13  C   UNL     1     -10.067   8.608  72.355  1.00  0.00    -0.321 A  
HETATM   14  C   UNL     1      -7.911   6.605  66.586  1.00  0.00    -0.104 A  
HETATM   15  C   UNL     1      -6.735   7.038  67.193  1.00  0.00    -0.060 A  
HETATM   16  C   UNL     1     -11.004   7.668  72.748  1.00  0.00    -0.432 A  
HETATM   17  H   UNL     1     -10.145   5.908  65.635  1.00  0.00     0.000 HD 
HETATM   18  C   UNL     1      -6.792   8.030  68.161  1.00  0.00    -0.069 A  
HETATM   19  C   UNL     1     -11.843   7.094  71.792  1.00  0.00    -0.338 A  
HETATM   20  C   UNL     1     -11.721   7.449  70.440  1.00  0.00    -0.163 A  
HETATM   21  C   UNL     1      -5.583   8.498  68.914  1.00  0.00    -0.040 C  
HETATM   22  C   UNL     1      -8.038   8.583  68.491  1.00  0.00    -0.122 A  
ENDBRANCH   5   6
ENDBRANCH   4   5
BRANCH   4  23
HETATM   23  C   UNL     1     -10.635  13.018  66.956  1.00  0.00    -0.257 C  
HETATM   24  C   UNL     1     -12.012  13.328  66.344  1.00  0.00    -0.465 C  
HETATM   25  C   UNL     1      -9.787  14.284  66.671  1.00  0.00    -0.288 C  
ENDBRANCH   4  23
ENDBRANCH   2   4
TORSDOF 4
ENDMDL
MODEL       89
REMARK 921   NORMALIZED FREE ENERGY PREDICTED BY IDOCK:   -4.73 KCAL/MOL
REMARK 922        TOTAL FREE ENERGY PREDICTED BY IDOCK:   -6.68 KCAL/MOL
REMARK 923 INTER-LIGAND FREE ENERGY PREDICTED BY IDOCK:   -5.79 KCAL/MOL
REMARK 924 INTRA-LIGAND FREE ENERGY PREDICTED BY IDOCK:   -0.89 KCAL/MOL
REMARK 927      BINDING AFFINITY PREDICTED BY RF-SCORE:    0.00 PKD
ROOT
HETATM    1  C   UNL     1      -9.136  16.823  66.704  1.00  0.00    -0.275 C  
HETATM    2  C   UNL     1      -7.823  16.794  67.527  1.00  0.00    -0.168 C  
HETATM    3  C   UNL     1      -7.517  18.272  67.833  1.00  0.00    -0.236 C  
ENDROOT
BRANCH   2   4
HETATM    4  N   UNL     1      -7.916  15.916  68.735  1.00  0.00    -0.174 NA 
BRANCH   4   5
HETATM    5  C   UNL     1      -9.202  15.174  68.809  1.00  0.00    -0.200 C  
BRANCH   5   6
HETATM    6  C   UNL     1      -9.161  13.640  68.662  1.00  0.00    -0.035 C  
HETATM    7  C   UNL     1     -10.520  12.926  68.371  1.00  0.00    -0.260 C  
HETATM    8  C   UNL     1     -11.223  13.327  67.059  1.00  0.00    -0.319 A  
HETATM    9  C   UNL     1     -11.476  12.840  69.575  1.00  0.00    -0.293 A  
HETATM   10  C   UNL     1     -11.746  11.666  70.294  1.00  0.00    -0.266 A  
HETATM   11  C   UNL     1     -11.794  14.594  66.847  1.00  0.00    -0.345 A  
HETATM   12  O   UNL     1     -11.127  10.466  70.087  1.00  0.00    -0.280 OA 
HETATM   13  C   UNL     1     -12.535  14.890  65.703  1.00  0.00     0.166 A  
HETATM   14  C   UNL     1     -12.721  11.637  71.301  1.00  0.00    -0.444 A  
HETATM   15  C   UNL     1     -13.467  12.772  71.607  1.00  0.00    -0.225 A  
HETATM   16  C   UNL     1     -12.692  13.934  64.713  1.00  0.00    -0.248 A  
HETATM   17  H   UNL     1     -11.310   9.671  70.574  1.00  0.00     0.000 HD 
HETATM   18  C   UNL     1     -13.218  13.956  70.929  1.00  0.00    -0.196 A  
HETATM   19  C   UNL     1     -12.102  12.679  64.872  1.00  0.00    -0.494 A  
HETATM   20  C   UNL     1     -11.378  12.379  66.035  1.00  0.00    -0.397 A  
HETATM   21  C   UNL     1     -14.027  15.200  71.147  1.00  0.00    -0.487 C  
HETATM   22  C   UNL     1     -12.205  13.980  69.959  1.00  0.00    -0.414 A  
ENDBRANCH   5   6
ENDBRANCH   4   5
BRANCH   4  23
HETATM   23  C   UNL     1      -6.739  15.051  69.053  1.00  0.00    -0.116 C  
HETATM   24  C   UNL     1      -5.470  15.349  68.234  1.00  0.00    -0.120 C  
HETATM   25  C   UNL     1      -6.289  15.176  70.530  1.00  0.00     0.035 C  
ENDBRANCH   4  23
ENDBRANCH   2   4
TORSDOF 4
ENDMDL
MODEL       90
REMARK 921   NORMALIZED FREE ENERGY PREDICTED BY IDOCK:   -4.73 KCAL/MOL
REMARK 922        TOTAL FREE ENERGY PREDICTED BY IDOCK:   -6.68 KCAL/MOL
REMARK 923 INTER-LIGAND FREE ENERGY PREDICTED BY IDOCK:   -5.76 KCAL/MOL
REMARK 924 INTRA-LIGAND FREE ENERGY PREDICTED BY IDOCK:   -0.91 KCAL/MOL
REMARK 927      BINDING AFFINITY PREDICTED BY RF-SCORE:    0.00 PKD
ROOT
HETATM    1  C   UNL     1      -9.873  10.346  69.425  1.00  0.00    -0.235 C  
HETATM    2  C   UNL     1      -9.292  11.202  68.270  1.00  0.00    -0.176 C  
HETATM    3  C   UNL     1      -7.818  11.432  68.652  1.00  0.00    -0.139 C  
ENDROOT
BRANCH   2   4
HETATM    4  N   UNL     1      -9.495  10.577  66.927  1.00  0.00    -0.163 NA 
BRANCH   4   5
HETATM    5  C   UNL     1      -9.345   9.097  66.952  1.00  0.00    -0.156 C  
BRANCH   5   6
HETATM    6  C   UNL     1     -10.611   8.240  66.754  1.00  0.00    -0.226 C  
HETATM    7  C   UNL     1     -10.561   6.778  67.304  1.00  0.00    -0.390 C  
HETATM    8  C   UNL     1     -10.349   6.638  68.824  1.00  0.00    -0.214 A  
HETATM    9  C   UNL     1      -9.704   5.804  66.475  1.00  0.00    -0.185 A  
HETATM   10  C   UNL     1     -10.221   4.794  65.649  1.00  0.00    -0.188 A  
HETATM   11  C   UNL     1      -9.142   6.967  69.467  1.00  0.00    -0.146 A  
HETATM   12  O   UNL     1     -11.549   4.601  65.393  1.00  0.00    -1.015 OA 
HETATM   13  C   UNL     1      -8.931   6.711  70.821  1.00  0.00    -0.151 A  
HETATM   14  C   UNL     1      -9.379   3.866  65.020  1.00  0.00    -0.158 A  
HETATM   15  C   UNL     1      -8.001   3.906  65.211  1.00  0.00    -0.097 A  
HETATM   16  C   UNL     1      -9.943   6.155  71.586  1.00  0.00    -0.203 A  
HETATM   17  H   UNL     1     -11.898   3.917  64.834  1.00  0.00     0.000 HD 
HETATM   18  C   UNL     1      -7.451   4.899  66.007  1.00  0.00    -0.082 A  
HETATM   19  C   UNL     1     -11.169   5.856  70.990  1.00  0.00    -0.280 A  
HETATM   20  C   UNL     1     -11.367   6.093  69.622  1.00  0.00    -0.442 A  
HETATM   21  C   UNL     1      -5.986   4.967  66.323  1.00  0.00    -0.023 C  
HETATM   22  C   UNL     1      -8.302   5.850  66.589  1.00  0.00    -0.110 A  
ENDBRANCH   5   6
ENDBRANCH   4   5
BRANCH   4  23
HETATM   23  C   UNL     1     -10.682  11.016  66.131  1.00  0.00    -0.194 C  
HETATM   24  C   UNL     1     -11.412  12.255  66.679  1.00  0.00    -0.431 C  
HETATM   25  C   UNL     1     -10.316  11.392  64.673  1.00  0.00    -0.362 C  
ENDBRANCH   4  23
ENDBRANCH   2   4
TORSDOF 4
ENDMDL
MODEL       91
REMARK 921   NORMALIZED FREE ENERGY PREDICTED BY IDOCK:   -4.71 KCAL/MOL
REMARK 922        TOTAL FREE ENERGY PREDICTED BY IDOCK:   -6.66 KCAL/MOL
REMARK 923 INTER-LIGAND FREE ENERGY PREDICTED BY IDOCK:   -6.18 KCAL/MOL
REMARK 924 INTRA-LIGAND FREE ENERGY PREDICTED BY IDOCK:   -0.48 KCAL/MOL
REMARK 927      BINDING AFFINITY PREDICTED BY RF-SCORE:    0.00 PKD
ROOT
HETATM    1  C   UNL     1      -9.170   8.322  69.107  1.00  0.00    -0.151 C  
HETATM    2  C   UNL     1     -10.124   9.018  70.112  1.00  0.00    -0.193 C  
HETATM    3  C   UNL     1      -9.323   9.099  71.424  1.00  0.00    -0.246 C  
ENDROOT
BRANCH   2   4
HETATM    4  N   UNL     1     -10.633  10.332  69.613  1.00  0.00    -0.240 NA 
BRANCH   4   5
HETATM    5  C   UNL     1     -10.334  10.556  68.174  1.00  0.00    -0.172 C  
BRANCH   5   6
HETATM    6  C   UNL     1     -11.234  11.534  67.392  1.00  0.00    -0.367 C  
HETATM    7  C   UNL     1     -10.560  12.332  66.230  1.00  0.00    -0.282 C  
HETATM    8  C   UNL     1      -9.980  11.486  65.080  1.00  0.00    -0.304 A  
HETATM    9  C   UNL     1      -9.625  13.468  66.684  1.00  0.00    -0.282 A  
HETATM   10  C   UNL     1      -9.929  14.835  66.589  1.00  0.00    -0.264 A  
HETATM   11  C   UNL     1      -8.852  10.659  65.225  1.00  0.00    -0.204 A  
HETATM   12  O   UNL     1     -11.130  15.339  66.174  1.00  0.00    -0.336 OA 
HETATM   13  C   UNL     1      -8.271  10.004  64.139  1.00  0.00    -0.159 A  
HETATM   14  C   UNL     1      -8.980  15.816  66.908  1.00  0.00    -0.266 A  
HETATM   15  C   UNL     1      -7.696  15.464  67.312  1.00  0.00    -0.245 A  
HETATM   16  C   UNL     1      -8.830  10.123  62.878  1.00  0.00    -0.231 A  
HETATM   17  H   UNL     1     -11.335  16.264  66.110  1.00  0.00     0.000 HD 
HETATM   18  C   UNL     1      -7.362  14.124  67.434  1.00  0.00    -0.143 A  
HETATM   19  C   UNL     1      -9.976  10.901  62.706  1.00  0.00    -0.182 A  
HETATM   20  C   UNL     1     -10.542  11.577  63.797  1.00  0.00    -0.465 A  
HETATM   21  C   UNL     1      -5.980  13.661  67.790  1.00  0.00    -0.128 C  
HETATM   22  C   UNL     1      -8.338  13.155  67.159  1.00  0.00    -0.146 A  
ENDBRANCH   5   6
ENDBRANCH   4   5
BRANCH   4  23
HETATM   23  C   UNL     1     -12.035  10.712  69.969  1.00  0.00    -0.329 C  
HETATM   24  C   UNL     1     -12.670   9.877  71.095  1.00  0.00    -0.462 C  
HETATM   25  C   UNL     1     -12.150  12.177  70.458  1.00  0.00    -0.383 C  
ENDBRANCH   4  23
ENDBRANCH   2   4
TORSDOF 4
ENDMDL
MODEL       92
REMARK 921   NORMALIZED FREE ENERGY PREDICTED BY IDOCK:   -4.71 KCAL/MOL
REMARK 922        TOTAL FREE ENERGY PREDICTED BY IDOCK:   -6.65 KCAL/MOL
REMARK 923 INTER-LIGAND FREE ENERGY PREDICTED BY IDOCK:   -5.72 KCAL/MOL
REMARK 924 INTRA-LIGAND FREE ENERGY PREDICTED BY IDOCK:   -0.93 KCAL/MOL
REMARK 927      BINDING AFFINITY PREDICTED BY RF-SCORE:    0.00 PKD
ROOT
HETATM    1  C   UNL     1     -11.617  11.190  68.894  1.00  0.00    -0.385 C  
HETATM    2  C   UNL     1     -10.496  11.158  67.824  1.00  0.00    -0.193 C  
HETATM    3  C   UNL     1     -10.030  12.620  67.697  1.00  0.00    -0.216 C  
ENDROOT
BRANCH   2   4
HETATM    4  N   UNL     1      -9.408  10.186  68.153  1.00  0.00    -0.134 NA 
BRANCH   4   5
HETATM    5  C   UNL     1      -9.733   9.334  69.328  1.00  0.00    -0.169 C  
BRANCH   5   6
HETATM    6  C   UNL     1     -10.191   7.886  69.066  1.00  0.00    -0.216 C  
HETATM    7  C   UNL     1     -10.767   7.101  70.288  1.00  0.00    -0.258 C  
HETATM    8  C   UNL     1     -12.035   7.695  70.931  1.00  0.00    -0.252 A  
HETATM    9  C   UNL     1      -9.718   6.643  71.316  1.00  0.00    -0.183 A  
HETATM   10  C   UNL     1      -9.291   5.315  71.481  1.00  0.00    -0.148 A  
HETATM   11  C   UNL     1     -12.040   8.904  71.651  1.00  0.00    -0.415 A  
HETATM   12  O   UNL     1      -9.675   4.270  70.689  1.00  0.00    -0.178 OA 
HETATM   13  C   UNL     1     -13.170   9.355  72.332  1.00  0.00    -0.483 A  
HETATM   14  C   UNL     1      -8.423   4.953  72.520  1.00  0.00    -0.120 A  
HETATM   15  C   UNL     1      -7.969   5.898  73.436  1.00  0.00    -0.108 A  
HETATM   16  C   UNL     1     -14.348   8.629  72.277  1.00  0.00    -0.486 A  
HETATM   17  H   UNL     1      -9.386   3.372  70.801  1.00  0.00     0.000 HD 
HETATM   18  C   UNL     1      -8.356   7.223  73.297  1.00  0.00    -0.146 A  
HETATM   19  C   UNL     1     -14.391   7.447  71.536  1.00  0.00    -0.594 A  
HETATM   20  C   UNL     1     -13.244   6.985  70.873  1.00  0.00    -0.001 A  
HETATM   21  C   UNL     1      -7.973   8.287  74.282  1.00  0.00    -0.293 C  
HETATM   22  C   UNL     1      -9.185   7.577  72.223  1.00  0.00    -0.176 A  
ENDBRANCH   5   6
ENDBRANCH   4   5
BRANCH   4  23
HETATM   23  C   UNL     1      -8.818   9.400  67.026  1.00  0.00    -0.127 C  
HETATM   24  C   UNL     1      -9.724   9.251  65.791  1.00  0.00    -0.339 C  
HETATM   25  C   UNL     1      -7.513  10.032  66.478  1.00  0.00    -0.105 C  
ENDBRANCH   4  23
ENDBRANCH   2   4
TORSDOF 4
ENDMDL
MODEL       93
REMARK 921   NORMALIZED FREE ENERGY PREDICTED BY IDOCK:   -4.70 KCAL/MOL
REMARK 922        TOTAL FREE ENERGY PREDICTED BY IDOCK:   -6.64 KCAL/MOL
REMARK 923 INTER-LIGAND FREE ENERGY PREDICTED BY IDOCK:   -5.32 KCAL/MOL
REMARK 924 INTRA-LIGAND FREE ENERGY PREDICTED BY IDOCK:   -1.32 KCAL/MOL
REMARK 927      BINDING AFFINITY PREDICTED BY RF-SCORE:    0.00 PKD
ROOT
HETATM    1  C   UNL     1     -10.115   9.762  65.746  1.00  0.00    -0.308 C  
HETATM    2  C   UNL     1      -8.790   9.085  66.179  1.00  0.00    -0.164 C  
HETATM    3  C   UNL     1      -7.846  10.251  66.526  1.00  0.00    -0.116 C  
ENDROOT
BRANCH   2   4
HETATM    4  N   UNL     1      -8.979   8.091  67.279  1.00  0.00    -0.136 NA 
BRANCH   4   5
HETATM    5  C   UNL     1     -10.372   8.066  67.799  1.00  0.00    -0.231 C  
BRANCH   5   6
HETATM    6  C   UNL     1     -10.661   7.219  69.054  1.00  0.00    -0.214 C  
HETATM    7  C   UNL     1     -10.467   7.923  70.435  1.00  0.00    -0.218 C  
HETATM    8  C   UNL     1     -11.365   9.148  70.698  1.00  0.00    -0.323 A  
HETATM    9  C   UNL     1      -9.001   8.140  70.850  1.00  0.00    -0.163 A  
HETATM   10  C   UNL     1      -8.341   7.411  71.852  1.00  0.00    -0.106 A  
HETATM   11  C   UNL     1     -11.227  10.366  70.009  1.00  0.00    -0.385 A  
HETATM   12  O   UNL     1      -8.876   6.348  72.523  1.00  0.00    -0.134 OA 
HETATM   13  C   UNL     1     -11.965  11.498  70.353  1.00  0.00    -0.459 A  
HETATM   14  C   UNL     1      -7.043   7.746  72.261  1.00  0.00    -0.079 A  
HETATM   15  C   UNL     1      -6.372   8.829  71.698  1.00  0.00    -0.073 A  
HETATM   16  C   UNL     1     -12.899  11.433  71.373  1.00  0.00    -0.502 A  
HETATM   17  H   UNL     1      -8.429   5.855  73.200  1.00  0.00     0.000 HD 
HETATM   18  C   UNL     1      -6.986   9.565  70.695  1.00  0.00    -0.121 A  
HETATM   19  C   UNL     1     -13.093  10.227  72.049  1.00  0.00    -0.529 A  
HETATM   20  C   UNL     1     -12.330   9.098  71.715  1.00  0.00    -0.444 A  
HETATM   21  C   UNL     1      -6.363  10.788  70.091  1.00  0.00    -0.147 C  
HETATM   22  C   UNL     1      -8.265   9.185  70.263  1.00  0.00    -0.170 A  
ENDBRANCH   5   6
ENDBRANCH   4   5
BRANCH   4  23
HETATM   23  C   UNL     1      -8.422   6.718  67.076  1.00  0.00    -0.114 C  
HETATM   24  C   UNL     1      -7.845   6.450  65.675  1.00  0.00    -0.099 C  
HETATM   25  C   UNL     1      -7.257   6.398  68.046  1.00  0.00    -0.087 C  
ENDBRANCH   4  23
ENDBRANCH   2   4
TORSDOF 4
ENDMDL
MODEL       94
REMARK 921   NORMALIZED FREE ENERGY PREDICTED BY IDOCK:   -4.69 KCAL/MOL
REMARK 922        TOTAL FREE ENERGY PREDICTED BY IDOCK:   -6.63 KCAL/MOL
REMARK 923 INTER-LIGAND FREE ENERGY PREDICTED BY IDOCK:   -5.47 KCAL/MOL
REMARK 924 INTRA-LIGAND FREE ENERGY PREDICTED BY IDOCK:   -1.16 KCAL/MOL
REMARK 927      BINDING AFFINITY PREDICTED BY RF-SCORE:    0.00 PKD
ROOT
HETATM    1  C   UNL     1      -6.286  12.433  67.280  1.00  0.00    -0.142 C  
HETATM    2  C   UNL     1      -7.171  11.323  67.903  1.00  0.00    -0.086 C  
HETATM    3  C   UNL     1      -6.812  11.326  69.400  1.00  0.00    -0.121 C  
ENDROOT
BRANCH   2   4
HETATM    4  N   UNL     1      -8.626  11.510  67.613  1.00  0.00    -0.132 NA 
BRANCH   4   5
HETATM    5  C   UNL     1      -9.497  11.089  68.742  1.00  0.00    -0.183 C  
BRANCH   5   6
HETATM    6  C   UNL     1     -10.725  10.214  68.420  1.00  0.00    -0.266 C  
HETATM    7  C   UNL     1     -10.655   8.717  68.862  1.00  0.00    -0.178 C  
HETATM    8  C   UNL     1     -10.509   8.469  70.376  1.00  0.00    -0.227 A  
HETATM    9  C   UNL     1      -9.731   7.833  68.006  1.00  0.00    -0.176 A  
HETATM   10  C   UNL     1     -10.177   6.873  67.084  1.00  0.00    -0.240 A  
HETATM   11  C   UNL     1      -9.344   8.782  71.099  1.00  0.00    -0.297 A  
HETATM   12  O   UNL     1     -11.485   6.664  66.750  1.00  0.00    -0.776 OA 
HETATM   13  C   UNL     1      -9.188   8.430  72.440  1.00  0.00    -0.345 A  
HETATM   14  C   UNL     1      -9.279   6.019  66.430  1.00  0.00    -0.163 A  
HETATM   15  C   UNL     1      -7.913   6.082  66.689  1.00  0.00    -0.102 A  
HETATM   16  C   UNL     1     -10.216   7.791  73.112  1.00  0.00    -0.398 A  
HETATM   17  H   UNL     1     -11.787   6.015  66.126  1.00  0.00     0.000 HD 
HETATM   18  C   UNL     1      -7.431   7.028  67.583  1.00  0.00    -0.098 A  
HETATM   19  C   UNL     1     -11.404   7.504  72.437  1.00  0.00    -0.360 A  
HETATM   20  C   UNL     1     -11.545   7.838  71.082  1.00  0.00    -0.301 A  
HETATM   21  C   UNL     1      -5.986   7.112  67.973  1.00  0.00    -0.030 C  
HETATM   22  C   UNL     1      -8.338   7.908  68.191  1.00  0.00    -0.124 A  
ENDBRANCH   5   6
ENDBRANCH   4   5
BRANCH   4  23
HETATM   23  C   UNL     1      -9.052  12.816  67.022  1.00  0.00    -0.220 C  
HETATM   24  C   UNL     1     -10.038  12.708  65.845  1.00  0.00    -0.276 C  
HETATM   25  C   UNL     1      -9.767  13.730  68.048  1.00  0.00    -0.232 C  
ENDBRANCH   4  23
ENDBRANCH   2   4
TORSDOF 4
ENDMDL
MODEL       95
REMARK 921   NORMALIZED FREE ENERGY PREDICTED BY IDOCK:   -4.69 KCAL/MOL
REMARK 922        TOTAL FREE ENERGY PREDICTED BY IDOCK:   -6.63 KCAL/MOL
REMARK 923 INTER-LIGAND FREE ENERGY PREDICTED BY IDOCK:   -5.45 KCAL/MOL
REMARK 924 INTRA-LIGAND FREE ENERGY PREDICTED BY IDOCK:   -1.18 KCAL/MOL
REMARK 927      BINDING AFFINITY PREDICTED BY RF-SCORE:    0.00 PKD
ROOT
HETATM    1  C   UNL     1      -5.761  10.913  70.987  1.00  0.00    -0.007 C  
HETATM    2  C   UNL     1      -5.285   9.446  71.148  1.00  0.00    -0.043 C  
HETATM    3  C   UNL     1      -5.138   9.244  72.667  1.00  0.00    -0.076 C  
ENDROOT
BRANCH   2   4
HETATM    4  N   UNL     1      -6.193   8.466  70.477  1.00  0.00    -0.035 NA 
BRANCH   4   5
HETATM    5  C   UNL     1      -7.624   8.864  70.548  1.00  0.00    -0.093 C  
BRANCH   5   6
HETATM    6  C   UNL     1      -8.607   7.904  71.249  1.00  0.00    -0.138 C  
HETATM    7  C   UNL     1     -10.039   7.796  70.635  1.00  0.00    -0.191 C  
HETATM    8  C   UNL     1     -10.112   7.280  69.185  1.00  0.00    -0.183 A  
HETATM    9  C   UNL     1     -10.949   9.009  70.898  1.00  0.00    -0.332 A  
HETATM   10  C   UNL     1     -12.030   9.015  71.794  1.00  0.00    -0.368 A  
HETATM   11  C   UNL     1      -9.648   8.016  68.081  1.00  0.00    -0.165 A  
HETATM   12  O   UNL     1     -12.359   7.980  72.624  1.00  0.00    -0.569 OA 
HETATM   13  C   UNL     1      -9.842   7.584  66.769  1.00  0.00    -0.295 A  
HETATM   14  C   UNL     1     -12.889  10.117  71.891  1.00  0.00    -0.526 A  
HETATM   15  C   UNL     1     -12.710  11.238  71.086  1.00  0.00    -0.492 A  
HETATM   16  C   UNL     1     -10.470   6.375  66.523  1.00  0.00    -0.150 A  
HETATM   17  H   UNL     1     -13.090   7.984  73.230  1.00  0.00     0.000 HD 
HETATM   18  C   UNL     1     -11.644  11.277  70.199  1.00  0.00    -0.393 A  
HETATM   19  C   UNL     1     -10.905   5.597  67.598  1.00  0.00    -0.183 A  
HETATM   20  C   UNL     1     -10.730   6.048  68.914  1.00  0.00    -0.384 A  
HETATM   21  C   UNL     1     -11.424  12.413  69.245  1.00  0.00    -0.349 C  
HETATM   22  C   UNL     1     -10.764  10.186  70.150  1.00  0.00    -0.355 A  
ENDBRANCH   5   6
ENDBRANCH   4   5
BRANCH   4  23
HETATM   23  C   UNL     1      -5.804   7.981  69.116  1.00  0.00    -0.034 C  
HETATM   24  C   UNL     1      -6.352   6.594  68.738  1.00  0.00    -0.035 C  
HETATM   25  C   UNL     1      -6.298   8.918  67.986  1.00  0.00    -0.056 C  
ENDBRANCH   4  23
ENDBRANCH   2   4
TORSDOF 4
ENDMDL
MODEL       96
REMARK 921   NORMALIZED FREE ENERGY PREDICTED BY IDOCK:   -4.67 KCAL/MOL
REMARK 922        TOTAL FREE ENERGY PREDICTED BY IDOCK:   -6.60 KCAL/MOL
REMARK 923 INTER-LIGAND FREE ENERGY PREDICTED BY IDOCK:   -5.48 KCAL/MOL
REMARK 924 INTRA-LIGAND FREE ENERGY PREDICTED BY IDOCK:   -1.12 KCAL/MOL
REMARK 927      BINDING AFFINITY PREDICTED BY RF-SCORE:    0.00 PKD
ROOT
HETATM    1  C   UNL     1     -10.214  17.154  66.024  1.00  0.00    -0.332 C  
HETATM    2  C   UNL     1      -9.374  16.114  66.810  1.00  0.00    -0.234 C  
HETATM    3  C   UNL     1      -9.315  16.660  68.248  1.00  0.00    -0.224 C  
ENDROOT
BRANCH   2   4
HETATM    4  N   UNL     1      -9.915  14.725  66.695  1.00  0.00    -0.256 NA 
BRANCH   4   5
HETATM    5  C   UNL     1      -9.502  13.851  67.824  1.00  0.00    -0.214 C  
BRANCH   5   6
HETATM    6  C   UNL     1      -8.065  13.292  67.817  1.00  0.00    -0.166 C  
HETATM    7  C   UNL     1      -7.911  11.752  67.604  1.00  0.00    -0.143 C  
HETATM    8  C   UNL     1      -8.445  11.202  66.267  1.00  0.00    -0.168 A  
HETATM    9  C   UNL     1      -8.300  10.890  68.819  1.00  0.00    -0.151 A  
HETATM   10  C   UNL     1      -7.384  10.219  69.645  1.00  0.00    -0.150 A  
HETATM   11  C   UNL     1      -9.813  11.154  65.945  1.00  0.00    -0.275 A  
HETATM   12  O   UNL     1      -6.026  10.320  69.544  1.00  0.00    -0.040 OA 
HETATM   13  C   UNL     1     -10.278  10.534  64.785  1.00  0.00    -0.373 A  
HETATM   14  C   UNL     1      -7.817   9.353  70.658  1.00  0.00    -0.178 A  
HETATM   15  C   UNL     1      -9.173   9.115  70.866  1.00  0.00    -0.326 A  
HETATM   16  C   UNL     1      -9.381   9.980  63.888  1.00  0.00    -0.315 A  
HETATM   17  H   UNL     1      -5.406   9.866  70.103  1.00  0.00     0.000 HD 
HETATM   18  C   UNL     1     -10.109   9.771  70.080  1.00  0.00    -0.301 A  
HETATM   19  C   UNL     1      -8.012  10.048  64.156  1.00  0.00    -0.152 A  
HETATM   20  C   UNL     1      -7.551  10.650  65.335  1.00  0.00    -0.038 A  
HETATM   21  C   UNL     1     -11.582   9.513  70.189  1.00  0.00    -0.156 C  
HETATM   22  C   UNL     1      -9.661  10.672  69.104  1.00  0.00    -0.193 A  
ENDBRANCH   5   6
ENDBRANCH   4   5
BRANCH   4  23
HETATM   23  C   UNL     1     -11.364  14.573  66.357  1.00  0.00    -0.349 C  
HETATM   24  C   UNL     1     -11.652  14.096  64.922  1.00  0.00    -0.379 C  
HETATM   25  C   UNL     1     -12.081  13.540  67.263  1.00  0.00    -0.367 C  
ENDBRANCH   4  23
ENDBRANCH   2   4
TORSDOF 4
ENDMDL
MODEL       97
REMARK 921   NORMALIZED FREE ENERGY PREDICTED BY IDOCK:   -4.63 KCAL/MOL
REMARK 922        TOTAL FREE ENERGY PREDICTED BY IDOCK:   -6.56 KCAL/MOL
REMARK 923 INTER-LIGAND FREE ENERGY PREDICTED BY IDOCK:   -5.56 KCAL/MOL
REMARK 924 INTRA-LIGAND FREE ENERGY PREDICTED BY IDOCK:   -1.00 KCAL/MOL
REMARK 927      BINDING AFFINITY PREDICTED BY RF-SCORE:    0.00 PKD
ROOT
HETATM    1  C   UNL     1     -11.262   6.430  68.843  1.00  0.00    -0.385 C  
HETATM    2  C   UNL     1     -11.461   6.401  70.380  1.00  0.00    -0.393 C  
HETATM    3  C   UNL     1     -10.383   5.432  70.899  1.00  0.00    -0.312 C  
ENDROOT
BRANCH   2   4
HETATM    4  N   UNL     1     -11.420   7.763  70.996  1.00  0.00    -0.279 NA 
BRANCH   4   5
HETATM    5  C   UNL     1     -10.947   8.808  70.050  1.00  0.00    -0.209 C  
BRANCH   5   6
HETATM    6  C   UNL     1      -9.717   9.645  70.453  1.00  0.00    -0.304 C  
HETATM    7  C   UNL     1      -8.846  10.217  69.290  1.00  0.00    -0.186 C  
HETATM    8  C   UNL     1      -9.559  11.191  68.331  1.00  0.00    -0.192 A  
HETATM    9  C   UNL     1      -7.971   9.178  68.566  1.00  0.00    -0.102 A  
HETATM   10  C   UNL     1      -6.577   9.077  68.703  1.00  0.00    -0.054 A  
HETATM   11  C   UNL     1     -10.567  10.790  67.436  1.00  0.00    -0.287 A  
HETATM   12  O   UNL     1      -5.824   9.818  69.568  1.00  0.00    -0.033 OA 
HETATM   13  C   UNL     1     -11.106  11.662  66.490  1.00  0.00    -0.357 A  
HETATM   14  C   UNL     1      -5.832   8.185  67.919  1.00  0.00    -0.042 A  
HETATM   15  C   UNL     1      -6.449   7.384  66.963  1.00  0.00    -0.060 A  
HETATM   16  C   UNL     1     -10.680  12.979  66.441  1.00  0.00    -0.295 A  
HETATM   17  H   UNL     1      -4.881   9.749  69.661  1.00  0.00     0.000 HD 
HETATM   18  C   UNL     1      -7.826   7.444  66.809  1.00  0.00    -0.110 A  
HETATM   19  C   UNL     1      -9.712  13.422  67.343  1.00  0.00    -0.221 A  
HETATM   20  C   UNL     1      -9.156  12.534  68.276  1.00  0.00    -0.183 A  
HETATM   21  C   UNL     1      -8.559   6.671  65.753  1.00  0.00    -0.147 C  
HETATM   22  C   UNL     1      -8.563   8.305  67.635  1.00  0.00    -0.130 A  
ENDBRANCH   5   6
ENDBRANCH   4   5
BRANCH   4  23
HETATM   23  C   UNL     1     -12.614   8.204  71.781  1.00  0.00    -0.330 C  
HETATM   24  C   UNL     1     -13.120   9.620  71.457  1.00  0.00    -0.488 C  
HETATM   25  C   UNL     1     -13.844   7.289  71.559  1.00  0.00    -0.463 C  
ENDBRANCH   4  23
ENDBRANCH   2   4
TORSDOF 4
ENDMDL
MODEL       98
REMARK 921   NORMALIZED FREE ENERGY PREDICTED BY IDOCK:   -4.62 KCAL/MOL
REMARK 922        TOTAL FREE ENERGY PREDICTED BY IDOCK:   -6.54 KCAL/MOL
REMARK 923 INTER-LIGAND FREE ENERGY PREDICTED BY IDOCK:   -5.60 KCAL/MOL
REMARK 924 INTRA-LIGAND FREE ENERGY PREDICTED BY IDOCK:   -0.94 KCAL/MOL
REMARK 927      BINDING AFFINITY PREDICTED BY RF-SCORE:    0.00 PKD
ROOT
HETATM    1  C   UNL     1     -10.203  11.875  63.482  1.00  0.00    -0.485 C  
HETATM    2  C   UNL     1     -11.398  12.638  64.109  1.00  0.00    -0.383 C  
HETATM    3  C   UNL     1     -12.650  11.982  63.498  1.00  0.00    -0.625 C  
ENDROOT
BRANCH   2   4
HETATM    4  N   UNL     1     -11.364  12.639  65.604  1.00  0.00    -0.308 NA 
BRANCH   4   5
HETATM    5  C   UNL     1     -10.640  11.467  66.164  1.00  0.00    -0.265 C  
BRANCH   5   6
HETATM    6  C   UNL     1      -9.339  11.728  66.948  1.00  0.00    -0.197 C  
HETATM    7  C   UNL     1      -8.382  10.509  67.146  1.00  0.00    -0.127 C  
HETATM    8  C   UNL     1      -7.824   9.876  65.856  1.00  0.00    -0.116 A  
HETATM    9  C   UNL     1      -8.861   9.472  68.177  1.00  0.00    -0.124 A  
HETATM   10  C   UNL     1      -8.301   9.300  69.453  1.00  0.00    -0.127 A  
HETATM   11  C   UNL     1      -8.618   9.160  64.943  1.00  0.00    -0.208 A  
HETATM   12  O   UNL     1      -7.324  10.092  69.988  1.00  0.00    -0.146 OA 
HETATM   13  C   UNL     1      -8.067   8.488  63.852  1.00  0.00    -0.155 A  
HETATM   14  C   UNL     1      -8.708   8.254  70.292  1.00  0.00    -0.139 A  
HETATM   15  C   UNL     1      -9.670   7.337  69.878  1.00  0.00    -0.174 A  
HETATM   16  C   UNL     1      -6.704   8.550  63.616  1.00  0.00    -0.084 A  
HETATM   17  H   UNL     1      -6.945   9.976  70.851  1.00  0.00     0.000 HD 
HETATM   18  C   UNL     1     -10.258   7.482  68.631  1.00  0.00    -0.210 A  
HETATM   19  C   UNL     1      -5.892   9.288  64.478  1.00  0.00    -0.070 A  
HETATM   20  C   UNL     1      -6.448   9.942  65.588  1.00  0.00    -0.092 A  
HETATM   21  C   UNL     1     -11.246   6.497  68.081  1.00  0.00    -0.250 C  
HETATM   22  C   UNL     1      -9.876   8.564  67.824  1.00  0.00    -0.218 A  
ENDBRANCH   5   6
ENDBRANCH   4   5
BRANCH   4  23
HETATM   23  C   UNL     1     -10.995  13.917  66.288  1.00  0.00    -0.298 C  
HETATM   24  C   UNL     1     -10.868  15.138  65.360  1.00  0.00    -0.393 C  
HETATM   25  C   UNL     1     -12.033  14.343  67.356  1.00  0.00    -0.407 C  
ENDBRANCH   4  23
ENDBRANCH   2   4
TORSDOF 4
ENDMDL
MODEL       99
REMARK 921   NORMALIZED FREE ENERGY PREDICTED BY IDOCK:   -4.61 KCAL/MOL
REMARK 922        TOTAL FREE ENERGY PREDICTED BY IDOCK:   -6.53 KCAL/MOL
REMARK 923 INTER-LIGAND FREE ENERGY PREDICTED BY IDOCK:   -5.44 KCAL/MOL
REMARK 924 INTRA-LIGAND FREE ENERGY PREDICTED BY IDOCK:   -1.10 KCAL/MOL
REMARK 927      BINDING AFFINITY PREDICTED BY RF-SCORE:    0.00 PKD
ROOT
HETATM    1  C   UNL     1      -8.849  10.237  63.963  1.00  0.00    -0.237 C  
HETATM    2  C   UNL     1      -9.025  10.113  65.498  1.00  0.00    -0.172 C  
HETATM    3  C   UNL     1      -7.885  10.958  66.095  1.00  0.00    -0.144 C  
ENDROOT
BRANCH   2   4
HETATM    4  N   UNL     1     -10.393  10.502  65.958  1.00  0.00    -0.237 NA 
BRANCH   4   5
HETATM    5  C   UNL     1     -10.774   9.857  67.243  1.00  0.00    -0.238 C  
BRANCH   5   6
HETATM    6  C   UNL     1     -10.620   8.327  67.357  1.00  0.00    -0.324 C  
HETATM    7  C   UNL     1     -10.063   7.777  68.709  1.00  0.00    -0.205 C  
HETATM    8  C   UNL     1     -10.913   8.079  69.959  1.00  0.00    -0.202 A  
HETATM    9  C   UNL     1      -8.556   8.001  68.927  1.00  0.00    -0.131 A  
HETATM   10  C   UNL     1      -7.583   6.992  68.853  1.00  0.00    -0.104 A  
HETATM   11  C   UNL     1     -11.062   9.370  70.496  1.00  0.00    -0.330 A  
HETATM   12  O   UNL     1      -7.827   5.700  68.483  1.00  0.00    -0.094 OA 
HETATM   13  C   UNL     1     -11.729   9.598  71.700  1.00  0.00    -0.439 A  
HETATM   14  C   UNL     1      -6.245   7.246  69.184  1.00  0.00    -0.035 A  
HETATM   15  C   UNL     1      -5.841   8.506  69.616  1.00  0.00    -0.029 A  
HETATM   16  C   UNL     1     -12.308   8.541  72.382  1.00  0.00    -0.424 A  
HETATM   17  H   UNL     1      -7.169   5.017  68.433  1.00  0.00     0.000 HD 
HETATM   18  C   UNL     1      -6.770   9.533  69.687  1.00  0.00    -0.054 A  
HETATM   19  C   UNL     1     -12.217   7.252  71.855  1.00  0.00    -0.348 A  
HETATM   20  C   UNL     1     -11.523   7.025  70.657  1.00  0.00    -0.367 A  
HETATM   21  C   UNL     1      -6.433  10.896  70.212  1.00  0.00    -0.106 C  
HETATM   22  C   UNL     1      -8.095   9.275  69.305  1.00  0.00    -0.106 A  
ENDBRANCH   5   6
ENDBRANCH   4   5
BRANCH   4  23
HETATM   23  C   UNL     1     -10.748  11.954  65.923  1.00  0.00    -0.284 C  
HETATM   24  C   UNL     1     -11.589  12.390  64.710  1.00  0.00    -0.395 C  
HETATM   25  C   UNL     1     -11.582  12.394  67.153  1.00  0.00    -0.435 C  
ENDBRANCH   4  23
ENDBRANCH   2   4
TORSDOF 4
ENDMDL
MODEL      100
REMARK 921   NORMALIZED FREE ENERGY PREDICTED BY IDOCK:   -4.61 KCAL/MOL
REMARK 922        TOTAL FREE ENERGY PREDICTED BY IDOCK:   -6.53 KCAL/MOL
REMARK 923 INTER-LIGAND FREE ENERGY PREDICTED BY IDOCK:   -5.51 KCAL/MOL
REMARK 924 INTRA-LIGAND FREE ENERGY PREDICTED BY IDOCK:   -1.02 KCAL/MOL
REMARK 927      BINDING AFFINITY PREDICTED BY RF-SCORE:    0.00 PKD
ROOT
HETATM    1  C   UNL     1     -10.164  13.297  65.208  1.00  0.00    -0.303 C  
HETATM    2  C   UNL     1     -11.470  13.155  66.030  1.00  0.00    -0.335 C  
HETATM    3  C   UNL     1     -12.511  12.622  65.029  1.00  0.00    -0.556 C  
ENDROOT
BRANCH   2   4
HETATM    4  N   UNL     1     -11.296  12.312  67.253  1.00  0.00    -0.306 NA 
BRANCH   4   5
HETATM    5  C   UNL     1     -10.315  11.212  67.059  1.00  0.00    -0.224 C  
BRANCH   5   6
HETATM    6  C   UNL     1     -10.857   9.815  66.697  1.00  0.00    -0.011 C  
HETATM    7  C   UNL     1     -10.177   8.595  67.397  1.00  0.00    -0.329 C  
HETATM    8  C   UNL     1     -10.280   8.558  68.935  1.00  0.00    -0.221 A  
HETATM    9  C   UNL     1      -8.773   8.247  66.871  1.00  0.00    -0.141 A  
HETATM   10  C   UNL     1      -8.477   7.134  66.069  1.00  0.00    -0.145 A  
HETATM   11  C   UNL     1      -9.612   9.468  69.774  1.00  0.00    -0.235 A  
HETATM   12  O   UNL     1      -9.405   6.267  65.566  1.00  0.00    -0.376 OA 
HETATM   13  C   UNL     1      -9.618   9.335  71.162  1.00  0.00    -0.305 A  
HETATM   14  C   UNL     1      -7.155   6.813  65.729  1.00  0.00    -0.072 A  
HETATM   15  C   UNL     1      -6.090   7.580  66.194  1.00  0.00    -0.038 A  
HETATM   16  C   UNL     1     -10.333   8.309  71.757  1.00  0.00    -0.321 A  
HETATM   17  H   UNL     1      -9.204   5.515  65.023  1.00  0.00     0.000 HD 
HETATM   18  C   UNL     1      -6.343   8.696  66.977  1.00  0.00    -0.057 A  
HETATM   19  C   UNL     1     -11.043   7.414  70.956  1.00  0.00    -0.277 A  
HETATM   20  C   UNL     1     -11.014   7.537  69.559  1.00  0.00    -0.127 A  
HETATM   21  C   UNL     1      -5.251   9.529  67.578  1.00  0.00    -0.036 C  
HETATM   22  C   UNL     1      -7.674   9.032  67.266  1.00  0.00    -0.096 A  
ENDBRANCH   5   6
ENDBRANCH   4   5
BRANCH   4  23
HETATM   23  C   UNL     1     -11.111  13.017  68.559  1.00  0.00    -0.266 C  
HETATM   24  C   UNL     1     -11.598  14.476  68.587  1.00  0.00    -0.346 C  
HETATM   25  C   UNL     1     -11.873  12.329  69.720  1.00  0.00    -0.388 C  
ENDBRANCH   4  23
ENDBRANCH   2   4
TORSDOF 4
ENDMDL
MODEL      101
REMARK 921   NORMALIZED FREE ENERGY PREDICTED BY IDOCK:   -4.61 KCAL/MOL
REMARK 922        TOTAL FREE ENERGY PREDICTED BY IDOCK:   -6.52 KCAL/MOL
REMARK 923 INTER-LIGAND FREE ENERGY PREDICTED BY IDOCK:   -5.47 KCAL/MOL
REMARK 924 INTRA-LIGAND FREE ENERGY PREDICTED BY IDOCK:   -1.05 KCAL/MOL
REMARK 927      BINDING AFFINITY PREDICTED BY RF-SCORE:    0.00 PKD
ROOT
HETATM    1  C   UNL     1      -9.694  16.143  68.244  1.00  0.00    -0.220 C  
HETATM    2  C   UNL     1      -8.554  15.677  69.184  1.00  0.00    -0.251 C  
HETATM    3  C   UNL     1      -9.269  15.172  70.451  1.00  0.00     0.874 C  
ENDROOT
BRANCH   2   4
HETATM    4  N   UNL     1      -7.646  14.676  68.543  1.00  0.00    -0.113 NA 
BRANCH   4   5
HETATM    5  C   UNL     1      -8.205  14.116  67.284  1.00  0.00    -0.181 C  
BRANCH   5   6
HETATM    6  C   UNL     1      -8.201  12.584  67.109  1.00  0.00    -0.168 C  
HETATM    7  C   UNL     1      -9.593  11.894  66.943  1.00  0.00    -0.208 C  
HETATM    8  C   UNL     1     -10.415  12.325  65.713  1.00  0.00    -0.287 A  
HETATM    9  C   UNL     1     -10.427  11.800  68.233  1.00  0.00    -0.224 A  
HETATM   10  C   UNL     1     -10.643  10.617  68.957  1.00  0.00    -0.219 A  
HETATM   11  C   UNL     1     -10.985  13.603  65.577  1.00  0.00    -0.297 A  
HETATM   12  O   UNL     1     -10.065   9.413  68.673  1.00  0.00    -0.177 OA 
HETATM   13  C   UNL     1     -11.831  13.928  64.517  1.00  0.00    -0.449 A  
HETATM   14  C   UNL     1     -11.514  10.585  70.055  1.00  0.00    -0.393 A  
HETATM   15  C   UNL     1     -12.210  11.724  70.451  1.00  0.00    -0.416 A  
HETATM   16  C   UNL     1     -12.098  12.991  63.532  1.00  0.00    -0.617 A  
HETATM   17  H   UNL     1     -10.211   8.613  69.163  1.00  0.00     0.000 HD 
HETATM   18  C   UNL     1     -12.011  12.916  69.770  1.00  0.00    -0.365 A  
HETATM   19  C   UNL     1     -11.514  11.726  63.613  1.00  0.00    -0.524 A  
HETATM   20  C   UNL     1     -10.684  11.397  64.694  1.00  0.00    -0.378 A  
HETATM   21  C   UNL     1     -12.776  14.167  70.085  1.00  0.00    -0.227 C  
HETATM   22  C   UNL     1     -11.098  12.943  68.705  1.00  0.00    -0.305 A  
ENDBRANCH   5   6
ENDBRANCH   4   5
BRANCH   4  23
HETATM   23  C   UNL     1      -6.200  15.034  68.415  1.00  0.00    -0.106 C  
HETATM   24  C   UNL     1      -5.262  13.855  68.101  1.00  0.00    -0.113 C  
HETATM   25  C   UNL     1      -5.938  16.055  67.278  1.00  0.00    -0.106 C  
ENDBRANCH   4  23
ENDBRANCH   2   4
TORSDOF 4
ENDMDL
MODEL      102
REMARK 921   NORMALIZED FREE ENERGY PREDICTED BY IDOCK:   -4.59 KCAL/MOL
REMARK 922        TOTAL FREE ENERGY PREDICTED BY IDOCK:   -6.50 KCAL/MOL
REMARK 923 INTER-LIGAND FREE ENERGY PREDICTED BY IDOCK:   -6.20 KCAL/MOL
REMARK 924 INTRA-LIGAND FREE ENERGY PREDICTED BY IDOCK:   -0.31 KCAL/MOL
REMARK 927      BINDING AFFINITY PREDICTED BY RF-SCORE:    0.00 PKD
ROOT
HETATM    1  C   UNL     1      -6.063  17.975  65.563  1.00  0.00    -0.206 C  
HETATM    2  C   UNL     1      -7.012  19.105  66.039  1.00  0.00    -0.256 C  
HETATM    3  C   UNL     1      -6.562  20.353  65.258  1.00  0.00    -0.312 C  
ENDROOT
BRANCH   2   4
HETATM    4  N   UNL     1      -8.457  18.756  65.874  1.00  0.00    -0.451 NA 
BRANCH   4   5
HETATM    5  C   UNL     1      -8.852  17.554  66.656  1.00  0.00    -0.262 C  
BRANCH   5   6
HETATM    6  C   UNL     1      -8.935  17.685  68.190  1.00  0.00    -0.269 C  
HETATM    7  C   UNL     1      -8.809  16.365  69.015  1.00  0.00    -0.240 C  
HETATM    8  C   UNL     1      -7.481  15.599  68.859  1.00  0.00    -0.162 A  
HETATM    9  C   UNL     1     -10.049  15.453  68.969  1.00  0.00    -0.234 A  
HETATM   10  C   UNL     1     -10.947  15.277  70.033  1.00  0.00    -0.288 A  
HETATM   11  C   UNL     1      -7.102  14.945  67.673  1.00  0.00    -0.208 A  
HETATM   12  O   UNL     1     -10.899  15.962  71.214  1.00  0.00    -0.097 OA 
HETATM   13  C   UNL     1      -5.957  14.153  67.598  1.00  0.00    -0.044 A  
HETATM   14  C   UNL     1     -11.984  14.337  69.962  1.00  0.00    -0.396 A  
HETATM   15  C   UNL     1     -12.145  13.532  68.838  1.00  0.00    -0.315 A  
HETATM   16  C   UNL     1      -5.129  14.025  68.701  1.00  0.00    -0.090 A  
HETATM   17  H   UNL     1     -11.507  15.843  71.934  1.00  0.00     0.000 HD 
HETATM   18  C   UNL     1     -11.287  13.687  67.760  1.00  0.00    -0.336 A  
HETATM   19  C   UNL     1      -5.452  14.696  69.882  1.00  0.00    -0.099 A  
HETATM   20  C   UNL     1      -6.618  15.472  69.959  1.00  0.00    -0.079 A  
HETATM   21  C   UNL     1     -11.346  12.810  66.544  1.00  0.00    -0.369 C  
HETATM   22  C   UNL     1     -10.285  14.667  67.827  1.00  0.00    -0.229 A  
ENDBRANCH   5   6
ENDBRANCH   4   5
BRANCH   4  23
HETATM   23  C   UNL     1      -9.454  19.864  65.990  1.00  0.00    -0.319 C  
HETATM   24  C   UNL     1     -10.896  19.486  65.607  1.00  0.00    -0.354 C  
HETATM   25  C   UNL     1      -9.565  20.417  67.433  1.00  0.00    -0.584 C  
ENDBRANCH   4  23
ENDBRANCH   2   4
TORSDOF 4
ENDMDL
MODEL      103
REMARK 921   NORMALIZED FREE ENERGY PREDICTED BY IDOCK:   -4.58 KCAL/MOL
REMARK 922        TOTAL FREE ENERGY PREDICTED BY IDOCK:   -6.49 KCAL/MOL
REMARK 923 INTER-LIGAND FREE ENERGY PREDICTED BY IDOCK:   -5.43 KCAL/MOL
REMARK 924 INTRA-LIGAND FREE ENERGY PREDICTED BY IDOCK:   -1.06 KCAL/MOL
REMARK 927      BINDING AFFINITY PREDICTED BY RF-SCORE:    0.00 PKD
ROOT
HETATM    1  C   UNL     1      -6.332   8.241  67.138  1.00  0.00    -0.057 C  
HETATM    2  C   UNL     1      -7.383   7.661  68.119  1.00  0.00    -0.099 C  
HETATM    3  C   UNL     1      -6.851   8.010  69.520  1.00  0.00    -0.046 C  
ENDROOT
BRANCH   2   4
HETATM    4  N   UNL     1      -8.768   8.151  67.840  1.00  0.00    -0.128 NA 
BRANCH   4   5
HETATM    5  C   UNL     1      -9.670   8.028  69.017  1.00  0.00    -0.159 C  
BRANCH   5   6
HETATM    6  C   UNL     1     -10.385   6.682  69.241  1.00  0.00    -0.228 C  
HETATM    7  C   UNL     1     -10.987   6.435  70.662  1.00  0.00    -0.355 C  
HETATM    8  C   UNL     1     -12.080   7.424  71.110  1.00  0.00    -0.357 A  
HETATM    9  C   UNL     1      -9.951   6.132  71.759  1.00  0.00    -0.197 A  
HETATM   10  C   UNL     1      -9.743   4.866  72.330  1.00  0.00    -0.160 A  
HETATM   11  C   UNL     1     -11.823   8.775  71.406  1.00  0.00    -0.369 A  
HETATM   12  O   UNL     1     -10.360   3.717  71.922  1.00  0.00    -0.110 OA 
HETATM   13  C   UNL     1     -12.803   9.616  71.932  1.00  0.00    -0.515 A  
HETATM   14  C   UNL     1      -8.868   4.689  73.410  1.00  0.00    -0.102 A  
HETATM   15  C   UNL     1      -8.190   5.770  73.966  1.00  0.00    -0.108 A  
HETATM   16  C   UNL     1     -14.087   9.141  72.138  1.00  0.00    -0.416 A  
HETATM   17  H   UNL     1     -10.219   2.861  72.308  1.00  0.00     0.000 HD 
HETATM   18  C   UNL     1      -8.357   7.034  73.420  1.00  0.00    -0.140 A  
HETATM   19  C   UNL     1     -14.388   7.817  71.815  1.00  0.00    -0.594 A  
HETATM   20  C   UNL     1     -13.393   6.968  71.309  1.00  0.00    -0.282 A  
HETATM   21  C   UNL     1      -7.722   8.260  74.006  1.00  0.00    -0.250 C  
HETATM   22  C   UNL     1      -9.197   7.186  72.308  1.00  0.00    -0.149 A  
ENDBRANCH   5   6
ENDBRANCH   4   5
BRANCH   4  23
HETATM   23  C   UNL     1      -8.910   9.470  67.149  1.00  0.00    -0.131 C  
HETATM   24  C   UNL     1     -10.045   9.543  66.112  1.00  0.00    -0.326 C  
HETATM   25  C   UNL     1      -9.205  10.629  68.134  1.00  0.00    -0.148 C  
ENDBRANCH   4  23
ENDBRANCH   2   4
TORSDOF 4
ENDMDL
MODEL      104
REMARK 921   NORMALIZED FREE ENERGY PREDICTED BY IDOCK:   -4.56 KCAL/MOL
REMARK 922        TOTAL FREE ENERGY PREDICTED BY IDOCK:   -6.47 KCAL/MOL
REMARK 923 INTER-LIGAND FREE ENERGY PREDICTED BY IDOCK:   -5.57 KCAL/MOL
REMARK 924 INTRA-LIGAND FREE ENERGY PREDICTED BY IDOCK:   -0.90 KCAL/MOL
REMARK 927      BINDING AFFINITY PREDICTED BY RF-SCORE:    0.00 PKD
ROOT
HETATM    1  C   UNL     1     -10.785  11.342  64.149  1.00  0.00    -0.436 C  
HETATM    2  C   UNL     1     -10.030  10.279  64.989  1.00  0.00    -0.323 C  
HETATM    3  C   UNL     1      -8.539  10.532  64.698  1.00  0.00    -0.167 C  
ENDROOT
BRANCH   2   4
HETATM    4  N   UNL     1     -10.395  10.320  66.438  1.00  0.00    -0.218 NA 
BRANCH   4   5
HETATM    5  C   UNL     1      -9.826   9.182  67.208  1.00  0.00    -0.189 C  
BRANCH   5   6
HETATM    6  C   UNL     1     -10.556   7.826  67.139  1.00  0.00    -0.401 C  
HETATM    7  C   UNL     1     -10.319   6.840  68.328  1.00  0.00    -0.215 C  
HETATM    8  C   UNL     1     -10.765   7.341  69.715  1.00  0.00    -0.253 A  
HETATM    9  C   UNL     1      -8.939   6.160  68.339  1.00  0.00    -0.115 A  
HETATM   10  C   UNL     1      -8.713   4.813  68.016  1.00  0.00    -0.103 A  
HETATM   11  C   UNL     1     -10.123   8.389  70.399  1.00  0.00    -0.202 A  
HETATM   12  O   UNL     1      -9.667   3.951  67.555  1.00  0.00    -0.187 OA 
HETATM   13  C   UNL     1     -10.464   8.737  71.706  1.00  0.00    -0.417 A  
HETATM   14  C   UNL     1      -7.446   4.230  68.167  1.00  0.00    -0.068 A  
HETATM   15  C   UNL     1      -6.374   4.967  68.661  1.00  0.00    -0.035 A  
HETATM   16  C   UNL     1     -11.491   8.073  72.355  1.00  0.00    -0.449 A  
HETATM   17  H   UNL     1      -9.514   3.040  67.336  1.00  0.00     0.000 HD 
HETATM   18  C   UNL     1      -6.554   6.306  68.977  1.00  0.00    -0.048 A  
HETATM   19  C   UNL     1     -12.179   7.057  71.690  1.00  0.00    -0.395 A  
HETATM   20  C   UNL     1     -11.816   6.694  70.384  1.00  0.00    -0.407 A  
HETATM   21  C   UNL     1      -5.472   7.148  69.584  1.00  0.00    -0.015 C  
HETATM   22  C   UNL     1      -7.814   6.886  68.773  1.00  0.00    -0.118 A  
ENDBRANCH   5   6
ENDBRANCH   4   5
BRANCH   4  23
HETATM   23  C   UNL     1     -10.243  11.624  67.154  1.00  0.00    -0.213 C  
HETATM   24  C   UNL     1     -11.564  12.312  67.542  1.00  0.00    -0.422 C  
HETATM   25  C   UNL     1      -9.469  11.485  68.489  1.00  0.00    -0.175 C  
ENDBRANCH   4  23
ENDBRANCH   2   4
TORSDOF 4
ENDMDL
MODEL      105
REMARK 921   NORMALIZED FREE ENERGY PREDICTED BY IDOCK:   -4.52 KCAL/MOL
REMARK 922        TOTAL FREE ENERGY PREDICTED BY IDOCK:   -6.42 KCAL/MOL
REMARK 923 INTER-LIGAND FREE ENERGY PREDICTED BY IDOCK:   -5.67 KCAL/MOL
REMARK 924 INTRA-LIGAND FREE ENERGY PREDICTED BY IDOCK:   -0.76 KCAL/MOL
REMARK 927      BINDING AFFINITY PREDICTED BY RF-SCORE:    0.00 PKD
ROOT
HETATM    1  C   UNL     1      -7.233  10.619  69.790  1.00  0.00    -0.135 C  
HETATM    2  C   UNL     1      -5.994  11.301  69.154  1.00  0.00    -0.049 C  
HETATM    3  C   UNL     1      -5.182  10.147  68.538  1.00  0.00    -0.035 C  
ENDROOT
BRANCH   2   4
HETATM    4  N   UNL     1      -6.360  12.385  68.192  1.00  0.00    -0.059 NA 
BRANCH   4   5
HETATM    5  C   UNL     1      -7.734  12.231  67.646  1.00  0.00    -0.144 C  
BRANCH   5   6
HETATM    6  C   UNL     1      -7.939  11.257  66.468  1.00  0.00    -0.145 C  
HETATM    7  C   UNL     1      -9.383  10.697  66.264  1.00  0.00    -0.199 C  
HETATM    8  C   UNL     1     -10.475  11.744  65.970  1.00  0.00    -0.286 A  
HETATM    9  C   UNL     1      -9.816   9.635  67.290  1.00  0.00    -0.225 A  
HETATM   10  C   UNL     1      -9.936   8.264  67.014  1.00  0.00    -0.255 A  
HETATM   11  C   UNL     1     -10.925  12.677  66.921  1.00  0.00    -0.297 A  
HETATM   12  O   UNL     1      -9.592   7.675  65.831  1.00  0.00    -0.424 OA 
HETATM   13  C   UNL     1     -12.002  13.527  66.673  1.00  0.00    -0.452 A  
HETATM   14  C   UNL     1     -10.454   7.373  67.964  1.00  0.00    -0.253 A  
HETATM   15  C   UNL     1     -10.884   7.824  69.209  1.00  0.00    -0.091 A  
HETATM   16  C   UNL     1     -12.636  13.500  65.442  1.00  0.00    -0.531 A  
HETATM   17  H   UNL     1      -9.673   6.747  65.645  1.00  0.00     0.000 HD 
HETATM   18  C   UNL     1     -10.768   9.169  69.525  1.00  0.00    -0.226 A  
HETATM   19  C   UNL     1     -12.188  12.617  64.458  1.00  0.00    -0.514 A  
HETATM   20  C   UNL     1     -11.120  11.747  64.723  1.00  0.00    -0.356 A  
HETATM   21  C   UNL     1     -11.276   9.747  70.812  1.00  0.00    -0.419 C  
HETATM   22  C   UNL     1     -10.202  10.039  68.582  1.00  0.00    -0.198 A  
ENDBRANCH   5   6
ENDBRANCH   4   5
BRANCH   4  23
HETATM   23  C   UNL     1      -6.061  13.795  68.591  1.00  0.00    -0.088 C  
HETATM   24  C   UNL     1      -6.981  14.858  67.966  1.00  0.00    -0.150 C  
HETATM   25  C   UNL     1      -6.184  14.021  70.119  1.00  0.00    -0.138 C  
ENDBRANCH   4  23
ENDBRANCH   2   4
TORSDOF 4
ENDMDL
MODEL      106
REMARK 921   NORMALIZED FREE ENERGY PREDICTED BY IDOCK:   -4.52 KCAL/MOL
REMARK 922        TOTAL FREE ENERGY PREDICTED BY IDOCK:   -6.42 KCAL/MOL
REMARK 923 INTER-LIGAND FREE ENERGY PREDICTED BY IDOCK:   -5.77 KCAL/MOL
REMARK 924 INTRA-LIGAND FREE ENERGY PREDICTED BY IDOCK:   -0.65 KCAL/MOL
REMARK 927      BINDING AFFINITY PREDICTED BY RF-SCORE:    0.00 PKD
ROOT
HETATM    1  C   UNL     1      -9.475   8.694  71.022  1.00  0.00    -0.261 C  
HETATM    2  C   UNL     1     -10.944   8.713  70.527  1.00  0.00    -0.238 C  
HETATM    3  C   UNL     1     -11.468  10.113  70.897  1.00  0.00    -0.444 C  
ENDROOT
BRANCH   2   4
HETATM    4  N   UNL     1     -11.072   8.365  69.079  1.00  0.00     0.139 NA 
BRANCH   4   5
HETATM    5  C   UNL     1     -10.754   9.508  68.182  1.00  0.00    -0.197 C  
BRANCH   5   6
HETATM    6  C   UNL     1      -9.284   9.715  67.768  1.00  0.00    -0.135 C  
HETATM    7  C   UNL     1      -8.952  11.028  66.989  1.00  0.00    -0.151 C  
HETATM    8  C   UNL     1      -9.232  12.344  67.740  1.00  0.00    -0.193 A  
HETATM    9  C   UNL     1      -9.425  11.048  65.525  1.00  0.00    -0.250 A  
HETATM   10  C   UNL     1      -8.576  10.933  64.413  1.00  0.00     0.044 A  
HETATM   11  C   UNL     1     -10.528  12.799  68.041  1.00  0.00    -0.233 A  
HETATM   12  O   UNL     1      -7.233  10.691  64.479  1.00  0.00    -0.351 OA 
HETATM   13  C   UNL     1     -10.760  14.053  68.606  1.00  0.00    -0.269 A  
HETATM   14  C   UNL     1      -9.063  11.083  63.107  1.00  0.00    -0.262 A  
HETATM   15  C   UNL     1     -10.404  11.370  62.871  1.00  0.00    -0.159 A  
HETATM   16  C   UNL     1      -9.693  14.875  68.928  1.00  0.00    -0.223 A  
HETATM   17  H   UNL     1      -6.659  10.613  63.727  1.00  0.00     0.000 HD 
HETATM   18  C   UNL     1     -11.278  11.476  63.944  1.00  0.00    -0.439 A  
HETATM   19  C   UNL     1      -8.391  14.438  68.683  1.00  0.00    -0.147 A  
HETATM   20  C   UNL     1      -8.165  13.186  68.092  1.00  0.00    -0.160 A  
HETATM   21  C   UNL     1     -12.719  11.856  63.781  1.00  0.00    -0.466 C  
HETATM   22  C   UNL     1     -10.784  11.274  65.241  1.00  0.00    -0.302 A  
ENDBRANCH   5   6
ENDBRANCH   4   5
BRANCH   4  23
HETATM   23  C   UNL     1     -10.448   7.087  68.616  1.00  0.00    -0.204 C  
HETATM   24  C   UNL     1     -10.730   5.865  69.507  1.00  0.00    -0.414 C  
HETATM   25  C   UNL     1     -10.933   6.664  67.207  1.00  0.00    -0.456 C  
ENDBRANCH   4  23
ENDBRANCH   2   4
TORSDOF 4
ENDMDL
MODEL      107
REMARK 921   NORMALIZED FREE ENERGY PREDICTED BY IDOCK:   -4.52 KCAL/MOL
REMARK 922        TOTAL FREE ENERGY PREDICTED BY IDOCK:   -6.42 KCAL/MOL
REMARK 923 INTER-LIGAND FREE ENERGY PREDICTED BY IDOCK:   -5.64 KCAL/MOL
REMARK 924 INTRA-LIGAND FREE ENERGY PREDICTED BY IDOCK:   -0.78 KCAL/MOL
REMARK 927      BINDING AFFINITY PREDICTED BY RF-SCORE:    0.00 PKD
ROOT
HETATM    1  C   UNL     1     -11.007  13.801  65.411  1.00  0.00    -0.309 C  
HETATM    2  C   UNL     1     -11.486  12.333  65.270  1.00  0.00    -0.351 C  
HETATM    3  C   UNL     1     -12.274  12.300  63.948  1.00  0.00    -0.608 C  
ENDROOT
BRANCH   2   4
HETATM    4  N   UNL     1     -10.365  11.347  65.350  1.00  0.00    -0.268 NA 
BRANCH   4   5
HETATM    5  C   UNL     1     -10.529  10.377  66.466  1.00  0.00    -0.196 C  
BRANCH   5   6
HETATM    6  C   UNL     1     -10.613  10.934  67.900  1.00  0.00    -0.246 C  
HETATM    7  C   UNL     1      -9.825  10.156  69.002  1.00  0.00    -0.211 C  
HETATM    8  C   UNL     1      -8.298  10.077  68.809  1.00  0.00    -0.121 A  
HETATM    9  C   UNL     1     -10.457   8.817  69.425  1.00  0.00    -0.228 A  
HETATM   10  C   UNL     1     -11.114   8.598  70.646  1.00  0.00    -0.249 A  
HETATM   11  C   UNL     1      -7.689   9.331  67.785  1.00  0.00    -0.088 A  
HETATM   12  O   UNL     1     -11.369   9.563  71.578  1.00  0.00    -0.372 OA 
HETATM   13  C   UNL     1      -6.305   9.171  67.708  1.00  0.00    -0.055 A  
HETATM   14  C   UNL     1     -11.557   7.320  71.015  1.00  0.00    -0.329 A  
HETATM   15  C   UNL     1     -11.341   6.221  70.188  1.00  0.00    -0.476 A  
HETATM   16  C   UNL     1      -5.484   9.793  68.633  1.00  0.00    -0.036 A  
HETATM   17  H   UNL     1     -11.814   9.415  72.404  1.00  0.00     0.000 HD 
HETATM   18  C   UNL     1     -10.708   6.400  68.967  1.00  0.00    -0.339 A  
HETATM   19  C   UNL     1      -6.053  10.578  69.638  1.00  0.00    -0.056 A  
HETATM   20  C   UNL     1      -7.446  10.715  69.724  1.00  0.00    -0.088 A  
HETATM   21  C   UNL     1     -10.371   5.260  68.054  1.00  0.00    -0.183 C  
HETATM   22  C   UNL     1     -10.316   7.693  68.591  1.00  0.00    -0.220 A  
ENDBRANCH   5   6
ENDBRANCH   4   5
BRANCH   4  23
HETATM   23  C   UNL     1      -9.933  10.686  64.080  1.00  0.00    -0.337 C  
HETATM   24  C   UNL     1      -9.067  11.558  63.153  1.00  0.00    -0.110 C  
HETATM   25  C   UNL     1      -9.081   9.416  64.329  1.00  0.00    -0.159 C  
ENDBRANCH   4  23
ENDBRANCH   2   4
TORSDOF 4
ENDMDL
MODEL      108
REMARK 921   NORMALIZED FREE ENERGY PREDICTED BY IDOCK:   -4.50 KCAL/MOL
REMARK 922        TOTAL FREE ENERGY PREDICTED BY IDOCK:   -6.39 KCAL/MOL
REMARK 923 INTER-LIGAND FREE ENERGY PREDICTED BY IDOCK:   -5.58 KCAL/MOL
REMARK 924 INTRA-LIGAND FREE ENERGY PREDICTED BY IDOCK:   -0.81 KCAL/MOL
REMARK 927      BINDING AFFINITY PREDICTED BY RF-SCORE:    0.00 PKD
ROOT
HETATM    1  C   UNL     1     -12.677  14.165  64.900  1.00  0.00    -0.284 C  
HETATM    2  C   UNL     1     -11.449  13.882  65.803  1.00  0.00    -0.321 C  
HETATM    3  C   UNL     1     -10.630  15.185  65.776  1.00  0.00    -0.364 C  
ENDROOT
BRANCH   2   4
HETATM    4  N   UNL     1     -11.831  13.417  67.172  1.00  0.00    -0.375 NA 
BRANCH   4   5
HETATM    5  C   UNL     1     -11.518  11.981  67.400  1.00  0.00    -0.336 C  
BRANCH   5   6
HETATM    6  C   UNL     1     -11.131  11.123  66.180  1.00  0.00    -0.152 C  
HETATM    7  C   UNL     1     -10.090   9.984  66.424  1.00  0.00    -0.307 C  
HETATM    8  C   UNL     1     -10.511   8.892  67.427  1.00  0.00    -0.347 A  
HETATM    9  C   UNL     1      -8.640  10.463  66.617  1.00  0.00    -0.128 A  
HETATM   10  C   UNL     1      -7.620  10.316  65.664  1.00  0.00    -0.148 A  
HETATM   11  C   UNL     1     -10.647   9.124  68.807  1.00  0.00    -0.208 A  
HETATM   12  O   UNL     1      -7.796   9.818  64.405  1.00  0.00    -0.124 OA 
HETATM   13  C   UNL     1     -10.903   8.091  69.710  1.00  0.00    -0.194 A  
HETATM   14  C   UNL     1      -6.294  10.666  65.957  1.00  0.00    -0.132 A  
HETATM   15  C   UNL     1      -5.944  11.155  67.212  1.00  0.00    -0.064 A  
HETATM   16  C   UNL     1     -11.076   6.797  69.250  1.00  0.00    -0.289 A  
HETATM   17  H   UNL     1      -7.106   9.718  63.760  1.00  0.00     0.000 HD 
HETATM   18  C   UNL     1      -6.927  11.330  68.175  1.00  0.00    -0.069 A  
HETATM   19  C   UNL     1     -10.991   6.538  67.881  1.00  0.00    -0.382 A  
HETATM   20  C   UNL     1     -10.709   7.575  66.981  1.00  0.00    -0.367 A  
HETATM   21  C   UNL     1      -6.621  11.780  69.573  1.00  0.00    -0.102 C  
HETATM   22  C   UNL     1      -8.256  11.021  67.850  1.00  0.00    -0.119 A  
ENDBRANCH   5   6
ENDBRANCH   4   5
BRANCH   4  23
HETATM   23  C   UNL     1     -11.438  14.277  68.330  1.00  0.00    -0.301 C  
HETATM   24  C   UNL     1     -12.314  14.119  69.586  1.00  0.00    -0.304 C  
HETATM   25  C   UNL     1      -9.997  13.991  68.822  1.00  0.00    -0.164 C  
ENDBRANCH   4  23
ENDBRANCH   2   4
TORSDOF 4
ENDMDL
MODEL      109
REMARK 921   NORMALIZED FREE ENERGY PREDICTED BY IDOCK:   -4.49 KCAL/MOL
REMARK 922        TOTAL FREE ENERGY PREDICTED BY IDOCK:   -6.38 KCAL/MOL
REMARK 923 INTER-LIGAND FREE ENERGY PREDICTED BY IDOCK:   -5.52 KCAL/MOL
REMARK 924 INTRA-LIGAND FREE ENERGY PREDICTED BY IDOCK:   -0.86 KCAL/MOL
REMARK 927      BINDING AFFINITY PREDICTED BY RF-SCORE:    0.00 PKD
ROOT
HETATM    1  C   UNL     1     -11.880  12.155  69.262  1.00  0.00    -0.370 C  
HETATM    2  C   UNL     1     -11.507  13.029  68.037  1.00  0.00    -0.309 C  
HETATM    3  C   UNL     1     -10.803  14.262  68.631  1.00  0.00    -0.265 C  
ENDROOT
BRANCH   2   4
HETATM    4  N   UNL     1     -10.703  12.285  67.018  1.00  0.00    -0.226 NA 
BRANCH   4   5
HETATM    5  C   UNL     1     -10.259  10.950  67.499  1.00  0.00    -0.190 C  
BRANCH   5   6
HETATM    6  C   UNL     1      -8.814  10.514  67.187  1.00  0.00    -0.140 C  
HETATM    7  C   UNL     1      -8.371   9.115  67.725  1.00  0.00    -0.117 C  
HETATM    8  C   UNL     1      -9.163   7.907  67.187  1.00  0.00    -0.175 A  
HETATM    9  C   UNL     1      -8.121   9.055  69.243  1.00  0.00    -0.105 A  
HETATM   10  C   UNL     1      -6.852   8.972  69.838  1.00  0.00    -0.047 A  
HETATM   11  C   UNL     1     -10.506   7.657  67.518  1.00  0.00    -0.336 A  
HETATM   12  O   UNL     1      -5.668   9.032  69.159  1.00  0.00    -0.036 OA 
HETATM   13  C   UNL     1     -11.161   6.491  67.124  1.00  0.00    -0.313 A  
HETATM   14  C   UNL     1      -6.707   8.797  71.221  1.00  0.00    -0.078 A  
HETATM   15  C   UNL     1      -7.820   8.681  72.049  1.00  0.00    -0.104 A  
HETATM   16  C   UNL     1     -10.501   5.555  66.345  1.00  0.00    -0.294 A  
HETATM   17  H   UNL     1      -4.810   8.976  69.562  1.00  0.00     0.000 HD 
HETATM   18  C   UNL     1      -9.091   8.773  71.500  1.00  0.00    -0.322 A  
HETATM   19  C   UNL     1      -9.179   5.791  65.962  1.00  0.00    -0.155 A  
HETATM   20  C   UNL     1      -8.518   6.954  66.382  1.00  0.00    -0.130 A  
HETATM   21  C   UNL     1     -10.339   8.584  72.309  1.00  0.00    -0.402 C  
HETATM   22  C   UNL     1      -9.218   8.998  70.121  1.00  0.00    -0.212 A  
ENDBRANCH   5   6
ENDBRANCH   4   5
BRANCH   4  23
HETATM   23  C   UNL     1     -11.229  12.241  65.619  1.00  0.00    -0.333 C  
HETATM   24  C   UNL     1     -12.448  13.141  65.352  1.00  0.00    -0.535 C  
HETATM   25  C   UNL     1     -10.177  12.688  64.573  1.00  0.00    -0.331 C  
ENDBRANCH   4  23
ENDBRANCH   2   4
TORSDOF 4
ENDMDL
MODEL      110
REMARK 921   NORMALIZED FREE ENERGY PREDICTED BY IDOCK:   -4.46 KCAL/MOL
REMARK 922        TOTAL FREE ENERGY PREDICTED BY IDOCK:   -6.34 KCAL/MOL
REMARK 923 INTER-LIGAND FREE ENERGY PREDICTED BY IDOCK:   -5.68 KCAL/MOL
REMARK 924 INTRA-LIGAND FREE ENERGY PREDICTED BY IDOCK:   -0.67 KCAL/MOL
REMARK 927      BINDING AFFINITY PREDICTED BY RF-SCORE:    0.00 PKD
ROOT
HETATM    1  C   UNL     1      -8.512  15.933  66.852  1.00  0.00    -0.275 C  
HETATM    2  C   UNL     1      -7.200  15.225  67.277  1.00  0.00    -0.178 C  
HETATM    3  C   UNL     1      -6.122  16.323  67.222  1.00  0.00    -0.189 C  
ENDROOT
BRANCH   2   4
HETATM    4  N   UNL     1      -7.315  14.534  68.598  1.00  0.00    -0.120 NA 
BRANCH   4   5
HETATM    5  C   UNL     1      -8.202  13.341  68.549  1.00  0.00    -0.084 C  
BRANCH   5   6
HETATM    6  C   UNL     1      -7.947  12.296  67.445  1.00  0.00    -0.171 C  
HETATM    7  C   UNL     1      -9.185  11.483  66.948  1.00  0.00    -0.181 C  
HETATM    8  C   UNL     1     -10.319  12.309  66.310  1.00  0.00    -0.257 A  
HETATM    9  C   UNL     1      -9.689  10.408  67.927  1.00  0.00    -0.168 A  
HETATM   10  C   UNL     1      -9.516   9.026  67.750  1.00  0.00    -0.141 A  
HETATM   11  C   UNL     1     -11.136  13.190  67.041  1.00  0.00    -0.305 A  
HETATM   12  O   UNL     1      -8.796   8.455  66.740  1.00  0.00    -0.129 OA 
HETATM   13  C   UNL     1     -12.236  13.827  66.468  1.00  0.00    -0.475 A  
HETATM   14  C   UNL     1     -10.109   8.101  68.620  1.00  0.00    -0.211 A  
HETATM   15  C   UNL     1     -10.905   8.524  69.681  1.00  0.00    -0.157 A  
HETATM   16  C   UNL     1     -12.527  13.635  65.128  1.00  0.00    -0.488 A  
HETATM   17  H   UNL     1      -8.679   7.520  66.620  1.00  0.00     0.000 HD 
HETATM   18  C   UNL     1     -11.087   9.882  69.898  1.00  0.00    -0.318 A  
HETATM   19  C   UNL     1     -11.711  12.801  64.361  1.00  0.00    -0.426 A  
HETATM   20  C   UNL     1     -10.620  12.144  64.949  1.00  0.00    -0.332 A  
HETATM   21  C   UNL     1     -11.988  10.418  70.970  1.00  0.00    -0.481 C  
HETATM   22  C   UNL     1     -10.446  10.795  69.048  1.00  0.00    -0.239 A  
ENDBRANCH   5   6
ENDBRANCH   4   5
BRANCH   4  23
HETATM   23  C   UNL     1      -6.053  14.274  69.356  1.00  0.00    -0.108 C  
HETATM   24  C   UNL     1      -5.810  15.205  70.557  1.00  0.00    -0.105 C  
HETATM   25  C   UNL     1      -6.000  12.845  69.953  1.00  0.00    -0.135 C  
ENDBRANCH   4  23
ENDBRANCH   2   4
TORSDOF 4
ENDMDL
MODEL      111
REMARK 921   NORMALIZED FREE ENERGY PREDICTED BY IDOCK:   -4.46 KCAL/MOL
REMARK 922        TOTAL FREE ENERGY PREDICTED BY IDOCK:   -6.34 KCAL/MOL
REMARK 923 INTER-LIGAND FREE ENERGY PREDICTED BY IDOCK:   -5.06 KCAL/MOL
REMARK 924 INTRA-LIGAND FREE ENERGY PREDICTED BY IDOCK:   -1.28 KCAL/MOL
REMARK 927      BINDING AFFINITY PREDICTED BY RF-SCORE:    0.00 PKD
ROOT
HETATM    1  C   UNL     1      -6.741   9.969  65.341  1.00  0.00    -0.115 C  
HETATM    2  C   UNL     1      -6.927   8.524  65.870  1.00  0.00    -0.071 C  
HETATM    3  C   UNL     1      -5.756   8.308  66.847  1.00  0.00    -0.041 C  
ENDROOT
BRANCH   2   4
HETATM    4  N   UNL     1      -8.280   8.293  66.463  1.00  0.00    -0.104 NA 
BRANCH   4   5
HETATM    5  C   UNL     1      -9.272   9.321  66.049  1.00  0.00    -0.206 C  
BRANCH   5   6
HETATM    6  C   UNL     1     -10.656   9.305  66.729  1.00  0.00    -0.207 C  
HETATM    7  C   UNL     1     -10.814  10.170  68.020  1.00  0.00    -0.320 C  
HETATM    8  C   UNL     1     -10.593  11.685  67.845  1.00  0.00    -0.225 A  
HETATM    9  C   UNL     1     -10.130   9.593  69.273  1.00  0.00    -0.201 A  
HETATM   10  C   UNL     1     -10.810   9.009  70.353  1.00  0.00    -0.246 A  
HETATM   11  C   UNL     1      -9.337  12.253  67.566  1.00  0.00    -0.183 A  
HETATM   12  O   UNL     1     -12.157   8.785  70.396  1.00  0.00    -0.477 OA 
HETATM   13  C   UNL     1      -9.139  13.634  67.540  1.00  0.00    -0.213 A  
HETATM   14  C   UNL     1     -10.130   8.617  71.514  1.00  0.00    -0.345 A  
HETATM   15  C   UNL     1      -8.758   8.812  71.641  1.00  0.00    -0.255 A  
HETATM   16  C   UNL     1     -10.206  14.491  67.751  1.00  0.00    -0.226 A  
HETATM   17  H   UNL     1     -12.616   8.390  71.127  1.00  0.00     0.000 HD 
HETATM   18  C   UNL     1      -8.048   9.372  70.589  1.00  0.00    -0.197 A  
HETATM   19  C   UNL     1     -11.475  13.961  67.988  1.00  0.00    -0.339 A  
HETATM   20  C   UNL     1     -11.664  12.572  68.037  1.00  0.00    -0.410 A  
HETATM   21  C   UNL     1      -6.584   9.683  70.673  1.00  0.00    -0.114 C  
HETATM   22  C   UNL     1      -8.735   9.713  69.415  1.00  0.00    -0.173 A  
ENDBRANCH   5   6
ENDBRANCH   4   5
BRANCH   4  23
HETATM   23  C   UNL     1      -8.837   6.907  66.399  1.00  0.00    -0.145 C  
HETATM   24  C   UNL     1      -8.160   5.980  65.374  1.00  0.00    -0.132 C  
HETATM   25  C   UNL     1      -8.715   6.153  67.747  1.00  0.00    -0.112 C  
ENDBRANCH   4  23
ENDBRANCH   2   4
TORSDOF 4
ENDMDL
MODEL      112
REMARK 921   NORMALIZED FREE ENERGY PREDICTED BY IDOCK:   -4.43 KCAL/MOL
REMARK 922        TOTAL FREE ENERGY PREDICTED BY IDOCK:   -6.31 KCAL/MOL
REMARK 923 INTER-LIGAND FREE ENERGY PREDICTED BY IDOCK:   -5.39 KCAL/MOL
REMARK 924 INTRA-LIGAND FREE ENERGY PREDICTED BY IDOCK:   -0.92 KCAL/MOL
REMARK 927      BINDING AFFINITY PREDICTED BY RF-SCORE:    0.00 PKD
ROOT
HETATM    1  C   UNL     1      -6.580  16.805  66.927  1.00  0.00    -0.248 C  
HETATM    2  C   UNL     1      -7.095  15.753  67.942  1.00  0.00    -0.133 C  
HETATM    3  C   UNL     1      -6.590  16.246  69.311  1.00  0.00    -0.197 C  
ENDROOT
BRANCH   2   4
HETATM    4  N   UNL     1      -8.574  15.547  67.863  1.00  0.00    -0.154 NA 
BRANCH   4   5
HETATM    5  C   UNL     1      -8.953  14.110  67.822  1.00  0.00    -0.187 C  
BRANCH   5   6
HETATM    6  C   UNL     1      -7.828  13.062  67.928  1.00  0.00    -0.149 C  
HETATM    7  C   UNL     1      -8.237  11.569  67.716  1.00  0.00    -0.135 C  
HETATM    8  C   UNL     1      -8.829  11.223  66.335  1.00  0.00    -0.184 A  
HETATM    9  C   UNL     1      -9.011  10.938  68.887  1.00  0.00    -0.146 A  
HETATM   10  C   UNL     1      -8.475   9.996  69.780  1.00  0.00    -0.172 A  
HETATM   11  C   UNL     1     -10.088  11.675  65.902  1.00  0.00    -0.267 A  
HETATM   12  O   UNL     1      -7.172   9.587  69.791  1.00  0.00    -0.065 OA 
HETATM   13  C   UNL     1     -10.656  11.244  64.703  1.00  0.00    -0.392 A  
HETATM   14  C   UNL     1      -9.275   9.373  70.748  1.00  0.00    -0.278 A  
HETATM   15  C   UNL     1     -10.635   9.655  70.842  1.00  0.00    -0.386 A  
HETATM   16  C   UNL     1      -9.958  10.378  63.878  1.00  0.00    -0.269 A  
HETATM   17  H   UNL     1      -6.809   8.950  70.395  1.00  0.00     0.000 HD 
HETATM   18  C   UNL     1     -11.198  10.592  69.988  1.00  0.00    -0.386 A  
HETATM   19  C   UNL     1      -8.687   9.944  64.257  1.00  0.00    -0.229 A  
HETATM   20  C   UNL     1      -8.131  10.361  65.475  1.00  0.00    -0.156 A  
HETATM   21  C   UNL     1     -12.666  10.897  69.974  1.00  0.00    -0.174 C  
HETATM   22  C   UNL     1     -10.374  11.243  69.058  1.00  0.00    -0.189 A  
ENDBRANCH   5   6
ENDBRANCH   4   5
BRANCH   4  23
HETATM   23  C   UNL     1      -9.434  16.337  68.798  1.00  0.00    -0.237 C  
HETATM   24  C   UNL     1     -10.473  17.244  68.117  1.00  0.00    -0.382 C  
HETATM   25  C   UNL     1     -10.264  15.437  69.747  1.00  0.00    -0.278 C  
ENDBRANCH   4  23
ENDBRANCH   2   4
TORSDOF 4
ENDMDL
MODEL      113
REMARK 921   NORMALIZED FREE ENERGY PREDICTED BY IDOCK:   -4.43 KCAL/MOL
REMARK 922        TOTAL FREE ENERGY PREDICTED BY IDOCK:   -6.31 KCAL/MOL
REMARK 923 INTER-LIGAND FREE ENERGY PREDICTED BY IDOCK:   -5.06 KCAL/MOL
REMARK 924 INTRA-LIGAND FREE ENERGY PREDICTED BY IDOCK:   -1.25 KCAL/MOL
REMARK 927      BINDING AFFINITY PREDICTED BY RF-SCORE:    0.00 PKD
ROOT
HETATM    1  C   UNL     1     -11.720   7.646  70.962  1.00  0.00    -0.306 C  
HETATM    2  C   UNL     1     -10.571   6.701  71.397  1.00  0.00    -0.224 C  
HETATM    3  C   UNL     1     -10.615   5.536  70.391  1.00  0.00    -0.350 C  
ENDROOT
BRANCH   2   4
HETATM    4  N   UNL     1      -9.250   7.396  71.485  1.00  0.00    -0.140 NA 
BRANCH   4   5
HETATM    5  C   UNL     1      -9.357   8.864  71.268  1.00  0.00    -0.266 C  
BRANCH   5   6
HETATM    6  C   UNL     1      -8.197   9.573  70.541  1.00  0.00    -0.203 C  
HETATM    7  C   UNL     1      -8.466  10.033  69.072  1.00  0.00    -0.147 C  
HETATM    8  C   UNL     1      -9.599  11.062  68.887  1.00  0.00    -0.174 A  
HETATM    9  C   UNL     1      -8.497   8.897  68.034  1.00  0.00    -0.126 A  
HETATM   10  C   UNL     1      -7.485   8.653  67.092  1.00  0.00    -0.088 A  
HETATM   11  C   UNL     1     -10.957  10.756  69.086  1.00  0.00    -0.293 A  
HETATM   12  O   UNL     1      -6.296   9.324  67.034  1.00  0.00    -0.064 OA 
HETATM   13  C   UNL     1     -11.972  11.666  68.788  1.00  0.00    -0.326 A  
HETATM   14  C   UNL     1      -7.637   7.677  66.098  1.00  0.00    -0.088 A  
HETATM   15  C   UNL     1      -8.808   6.930  66.000  1.00  0.00    -0.154 A  
HETATM   16  C   UNL     1     -11.653  12.930  68.321  1.00  0.00    -0.374 A  
HETATM   17  H   UNL     1      -5.612   9.158  66.397  1.00  0.00     0.000 HD 
HETATM   18  C   UNL     1      -9.824   7.132  66.922  1.00  0.00    -0.271 A  
HETATM   19  C   UNL     1     -10.313  13.282  68.153  1.00  0.00    -0.246 A  
HETATM   20  C   UNL     1      -9.298  12.355  68.431  1.00  0.00    -0.158 A  
HETATM   21  C   UNL     1     -11.144   6.424  66.841  1.00  0.00    -0.346 C  
HETATM   22  C   UNL     1      -9.636   8.077  67.941  1.00  0.00    -0.178 A  
ENDBRANCH   5   6
ENDBRANCH   4   5
BRANCH   4  23
HETATM   23  C   UNL     1      -8.363   7.054  72.639  1.00  0.00    -0.108 C  
HETATM   24  C   UNL     1      -8.726   7.742  73.966  1.00  0.00    -0.316 C  
HETATM   25  C   UNL     1      -8.371   5.540  72.968  1.00  0.00    -0.119 C  
ENDBRANCH   4  23
ENDBRANCH   2   4
TORSDOF 4
ENDMDL
MODEL      114
REMARK 921   NORMALIZED FREE ENERGY PREDICTED BY IDOCK:   -4.42 KCAL/MOL
REMARK 922        TOTAL FREE ENERGY PREDICTED BY IDOCK:   -6.30 KCAL/MOL
REMARK 923 INTER-LIGAND FREE ENERGY PREDICTED BY IDOCK:   -5.28 KCAL/MOL
REMARK 924 INTRA-LIGAND FREE ENERGY PREDICTED BY IDOCK:   -1.02 KCAL/MOL
REMARK 927      BINDING AFFINITY PREDICTED BY RF-SCORE:    0.00 PKD
ROOT
HETATM    1  C   UNL     1     -12.169  12.703  63.373  1.00  0.00    -0.610 C  
HETATM    2  C   UNL     1     -11.281  11.729  64.188  1.00  0.00    -0.364 C  
HETATM    3  C   UNL     1      -9.914  11.753  63.479  1.00  0.00    -0.430 C  
ENDROOT
BRANCH   2   4
HETATM    4  N   UNL     1     -11.231  12.071  65.643  1.00  0.00    -0.326 NA 
BRANCH   4   5
HETATM    5  C   UNL     1     -10.281  11.215  66.403  1.00  0.00    -0.233 C  
BRANCH   5   6
HETATM    6  C   UNL     1     -10.559   9.700  66.458  1.00  0.00    -0.142 C  
HETATM    7  C   UNL     1      -9.353   8.778  66.830  1.00  0.00    -0.229 C  
HETATM    8  C   UNL     1      -8.731   9.012  68.221  1.00  0.00    -0.130 A  
HETATM    9  C   UNL     1      -8.306   8.603  65.715  1.00  0.00    -0.148 A  
HETATM   10  C   UNL     1      -8.139   7.433  64.957  1.00  0.00    -0.122 A  
HETATM   11  C   UNL     1      -8.007  10.169  68.557  1.00  0.00    -0.104 A  
HETATM   12  O   UNL     1      -8.943   6.332  65.037  1.00  0.00    -0.364 OA 
HETATM   13  C   UNL     1      -7.346  10.300  69.778  1.00  0.00    -0.167 A  
HETATM   14  C   UNL     1      -7.084   7.302  64.043  1.00  0.00    -0.071 A  
HETATM   15  C   UNL     1      -6.155   8.324  63.871  1.00  0.00    -0.067 A  
HETATM   16  C   UNL     1      -7.428   9.290  70.721  1.00  0.00    -0.144 A  
HETATM   17  H   UNL     1      -8.830   5.540  64.524  1.00  0.00     0.000 HD 
HETATM   18  C   UNL     1      -6.295   9.502  64.591  1.00  0.00    -0.084 A  
HETATM   19  C   UNL     1      -8.175   8.145  70.438  1.00  0.00    -0.114 A  
HETATM   20  C   UNL     1      -8.817   8.009  69.199  1.00  0.00    -0.145 A  
HETATM   21  C   UNL     1      -5.298  10.619  64.519  1.00  0.00    -0.123 C  
HETATM   22  C   UNL     1      -7.384   9.636  65.464  1.00  0.00    -0.106 A  
ENDBRANCH   5   6
ENDBRANCH   4   5
BRANCH   4  23
HETATM   23  C   UNL     1     -11.116  13.515  66.012  1.00  0.00    -0.293 C  
HETATM   24  C   UNL     1     -12.011  13.962  67.182  1.00  0.00    -0.455 C  
HETATM   25  C   UNL     1      -9.681  13.907  66.447  1.00  0.00    -0.309 C  
ENDBRANCH   4  23
ENDBRANCH   2   4
TORSDOF 4
ENDMDL
MODEL      115
REMARK 921   NORMALIZED FREE ENERGY PREDICTED BY IDOCK:   -4.41 KCAL/MOL
REMARK 922        TOTAL FREE ENERGY PREDICTED BY IDOCK:   -6.29 KCAL/MOL
REMARK 923 INTER-LIGAND FREE ENERGY PREDICTED BY IDOCK:   -5.60 KCAL/MOL
REMARK 924 INTRA-LIGAND FREE ENERGY PREDICTED BY IDOCK:   -0.68 KCAL/MOL
REMARK 927      BINDING AFFINITY PREDICTED BY RF-SCORE:    0.00 PKD
ROOT
HETATM    1  C   UNL     1      -6.887  18.483  65.882  1.00  0.00    -0.318 C  
HETATM    2  C   UNL     1      -7.203  17.055  66.397  1.00  0.00    -0.276 C  
HETATM    3  C   UNL     1      -6.026  16.701  67.325  1.00  0.00    -0.194 C  
ENDROOT
BRANCH   2   4
HETATM    4  N   UNL     1      -8.550  16.955  67.037  1.00  0.00    -0.197 NA 
BRANCH   4   5
HETATM    5  C   UNL     1      -8.618  15.890  68.073  1.00  0.00    -0.164 C  
BRANCH   5   6
HETATM    6  C   UNL     1      -8.356  14.436  67.633  1.00  0.00    -0.186 C  
HETATM    7  C   UNL     1      -9.610  13.568  67.298  1.00  0.00    -0.235 C  
HETATM    8  C   UNL     1     -10.486  14.071  66.134  1.00  0.00    -0.297 A  
HETATM    9  C   UNL     1     -10.425  13.110  68.522  1.00  0.00    -0.262 A  
HETATM   10  C   UNL     1     -10.444  11.797  69.019  1.00  0.00    -0.099 A  
HETATM   11  C   UNL     1     -11.262  15.242  66.204  1.00  0.00    -0.225 A  
HETATM   12  O   UNL     1      -9.670  10.775  68.549  1.00  0.00    -0.167 OA 
HETATM   13  C   UNL     1     -12.144  15.607  65.188  1.00  0.00     0.480 A  
HETATM   14  C   UNL     1     -11.304  11.426  70.062  1.00  0.00    -0.260 A  
HETATM   15  C   UNL     1     -12.183  12.346  70.626  1.00  0.00    -0.368 A  
HETATM   16  C   UNL     1     -12.244  14.831  64.046  1.00  0.00    -0.185 A  
HETATM   17  H   UNL     1      -9.682   9.887  68.886  1.00  0.00     0.000 HD 
HETATM   18  C   UNL     1     -12.183  13.657  70.172  1.00  0.00    -0.413 A  
HETATM   19  C   UNL     1     -11.456  13.685  63.924  1.00  0.00    -0.215 A  
HETATM   20  C   UNL     1     -10.589  13.309  64.960  1.00  0.00    -0.360 A  
HETATM   21  C   UNL     1     -13.149  14.689  70.674  1.00  0.00    -0.323 C  
HETATM   22  C   UNL     1     -11.281  14.023  69.162  1.00  0.00    -0.308 A  
ENDBRANCH   5   6
ENDBRANCH   4   5
BRANCH   4  23
HETATM   23  C   UNL     1      -9.202  18.225  67.483  1.00  0.00    -0.254 C  
HETATM   24  C   UNL     1     -10.377  18.697  66.608  1.00  0.00    -0.456 C  
HETATM   25  C   UNL     1      -9.794  18.122  68.910  1.00  0.00    -0.322 C  
ENDBRANCH   4  23
ENDBRANCH   2   4
TORSDOF 4
ENDMDL
MODEL      116
REMARK 921   NORMALIZED FREE ENERGY PREDICTED BY IDOCK:   -4.40 KCAL/MOL
REMARK 922        TOTAL FREE ENERGY PREDICTED BY IDOCK:   -6.27 KCAL/MOL
REMARK 923 INTER-LIGAND FREE ENERGY PREDICTED BY IDOCK:   -6.11 KCAL/MOL
REMARK 924 INTRA-LIGAND FREE ENERGY PREDICTED BY IDOCK:   -0.17 KCAL/MOL
REMARK 927      BINDING AFFINITY PREDICTED BY RF-SCORE:    0.00 PKD
ROOT
HETATM    1  C   UNL     1     -11.983  11.920  70.391  1.00  0.00    -0.400 C  
HETATM    2  C   UNL     1     -11.473  13.273  69.832  1.00  0.00    -0.100 C  
HETATM    3  C   UNL     1     -12.392  13.575  68.634  1.00  0.00     0.030 C  
ENDROOT
BRANCH   2   4
HETATM    4  N   UNL     1     -11.431  14.350  70.868  1.00  0.00    -0.140 NA 
BRANCH   4   5
HETATM    5  C   UNL     1     -10.448  15.419  70.547  1.00  0.00    -0.108 C  
BRANCH   5   6
HETATM    6  C   UNL     1     -10.913  16.582  69.649  1.00  0.00    -0.287 C  
HETATM    7  C   UNL     1     -10.037  16.892  68.393  1.00  0.00    -0.304 C  
HETATM    8  C   UNL     1      -9.917  15.756  67.360  1.00  0.00    -0.237 A  
HETATM    9  C   UNL     1      -8.697  17.587  68.695  1.00  0.00    -0.258 A  
HETATM   10  C   UNL     1      -8.422  18.938  68.426  1.00  0.00    -0.350 A  
HETATM   11  C   UNL     1      -9.217  14.561  67.606  1.00  0.00    -0.195 A  
HETATM   12  O   UNL     1      -9.334  19.839  67.953  1.00  0.00    -0.327 OA 
HETATM   13  C   UNL     1      -9.014  13.604  66.612  1.00  0.00    -0.138 A  
HETATM   14  C   UNL     1      -7.140  19.471  68.614  1.00  0.00    -0.373 A  
HETATM   15  C   UNL     1      -6.090  18.672  69.057  1.00  0.00    -0.247 A  
HETATM   16  C   UNL     1      -9.545  13.795  65.347  1.00  0.00     0.056 A  
HETATM   17  H   UNL     1      -9.148  20.752  67.771  1.00  0.00     0.000 HD 
HETATM   18  C   UNL     1      -6.325  17.336  69.349  1.00  0.00    -0.244 A  
HETATM   19  C   UNL     1     -10.282  14.950  65.080  1.00  0.00    -0.409 A  
HETATM   20  C   UNL     1     -10.462  15.920  66.077  1.00  0.00    -0.357 A  
HETATM   21  C   UNL     1      -5.235  16.391  69.758  1.00  0.00    -0.136 C  
HETATM   22  C   UNL     1      -7.625  16.830  69.203  1.00  0.00    -0.181 A  
ENDBRANCH   5   6
ENDBRANCH   4   5
BRANCH   4  23
HETATM   23  C   UNL     1     -12.735  14.901  71.349  1.00  0.00    -0.335 C  
HETATM   24  C   UNL     1     -13.733  13.852  71.871  1.00  0.00    -0.521 C  
HETATM   25  C   UNL     1     -12.565  15.897  72.523  1.00  0.00    -0.545 C  
ENDBRANCH   4  23
ENDBRANCH   2   4
TORSDOF 4
ENDMDL
MODEL      117
REMARK 921   NORMALIZED FREE ENERGY PREDICTED BY IDOCK:   -4.38 KCAL/MOL
REMARK 922        TOTAL FREE ENERGY PREDICTED BY IDOCK:   -6.25 KCAL/MOL
REMARK 923 INTER-LIGAND FREE ENERGY PREDICTED BY IDOCK:   -5.47 KCAL/MOL
REMARK 924 INTRA-LIGAND FREE ENERGY PREDICTED BY IDOCK:   -0.78 KCAL/MOL
REMARK 927      BINDING AFFINITY PREDICTED BY RF-SCORE:    0.00 PKD
ROOT
HETATM    1  C   UNL     1     -11.956  11.813  70.344  1.00  0.00    -0.422 C  
HETATM    2  C   UNL     1     -11.641  10.424  70.954  1.00  0.00    -0.337 C  
HETATM    3  C   UNL     1     -12.946   9.992  71.648  1.00  0.00    -0.554 C  
ENDROOT
BRANCH   2   4
HETATM    4  N   UNL     1     -11.124   9.451  69.943  1.00  0.00    -0.228 NA 
BRANCH   4   5
HETATM    5  C   UNL     1     -10.365  10.109  68.846  1.00  0.00    -0.206 C  
BRANCH   5   6
HETATM    6  C   UNL     1      -8.834   9.928  68.818  1.00  0.00    -0.136 C  
HETATM    7  C   UNL     1      -8.033  10.885  67.878  1.00  0.00    -0.111 C  
HETATM    8  C   UNL     1      -8.143  12.389  68.197  1.00  0.00    -0.163 A  
HETATM    9  C   UNL     1      -8.154  10.568  66.377  1.00  0.00    -0.135 A  
HETATM   10  C   UNL     1      -7.136   9.994  65.599  1.00  0.00    -0.119 A  
HETATM   11  C   UNL     1      -9.324  13.130  68.015  1.00  0.00    -0.219 A  
HETATM   12  O   UNL     1      -5.940   9.549  66.088  1.00  0.00    -0.059 OA 
HETATM   13  C   UNL     1      -9.363  14.513  68.188  1.00  0.00    -0.197 A  
HETATM   14  C   UNL     1      -7.274   9.847  64.212  1.00  0.00    -0.134 A  
HETATM   15  C   UNL     1      -8.421  10.285  63.557  1.00  0.00    -0.182 A  
HETATM   16  C   UNL     1      -8.227  15.193  68.592  1.00  0.00    -0.154 A  
HETATM   17  H   UNL     1      -5.251   9.161  65.562  1.00  0.00     0.000 HD 
HETATM   18  C   UNL     1      -9.456  10.844  64.292  1.00  0.00    -0.289 A  
HETATM   19  C   UNL     1      -7.048  14.483  68.823  1.00  0.00    -0.112 A  
HETATM   20  C   UNL     1      -7.008  13.095  68.624  1.00  0.00    -0.102 A  
HETATM   21  C   UNL     1     -10.691  11.408  63.655  1.00  0.00    -0.470 C  
HETATM   22  C   UNL     1      -9.322  10.938  65.685  1.00  0.00    -0.236 A  
ENDBRANCH   5   6
ENDBRANCH   4   5
BRANCH   4  23
HETATM   23  C   UNL     1     -10.441   8.221  70.451  1.00  0.00    -0.215 C  
HETATM   24  C   UNL     1     -10.057   8.258  71.941  1.00  0.00    -0.314 C  
HETATM   25  C   UNL     1     -11.314   6.950  70.304  1.00  0.00    -0.373 C  
ENDBRANCH   4  23
ENDBRANCH   2   4
TORSDOF 4
ENDMDL
MODEL      118
REMARK 921   NORMALIZED FREE ENERGY PREDICTED BY IDOCK:   -4.38 KCAL/MOL
REMARK 922        TOTAL FREE ENERGY PREDICTED BY IDOCK:   -6.25 KCAL/MOL
REMARK 923 INTER-LIGAND FREE ENERGY PREDICTED BY IDOCK:   -4.94 KCAL/MOL
REMARK 924 INTRA-LIGAND FREE ENERGY PREDICTED BY IDOCK:   -1.31 KCAL/MOL
REMARK 927      BINDING AFFINITY PREDICTED BY RF-SCORE:    0.00 PKD
ROOT
HETATM    1  C   UNL     1      -8.770   8.967  71.116  1.00  0.00    -0.280 C  
HETATM    2  C   UNL     1      -7.326   8.472  70.847  1.00  0.00    -0.068 C  
HETATM    3  C   UNL     1      -7.481   6.989  70.463  1.00  0.00    -0.088 C  
ENDROOT
BRANCH   2   4
HETATM    4  N   UNL     1      -6.608   9.304  69.833  1.00  0.00    -0.046 NA 
BRANCH   4   5
HETATM    5  C   UNL     1      -7.526   9.911  68.832  1.00  0.00    -0.081 C  
BRANCH   5   6
HETATM    6  C   UNL     1      -7.372   9.485  67.358  1.00  0.00    -0.087 C  
HETATM    7  C   UNL     1      -8.686   9.141  66.587  1.00  0.00    -0.140 C  
HETATM    8  C   UNL     1      -9.708  10.287  66.454  1.00  0.00    -0.252 A  
HETATM    9  C   UNL     1      -9.325   7.794  66.967  1.00  0.00    -0.196 A  
HETATM   10  C   UNL     1      -9.308   6.647  66.157  1.00  0.00    -0.056 A  
HETATM   11  C   UNL     1     -10.432  10.804  67.543  1.00  0.00    -0.260 A  
HETATM   12  O   UNL     1      -8.640   6.543  64.970  1.00  0.00    -0.318 OA 
HETATM   13  C   UNL     1     -11.443  11.751  67.378  1.00  0.00    -0.375 A  
HETATM   14  C   UNL     1     -10.017   5.492  66.515  1.00  0.00    -0.214 A  
HETATM   15  C   UNL     1     -10.778   5.451  67.680  1.00  0.00    -0.125 A  
HETATM   16  C   UNL     1     -11.731  12.243  66.116  1.00  0.00    -0.440 A  
HETATM   17  H   UNL     1      -8.629   5.767  64.422  1.00  0.00     0.000 HD 
HETATM   18  C   UNL     1     -10.807   6.559  68.514  1.00  0.00    -0.353 A  
HETATM   19  C   UNL     1     -11.002  11.784  65.018  1.00  0.00    -0.357 A  
HETATM   20  C   UNL     1     -10.003  10.814  65.187  1.00  0.00    -0.351 A  
HETATM   21  C   UNL     1     -11.660   6.623  69.746  1.00  0.00    -0.354 C  
HETATM   22  C   UNL     1     -10.053   7.689  68.167  1.00  0.00    -0.220 A  
ENDBRANCH   5   6
ENDBRANCH   4   5
BRANCH   4  23
HETATM   23  C   UNL     1      -5.587  10.276  70.331  1.00  0.00    -0.068 C  
HETATM   24  C   UNL     1      -6.022  11.751  70.301  1.00  0.00    -0.155 C  
HETATM   25  C   UNL     1      -5.188  10.016  71.806  1.00  0.00    -0.057 C  
ENDBRANCH   4  23
ENDBRANCH   2   4
TORSDOF 4
ENDMDL
MODEL      119
REMARK 921   NORMALIZED FREE ENERGY PREDICTED BY IDOCK:   -4.38 KCAL/MOL
REMARK 922        TOTAL FREE ENERGY PREDICTED BY IDOCK:   -6.25 KCAL/MOL
REMARK 923 INTER-LIGAND FREE ENERGY PREDICTED BY IDOCK:   -5.30 KCAL/MOL
REMARK 924 INTRA-LIGAND FREE ENERGY PREDICTED BY IDOCK:   -0.95 KCAL/MOL
REMARK 927      BINDING AFFINITY PREDICTED BY RF-SCORE:    0.00 PKD
ROOT
HETATM    1  C   UNL     1     -10.873   7.295  69.649  1.00  0.00    -0.238 C  
HETATM    2  C   UNL     1      -9.805   6.740  68.672  1.00  0.00    -0.142 C  
HETATM    3  C   UNL     1     -10.590   5.849  67.693  1.00  0.00    -0.335 C  
ENDROOT
BRANCH   2   4
HETATM    4  N   UNL     1      -8.998   7.818  68.021  1.00  0.00    -0.127 NA 
BRANCH   4   5
HETATM    5  C   UNL     1      -9.715   9.120  67.967  1.00  0.00    -0.154 C  
BRANCH   5   6
HETATM    6  C   UNL     1     -10.742   9.334  66.837  1.00  0.00    -0.164 C  
HETATM    7  C   UNL     1     -10.420  10.458  65.800  1.00  0.00    -0.187 C  
HETATM    8  C   UNL     1      -9.125  10.272  64.986  1.00  0.00    -0.244 A  
HETATM    9  C   UNL     1     -10.613  11.893  66.322  1.00  0.00    -0.289 A  
HETATM   10  C   UNL     1     -11.669  12.740  65.951  1.00  0.00    -0.414 A  
HETATM   11  C   UNL     1      -7.840  10.365  65.551  1.00  0.00    -0.152 A  
HETATM   12  O   UNL     1     -12.718  12.374  65.157  1.00  0.00    -0.630 OA 
HETATM   13  C   UNL     1      -6.684  10.321  64.771  1.00  0.00    -0.089 A  
HETATM   14  C   UNL     1     -11.712  14.077  66.372  1.00  0.00    -0.407 A  
HETATM   15  C   UNL     1     -10.696  14.613  67.158  1.00  0.00    -0.292 A  
HETATM   16  C   UNL     1      -6.779  10.137  63.402  1.00  0.00    -0.128 A  
HETATM   17  H   UNL     1     -13.433  12.947  64.906  1.00  0.00     0.000 HD 
HETATM   18  C   UNL     1      -9.643  13.803  67.558  1.00  0.00    -0.219 A  
HETATM   19  C   UNL     1      -8.037   9.997  62.814  1.00  0.00    -0.145 A  
HETATM   20  C   UNL     1      -9.197  10.067  63.599  1.00  0.00    -0.314 A  
HETATM   21  C   UNL     1      -8.474  14.322  68.341  1.00  0.00    -0.166 C  
HETATM   22  C   UNL     1      -9.641  12.455  67.170  1.00  0.00    -0.206 A  
ENDBRANCH   5   6
ENDBRANCH   4   5
BRANCH   4  23
HETATM   23  C   UNL     1      -7.573   7.970  68.446  1.00  0.00    -0.108 C  
HETATM   24  C   UNL     1      -7.261   9.257  69.229  1.00  0.00    -0.065 C  
HETATM   25  C   UNL     1      -7.104   6.823  69.376  1.00  0.00    -0.080 C  
ENDBRANCH   4  23
ENDBRANCH   2   4
TORSDOF 4
ENDMDL
MODEL      120
REMARK 921   NORMALIZED FREE ENERGY PREDICTED BY IDOCK:   -4.34 KCAL/MOL
REMARK 922        TOTAL FREE ENERGY PREDICTED BY IDOCK:   -6.20 KCAL/MOL
REMARK 923 INTER-LIGAND FREE ENERGY PREDICTED BY IDOCK:   -4.80 KCAL/MOL
REMARK 924 INTRA-LIGAND FREE ENERGY PREDICTED BY IDOCK:   -1.40 KCAL/MOL
REMARK 927      BINDING AFFINITY PREDICTED BY RF-SCORE:    0.00 PKD
ROOT
HETATM    1  C   UNL     1     -13.222   7.898  71.652  1.00  0.00    -0.367 C  
HETATM    2  C   UNL     1     -11.762   7.692  71.174  1.00  0.00    -0.290 C  
HETATM    3  C   UNL     1     -10.919   8.616  72.072  1.00  0.00    -0.432 C  
ENDROOT
BRANCH   2   4
HETATM    4  N   UNL     1     -11.344   6.256  71.193  1.00  0.00    -0.305 NA 
BRANCH   4   5
HETATM    5  C   UNL     1     -10.793   5.800  69.890  1.00  0.00    -0.347 C  
BRANCH   5   6
HETATM    6  C   UNL     1     -11.261   6.526  68.613  1.00  0.00    -0.302 C  
HETATM    7  C   UNL     1     -10.150   7.185  67.734  1.00  0.00    -0.215 C  
HETATM    8  C   UNL     1      -9.095   6.225  67.152  1.00  0.00    -0.119 A  
HETATM    9  C   UNL     1      -9.547   8.477  68.314  1.00  0.00    -0.156 A  
HETATM   10  C   UNL     1      -9.804   9.766  67.823  1.00  0.00    -0.160 A  
HETATM   11  C   UNL     1      -8.137   5.563  67.941  1.00  0.00    -0.100 A  
HETATM   12  O   UNL     1     -10.696  10.058  66.830  1.00  0.00    -0.212 OA 
HETATM   13  C   UNL     1      -7.113   4.801  67.379  1.00  0.00    -0.065 A  
HETATM   14  C   UNL     1      -9.124  10.885  68.323  1.00  0.00    -0.158 A  
HETATM   15  C   UNL     1      -8.155  10.750  69.314  1.00  0.00    -0.102 A  
HETATM   16  C   UNL     1      -7.042   4.643  66.005  1.00  0.00    -0.075 A  
HETATM   17  H   UNL     1     -10.870  10.931  66.498  1.00  0.00     0.000 HD 
HETATM   18  C   UNL     1      -7.884   9.494  69.836  1.00  0.00    -0.140 A  
HETATM   19  C   UNL     1      -8.002   5.250  65.194  1.00  0.00    -0.108 A  
HETATM   20  C   UNL     1      -9.015   6.035  65.763  1.00  0.00    -0.116 A  
HETATM   21  C   UNL     1      -6.806   9.252  70.850  1.00  0.00    -0.103 C  
HETATM   22  C   UNL     1      -8.609   8.392  69.359  1.00  0.00    -0.129 A  
ENDBRANCH   5   6
ENDBRANCH   4   5
BRANCH   4  23
HETATM   23  C   UNL     1     -10.523   5.790  72.353  1.00  0.00    -0.211 C  
HETATM   24  C   UNL     1     -11.221   4.779  73.280  1.00  0.00    -0.421 C  
HETATM   25  C   UNL     1      -9.218   5.080  71.912  1.00  0.00    -0.164 C  
ENDBRANCH   4  23
ENDBRANCH   2   4
TORSDOF 4
ENDMDL
MODEL      121
REMARK 921   NORMALIZED FREE ENERGY PREDICTED BY IDOCK:   -4.33 KCAL/MOL
REMARK 922        TOTAL FREE ENERGY PREDICTED BY IDOCK:   -6.18 KCAL/MOL
REMARK 923 INTER-LIGAND FREE ENERGY PREDICTED BY IDOCK:   -4.98 KCAL/MOL
REMARK 924 INTRA-LIGAND FREE ENERGY PREDICTED BY IDOCK:   -1.21 KCAL/MOL
REMARK 927      BINDING AFFINITY PREDICTED BY RF-SCORE:    0.00 PKD
ROOT
HETATM    1  C   UNL     1      -8.975   8.908  64.859  1.00  0.00    -0.128 C  
HETATM    2  C   UNL     1      -8.744   9.812  66.096  1.00  0.00    -0.136 C  
HETATM    3  C   UNL     1      -7.772  10.903  65.612  1.00  0.00     0.012 C  
ENDROOT
BRANCH   2   4
HETATM    4  N   UNL     1     -10.018  10.331  66.681  1.00  0.00    -0.207 NA 
BRANCH   4   5
HETATM    5  C   UNL     1     -10.113  10.104  68.148  1.00  0.00    -0.152 C  
BRANCH   5   6
HETATM    6  C   UNL     1      -8.903   9.469  68.861  1.00  0.00    -0.137 C  
HETATM    7  C   UNL     1      -9.083   8.006  69.379  1.00  0.00    -0.148 C  
HETATM    8  C   UNL     1      -9.380   6.943  68.304  1.00  0.00    -0.125 A  
HETATM    9  C   UNL     1      -9.965   7.868  70.633  1.00  0.00    -0.188 A  
HETATM   10  C   UNL     1      -9.480   7.583  71.920  1.00  0.00    -0.144 A  
HETATM   11  C   UNL     1     -10.590   6.885  67.591  1.00  0.00    -0.328 A  
HETATM   12  O   UNL     1      -8.158   7.486  72.250  1.00  0.00    -0.097 OA 
HETATM   13  C   UNL     1     -10.885   5.839  66.716  1.00  0.00    -0.327 A  
HETATM   14  C   UNL     1     -10.353   7.350  72.992  1.00  0.00    -0.356 A  
HETATM   15  C   UNL     1     -11.733   7.377  72.810  1.00  0.00    -0.184 A  
HETATM   16  C   UNL     1      -9.954   4.838  66.495  1.00  0.00    -0.262 A  
HETATM   17  H   UNL     1      -7.831   7.293  73.120  1.00  0.00     0.000 HD 
HETATM   18  C   UNL     1     -12.250   7.671  71.557  1.00  0.00    -0.351 A  
HETATM   19  C   UNL     1      -8.724   4.887  67.154  1.00  0.00    -0.103 A  
HETATM   20  C   UNL     1      -8.443   5.928  68.050  1.00  0.00    -0.110 A  
HETATM   21  C   UNL     1     -13.720   7.646  71.260  1.00  0.00    -0.315 C  
HETATM   22  C   UNL     1     -11.364   7.950  70.506  1.00  0.00    -0.242 A  
ENDBRANCH   5   6
ENDBRANCH   4   5
BRANCH   4  23
HETATM   23  C   UNL     1     -10.450  11.708  66.289  1.00  0.00    -0.246 C  
HETATM   24  C   UNL     1     -11.213  11.797  64.956  1.00  0.00    -0.318 C  
HETATM   25  C   UNL     1     -11.401  12.353  67.328  1.00  0.00    -0.384 C  
ENDBRANCH   4  23
ENDBRANCH   2   4
TORSDOF 4
ENDMDL
MODEL      122
REMARK 921   NORMALIZED FREE ENERGY PREDICTED BY IDOCK:   -4.31 KCAL/MOL
REMARK 922        TOTAL FREE ENERGY PREDICTED BY IDOCK:   -6.16 KCAL/MOL
REMARK 923 INTER-LIGAND FREE ENERGY PREDICTED BY IDOCK:   -5.57 KCAL/MOL
REMARK 924 INTRA-LIGAND FREE ENERGY PREDICTED BY IDOCK:   -0.58 KCAL/MOL
REMARK 927      BINDING AFFINITY PREDICTED BY RF-SCORE:    0.00 PKD
ROOT
HETATM    1  C   UNL     1     -11.943  13.932  66.988  1.00  0.00    -0.459 C  
HETATM    2  C   UNL     1     -10.828  13.656  65.947  1.00  0.00    -0.275 C  
HETATM    3  C   UNL     1      -9.592  14.400  66.485  1.00  0.00    -0.310 C  
ENDROOT
BRANCH   2   4
HETATM    4  N   UNL     1     -10.615  12.197  65.700  1.00  0.00    -0.253 NA 
BRANCH   4   5
HETATM    5  C   UNL     1     -10.973  11.355  66.873  1.00  0.00    -0.299 C  
BRANCH   5   6
HETATM    6  C   UNL     1     -10.075  11.438  68.123  1.00  0.00    -0.200 C  
HETATM    7  C   UNL     1      -9.036  10.287  68.318  1.00  0.00    -0.139 C  
HETATM    8  C   UNL     1      -7.978  10.141  67.207  1.00  0.00    -0.110 A  
HETATM    9  C   UNL     1      -9.637   8.944  68.770  1.00  0.00    -0.159 A  
HETATM   10  C   UNL     1      -9.511   8.411  70.062  1.00  0.00    -0.164 A  
HETATM   11  C   UNL     1      -8.283   9.704  65.906  1.00  0.00    -0.119 A  
HETATM   12  O   UNL     1      -8.925   9.053  71.116  1.00  0.00    -0.220 OA 
HETATM   13  C   UNL     1      -7.291   9.457  64.957  1.00  0.00    -0.105 A  
HETATM   14  C   UNL     1      -9.979   7.125  70.368  1.00  0.00    -0.191 A  
HETATM   15  C   UNL     1     -10.569   6.327  69.392  1.00  0.00    -0.330 A  
HETATM   16  C   UNL     1      -5.961   9.683  65.270  1.00  0.00    -0.069 A  
HETATM   17  H   UNL     1      -8.840   8.692  71.990  1.00  0.00     0.000 HD 
HETATM   18  C   UNL     1     -10.726   6.825  68.107  1.00  0.00    -0.295 A  
HETATM   19  C   UNL     1      -5.626  10.158  66.539  1.00  0.00    -0.047 A  
HETATM   20  C   UNL     1      -6.626  10.381  67.497  1.00  0.00    -0.066 A  
HETATM   21  C   UNL     1     -11.282   6.005  66.982  1.00  0.00    -0.099 C  
HETATM   22  C   UNL     1     -10.297   8.132  67.830  1.00  0.00    -0.295 A  
ENDBRANCH   5   6
ENDBRANCH   4   5
BRANCH   4  23
HETATM   23  C   UNL     1     -11.129  11.630  64.415  1.00  0.00    -0.317 C  
HETATM   24  C   UNL     1     -12.197  12.483  63.707  1.00  0.00    -0.615 C  
HETATM   25  C   UNL     1     -10.013  11.446  63.356  1.00  0.00    -0.435 C  
ENDBRANCH   4  23
ENDBRANCH   2   4
TORSDOF 4
ENDMDL
MODEL      123
REMARK 921   NORMALIZED FREE ENERGY PREDICTED BY IDOCK:   -4.29 KCAL/MOL
REMARK 922        TOTAL FREE ENERGY PREDICTED BY IDOCK:   -6.14 KCAL/MOL
REMARK 923 INTER-LIGAND FREE ENERGY PREDICTED BY IDOCK:   -5.65 KCAL/MOL
REMARK 924 INTRA-LIGAND FREE ENERGY PREDICTED BY IDOCK:   -0.49 KCAL/MOL
REMARK 927      BINDING AFFINITY PREDICTED BY RF-SCORE:    0.00 PKD
ROOT
HETATM    1  C   UNL     1     -12.538  10.506  71.410  1.00  0.00    -0.539 C  
HETATM    2  C   UNL     1     -11.181  10.326  70.682  1.00  0.00    -0.325 C  
HETATM    3  C   UNL     1     -11.171   8.857  70.222  1.00  0.00    -0.219 C  
ENDROOT
BRANCH   2   4
HETATM    4  N   UNL     1     -10.976  11.322  69.585  1.00  0.00    -0.197 NA 
BRANCH   4   5
HETATM    5  C   UNL     1     -10.724  10.682  68.267  1.00  0.00    -0.219 C  
BRANCH   5   6
HETATM    6  C   UNL     1      -9.302  10.165  67.974  1.00  0.00    -0.149 C  
HETATM    7  C   UNL     1      -8.452  10.990  66.954  1.00  0.00    -0.139 C  
HETATM    8  C   UNL     1      -8.157  12.449  67.350  1.00  0.00    -0.177 A  
HETATM    9  C   UNL     1      -8.874  10.829  65.482  1.00  0.00    -0.203 A  
HETATM   10  C   UNL     1      -8.151  10.105  64.521  1.00  0.00    -0.160 A  
HETATM   11  C   UNL     1      -9.144  13.449  67.401  1.00  0.00    -0.216 A  
HETATM   12  O   UNL     1      -7.032   9.366  64.783  1.00  0.00    -0.092 OA 
HETATM   13  C   UNL     1      -8.831  14.788  67.636  1.00  0.00    -0.182 A  
HETATM   14  C   UNL     1      -8.531  10.105  63.172  1.00  0.00    -0.182 A  
HETATM   15  C   UNL     1      -9.630  10.840  62.738  1.00  0.00    -0.337 A  
HETATM   16  C   UNL     1      -7.519  15.161  67.872  1.00  0.00    -0.149 A  
HETATM   17  H   UNL     1      -6.543   8.876  64.133  1.00  0.00     0.000 HD 
HETATM   18  C   UNL     1     -10.379  11.556  63.660  1.00  0.00    -0.467 A  
HETATM   19  C   UNL     1      -6.518  14.187  67.871  1.00  0.00    -0.174 A  
HETATM   20  C   UNL     1      -6.836  12.846  67.610  1.00  0.00    -0.149 A  
HETATM   21  C   UNL     1     -11.530  12.432  63.264  1.00  0.00    -0.426 C  
HETATM   22  C   UNL     1     -10.015  11.506  65.013  1.00  0.00    -0.305 A  
ENDBRANCH   5   6
ENDBRANCH   4   5
BRANCH   4  23
HETATM   23  C   UNL     1     -11.943  12.458  69.492  1.00  0.00    -0.261 C  
HETATM   24  C   UNL     1     -11.556  13.712  70.296  1.00  0.00    -0.162 C  
HETATM   25  C   UNL     1     -12.126  12.967  68.040  1.00  0.00    -0.220 C  
ENDBRANCH   4  23
ENDBRANCH   2   4
TORSDOF 4
ENDMDL
MODEL      124
REMARK 921   NORMALIZED FREE ENERGY PREDICTED BY IDOCK:   -4.29 KCAL/MOL
REMARK 922        TOTAL FREE ENERGY PREDICTED BY IDOCK:   -6.13 KCAL/MOL
REMARK 923 INTER-LIGAND FREE ENERGY PREDICTED BY IDOCK:   -5.26 KCAL/MOL
REMARK 924 INTRA-LIGAND FREE ENERGY PREDICTED BY IDOCK:   -0.87 KCAL/MOL
REMARK 927      BINDING AFFINITY PREDICTED BY RF-SCORE:    0.00 PKD
ROOT
HETATM    1  C   UNL     1      -6.722  12.022  69.157  1.00  0.00    -0.101 C  
HETATM    2  C   UNL     1      -5.705  11.380  70.136  1.00  0.00    -0.129 C  
HETATM    3  C   UNL     1      -5.276  12.528  71.068  1.00  0.00    -0.159 C  
ENDROOT
BRANCH   2   4
HETATM    4  N   UNL     1      -6.257  10.182  70.840  1.00  0.00    -0.264 NA 
BRANCH   4   5
HETATM    5  C   UNL     1      -7.382   9.548  70.103  1.00  0.00    -0.124 C  
BRANCH   5   6
HETATM    6  C   UNL     1      -8.561   8.990  70.925  1.00  0.00    -0.263 C  
HETATM    7  C   UNL     1      -9.951   8.938  70.212  1.00  0.00    -0.214 C  
HETATM    8  C   UNL     1     -10.028   8.053  68.953  1.00  0.00    -0.199 A  
HETATM    9  C   UNL     1     -10.642  10.303  70.043  1.00  0.00    -0.321 A  
HETATM   10  C   UNL     1     -11.756  10.728  70.784  1.00  0.00    -0.298 A  
HETATM   11  C   UNL     1      -9.374   8.367  67.749  1.00  0.00    -0.150 A  
HETATM   12  O   UNL     1     -12.314  10.033  71.819  1.00  0.00    -0.390 OA 
HETATM   13  C   UNL     1      -9.563   7.620  66.587  1.00  0.00    -0.271 A  
HETATM   14  C   UNL     1     -12.408  11.934  70.491  1.00  0.00    -0.372 A  
HETATM   15  C   UNL     1     -11.982  12.741  69.440  1.00  0.00    -0.321 A  
HETATM   16  C   UNL     1     -10.382   6.504  66.607  1.00  0.00    -0.217 A  
HETATM   17  H   UNL     1     -13.068  10.321  72.320  1.00  0.00     0.000 HD 
HETATM   18  C   UNL     1     -10.875  12.362  68.694  1.00  0.00    -0.273 A  
HETATM   19  C   UNL     1     -11.013   6.137  67.797  1.00  0.00    -0.400 A  
HETATM   20  C   UNL     1     -10.839   6.907  68.956  1.00  0.00    -0.247 A  
HETATM   21  C   UNL     1     -10.399  13.135  67.501  1.00  0.00    -0.225 C  
HETATM   22  C   UNL     1     -10.204  11.178  69.032  1.00  0.00    -0.194 A  
ENDBRANCH   5   6
ENDBRANCH   4   5
BRANCH   4  23
HETATM   23  C   UNL     1      -5.281   9.177  71.364  1.00  0.00    -0.042 C  
HETATM   24  C   UNL     1      -5.634   8.581  72.739  1.00  0.00    -0.063 C  
HETATM   25  C   UNL     1      -5.134   7.948  70.432  1.00  0.00    -0.023 C  
ENDBRANCH   4  23
ENDBRANCH   2   4
TORSDOF 4
ENDMDL
MODEL      125
REMARK 921   NORMALIZED FREE ENERGY PREDICTED BY IDOCK:   -4.28 KCAL/MOL
REMARK 922        TOTAL FREE ENERGY PREDICTED BY IDOCK:   -6.13 KCAL/MOL
REMARK 923 INTER-LIGAND FREE ENERGY PREDICTED BY IDOCK:   -5.51 KCAL/MOL
REMARK 924 INTRA-LIGAND FREE ENERGY PREDICTED BY IDOCK:   -0.62 KCAL/MOL
REMARK 927      BINDING AFFINITY PREDICTED BY RF-SCORE:    0.00 PKD
ROOT
HETATM    1  C   UNL     1     -13.305   9.999  72.033  1.00  0.00    -0.513 C  
HETATM    2  C   UNL     1     -12.910   8.500  72.020  1.00  0.00    -0.374 C  
HETATM    3  C   UNL     1     -14.146   7.771  71.461  1.00  0.00    -0.509 C  
ENDROOT
BRANCH   2   4
HETATM    4  N   UNL     1     -11.644   8.241  71.269  1.00  0.00    -0.275 NA 
BRANCH   4   5
HETATM    5  C   UNL     1     -11.039   9.481  70.715  1.00  0.00    -0.323 C  
BRANCH   5   6
HETATM    6  C   UNL     1     -11.406   9.883  69.273  1.00  0.00    -0.116 C  
HETATM    7  C   UNL     1     -10.289   9.717  68.193  1.00  0.00    -0.250 C  
HETATM    8  C   UNL     1      -9.775   8.281  67.973  1.00  0.00    -0.187 A  
HETATM    9  C   UNL     1      -9.164  10.765  68.258  1.00  0.00    -0.157 A  
HETATM   10  C   UNL     1      -9.002  11.816  67.341  1.00  0.00    -0.173 A  
HETATM   11  C   UNL     1      -9.016   7.580  68.927  1.00  0.00    -0.134 A  
HETATM   12  O   UNL     1      -9.871  12.108  66.329  1.00  0.00    -0.224 OA 
HETATM   13  C   UNL     1      -8.454   6.333  68.655  1.00  0.00    -0.122 A  
HETATM   14  C   UNL     1      -7.883  12.659  67.392  1.00  0.00    -0.175 A  
HETATM   15  C   UNL     1      -6.886  12.470  68.345  1.00  0.00    -0.085 A  
HETATM   16  C   UNL     1      -8.672   5.728  67.429  1.00  0.00    -0.107 A  
HETATM   17  H   UNL     1      -9.760  12.819  65.709  1.00  0.00     0.000 HD 
HETATM   18  C   UNL     1      -7.019  11.452  69.278  1.00  0.00    -0.115 A  
HETATM   19  C   UNL     1      -9.457   6.376  66.474  1.00  0.00    -0.189 A  
HETATM   20  C   UNL     1      -9.999   7.641  66.744  1.00  0.00    -0.317 A  
HETATM   21  C   UNL     1      -5.957  11.134  70.288  1.00  0.00    -0.144 C  
HETATM   22  C   UNL     1      -8.168  10.648  69.244  1.00  0.00    -0.122 A  
ENDBRANCH   5   6
ENDBRANCH   4   5
BRANCH   4  23
HETATM   23  C   UNL     1     -10.629   7.349  71.910  1.00  0.00    -0.203 C  
HETATM   24  C   UNL     1      -9.943   7.934  73.157  1.00  0.00    -0.358 C  
HETATM   25  C   UNL     1     -11.234   6.006  72.390  1.00  0.00    -0.338 C  
ENDBRANCH   4  23
ENDBRANCH   2   4
TORSDOF 4
ENDMDL
MODEL      126
REMARK 921   NORMALIZED FREE ENERGY PREDICTED BY IDOCK:   -4.24 KCAL/MOL
REMARK 922        TOTAL FREE ENERGY PREDICTED BY IDOCK:   -6.07 KCAL/MOL
REMARK 923 INTER-LIGAND FREE ENERGY PREDICTED BY IDOCK:   -5.54 KCAL/MOL
REMARK 924 INTRA-LIGAND FREE ENERGY PREDICTED BY IDOCK:   -0.53 KCAL/MOL
REMARK 927      BINDING AFFINITY PREDICTED BY RF-SCORE:    0.00 PKD
ROOT
HETATM    1  C   UNL     1      -6.368  11.459  66.134  1.00  0.00     0.088 C  
HETATM    2  C   UNL     1      -7.420  11.582  67.266  1.00  0.00    -0.139 C  
HETATM    3  C   UNL     1      -6.805  10.830  68.460  1.00  0.00    -0.062 C  
ENDROOT
BRANCH   2   4
HETATM    4  N   UNL     1      -7.798  13.000  67.554  1.00  0.00    -0.168 NA 
BRANCH   4   5
HETATM    5  C   UNL     1      -8.549  13.148  68.829  1.00  0.00     0.149 C  
BRANCH   5   6
HETATM    6  C   UNL     1      -9.939  13.812  68.776  1.00  0.00    -0.117 C  
HETATM    7  C   UNL     1     -11.142  12.892  68.389  1.00  0.00    -0.293 C  
HETATM    8  C   UNL     1     -11.418  11.711  69.340  1.00  0.00    -0.372 A  
HETATM    9  C   UNL     1     -11.208  12.506  66.901  1.00  0.00    -0.354 A  
HETATM   10  C   UNL     1     -12.138  13.023  65.985  1.00  0.00    -0.432 A  
HETATM   11  C   UNL     1     -10.558  10.606  69.467  1.00  0.00    -0.265 A  
HETATM   12  O   UNL     1     -13.043  14.007  66.265  1.00  0.00    -0.406 OA 
HETATM   13  C   UNL     1     -10.893   9.492  70.236  1.00  0.00    -0.319 A  
HETATM   14  C   UNL     1     -12.217  12.533  64.674  1.00  0.00    -0.524 A  
HETATM   15  C   UNL     1     -11.386  11.503  64.242  1.00  0.00    -0.320 A  
HETATM   16  C   UNL     1     -12.085   9.469  70.940  1.00  0.00    -0.357 A  
HETATM   17  H   UNL     1     -13.672  14.356  65.646  1.00  0.00     0.000 HD 
HETATM   18  C   UNL     1     -10.444  10.977  65.113  1.00  0.00    -0.329 A  
HETATM   19  C   UNL     1     -12.943  10.568  70.871  1.00  0.00    -0.455 A  
HETATM   20  C   UNL     1     -12.613  11.675  70.077  1.00  0.00    -0.048 A  
HETATM   21  C   UNL     1      -9.563   9.818  64.752  1.00  0.00    -0.284 C  
HETATM   22  C   UNL     1     -10.344  11.512  66.406  1.00  0.00    -0.277 A  
ENDBRANCH   5   6
ENDBRANCH   4   5
BRANCH   4  23
HETATM   23  C   UNL     1      -6.741  14.046  67.391  1.00  0.00     0.038 C  
HETATM   24  C   UNL     1      -7.267  15.476  67.180  1.00  0.00    -0.208 C  
HETATM   25  C   UNL     1      -5.812  14.150  68.626  1.00  0.00    -0.086 C  
ENDBRANCH   4  23
ENDBRANCH   2   4
TORSDOF 4
ENDMDL
MODEL      127
REMARK 921   NORMALIZED FREE ENERGY PREDICTED BY IDOCK:   -4.17 KCAL/MOL
REMARK 922        TOTAL FREE ENERGY PREDICTED BY IDOCK:   -5.99 KCAL/MOL
REMARK 923 INTER-LIGAND FREE ENERGY PREDICTED BY IDOCK:   -5.33 KCAL/MOL
REMARK 924 INTRA-LIGAND FREE ENERGY PREDICTED BY IDOCK:   -0.66 KCAL/MOL
REMARK 927      BINDING AFFINITY PREDICTED BY RF-SCORE:    0.00 PKD
ROOT
HETATM    1  C   UNL     1      -7.570  11.077  67.954  1.00  0.00    -0.095 C  
HETATM    2  C   UNL     1      -6.297  11.948  67.802  1.00  0.00    -0.077 C  
HETATM    3  C   UNL     1      -5.720  11.567  66.427  1.00  0.00    -0.061 C  
ENDROOT
BRANCH   2   4
HETATM    4  N   UNL     1      -6.568  13.408  67.979  1.00  0.00    -0.115 NA 
BRANCH   4   5
HETATM    5  C   UNL     1      -7.973  13.688  68.378  1.00  0.00    -0.147 C  
BRANCH   5   6
HETATM    6  C   UNL     1      -8.577  15.051  67.988  1.00  0.00    -0.158 C  
HETATM    7  C   UNL     1     -10.115  15.085  67.716  1.00  0.00    -0.234 C  
HETATM    8  C   UNL     1     -11.017  14.696  68.903  1.00  0.00    -0.264 A  
HETATM    9  C   UNL     1     -10.550  14.449  66.384  1.00  0.00    -0.297 A  
HETATM   10  C   UNL     1     -10.984  15.171  65.260  1.00  0.00    -0.395 A  
HETATM   11  C   UNL     1     -11.093  13.389  69.417  1.00  0.00    -0.160 A  
HETATM   12  O   UNL     1     -10.985  16.533  65.163  1.00  0.00    -0.446 OA 
HETATM   13  C   UNL     1     -12.011  13.035  70.406  1.00  0.00    -0.337 A  
HETATM   14  C   UNL     1     -11.481  14.519  64.124  1.00  0.00    -0.072 A  
HETATM   15  C   UNL     1     -11.579  13.131  64.080  1.00  0.00    -0.481 A  
HETATM   16  C   UNL     1     -12.854  13.993  70.944  1.00  0.00    -0.389 A  
HETATM   17  H   UNL     1     -11.278  17.021  64.403  1.00  0.00     0.000 HD 
HETATM   18  C   UNL     1     -11.146  12.382  65.164  1.00  0.00    -0.348 A  
HETATM   19  C   UNL     1     -12.775  15.310  70.488  1.00  0.00    -0.440 A  
HETATM   20  C   UNL     1     -11.867  15.655  69.476  1.00  0.00    -0.387 A  
HETATM   21  C   UNL     1     -11.286  10.890  65.226  1.00  0.00     0.218 C  
HETATM   22  C   UNL     1     -10.605  13.047  66.273  1.00  0.00    -0.283 A  
ENDBRANCH   5   6
ENDBRANCH   4   5
BRANCH   4  23
HETATM   23  C   UNL     1      -5.581  14.204  68.772  1.00  0.00    -0.082 C  
HETATM   24  C   UNL     1      -5.198  15.563  68.158  1.00  0.00    -0.122 C  
HETATM   25  C   UNL     1      -6.097  14.549  70.191  1.00  0.00    -0.160 C  
ENDBRANCH   4  23
ENDBRANCH   2   4
TORSDOF 4
ENDMDL
MODEL      128
REMARK 921   NORMALIZED FREE ENERGY PREDICTED BY IDOCK:   -4.14 KCAL/MOL
REMARK 922        TOTAL FREE ENERGY PREDICTED BY IDOCK:   -5.95 KCAL/MOL
REMARK 923 INTER-LIGAND FREE ENERGY PREDICTED BY IDOCK:   -5.18 KCAL/MOL
REMARK 924 INTRA-LIGAND FREE ENERGY PREDICTED BY IDOCK:   -0.76 KCAL/MOL
REMARK 927      BINDING AFFINITY PREDICTED BY RF-SCORE:    0.00 PKD
ROOT
HETATM    1  C   UNL     1     -12.400  10.603  71.315  1.00  0.00    -0.488 C  
HETATM    2  C   UNL     1     -11.450   9.554  70.682  1.00  0.00    -0.297 C  
HETATM    3  C   UNL     1     -12.042   8.192  71.085  1.00  0.00    -0.281 C  
ENDROOT
BRANCH   2   4
HETATM    4  N   UNL     1     -11.275   9.744  69.209  1.00  0.00    -0.146 NA 
BRANCH   4   5
HETATM    5  C   UNL     1     -11.356  11.172  68.800  1.00  0.00    -0.277 C  
BRANCH   5   6
HETATM    6  C   UNL     1     -10.119  12.061  69.033  1.00  0.00     0.070 C  
HETATM    7  C   UNL     1     -10.328  13.604  68.900  1.00  0.00    -0.127 C  
HETATM    8  C   UNL     1     -11.331  14.234  69.886  1.00  0.00    -0.254 A  
HETATM    9  C   UNL     1     -10.491  14.112  67.456  1.00  0.00    -0.249 A  
HETATM   10  C   UNL     1      -9.512  14.831  66.750  1.00  0.00    -0.254 A  
HETATM   11  C   UNL     1     -12.716  13.998  69.833  1.00  0.00    -0.059 A  
HETATM   12  O   UNL     1      -8.253  15.090  67.211  1.00  0.00    -0.181 OA 
HETATM   13  C   UNL     1     -13.615  14.679  70.653  1.00  0.00     0.018 A  
HETATM   14  C   UNL     1      -9.777  15.367  65.482  1.00  0.00    -0.318 A  
HETATM   15  C   UNL     1     -11.027  15.221  64.889  1.00  0.00    -0.445 A  
HETATM   16  C   UNL     1     -13.148  15.589  71.586  1.00  0.00    -0.561 A  
HETATM   17  H   UNL     1      -7.591  15.576  66.733  1.00  0.00     0.000 HD 
HETATM   18  C   UNL     1     -12.015  14.504  65.549  1.00  0.00    -0.312 A  
HETATM   19  C   UNL     1     -11.775  15.817  71.696  1.00  0.00    -0.542 A  
HETATM   20  C   UNL     1     -10.878  15.147  70.851  1.00  0.00    -0.159 A  
HETATM   21  C   UNL     1     -13.409  14.364  65.013  1.00  0.00     0.693 C  
HETATM   22  C   UNL     1     -11.719  13.931  66.794  1.00  0.00    -0.423 A  
ENDBRANCH   5   6
ENDBRANCH   4   5
BRANCH   4  23
HETATM   23  C   UNL     1     -10.144   9.025  68.548  1.00  0.00    -0.190 C  
HETATM   24  C   UNL     1      -9.045   8.522  69.501  1.00  0.00    -0.150 C  
HETATM   25  C   UNL     1     -10.608   7.759  67.785  1.00  0.00    -0.254 C  
ENDBRANCH   4  23
ENDBRANCH   2   4
TORSDOF 4
ENDMDL
MODEL      129
REMARK 921   NORMALIZED FREE ENERGY PREDICTED BY IDOCK:   -4.13 KCAL/MOL
REMARK 922        TOTAL FREE ENERGY PREDICTED BY IDOCK:   -5.93 KCAL/MOL
REMARK 923 INTER-LIGAND FREE ENERGY PREDICTED BY IDOCK:   -4.41 KCAL/MOL
REMARK 924 INTRA-LIGAND FREE ENERGY PREDICTED BY IDOCK:   -1.53 KCAL/MOL
REMARK 927      BINDING AFFINITY PREDICTED BY RF-SCORE:    0.00 PKD
ROOT
HETATM    1  C   UNL     1      -9.388   2.935  67.166  1.00  0.00    -0.151 C  
HETATM    2  C   UNL     1      -9.242   4.297  67.893  1.00  0.00    -0.142 C  
HETATM    3  C   UNL     1      -8.943   3.931  69.359  1.00  0.00    -0.171 C  
ENDROOT
BRANCH   2   4
HETATM    4  N   UNL     1      -8.225   5.188  67.256  1.00  0.00    -0.107 NA 
BRANCH   4   5
HETATM    5  C   UNL     1      -8.795   6.488  66.814  1.00  0.00    -0.129 C  
BRANCH   5   6
HETATM    6  C   UNL     1     -10.259   6.798  67.182  1.00  0.00    -0.291 C  
HETATM    7  C   UNL     1     -10.500   7.998  68.153  1.00  0.00    -0.222 C  
HETATM    8  C   UNL     1     -10.029   9.376  67.649  1.00  0.00    -0.238 A  
HETATM    9  C   UNL     1     -10.129   7.726  69.622  1.00  0.00    -0.196 A  
HETATM   10  C   UNL     1     -11.060   7.534  70.655  1.00  0.00    -0.265 A  
HETATM   11  C   UNL     1      -8.674   9.717  67.494  1.00  0.00    -0.125 A  
HETATM   12  O   UNL     1     -12.413   7.466  70.482  1.00  0.00    -0.556 OA 
HETATM   13  C   UNL     1      -8.269  11.010  67.159  1.00  0.00    -0.133 A  
HETATM   14  C   UNL     1     -10.651   7.413  71.991  1.00  0.00    -0.241 A  
HETATM   15  C   UNL     1      -9.305   7.498  72.337  1.00  0.00    -0.192 A  
HETATM   16  C   UNL     1      -9.216  11.993  66.927  1.00  0.00    -0.197 A  
HETATM   17  H   UNL     1     -13.043   7.336  71.181  1.00  0.00     0.000 HD 
HETATM   18  C   UNL     1      -8.354   7.672  71.343  1.00  0.00    -0.111 A  
HETATM   19  C   UNL     1     -10.572  11.678  67.030  1.00  0.00    -0.272 A  
HETATM   20  C   UNL     1     -10.972  10.383  67.390  1.00  0.00    -0.335 A  
HETATM   21  C   UNL     1      -6.895   7.848  71.639  1.00  0.00    -0.057 C  
HETATM   22  C   UNL     1      -8.776   7.741  70.007  1.00  0.00    -0.141 A  
ENDBRANCH   5   6
ENDBRANCH   4   5
BRANCH   4  23
HETATM   23  C   UNL     1      -6.912   5.349  67.952  1.00  0.00    -0.065 C  
HETATM   24  C   UNL     1      -5.815   4.363  67.513  1.00  0.00    -0.023 C  
HETATM   25  C   UNL     1      -6.288   6.750  67.731  1.00  0.00    -0.048 C  
ENDBRANCH   4  23
ENDBRANCH   2   4
TORSDOF 4
ENDMDL
MODEL      130
REMARK 921   NORMALIZED FREE ENERGY PREDICTED BY IDOCK:   -4.12 KCAL/MOL
REMARK 922        TOTAL FREE ENERGY PREDICTED BY IDOCK:   -5.93 KCAL/MOL
REMARK 923 INTER-LIGAND FREE ENERGY PREDICTED BY IDOCK:   -5.05 KCAL/MOL
REMARK 924 INTRA-LIGAND FREE ENERGY PREDICTED BY IDOCK:   -0.87 KCAL/MOL
REMARK 927      BINDING AFFINITY PREDICTED BY RF-SCORE:    0.00 PKD
ROOT
HETATM    1  C   UNL     1      -9.986  13.849  66.372  1.00  0.00    -0.303 C  
HETATM    2  C   UNL     1     -11.336  13.431  67.009  1.00  0.00    -0.317 C  
HETATM    3  C   UNL     1     -12.327  13.376  65.832  1.00  0.00    -0.493 C  
ENDROOT
BRANCH   2   4
HETATM    4  N   UNL     1     -11.237  12.164  67.796  1.00  0.00    -0.256 NA 
BRANCH   4   5
HETATM    5  C   UNL     1     -10.101  11.306  67.366  1.00  0.00    -0.188 C  
BRANCH   5   6
HETATM    6  C   UNL     1      -8.794  11.375  68.181  1.00  0.00    -0.162 C  
HETATM    7  C   UNL     1      -8.034  10.028  68.405  1.00  0.00    -0.097 C  
HETATM    8  C   UNL     1      -7.546   9.312  67.131  1.00  0.00    -0.091 A  
HETATM    9  C   UNL     1      -8.687   9.080  69.427  1.00  0.00    -0.142 A  
HETATM   10  C   UNL     1      -8.188   8.836  70.717  1.00  0.00    -0.156 A  
HETATM   11  C   UNL     1      -8.416   8.716  66.201  1.00  0.00    -0.140 A  
HETATM   12  O   UNL     1      -7.118   9.476  71.273  1.00  0.00    -0.313 OA 
HETATM   13  C   UNL     1      -7.946   7.963  65.125  1.00  0.00    -0.132 A  
HETATM   14  C   UNL     1      -8.767   7.867  71.548  1.00  0.00    -0.150 A  
HETATM   15  C   UNL     1      -9.845   7.101  71.114  1.00  0.00    -0.180 A  
HETATM   16  C   UNL     1      -6.584   7.820  64.922  1.00  0.00    -0.047 A  
HETATM   17  H   UNL     1      -6.781   9.311  72.145  1.00  0.00     0.000 HD 
HETATM   18  C   UNL     1     -10.375   7.324  69.851  1.00  0.00    -0.226 A  
HETATM   19  C   UNL     1      -5.691   8.434  65.802  1.00  0.00    -0.043 A  
HETATM   20  C   UNL     1      -6.169   9.170  66.896  1.00  0.00    -0.062 A  
HETATM   21  C   UNL     1     -11.485   6.493  69.280  1.00  0.00    -0.307 C  
HETATM   22  C   UNL     1      -9.817   8.331  69.051  1.00  0.00    -0.176 A  
ENDBRANCH   5   6
ENDBRANCH   4   5
BRANCH   4  23
HETATM   23  C   UNL     1     -11.344  12.263  69.284  1.00  0.00    -0.256 C  
HETATM   24  C   UNL     1     -12.045  13.531  69.804  1.00  0.00    -0.381 C  
HETATM   25  C   UNL     1     -12.147  11.092  69.904  1.00  0.00    -0.435 C  
ENDBRANCH   4  23
ENDBRANCH   2   4
TORSDOF 4
ENDMDL
MODEL      131
REMARK 921   NORMALIZED FREE ENERGY PREDICTED BY IDOCK:   -4.12 KCAL/MOL
REMARK 922        TOTAL FREE ENERGY PREDICTED BY IDOCK:   -5.92 KCAL/MOL
REMARK 923 INTER-LIGAND FREE ENERGY PREDICTED BY IDOCK:   -4.70 KCAL/MOL
REMARK 924 INTRA-LIGAND FREE ENERGY PREDICTED BY IDOCK:   -1.22 KCAL/MOL
REMARK 927      BINDING AFFINITY PREDICTED BY RF-SCORE:    0.00 PKD
ROOT
HETATM    1  C   UNL     1     -10.028   5.298  68.006  1.00  0.00    -0.202 C  
HETATM    2  C   UNL     1      -9.776   6.058  69.333  1.00  0.00    -0.142 C  
HETATM    3  C   UNL     1      -8.529   5.388  69.940  1.00  0.00    -0.103 C  
ENDROOT
BRANCH   2   4
HETATM    4  N   UNL     1      -9.655   7.536  69.141  1.00  0.00    -0.157 NA 
BRANCH   4   5
HETATM    5  C   UNL     1     -10.226   7.997  67.848  1.00  0.00    -0.212 C  
BRANCH   5   6
HETATM    6  C   UNL     1     -10.860   9.401  67.797  1.00  0.00    -0.223 C  
HETATM    7  C   UNL     1     -10.062  10.504  67.032  1.00  0.00    -0.259 C  
HETATM    8  C   UNL     1      -9.818  10.240  65.533  1.00  0.00    -0.347 A  
HETATM    9  C   UNL     1      -8.818  11.032  67.769  1.00  0.00    -0.133 A  
HETATM   10  C   UNL     1      -8.729  12.294  68.378  1.00  0.00    -0.139 A  
HETATM   11  C   UNL     1      -8.963   9.231  65.058  1.00  0.00    -0.245 A  
HETATM   12  O   UNL     1      -9.761  13.182  68.484  1.00  0.00    -0.307 OA 
HETATM   13  C   UNL     1      -8.659   9.095  63.703  1.00  0.00    -0.180 A  
HETATM   14  C   UNL     1      -7.523  12.754  68.925  1.00  0.00     0.022 A  
HETATM   15  C   UNL     1      -6.368  11.980  68.865  1.00  0.00    -0.081 A  
HETATM   16  C   UNL     1      -9.240   9.943  62.775  1.00  0.00    -0.292 A  
HETATM   17  H   UNL     1      -9.701  14.035  68.896  1.00  0.00     0.000 HD 
HETATM   18  C   UNL     1      -6.420  10.721  68.285  1.00  0.00    -0.058 A  
HETATM   19  C   UNL     1     -10.128  10.929  63.208  1.00  0.00    -0.368 A  
HETATM   20  C   UNL     1     -10.410  11.076  64.574  1.00  0.00    -0.420 A  
HETATM   21  C   UNL     1      -5.206   9.858  68.113  1.00  0.00    -0.036 C  
HETATM   22  C   UNL     1      -7.645  10.255  67.787  1.00  0.00    -0.089 A  
ENDBRANCH   5   6
ENDBRANCH   4   5
BRANCH   4  23
HETATM   23  C   UNL     1     -10.049   8.417  70.284  1.00  0.00    -0.189 C  
HETATM   24  C   UNL     1     -10.794   7.706  71.427  1.00  0.00    -0.250 C  
HETATM   25  C   UNL     1      -8.830   9.085  70.968  1.00  0.00    -0.291 C  
ENDBRANCH   4  23
ENDBRANCH   2   4
TORSDOF 4
ENDMDL
MODEL      132
REMARK 921   NORMALIZED FREE ENERGY PREDICTED BY IDOCK:   -4.10 KCAL/MOL
REMARK 922        TOTAL FREE ENERGY PREDICTED BY IDOCK:   -5.90 KCAL/MOL
REMARK 923 INTER-LIGAND FREE ENERGY PREDICTED BY IDOCK:   -4.58 KCAL/MOL
REMARK 924 INTRA-LIGAND FREE ENERGY PREDICTED BY IDOCK:   -1.32 KCAL/MOL
REMARK 927      BINDING AFFINITY PREDICTED BY RF-SCORE:    0.00 PKD
ROOT
HETATM    1  C   UNL     1      -9.512   6.763  67.166  1.00  0.00    -0.167 C  
HETATM    2  C   UNL     1      -8.444   7.168  66.118  1.00  0.00    -0.142 C  
HETATM    3  C   UNL     1      -8.326   5.949  65.184  1.00  0.00    -0.143 C  
ENDROOT
BRANCH   2   4
HETATM    4  N   UNL     1      -8.769   8.452  65.425  1.00  0.00    -0.167 NA 
BRANCH   4   5
HETATM    5  C   UNL     1      -9.683   9.318  66.216  1.00  0.00    -0.271 C  
BRANCH   5   6
HETATM    6  C   UNL     1      -9.581  10.844  66.024  1.00  0.00    -0.248 C  
HETATM    7  C   UNL     1      -9.162  11.682  67.274  1.00  0.00    -0.170 C  
HETATM    8  C   UNL     1      -7.772  11.368  67.860  1.00  0.00    -0.114 A  
HETATM    9  C   UNL     1     -10.256  11.835  68.346  1.00  0.00    -0.208 A  
HETATM   10  C   UNL     1     -10.972  13.018  68.591  1.00  0.00    -0.265 A  
HETATM   11  C   UNL     1      -7.465  10.161  68.513  1.00  0.00    -0.086 A  
HETATM   12  O   UNL     1     -10.865  14.160  67.849  1.00  0.00    -0.240 OA 
HETATM   13  C   UNL     1      -6.240   9.952  69.146  1.00  0.00    -0.044 A  
HETATM   14  C   UNL     1     -11.867  13.118  69.665  1.00  0.00    -0.390 A  
HETATM   15  C   UNL     1     -12.061  12.051  70.537  1.00  0.00    -0.402 A  
HETATM   16  C   UNL     1      -5.264  10.933  69.107  1.00  0.00    -0.041 A  
HETATM   17  H   UNL     1     -11.349  14.960  68.014  1.00  0.00     0.000 HD 
HETATM   18  C   UNL     1     -11.383  10.860  70.320  1.00  0.00    -0.342 A  
HETATM   19  C   UNL     1      -5.519  12.127  68.430  1.00  0.00    -0.054 A  
HETATM   20  C   UNL     1      -6.761  12.341  67.816  1.00  0.00    -0.107 A  
HETATM   21  C   UNL     1     -11.479   9.691  71.254  1.00  0.00    -0.463 C  
HETATM   22  C   UNL     1     -10.529  10.759  69.212  1.00  0.00    -0.243 A  
ENDBRANCH   5   6
ENDBRANCH   4   5
BRANCH   4  23
HETATM   23  C   UNL     1      -7.636   9.221  64.823  1.00  0.00    -0.109 C  
HETATM   24  C   UNL     1      -6.234   8.770  65.269  1.00  0.00    -0.060 C  
HETATM   25  C   UNL     1      -7.604   9.123  63.277  1.00  0.00    -0.107 C  
ENDBRANCH   4  23
ENDBRANCH   2   4
TORSDOF 4
ENDMDL
MODEL      133
REMARK 921   NORMALIZED FREE ENERGY PREDICTED BY IDOCK:   -4.09 KCAL/MOL
REMARK 922        TOTAL FREE ENERGY PREDICTED BY IDOCK:   -5.89 KCAL/MOL
REMARK 923 INTER-LIGAND FREE ENERGY PREDICTED BY IDOCK:   -4.97 KCAL/MOL
REMARK 924 INTRA-LIGAND FREE ENERGY PREDICTED BY IDOCK:   -0.92 KCAL/MOL
REMARK 927      BINDING AFFINITY PREDICTED BY RF-SCORE:    0.00 PKD
ROOT
HETATM    1  C   UNL     1     -12.170   8.945  71.028  1.00  0.00    -0.248 C  
HETATM    2  C   UNL     1     -12.545   7.668  71.822  1.00  0.00    -0.331 C  
HETATM    3  C   UNL     1     -14.041   7.449  71.535  1.00  0.00    -0.541 C  
ENDROOT
BRANCH   2   4
HETATM    4  N   UNL     1     -11.672   6.501  71.488  1.00  0.00    -0.312 NA 
BRANCH   4   5
HETATM    5  C   UNL     1     -10.961   6.666  70.192  1.00  0.00    -0.305 C  
BRANCH   5   6
HETATM    6  C   UNL     1      -9.437   6.890  70.227  1.00  0.00    -0.162 C  
HETATM    7  C   UNL     1      -8.747   7.240  68.869  1.00  0.00    -0.128 C  
HETATM    8  C   UNL     1      -9.218   8.542  68.192  1.00  0.00    -0.142 A  
HETATM    9  C   UNL     1      -8.607   6.059  67.892  1.00  0.00    -0.113 A  
HETATM   10  C   UNL     1      -7.400   5.405  67.602  1.00  0.00    -0.076 A  
HETATM   11  C   UNL     1     -10.498   8.700  67.632  1.00  0.00    -0.311 A  
HETATM   12  O   UNL     1      -6.208   5.661  68.218  1.00  0.00    -0.027 OA 
HETATM   13  C   UNL     1     -10.856   9.840  66.912  1.00  0.00    -0.120 A  
HETATM   14  C   UNL     1      -7.327   4.418  66.609  1.00  0.00    -0.081 A  
HETATM   15  C   UNL     1      -8.449   4.067  65.865  1.00  0.00    -0.109 A  
HETATM   16  C   UNL     1      -9.953  10.879  66.767  1.00  0.00    -0.245 A  
HETATM   17  H   UNL     1      -5.391   5.218  68.022  1.00  0.00     0.000 HD 
HETATM   18  C   UNL     1      -9.664   4.680  66.132  1.00  0.00    -0.211 A  
HETATM   19  C   UNL     1      -8.687  10.774  67.347  1.00  0.00    -0.126 A  
HETATM   20  C   UNL     1      -8.325   9.615  68.049  1.00  0.00    -0.117 A  
HETATM   21  C   UNL     1     -10.901   4.414  65.327  1.00  0.00    -0.088 C  
HETATM   22  C   UNL     1      -9.731   5.630  67.162  1.00  0.00    -0.151 A  
ENDBRANCH   5   6
ENDBRANCH   4   5
BRANCH   4  23
HETATM   23  C   UNL     1     -10.777   5.974  72.564  1.00  0.00    -0.227 C  
HETATM   24  C   UNL     1     -10.485   6.961  73.709  1.00  0.00    -0.390 C  
HETATM   25  C   UNL     1     -11.363   4.724  73.267  1.00  0.00    -0.408 C  
ENDBRANCH   4  23
ENDBRANCH   2   4
TORSDOF 4
ENDMDL
MODEL      134
REMARK 921   NORMALIZED FREE ENERGY PREDICTED BY IDOCK:   -4.06 KCAL/MOL
REMARK 922        TOTAL FREE ENERGY PREDICTED BY IDOCK:   -5.85 KCAL/MOL
REMARK 923 INTER-LIGAND FREE ENERGY PREDICTED BY IDOCK:   -5.00 KCAL/MOL
REMARK 924 INTRA-LIGAND FREE ENERGY PREDICTED BY IDOCK:   -0.85 KCAL/MOL
REMARK 927      BINDING AFFINITY PREDICTED BY RF-SCORE:    0.00 PKD
ROOT
HETATM    1  C   UNL     1      -9.878  12.726  68.238  1.00  0.00    -0.224 C  
HETATM    2  C   UNL     1     -11.412  12.501  68.243  1.00  0.00    -0.308 C  
HETATM    3  C   UNL     1     -11.803  12.416  66.756  1.00  0.00    -0.385 C  
ENDROOT
BRANCH   2   4
HETATM    4  N   UNL     1     -11.822  11.319  69.061  1.00  0.00    -0.335 NA 
BRANCH   4   5
HETATM    5  C   UNL     1     -10.981  10.120  68.802  1.00  0.00    -0.223 C  
BRANCH   5   6
HETATM    6  C   UNL     1      -9.833   9.816  69.785  1.00  0.00    -0.262 C  
HETATM    7  C   UNL     1      -8.675   8.912  69.253  1.00  0.00    -0.138 C  
HETATM    8  C   UNL     1      -7.889   9.466  68.048  1.00  0.00    -0.091 A  
HETATM    9  C   UNL     1      -9.028   7.420  69.117  1.00  0.00    -0.135 A  
HETATM   10  C   UNL     1      -8.562   6.411  69.974  1.00  0.00    -0.135 A  
HETATM   11  C   UNL     1      -8.439   9.592  66.761  1.00  0.00    -0.129 A  
HETATM   12  O   UNL     1      -7.814   6.626  71.097  1.00  0.00    -0.099 OA 
HETATM   13  C   UNL     1      -7.671   9.974  65.661  1.00  0.00    -0.136 A  
HETATM   14  C   UNL     1      -8.826   5.058  69.717  1.00  0.00    -0.125 A  
HETATM   15  C   UNL     1      -9.546   4.671  68.590  1.00  0.00    -0.226 A  
HETATM   16  C   UNL     1      -6.332  10.285  65.826  1.00  0.00    -0.111 A  
HETATM   17  H   UNL     1      -7.498   5.943  71.676  1.00  0.00     0.000 HD 
HETATM   18  C   UNL     1     -10.037   5.640  67.728  1.00  0.00    -0.209 A  
HETATM   19  C   UNL     1      -5.763  10.212  67.099  1.00  0.00    -0.046 A  
HETATM   20  C   UNL     1      -6.534   9.804  68.197  1.00  0.00    -0.056 A  
HETATM   21  C   UNL     1     -10.756   5.305  66.456  1.00  0.00    -0.290 C  
HETATM   22  C   UNL     1      -9.807   6.991  68.027  1.00  0.00    -0.156 A  
ENDBRANCH   5   6
ENDBRANCH   4   5
BRANCH   4  23
HETATM   23  C   UNL     1     -12.067  11.537  70.520  1.00  0.00    -0.378 C  
HETATM   24  C   UNL     1     -12.629  12.923  70.886  1.00  0.00    -0.355 C  
HETATM   25  C   UNL     1     -13.089  10.534  71.110  1.00  0.00    -0.450 C  
ENDBRANCH   4  23
ENDBRANCH   2   4
TORSDOF 4
ENDMDL
MODEL      135
REMARK 921   NORMALIZED FREE ENERGY PREDICTED BY IDOCK:   -4.04 KCAL/MOL
REMARK 922        TOTAL FREE ENERGY PREDICTED BY IDOCK:   -5.83 KCAL/MOL
REMARK 923 INTER-LIGAND FREE ENERGY PREDICTED BY IDOCK:   -4.68 KCAL/MOL
REMARK 924 INTRA-LIGAND FREE ENERGY PREDICTED BY IDOCK:   -1.14 KCAL/MOL
REMARK 927      BINDING AFFINITY PREDICTED BY RF-SCORE:    0.00 PKD
ROOT
HETATM    1  C   UNL     1      -7.371  10.457  65.766  1.00  0.00    -0.147 C  
HETATM    2  C   UNL     1      -8.592  10.753  64.857  1.00  0.00    -0.092 C  
HETATM    3  C   UNL     1      -8.637   9.579  63.862  1.00  0.00    -0.226 C  
ENDROOT
BRANCH   2   4
HETATM    4  N   UNL     1      -9.854  10.960  65.632  1.00  0.00    -0.228 NA 
BRANCH   4   5
HETATM    5  C   UNL     1      -9.901  10.155  66.882  1.00  0.00    -0.195 C  
BRANCH   5   6
HETATM    6  C   UNL     1     -10.900   8.983  66.950  1.00  0.00    -0.002 C  
HETATM    7  C   UNL     1     -10.414   7.688  67.676  1.00  0.00    -0.313 C  
HETATM    8  C   UNL     1     -10.050   7.848  69.165  1.00  0.00    -0.197 A  
HETATM    9  C   UNL     1      -9.396   6.847  66.885  1.00  0.00    -0.177 A  
HETATM   10  C   UNL     1      -9.687   5.621  66.266  1.00  0.00    -0.135 A  
HETATM   11  C   UNL     1      -8.929   8.571  69.611  1.00  0.00    -0.145 A  
HETATM   12  O   UNL     1     -10.930   5.058  66.198  1.00  0.00    -0.597 OA 
HETATM   13  C   UNL     1      -8.548   8.593  70.952  1.00  0.00    -0.204 A  
HETATM   14  C   UNL     1      -8.680   4.851  65.668  1.00  0.00    -0.135 A  
HETATM   15  C   UNL     1      -7.352   5.270  65.685  1.00  0.00    -0.076 A  
HETATM   16  C   UNL     1      -9.307   7.926  71.899  1.00  0.00    -0.204 A  
HETATM   17  H   UNL     1     -11.126   4.229  65.779  1.00  0.00     0.000 HD 
HETATM   18  C   UNL     1      -7.028   6.483  66.274  1.00  0.00    -0.066 A  
HETATM   19  C   UNL     1     -10.451   7.235  71.497  1.00  0.00    -0.220 A  
HETATM   20  C   UNL     1     -10.815   7.195  70.144  1.00  0.00    -0.279 A  
HETATM   21  C   UNL     1      -5.615   6.971  66.401  1.00  0.00    -0.023 C  
HETATM   22  C   UNL     1      -8.054   7.265  66.824  1.00  0.00    -0.119 A  
ENDBRANCH   5   6
ENDBRANCH   4   5
BRANCH   4  23
HETATM   23  C   UNL     1     -10.315  12.366  65.842  1.00  0.00    -0.257 C  
HETATM   24  C   UNL     1      -9.309  13.280  66.565  1.00  0.00    -0.221 C  
HETATM   25  C   UNL     1     -10.621  13.098  64.512  1.00  0.00    -0.425 C  
ENDBRANCH   4  23
ENDBRANCH   2   4
TORSDOF 4
ENDMDL
MODEL      136
REMARK 921   NORMALIZED FREE ENERGY PREDICTED BY IDOCK:   -4.04 KCAL/MOL
REMARK 922        TOTAL FREE ENERGY PREDICTED BY IDOCK:   -5.83 KCAL/MOL
REMARK 923 INTER-LIGAND FREE ENERGY PREDICTED BY IDOCK:   -4.78 KCAL/MOL
REMARK 924 INTRA-LIGAND FREE ENERGY PREDICTED BY IDOCK:   -1.05 KCAL/MOL
REMARK 927      BINDING AFFINITY PREDICTED BY RF-SCORE:    0.00 PKD
ROOT
HETATM    1  C   UNL     1      -7.613  10.173  69.871  1.00  0.00    -0.174 C  
HETATM    2  C   UNL     1      -6.559  11.306  69.779  1.00  0.00    -0.130 C  
HETATM    3  C   UNL     1      -5.201  10.592  69.914  1.00  0.00    -0.039 C  
ENDROOT
BRANCH   2   4
HETATM    4  N   UNL     1      -6.704  12.135  68.543  1.00  0.00    -0.066 NA 
BRANCH   4   5
HETATM    5  C   UNL     1      -7.755  11.620  67.625  1.00  0.00    -0.133 C  
BRANCH   5   6
HETATM    6  C   UNL     1      -7.344  11.266  66.183  1.00  0.00     0.058 C  
HETATM    7  C   UNL     1      -8.405  10.516  65.315  1.00  0.00    -0.155 C  
HETATM    8  C   UNL     1      -9.725  11.273  65.065  1.00  0.00    -0.293 A  
HETATM    9  C   UNL     1      -8.610   9.035  65.680  1.00  0.00    -0.187 A  
HETATM   10  C   UNL     1      -8.155   7.955  64.907  1.00  0.00    -0.144 A  
HETATM   11  C   UNL     1     -10.669  11.530  66.074  1.00  0.00    -0.332 A  
HETATM   12  O   UNL     1      -7.388   8.070  63.783  1.00  0.00    -0.090 OA 
HETATM   13  C   UNL     1     -11.911  12.101  65.798  1.00  0.00    -0.342 A  
HETATM   14  C   UNL     1      -8.485   6.633  65.238  1.00  0.00    -0.078 A  
HETATM   15  C   UNL     1      -9.292   6.351  66.337  1.00  0.00    -0.176 A  
HETATM   16  C   UNL     1     -12.229  12.474  64.503  1.00  0.00    -0.528 A  
HETATM   17  H   UNL     1      -7.080   7.339  63.261  1.00  0.00     0.000 HD 
HETATM   18  C   UNL     1      -9.749   7.390  67.133  1.00  0.00    -0.223 A  
HETATM   19  C   UNL     1     -11.298  12.273  63.483  1.00  0.00    -0.549 A  
HETATM   20  C   UNL     1     -10.060  11.676  63.762  1.00  0.00    -0.416 A  
HETATM   21  C   UNL     1     -10.681   7.178  68.288  1.00  0.00    -0.202 C  
HETATM   22  C   UNL     1      -9.368   8.703  66.817  1.00  0.00    -0.229 A  
ENDBRANCH   5   6
ENDBRANCH   4   5
BRANCH   4  23
HETATM   23  C   UNL     1      -6.771  13.619  68.709  1.00  0.00    -0.104 C  
HETATM   24  C   UNL     1      -5.846  14.421  67.777  1.00  0.00    -0.093 C  
HETATM   25  C   UNL     1      -8.186  14.187  68.437  1.00  0.00    -0.149 C  
ENDBRANCH   4  23
ENDBRANCH   2   4
TORSDOF 4
ENDMDL
MODEL      137
REMARK 921   NORMALIZED FREE ENERGY PREDICTED BY IDOCK:   -4.04 KCAL/MOL
REMARK 922        TOTAL FREE ENERGY PREDICTED BY IDOCK:   -5.82 KCAL/MOL
REMARK 923 INTER-LIGAND FREE ENERGY PREDICTED BY IDOCK:   -4.85 KCAL/MOL
REMARK 924 INTRA-LIGAND FREE ENERGY PREDICTED BY IDOCK:   -0.97 KCAL/MOL
REMARK 927      BINDING AFFINITY PREDICTED BY RF-SCORE:    0.00 PKD
ROOT
HETATM    1  C   UNL     1     -11.847  11.101  69.694  1.00  0.00    -0.419 C  
HETATM    2  C   UNL     1     -11.664  12.254  68.674  1.00  0.00    -0.328 C  
HETATM    3  C   UNL     1     -11.623  13.534  69.529  1.00  0.00    -0.355 C  
ENDROOT
BRANCH   2   4
HETATM    4  N   UNL     1     -10.475  12.061  67.788  1.00  0.00    -0.199 NA 
BRANCH   4   5
HETATM    5  C   UNL     1      -9.921  10.683  67.860  1.00  0.00    -0.166 C  
BRANCH   5   6
HETATM    6  C   UNL     1      -8.390  10.522  67.946  1.00  0.00    -0.115 C  
HETATM    7  C   UNL     1      -7.731   9.529  66.936  1.00  0.00    -0.098 C  
HETATM    8  C   UNL     1      -7.906   9.873  65.443  1.00  0.00    -0.132 A  
HETATM    9  C   UNL     1      -7.961   8.040  67.250  1.00  0.00    -0.121 A  
HETATM   10  C   UNL     1      -6.979   7.173  67.756  1.00  0.00    -0.076 A  
HETATM   11  C   UNL     1      -9.141   9.800  64.776  1.00  0.00    -0.290 A  
HETATM   12  O   UNL     1      -5.721   7.553  68.129  1.00  0.00    -0.025 OA 
HETATM   13  C   UNL     1      -9.250   9.991  63.398  1.00  0.00    -0.317 A  
HETATM   14  C   UNL     1      -7.226   5.801  67.903  1.00  0.00    -0.072 A  
HETATM   15  C   UNL     1      -8.449   5.250  67.533  1.00  0.00    -0.105 A  
HETATM   16  C   UNL     1      -8.127  10.305  62.652  1.00  0.00    -0.164 A  
HETATM   17  H   UNL     1      -5.057   6.967  68.471  1.00  0.00     0.000 HD 
HETATM   18  C   UNL     1      -9.450   6.077  67.043  1.00  0.00    -0.137 A  
HETATM   19  C   UNL     1      -6.892  10.428  63.289  1.00  0.00    -0.050 A  
HETATM   20  C   UNL     1      -6.784  10.211  64.671  1.00  0.00    -0.120 A  
HETATM   21  C   UNL     1     -10.767   5.553  66.553  1.00  0.00    -0.309 C  
HETATM   22  C   UNL     1      -9.204   7.454  66.950  1.00  0.00    -0.183 A  
ENDBRANCH   5   6
ENDBRANCH   4   5
BRANCH   4  23
HETATM   23  C   UNL     1     -10.569  12.564  66.383  1.00  0.00    -0.247 C  
HETATM   24  C   UNL     1     -12.002  12.717  65.841  1.00  0.00    -0.506 C  
HETATM   25  C   UNL     1      -9.934  13.966  66.208  1.00  0.00    -0.315 C  
ENDBRANCH   4  23
ENDBRANCH   2   4
TORSDOF 4
ENDMDL
MODEL      138
REMARK 921   NORMALIZED FREE ENERGY PREDICTED BY IDOCK:   -4.01 KCAL/MOL
REMARK 922        TOTAL FREE ENERGY PREDICTED BY IDOCK:   -5.79 KCAL/MOL
REMARK 923 INTER-LIGAND FREE ENERGY PREDICTED BY IDOCK:   -4.67 KCAL/MOL
REMARK 924 INTRA-LIGAND FREE ENERGY PREDICTED BY IDOCK:   -1.13 KCAL/MOL
REMARK 927      BINDING AFFINITY PREDICTED BY RF-SCORE:    0.00 PKD
ROOT
HETATM    1  C   UNL     1      -8.816   8.957  71.001  1.00  0.00    -0.285 C  
HETATM    2  C   UNL     1     -10.089   9.626  70.422  1.00  0.00    -0.276 C  
HETATM    3  C   UNL     1      -9.607  10.366  69.160  1.00  0.00    -0.226 C  
ENDROOT
BRANCH   2   4
HETATM    4  N   UNL     1     -11.198   8.651  70.184  1.00  0.00    -0.200 NA 
BRANCH   4   5
HETATM    5  C   UNL     1     -10.709   7.321  69.732  1.00  0.00    -0.239 C  
BRANCH   5   6
HETATM    6  C   UNL     1     -10.868   6.961  68.242  1.00  0.00    -0.244 C  
HETATM    7  C   UNL     1      -9.680   6.195  67.575  1.00  0.00    -0.126 C  
HETATM    8  C   UNL     1      -9.348   4.815  68.175  1.00  0.00    -0.172 A  
HETATM    9  C   UNL     1      -8.435   7.054  67.292  1.00  0.00    -0.121 A  
HETATM   10  C   UNL     1      -8.037   7.482  66.015  1.00  0.00    -0.123 A  
HETATM   11  C   UNL     1      -8.794   4.646  69.456  1.00  0.00    -0.121 A  
HETATM   12  O   UNL     1      -8.750   7.279  64.868  1.00  0.00    -0.357 OA 
HETATM   13  C   UNL     1      -8.383   3.398  69.925  1.00  0.00    -0.081 A  
HETATM   14  C   UNL     1      -6.824   8.159  65.820  1.00  0.00    -0.063 A  
HETATM   15  C   UNL     1      -5.966   8.411  66.886  1.00  0.00    -0.053 A  
HETATM   16  C   UNL     1      -8.555   2.271  69.139  1.00  0.00    -0.111 A  
HETATM   17  H   UNL     1      -8.480   7.569  64.005  1.00  0.00     0.000 HD 
HETATM   18  C   UNL     1      -6.331   8.018  68.164  1.00  0.00    -0.054 A  
HETATM   19  C   UNL     1      -9.142   2.397  67.879  1.00  0.00    -0.226 A  
HETATM   20  C   UNL     1      -9.531   3.658  67.402  1.00  0.00    -0.238 A  
HETATM   21  C   UNL     1      -5.432   8.185  69.352  1.00  0.00    -0.030 C  
HETATM   22  C   UNL     1      -7.570   7.387  68.350  1.00  0.00    -0.114 A  
ENDBRANCH   5   6
ENDBRANCH   4   5
BRANCH   4  23
HETATM   23  C   UNL     1     -12.260   8.542  71.231  1.00  0.00    -0.277 C  
HETATM   24  C   UNL     1     -11.798   7.928  72.565  1.00  0.00    -0.390 C  
HETATM   25  C   UNL     1     -12.856   9.918  71.620  1.00  0.00    -0.537 C  
ENDBRANCH   4  23
ENDBRANCH   2   4
TORSDOF 4
ENDMDL
MODEL      139
REMARK 921   NORMALIZED FREE ENERGY PREDICTED BY IDOCK:   -4.00 KCAL/MOL
REMARK 922        TOTAL FREE ENERGY PREDICTED BY IDOCK:   -5.78 KCAL/MOL
REMARK 923 INTER-LIGAND FREE ENERGY PREDICTED BY IDOCK:   -5.11 KCAL/MOL
REMARK 924 INTRA-LIGAND FREE ENERGY PREDICTED BY IDOCK:   -0.67 KCAL/MOL
REMARK 927      BINDING AFFINITY PREDICTED BY RF-SCORE:    0.00 PKD
ROOT
HETATM    1  C   UNL     1     -13.385  15.668  71.354  1.00  0.00    -0.512 C  
HETATM    2  C   UNL     1     -12.303  15.088  70.408  1.00  0.00    -0.348 C  
HETATM    3  C   UNL     1     -10.966  15.370  71.118  1.00  0.00    -0.277 C  
ENDROOT
BRANCH   2   4
HETATM    4  N   UNL     1     -12.537  13.649  70.073  1.00  0.00    -0.186 NA 
BRANCH   4   5
HETATM    5  C   UNL     1     -11.994  13.273  68.740  1.00  0.00    -0.300 C  
BRANCH   5   6
HETATM    6  C   UNL     1     -10.926  14.188  68.110  1.00  0.00    -0.264 C  
HETATM    7  C   UNL     1     -10.039  13.561  66.987  1.00  0.00    -0.244 C  
HETATM    8  C   UNL     1     -10.788  13.078  65.730  1.00  0.00    -0.292 A  
HETATM    9  C   UNL     1      -8.974  12.567  67.484  1.00  0.00    -0.185 A  
HETATM   10  C   UNL     1      -7.597  12.835  67.534  1.00  0.00    -0.162 A  
HETATM   11  C   UNL     1     -11.652  11.969  65.726  1.00  0.00    -0.353 A  
HETATM   12  O   UNL     1      -7.027  14.041  67.244  1.00  0.00    -0.334 OA 
HETATM   13  C   UNL     1     -12.216  11.474  64.550  1.00  0.00     0.232 A  
HETATM   14  C   UNL     1      -6.674  11.838  67.882  1.00  0.00    -0.072 A  
HETATM   15  C   UNL     1      -7.094  10.543  68.171  1.00  0.00    -0.082 A  
HETATM   16  C   UNL     1     -11.966  12.105  63.343  1.00  0.00    -0.578 A  
HETATM   17  H   UNL     1      -6.095  14.222  67.278  1.00  0.00     0.000 HD 
HETATM   18  C   UNL     1      -8.448  10.243  68.147  1.00  0.00    -0.123 A  
HETATM   19  C   UNL     1     -11.147  13.235  63.316  1.00  0.00     0.525 A  
HETATM   20  C   UNL     1     -10.562  13.714  64.498  1.00  0.00    -0.428 A  
HETATM   21  C   UNL     1      -8.976   8.858  68.372  1.00  0.00    -0.134 C  
HETATM   22  C   UNL     1      -9.362  11.264  67.846  1.00  0.00    -0.161 A  
ENDBRANCH   5   6
ENDBRANCH   4   5
BRANCH   4  23
HETATM   23  C   UNL     1     -12.221  12.633  71.124  1.00  0.00     0.008 C  
HETATM   24  C   UNL     1     -13.411  12.218  72.007  1.00  0.00    -0.491 C  
HETATM   25  C   UNL     1     -11.694  11.304  70.528  1.00  0.00    -0.345 C  
ENDBRANCH   4  23
ENDBRANCH   2   4
TORSDOF 4
ENDMDL
MODEL      140
REMARK 921   NORMALIZED FREE ENERGY PREDICTED BY IDOCK:   -4.00 KCAL/MOL
REMARK 922        TOTAL FREE ENERGY PREDICTED BY IDOCK:   -5.78 KCAL/MOL
REMARK 923 INTER-LIGAND FREE ENERGY PREDICTED BY IDOCK:   -6.02 KCAL/MOL
REMARK 924 INTRA-LIGAND FREE ENERGY PREDICTED BY IDOCK:    0.25 KCAL/MOL
REMARK 927      BINDING AFFINITY PREDICTED BY RF-SCORE:    0.00 PKD
ROOT
HETATM    1  C   UNL     1     -10.430  11.972  63.504  1.00  0.00    -0.505 C  
HETATM    2  C   UNL     1     -11.698  12.716  63.994  1.00  0.00    -0.424 C  
HETATM    3  C   UNL     1     -12.876  11.862  63.491  1.00  0.00    -0.435 C  
ENDROOT
BRANCH   2   4
HETATM    4  N   UNL     1     -11.694  12.960  65.469  1.00  0.00    -0.361 NA 
BRANCH   4   5
HETATM    5  C   UNL     1     -11.233  11.778  66.247  1.00  0.00    -0.312 C  
BRANCH   5   6
HETATM    6  C   UNL     1      -9.774  11.317  66.064  1.00  0.00    -0.253 C  
HETATM    7  C   UNL     1      -8.853  11.387  67.325  1.00  0.00    -0.153 C  
HETATM    8  C   UNL     1      -9.286  10.518  68.522  1.00  0.00    -0.168 A  
HETATM    9  C   UNL     1      -8.414  12.806  67.727  1.00  0.00    -0.177 A  
HETATM   10  C   UNL     1      -7.120  13.320  67.545  1.00  0.00    -0.149 A  
HETATM   11  C   UNL     1     -10.433  10.782  69.291  1.00  0.00    -0.243 A  
HETATM   12  O   UNL     1      -6.107  12.669  66.901  1.00  0.00    -0.489 OA 
HETATM   13  C   UNL     1     -10.732  10.060  70.446  1.00  0.00    -0.369 A  
HETATM   14  C   UNL     1      -6.760  14.578  68.048  1.00  0.00    -0.153 A  
HETATM   15  C   UNL     1      -7.670  15.351  68.762  1.00  0.00    -0.150 A  
HETATM   16  C   UNL     1      -9.912   9.017  70.842  1.00  0.00    -0.326 A  
HETATM   17  H   UNL     1      -5.232  13.017  66.778  1.00  0.00     0.000 HD 
HETATM   18  C   UNL     1      -8.963  14.884  68.949  1.00  0.00    -0.184 A  
HETATM   19  C   UNL     1      -8.789   8.698  70.078  1.00  0.00    -0.142 A  
HETATM   20  C   UNL     1      -8.479   9.444  68.931  1.00  0.00    -0.122 A  
HETATM   21  C   UNL     1      -9.980  15.621  69.768  1.00  0.00    -0.281 C  
HETATM   22  C   UNL     1      -9.322  13.646  68.397  1.00  0.00    -0.181 A  
ENDBRANCH   5   6
ENDBRANCH   4   5
BRANCH   4  23
HETATM   23  C   UNL     1     -11.086  14.235  65.959  1.00  0.00    -0.319 C  
HETATM   24  C   UNL     1     -10.573  15.178  64.855  1.00  0.00    -0.392 C  
HETATM   25  C   UNL     1     -12.084  15.096  66.774  1.00  0.00     0.267 C  
ENDBRANCH   4  23
ENDBRANCH   2   4
TORSDOF 4
ENDMDL
MODEL      141
REMARK 921   NORMALIZED FREE ENERGY PREDICTED BY IDOCK:   -3.99 KCAL/MOL
REMARK 922        TOTAL FREE ENERGY PREDICTED BY IDOCK:   -5.77 KCAL/MOL
REMARK 923 INTER-LIGAND FREE ENERGY PREDICTED BY IDOCK:   -4.90 KCAL/MOL
REMARK 924 INTRA-LIGAND FREE ENERGY PREDICTED BY IDOCK:   -0.86 KCAL/MOL
REMARK 927      BINDING AFFINITY PREDICTED BY RF-SCORE:    0.00 PKD
ROOT
HETATM    1  C   UNL     1      -5.573  10.897  67.131  1.00  0.00    -0.048 C  
HETATM    2  C   UNL     1      -6.187   9.530  66.732  1.00  0.00    -0.065 C  
HETATM    3  C   UNL     1      -5.794   8.574  67.873  1.00  0.00    -0.043 C  
ENDROOT
BRANCH   2   4
HETATM    4  N   UNL     1      -7.657   9.610  66.468  1.00  0.00    -0.097 NA 
BRANCH   4   5
HETATM    5  C   UNL     1      -8.087  10.959  66.013  1.00  0.00    -0.142 C  
BRANCH   5   6
HETATM    6  C   UNL     1      -9.558  11.362  66.238  1.00  0.00    -0.237 C  
HETATM    7  C   UNL     1      -9.930  11.896  67.658  1.00  0.00    -0.197 C  
HETATM    8  C   UNL     1      -9.203  13.180  68.105  1.00  0.00    -0.215 A  
HETATM    9  C   UNL     1      -9.999  10.820  68.756  1.00  0.00    -0.201 A  
HETATM   10  C   UNL     1     -11.188  10.341  69.327  1.00  0.00    -0.228 A  
HETATM   11  C   UNL     1      -7.829  13.225  68.400  1.00  0.00    -0.137 A  
HETATM   12  O   UNL     1     -12.444  10.691  68.920  1.00  0.00    -0.791 OA 
HETATM   13  C   UNL     1      -7.222  14.366  68.926  1.00  0.00    -0.125 A  
HETATM   14  C   UNL     1     -11.169   9.449  70.409  1.00  0.00    -0.309 A  
HETATM   15  C   UNL     1      -9.965   9.024  70.965  1.00  0.00    -0.349 A  
HETATM   16  C   UNL     1      -7.967  15.515  69.131  1.00  0.00    -0.222 A  
HETATM   17  H   UNL     1     -13.249  10.366  69.306  1.00  0.00     0.000 HD 
HETATM   18  C   UNL     1      -8.769   9.463  70.418  1.00  0.00    -0.278 A  
HETATM   19  C   UNL     1      -9.325  15.519  68.808  1.00  0.00    -0.209 A  
HETATM   20  C   UNL     1      -9.936  14.361  68.303  1.00  0.00    -0.232 A  
HETATM   21  C   UNL     1      -7.433   9.113  71.003  1.00  0.00    -0.120 C  
HETATM   22  C   UNL     1      -8.805  10.316  69.305  1.00  0.00    -0.186 A  
ENDBRANCH   5   6
ENDBRANCH   4   5
BRANCH   4  23
HETATM   23  C   UNL     1      -8.276   8.513  65.664  1.00  0.00    -0.130 C  
HETATM   24  C   UNL     1      -9.567   7.920  66.256  1.00  0.00    -0.200 C  
HETATM   25  C   UNL     1      -8.675   8.971  64.238  1.00  0.00    -0.140 C  
ENDBRANCH   4  23
ENDBRANCH   2   4
TORSDOF 4
ENDMDL
MODEL      142
REMARK 921   NORMALIZED FREE ENERGY PREDICTED BY IDOCK:   -3.93 KCAL/MOL
REMARK 922        TOTAL FREE ENERGY PREDICTED BY IDOCK:   -5.69 KCAL/MOL
REMARK 923 INTER-LIGAND FREE ENERGY PREDICTED BY IDOCK:   -4.53 KCAL/MOL
REMARK 924 INTRA-LIGAND FREE ENERGY PREDICTED BY IDOCK:   -1.16 KCAL/MOL
REMARK 927      BINDING AFFINITY PREDICTED BY RF-SCORE:    0.00 PKD
ROOT
HETATM    1  C   UNL     1     -10.466   9.393  68.096  1.00  0.00    -0.267 C  
HETATM    2  C   UNL     1     -10.010   8.665  69.387  1.00  0.00    -0.197 C  
HETATM    3  C   UNL     1      -9.121   9.684  70.122  1.00  0.00    -0.280 C  
ENDROOT
BRANCH   2   4
HETATM    4  N   UNL     1     -11.156   8.145  70.194  1.00  0.00    -0.228 NA 
BRANCH   4   5
HETATM    5  C   UNL     1     -11.064   6.682  70.449  1.00  0.00    -0.322 C  
BRANCH   5   6
HETATM    6  C   UNL     1     -10.803   5.754  69.247  1.00  0.00    -0.374 C  
HETATM    7  C   UNL     1      -9.554   4.820  69.339  1.00  0.00    -0.249 C  
HETATM    8  C   UNL     1      -9.558   3.803  70.497  1.00  0.00    -0.262 A  
HETATM    9  C   UNL     1      -8.201   5.530  69.154  1.00  0.00    -0.095 A  
HETATM   10  C   UNL     1      -7.397   5.426  68.009  1.00  0.00    -0.073 A  
HETATM   11  C   UNL     1      -9.434   4.174  71.848  1.00  0.00    -0.201 A  
HETATM   12  O   UNL     1      -7.749   4.762  66.868  1.00  0.00    -0.090 OA 
HETATM   13  C   UNL     1      -9.311   3.228  72.866  1.00  0.00    -0.127 A  
HETATM   14  C   UNL     1      -6.120   6.002  67.960  1.00  0.00    -0.021 A  
HETATM   15  C   UNL     1      -5.600   6.683  69.058  1.00  0.00    -0.017 A  
HETATM   16  C   UNL     1      -9.353   1.877  72.565  1.00  0.00    -0.123 A  
HETATM   17  H   UNL     1      -7.205   4.691  66.093  1.00  0.00     0.000 HD 
HETATM   18  C   UNL     1      -6.370   6.821  70.203  1.00  0.00    -0.039 A  
HETATM   19  C   UNL     1      -9.518   1.474  71.239  1.00  0.00    -0.190 A  
HETATM   20  C   UNL     1      -9.617   2.429  70.217  1.00  0.00    -0.096 A  
HETATM   21  C   UNL     1      -5.857   7.473  71.452  1.00  0.00    -0.035 C  
HETATM   22  C   UNL     1      -7.665   6.281  70.217  1.00  0.00    -0.098 A  
ENDBRANCH   5   6
ENDBRANCH   4   5
BRANCH   4  23
HETATM   23  C   UNL     1     -11.547   8.912  71.416  1.00  0.00    -0.312 C  
HETATM   24  C   UNL     1     -13.000   9.419  71.430  1.00  0.00    -0.421 C  
HETATM   25  C   UNL     1     -11.413   8.076  72.714  1.00  0.00    -0.420 C  
ENDBRANCH   4  23
ENDBRANCH   2   4
TORSDOF 4
ENDMDL
MODEL      143
REMARK 921   NORMALIZED FREE ENERGY PREDICTED BY IDOCK:   -3.92 KCAL/MOL
REMARK 922        TOTAL FREE ENERGY PREDICTED BY IDOCK:   -5.68 KCAL/MOL
REMARK 923 INTER-LIGAND FREE ENERGY PREDICTED BY IDOCK:   -4.97 KCAL/MOL
REMARK 924 INTRA-LIGAND FREE ENERGY PREDICTED BY IDOCK:   -0.71 KCAL/MOL
REMARK 927      BINDING AFFINITY PREDICTED BY RF-SCORE:    0.00 PKD
ROOT
HETATM    1  C   UNL     1     -11.055   5.988  66.929  1.00  0.00    -0.253 C  
HETATM    2  C   UNL     1      -9.788   5.109  67.082  1.00  0.00    -0.170 C  
HETATM    3  C   UNL     1      -9.026   5.280  65.756  1.00  0.00    -0.154 C  
ENDROOT
BRANCH   2   4
HETATM    4  N   UNL     1      -8.993   5.446  68.303  1.00  0.00    -0.108 NA 
BRANCH   4   5
HETATM    5  C   UNL     1      -9.401   6.737  68.918  1.00  0.00    -0.129 C  
BRANCH   5   6
HETATM    6  C   UNL     1      -8.803   8.035  68.339  1.00  0.00    -0.134 C  
HETATM    7  C   UNL     1      -8.668   9.243  69.320  1.00  0.00    -0.141 C  
HETATM    8  C   UNL     1      -7.753   9.020  70.540  1.00  0.00    -0.123 A  
HETATM    9  C   UNL     1      -9.993   9.944  69.670  1.00  0.00    -0.255 A  
HETATM   10  C   UNL     1     -10.378  11.204  69.187  1.00  0.00    -0.161 A  
HETATM   11  C   UNL     1      -8.074   8.146  71.593  1.00  0.00    -0.150 A  
HETATM   12  O   UNL     1      -9.679  11.934  68.267  1.00  0.00    -0.192 OA 
HETATM   13  C   UNL     1      -7.293   8.057  72.746  1.00  0.00    -0.137 A  
HETATM   14  C   UNL     1     -11.544  11.834  69.645  1.00  0.00    -0.393 A  
HETATM   15  C   UNL     1     -12.348  11.236  70.611  1.00  0.00    -0.477 A  
HETATM   16  C   UNL     1      -6.139   8.813  72.860  1.00  0.00    -0.059 A  
HETATM   17  H   UNL     1      -9.940  12.786  67.941  1.00  0.00     0.000 HD 
HETATM   18  C   UNL     1     -12.008   9.984  71.101  1.00  0.00    -0.484 A  
HETATM   19  C   UNL     1      -5.767   9.660  71.814  1.00  0.00    -0.001 A  
HETATM   20  C   UNL     1      -6.569   9.763  70.668  1.00  0.00    -0.113 A  
HETATM   21  C   UNL     1     -12.779   9.305  72.195  1.00  0.00    -0.465 C  
HETATM   22  C   UNL     1     -10.867   9.346  70.596  1.00  0.00    -0.346 A  
ENDBRANCH   5   6
ENDBRANCH   4   5
BRANCH   4  23
HETATM   23  C   UNL     1      -8.795   4.368  69.320  1.00  0.00    -0.091 C  
HETATM   24  C   UNL     1      -9.872   4.303  70.418  1.00  0.00    -0.268 C  
HETATM   25  C   UNL     1      -8.789   2.951  68.694  1.00  0.00    -0.165 C  
ENDBRANCH   4  23
ENDBRANCH   2   4
TORSDOF 4
ENDMDL
MODEL      144
REMARK 921   NORMALIZED FREE ENERGY PREDICTED BY IDOCK:   -3.92 KCAL/MOL
REMARK 922        TOTAL FREE ENERGY PREDICTED BY IDOCK:   -5.68 KCAL/MOL
REMARK 923 INTER-LIGAND FREE ENERGY PREDICTED BY IDOCK:   -4.40 KCAL/MOL
REMARK 924 INTRA-LIGAND FREE ENERGY PREDICTED BY IDOCK:   -1.27 KCAL/MOL
REMARK 927      BINDING AFFINITY PREDICTED BY RF-SCORE:    0.00 PKD
ROOT
HETATM    1  C   UNL     1      -9.189   9.683  64.696  1.00  0.00    -0.293 C  
HETATM    2  C   UNL     1      -8.370   8.418  65.062  1.00  0.00    -0.158 C  
HETATM    3  C   UNL     1      -6.898   8.858  64.956  1.00  0.00    -0.073 C  
ENDROOT
BRANCH   2   4
HETATM    4  N   UNL     1      -8.752   7.843  66.388  1.00  0.00    -0.144 NA 
BRANCH   4   5
HETATM    5  C   UNL     1     -10.060   8.352  66.880  1.00  0.00    -0.294 C  
BRANCH   5   6
HETATM    6  C   UNL     1     -10.349   8.260  68.392  1.00  0.00    -0.237 C  
HETATM    7  C   UNL     1      -9.964   9.503  69.256  1.00  0.00    -0.191 C  
HETATM    8  C   UNL     1     -10.684  10.819  68.901  1.00  0.00    -0.259 A  
HETATM    9  C   UNL     1      -8.454   9.680  69.499  1.00  0.00    -0.162 A  
HETATM   10  C   UNL     1      -7.809   9.432  70.721  1.00  0.00    -0.118 A  
HETATM   11  C   UNL     1     -10.455  11.524  67.707  1.00  0.00    -0.216 A  
HETATM   12  O   UNL     1      -8.414   8.910  71.829  1.00  0.00    -0.321 OA 
HETATM   13  C   UNL     1     -11.022  12.776  67.466  1.00  0.00    -0.280 A  
HETATM   14  C   UNL     1      -6.452   9.732  70.902  1.00  0.00    -0.063 A  
HETATM   15  C   UNL     1      -5.703  10.305  69.878  1.00  0.00    -0.047 A  
HETATM   16  C   UNL     1     -11.873  13.341  68.400  1.00  0.00    -0.395 A  
HETATM   17  H   UNL     1      -7.978   8.742  72.655  1.00  0.00     0.000 HD 
HETATM   18  C   UNL     1      -6.300  10.550  68.651  1.00  0.00    -0.047 A  
HETATM   19  C   UNL     1     -12.157  12.649  69.578  1.00  0.00    -0.253 A  
HETATM   20  C   UNL     1     -11.565  11.401  69.826  1.00  0.00    -0.407 A  
HETATM   21  C   UNL     1      -5.584  11.231  67.523  1.00  0.00    -0.047 C  
HETATM   22  C   UNL     1      -7.646  10.198  68.470  1.00  0.00    -0.088 A  
ENDBRANCH   5   6
ENDBRANCH   4   5
BRANCH   4  23
HETATM   23  C   UNL     1      -8.611   6.366  66.569  1.00  0.00    -0.125 C  
HETATM   24  C   UNL     1      -8.819   5.531  65.293  1.00  0.00    -0.112 C  
HETATM   25  C   UNL     1      -7.205   5.959  67.076  1.00  0.00    -0.075 C  
ENDBRANCH   4  23
ENDBRANCH   2   4
TORSDOF 4
ENDMDL
MODEL      145
REMARK 921   NORMALIZED FREE ENERGY PREDICTED BY IDOCK:   -3.91 KCAL/MOL
REMARK 922        TOTAL FREE ENERGY PREDICTED BY IDOCK:   -5.66 KCAL/MOL
REMARK 923 INTER-LIGAND FREE ENERGY PREDICTED BY IDOCK:   -5.08 KCAL/MOL
REMARK 924 INTRA-LIGAND FREE ENERGY PREDICTED BY IDOCK:   -0.58 KCAL/MOL
REMARK 927      BINDING AFFINITY PREDICTED BY RF-SCORE:    0.00 PKD
ROOT
HETATM    1  C   UNL     1      -9.013  15.349  69.336  1.00  0.00    -0.258 C  
HETATM    2  C   UNL     1     -10.223  15.206  68.377  1.00  0.00    -0.221 C  
HETATM    3  C   UNL     1      -9.780  15.900  67.076  1.00  0.00    -0.235 C  
ENDROOT
BRANCH   2   4
HETATM    4  N   UNL     1     -10.660  13.786  68.205  1.00  0.00    -0.247 NA 
BRANCH   4   5
HETATM    5  C   UNL     1      -9.538  12.818  68.336  1.00  0.00    -0.175 C  
BRANCH   5   6
HETATM    6  C   UNL     1      -8.531  12.717  67.174  1.00  0.00    -0.186 C  
HETATM    7  C   UNL     1      -8.881  11.715  66.027  1.00  0.00    -0.105 C  
HETATM    8  C   UNL     1     -10.185  12.001  65.259  1.00  0.00    -0.304 A  
HETATM    9  C   UNL     1      -8.698  10.230  66.389  1.00  0.00    -0.144 A  
HETATM   10  C   UNL     1      -7.658   9.416  65.912  1.00  0.00    -0.099 A  
HETATM   11  C   UNL     1     -11.463  11.861  65.830  1.00  0.00    -0.326 A  
HETATM   12  O   UNL     1      -6.616   9.855  65.145  1.00  0.00    -0.091 OA 
HETATM   13  C   UNL     1     -12.629  12.001  65.078  1.00  0.00     0.247 A  
HETATM   14  C   UNL     1      -7.625   8.042  66.185  1.00  0.00    -0.086 A  
HETATM   15  C   UNL     1      -8.636   7.434  66.925  1.00  0.00    -0.120 A  
HETATM   16  C   UNL     1     -12.552  12.331  63.735  1.00  0.00    -0.577 A  
HETATM   17  H   UNL     1      -5.912   9.305  64.823  1.00  0.00     0.000 HD 
HETATM   18  C   UNL     1      -9.673   8.207  67.426  1.00  0.00    -0.221 A  
HETATM   19  C   UNL     1     -11.301  12.520  63.146  1.00  0.00    -0.165 A  
HETATM   20  C   UNL     1     -10.131  12.353  63.901  1.00  0.00    -0.349 A  
HETATM   21  C   UNL     1     -10.837   7.620  68.166  1.00  0.00    -0.040 C  
HETATM   22  C   UNL     1      -9.665   9.589  67.186  1.00  0.00    -0.221 A  
ENDBRANCH   5   6
ENDBRANCH   4   5
BRANCH   4  23
HETATM   23  C   UNL     1     -11.883  13.344  68.942  1.00  0.00    -0.334 C  
HETATM   24  C   UNL     1     -11.775  11.963  69.614  1.00  0.00    -0.413 C  
HETATM   25  C   UNL     1     -12.266  14.308  70.092  1.00  0.00    -0.407 C  
ENDBRANCH   4  23
ENDBRANCH   2   4
TORSDOF 4
ENDMDL
MODEL      146
REMARK 921   NORMALIZED FREE ENERGY PREDICTED BY IDOCK:   -3.90 KCAL/MOL
REMARK 922        TOTAL FREE ENERGY PREDICTED BY IDOCK:   -5.66 KCAL/MOL
REMARK 923 INTER-LIGAND FREE ENERGY PREDICTED BY IDOCK:   -6.38 KCAL/MOL
REMARK 924 INTRA-LIGAND FREE ENERGY PREDICTED BY IDOCK:    0.72 KCAL/MOL
REMARK 927      BINDING AFFINITY PREDICTED BY RF-SCORE:    0.00 PKD
ROOT
HETATM    1  C   UNL     1      -9.292  10.196  62.889  1.00  0.00    -0.320 C  
HETATM    2  C   UNL     1      -9.654  10.048  64.389  1.00  0.00    -0.258 C  
HETATM    3  C   UNL     1      -8.381  10.466  65.146  1.00  0.00    -0.165 C  
ENDROOT
BRANCH   2   4
HETATM    4  N   UNL     1     -10.881  10.814  64.768  1.00  0.00    -0.110 NA 
BRANCH   4   5
HETATM    5  C   UNL     1     -10.845  11.301  66.172  1.00  0.00    -0.222 C  
BRANCH   5   6
HETATM    6  C   UNL     1     -10.468  12.776  66.416  1.00  0.00    -0.265 C  
HETATM    7  C   UNL     1      -9.957  13.142  67.847  1.00  0.00    -0.233 C  
HETATM    8  C   UNL     1      -8.668  12.432  68.303  1.00  0.00    -0.175 A  
HETATM    9  C   UNL     1     -11.048  13.183  68.932  1.00  0.00    -0.310 A  
HETATM   10  C   UNL     1     -11.553  14.359  69.509  1.00  0.00    -0.304 A  
HETATM   11  C   UNL     1      -8.605  11.056  68.585  1.00  0.00    -0.157 A  
HETATM   12  O   UNL     1     -11.218  15.624  69.118  1.00  0.00    -0.271 OA 
HETATM   13  C   UNL     1      -7.461  10.461  69.119  1.00  0.00    -0.112 A  
HETATM   14  C   UNL     1     -12.458  14.315  70.579  1.00  0.00    -0.428 A  
HETATM   15  C   UNL     1     -12.870  13.099  71.117  1.00  0.00    -0.349 A  
HETATM   16  C   UNL     1      -6.327  11.222  69.346  1.00  0.00    -0.092 A  
HETATM   17  H   UNL     1     -11.560  16.420  69.508  1.00  0.00     0.000 HD 
HETATM   18  C   UNL     1     -12.405  11.915  70.565  1.00  0.00    -0.372 A  
HETATM   19  C   UNL     1      -6.340  12.583  69.036  1.00  0.00    -0.092 A  
HETATM   20  C   UNL     1      -7.501  13.180  68.522  1.00  0.00    -0.117 A  
HETATM   21  C   UNL     1     -12.742  10.569  71.133  1.00  0.00    -0.518 C  
HETATM   22  C   UNL     1     -11.540  11.976  69.463  1.00  0.00    -0.389 A  
ENDBRANCH   5   6
ENDBRANCH   4   5
BRANCH   4  23
HETATM   23  C   UNL     1     -11.366  11.859  63.815  1.00  0.00    -0.448 C  
HETATM   24  C   UNL     1     -12.872  12.165  63.895  1.00  0.00    -0.420 C  
HETATM   25  C   UNL     1     -10.677  13.230  64.032  1.00  0.00    -0.254 C  
ENDBRANCH   4  23
ENDBRANCH   2   4
TORSDOF 4
ENDMDL
MODEL      147
REMARK 921   NORMALIZED FREE ENERGY PREDICTED BY IDOCK:   -3.85 KCAL/MOL
REMARK 922        TOTAL FREE ENERGY PREDICTED BY IDOCK:   -5.59 KCAL/MOL
REMARK 923 INTER-LIGAND FREE ENERGY PREDICTED BY IDOCK:   -6.01 KCAL/MOL
REMARK 924 INTRA-LIGAND FREE ENERGY PREDICTED BY IDOCK:    0.42 KCAL/MOL
REMARK 927      BINDING AFFINITY PREDICTED BY RF-SCORE:    0.00 PKD
ROOT
HETATM    1  C   UNL     1      -8.566  10.522  64.877  1.00  0.00    -0.179 C  
HETATM    2  C   UNL     1      -9.603  11.224  63.963  1.00  0.00    -0.232 C  
HETATM    3  C   UNL     1      -9.716  10.315  62.725  1.00  0.00    -0.174 C  
ENDROOT
BRANCH   2   4
HETATM    4  N   UNL     1     -10.900  11.492  64.657  1.00  0.00    -0.317 NA 
BRANCH   4   5
HETATM    5  C   UNL     1     -10.836  11.225  66.119  1.00  0.00    -0.222 C  
BRANCH   5   6
HETATM    6  C   UNL     1     -11.732  12.069  67.047  1.00  0.00    -0.341 C  
HETATM    7  C   UNL     1     -11.147  12.425  68.452  1.00  0.00    -0.288 C  
HETATM    8  C   UNL     1      -9.856  13.266  68.449  1.00  0.00    -0.218 A  
HETATM    9  C   UNL     1     -11.113  11.257  69.454  1.00  0.00    -0.316 A  
HETATM   10  C   UNL     1     -11.974  11.128  70.555  1.00  0.00    -0.380 A  
HETATM   11  C   UNL     1      -8.615  12.771  68.010  1.00  0.00    -0.186 A  
HETATM   12  O   UNL     1     -13.018  11.965  70.830  1.00  0.00    -0.110 OA 
HETATM   13  C   UNL     1      -7.438  13.508  68.137  1.00  0.00    -0.132 A  
HETATM   14  C   UNL     1     -11.805  10.102  71.494  1.00  0.00    -0.356 A  
HETATM   15  C   UNL     1     -10.763   9.187  71.375  1.00  0.00    -0.414 A  
HETATM   16  C   UNL     1      -7.474  14.786  68.670  1.00  0.00    -0.126 A  
HETATM   17  H   UNL     1     -13.601  11.877  71.575  1.00  0.00     0.000 HD 
HETATM   18  C   UNL     1      -9.900   9.272  70.292  1.00  0.00    -0.265 A  
HETATM   19  C   UNL     1      -8.696  15.325  69.076  1.00  0.00    -0.226 A  
HETATM   20  C   UNL     1      -9.873  14.571  68.968  1.00  0.00    -0.142 A  
HETATM   21  C   UNL     1      -8.711   8.374  70.130  1.00  0.00    -0.136 C  
HETATM   22  C   UNL     1     -10.114  10.274  69.334  1.00  0.00    -0.255 A  
ENDBRANCH   5   6
ENDBRANCH   4   5
BRANCH   4  23
HETATM   23  C   UNL     1     -11.601  12.775  64.342  1.00  0.00    -0.361 C  
HETATM   24  C   UNL     1     -13.030  12.890  64.902  1.00  0.00    -0.214 C  
HETATM   25  C   UNL     1     -10.860  14.013  64.907  1.00  0.00    -0.421 C  
ENDBRANCH   4  23
ENDBRANCH   2   4
TORSDOF 4
ENDMDL
MODEL      148
REMARK 921   NORMALIZED FREE ENERGY PREDICTED BY IDOCK:   -3.84 KCAL/MOL
REMARK 922        TOTAL FREE ENERGY PREDICTED BY IDOCK:   -5.59 KCAL/MOL
REMARK 923 INTER-LIGAND FREE ENERGY PREDICTED BY IDOCK:   -6.03 KCAL/MOL
REMARK 924 INTRA-LIGAND FREE ENERGY PREDICTED BY IDOCK:    0.45 KCAL/MOL
REMARK 927      BINDING AFFINITY PREDICTED BY RF-SCORE:    0.00 PKD
ROOT
HETATM    1  C   UNL     1      -8.124  10.571  63.519  1.00  0.00    -0.062 C  
HETATM    2  C   UNL     1      -9.392   9.832  64.020  1.00  0.00    -0.155 C  
HETATM    3  C   UNL     1      -8.876   8.830  65.068  1.00  0.00    -0.151 C  
ENDROOT
BRANCH   2   4
HETATM    4  N   UNL     1     -10.447  10.766  64.521  1.00  0.00    -0.339 NA 
BRANCH   4   5
HETATM    5  C   UNL     1     -10.235  11.168  65.937  1.00  0.00    -0.251 C  
BRANCH   5   6
HETATM    6  C   UNL     1      -8.796  11.136  66.490  1.00  0.00    -0.174 C  
HETATM    7  C   UNL     1      -8.610  11.549  67.985  1.00  0.00    -0.150 C  
HETATM    8  C   UNL     1      -9.340  10.672  69.021  1.00  0.00    -0.191 A  
HETATM    9  C   UNL     1      -8.741  13.058  68.260  1.00  0.00    -0.173 A  
HETATM   10  C   UNL     1      -7.666  13.910  68.557  1.00  0.00    -0.139 A  
HETATM   11  C   UNL     1     -10.739  10.645  69.158  1.00  0.00    -0.264 A  
HETATM   12  O   UNL     1      -6.352  13.538  68.546  1.00  0.00    -0.076 OA 
HETATM   13  C   UNL     1     -11.368   9.944  70.186  1.00  0.00    -0.335 A  
HETATM   14  C   UNL     1      -7.875  15.248  68.917  1.00  0.00    -0.165 A  
HETATM   15  C   UNL     1      -9.162  15.771  69.010  1.00  0.00    -0.243 A  
HETATM   16  C   UNL     1     -10.614   9.209  71.086  1.00  0.00    -0.379 A  
HETATM   17  H   UNL     1      -5.624  14.114  68.747  1.00  0.00     0.000 HD 
HETATM   18  C   UNL     1     -10.250  14.965  68.709  1.00  0.00    -0.243 A  
HETATM   19  C   UNL     1      -9.225   9.179  70.953  1.00  0.00    -0.326 A  
HETATM   20  C   UNL     1      -8.596   9.906  69.932  1.00  0.00    -0.216 A  
HETATM   21  C   UNL     1     -11.668  15.429  68.856  1.00  0.00    -0.377 C  
HETATM   22  C   UNL     1     -10.020  13.643  68.302  1.00  0.00    -0.236 A  
ENDBRANCH   5   6
ENDBRANCH   4   5
BRANCH   4  23
HETATM   23  C   UNL     1     -10.817  11.924  63.650  1.00  0.00    -0.444 C  
HETATM   24  C   UNL     1     -12.292  11.963  63.211  1.00  0.00    -0.508 C  
HETATM   25  C   UNL     1     -10.579  13.289  64.341  1.00  0.00    -0.438 C  
ENDBRANCH   4  23
ENDBRANCH   2   4
TORSDOF 4
ENDMDL
MODEL      149
REMARK 921   NORMALIZED FREE ENERGY PREDICTED BY IDOCK:   -3.82 KCAL/MOL
REMARK 922        TOTAL FREE ENERGY PREDICTED BY IDOCK:   -5.56 KCAL/MOL
REMARK 923 INTER-LIGAND FREE ENERGY PREDICTED BY IDOCK:   -6.23 KCAL/MOL
REMARK 924 INTRA-LIGAND FREE ENERGY PREDICTED BY IDOCK:    0.68 KCAL/MOL
REMARK 927      BINDING AFFINITY PREDICTED BY RF-SCORE:    0.00 PKD
ROOT
HETATM    1  C   UNL     1     -13.379  11.170  71.700  1.00  0.00    -0.318 C  
HETATM    2  C   UNL     1     -12.109  11.469  70.862  1.00  0.00    -0.247 C  
HETATM    3  C   UNL     1     -12.309  10.689  69.550  1.00  0.00    -0.154 C  
ENDROOT
BRANCH   2   4
HETATM    4  N   UNL     1     -11.864  12.933  70.683  1.00  0.00    -0.111 NA 
BRANCH   4   5
HETATM    5  C   UNL     1     -11.087  13.240  69.453  1.00  0.00    -0.090 C  
BRANCH   5   6
HETATM    6  C   UNL     1     -11.861  13.719  68.209  1.00  0.00    -0.413 C  
HETATM    7  C   UNL     1     -11.078  13.731  66.857  1.00  0.00    -0.311 C  
HETATM    8  C   UNL     1     -10.558  12.365  66.369  1.00  0.00    -0.271 A  
HETATM    9  C   UNL     1     -10.044  14.863  66.718  1.00  0.00    -0.254 A  
HETATM   10  C   UNL     1     -10.205  15.991  65.898  1.00  0.00    -0.365 A  
HETATM   11  C   UNL     1      -9.524  11.660  67.011  1.00  0.00    -0.191 A  
HETATM   12  O   UNL     1     -11.335  16.285  65.191  1.00  0.00    -0.136 OA 
HETATM   13  C   UNL     1      -8.984  10.489  66.478  1.00  0.00    -0.171 A  
HETATM   14  C   UNL     1      -9.169  16.920  65.727  1.00  0.00     0.036 A  
HETATM   15  C   UNL     1      -7.938  16.743  66.353  1.00  0.00    -0.356 A  
HETATM   16  C   UNL     1      -9.495   9.964  65.303  1.00  0.00    -0.331 A  
HETATM   17  H   UNL     1     -11.444  17.048  64.636  1.00  0.00     0.000 HD 
HETATM   18  C   UNL     1      -7.746  15.649  67.184  1.00  0.00    -0.258 A  
HETATM   19  C   UNL     1     -10.550  10.614  64.662  1.00  0.00    -0.166 A  
HETATM   20  C   UNL     1     -11.073  11.804  65.190  1.00  0.00    -0.341 A  
HETATM   21  C   UNL     1      -6.430  15.346  67.835  1.00  0.00    -0.168 C  
HETATM   22  C   UNL     1      -8.809  14.756  67.384  1.00  0.00    -0.203 A  
ENDBRANCH   5   6
ENDBRANCH   4   5
BRANCH   4  23
HETATM   23  C   UNL     1     -13.026  13.857  70.868  1.00  0.00    -0.246 C  
HETATM   24  C   UNL     1     -13.704  13.782  72.248  1.00  0.00    -0.673 C  
HETATM   25  C   UNL     1     -12.633  15.347  70.706  1.00  0.00    -0.497 C  
ENDBRANCH   4  23
ENDBRANCH   2   4
TORSDOF 4
ENDMDL
MODEL      150
REMARK 921   NORMALIZED FREE ENERGY PREDICTED BY IDOCK:   -3.82 KCAL/MOL
REMARK 922        TOTAL FREE ENERGY PREDICTED BY IDOCK:   -5.55 KCAL/MOL
REMARK 923 INTER-LIGAND FREE ENERGY PREDICTED BY IDOCK:   -4.43 KCAL/MOL
REMARK 924 INTRA-LIGAND FREE ENERGY PREDICTED BY IDOCK:   -1.13 KCAL/MOL
REMARK 927      BINDING AFFINITY PREDICTED BY RF-SCORE:    0.00 PKD
ROOT
HETATM    1  C   UNL     1      -8.734  14.650  66.707  1.00  0.00    -0.233 C  
HETATM    2  C   UNL     1      -8.688  13.164  67.147  1.00  0.00    -0.213 C  
HETATM    3  C   UNL     1      -7.720  13.136  68.344  1.00  0.00    -0.138 C  
ENDROOT
BRANCH   2   4
HETATM    4  N   UNL     1     -10.044  12.602  67.432  1.00  0.00    -0.216 NA 
BRANCH   4   5
HETATM    5  C   UNL     1     -10.056  11.701  68.615  1.00  0.00    -0.198 C  
BRANCH   5   6
HETATM    6  C   UNL     1     -10.707  10.312  68.459  1.00  0.00    -0.262 C  
HETATM    7  C   UNL     1      -9.740   9.086  68.410  1.00  0.00    -0.170 C  
HETATM    8  C   UNL     1      -8.873   8.862  69.664  1.00  0.00    -0.142 A  
HETATM    9  C   UNL     1      -8.959   8.930  67.092  1.00  0.00    -0.141 A  
HETATM   10  C   UNL     1      -9.222   7.949  66.123  1.00  0.00    -0.152 A  
HETATM   11  C   UNL     1      -7.830   9.725  70.043  1.00  0.00    -0.188 A  
HETATM   12  O   UNL     1     -10.262   7.066  66.170  1.00  0.00    -0.425 OA 
HETATM   13  C   UNL     1      -6.978   9.432  71.108  1.00  0.00    -0.025 A  
HETATM   14  C   UNL     1      -8.391   7.790  65.005  1.00  0.00    -0.094 A  
HETATM   15  C   UNL     1      -7.266   8.591  64.830  1.00  0.00    -0.085 A  
HETATM   16  C   UNL     1      -7.174   8.284  71.857  1.00  0.00    -0.100 A  
HETATM   17  H   UNL     1     -10.439   6.402  65.515  1.00  0.00     0.000 HD 
HETATM   18  C   UNL     1      -6.982   9.582  65.758  1.00  0.00    -0.095 A  
HETATM   19  C   UNL     1      -8.227   7.427  71.535  1.00  0.00    -0.104 A  
HETATM   20  C   UNL     1      -9.066   7.713  70.448  1.00  0.00    -0.152 A  
HETATM   21  C   UNL     1      -5.751  10.435  65.682  1.00  0.00    -0.105 C  
HETATM   22  C   UNL     1      -7.851   9.760  66.844  1.00  0.00    -0.102 A  
ENDBRANCH   5   6
ENDBRANCH   4   5
BRANCH   4  23
HETATM   23  C   UNL     1     -11.201  13.549  67.426  1.00  0.00    -0.295 C  
HETATM   24  C   UNL     1     -12.278  13.254  66.367  1.00  0.00    -0.419 C  
HETATM   25  C   UNL     1     -11.969  13.560  68.771  1.00  0.00    -0.374 C  
ENDBRANCH   4  23
ENDBRANCH   2   4
TORSDOF 4
ENDMDL
MODEL      151
REMARK 921   NORMALIZED FREE ENERGY PREDICTED BY IDOCK:   -3.80 KCAL/MOL
REMARK 922        TOTAL FREE ENERGY PREDICTED BY IDOCK:   -5.53 KCAL/MOL
REMARK 923 INTER-LIGAND FREE ENERGY PREDICTED BY IDOCK:   -4.59 KCAL/MOL
REMARK 924 INTRA-LIGAND FREE ENERGY PREDICTED BY IDOCK:   -0.95 KCAL/MOL
REMARK 927      BINDING AFFINITY PREDICTED BY RF-SCORE:    0.00 PKD
ROOT
HETATM    1  C   UNL     1      -9.046  11.200  68.548  1.00  0.00    -0.175 C  
HETATM    2  C   UNL     1     -10.540  11.398  68.186  1.00  0.00    -0.189 C  
HETATM    3  C   UNL     1     -10.647  10.980  66.708  1.00  0.00    -0.317 C  
ENDROOT
BRANCH   2   4
HETATM    4  N   UNL     1     -11.462  10.664  69.106  1.00  0.00    -0.275 NA 
BRANCH   4   5
HETATM    5  C   UNL     1     -10.757   9.656  69.944  1.00  0.00    -0.252 C  
BRANCH   5   6
HETATM    6  C   UNL     1     -11.203   8.185  69.832  1.00  0.00    -0.030 C  
HETATM    7  C   UNL     1     -10.191   7.106  70.334  1.00  0.00    -0.203 C  
HETATM    8  C   UNL     1      -9.811   7.183  71.826  1.00  0.00    -0.171 A  
HETATM    9  C   UNL     1      -8.985   6.869  69.408  1.00  0.00    -0.138 A  
HETATM   10  C   UNL     1      -8.811   5.733  68.602  1.00  0.00    -0.110 A  
HETATM   11  C   UNL     1      -9.038   8.223  72.371  1.00  0.00    -0.307 A  
HETATM   12  O   UNL     1      -9.730   4.734  68.456  1.00  0.00    -0.148 OA 
HETATM   13  C   UNL     1      -8.599   8.204  73.695  1.00  0.00    -0.312 A  
HETATM   14  C   UNL     1      -7.628   5.529  67.877  1.00  0.00    -0.085 A  
HETATM   15  C   UNL     1      -6.578   6.440  67.949  1.00  0.00    -0.062 A  
HETATM   16  C   UNL     1      -8.960   7.159  74.529  1.00  0.00    -0.201 A  
HETATM   17  H   UNL     1      -9.612   3.965  67.910  1.00  0.00     0.000 HD 
HETATM   18  C   UNL     1      -6.718   7.583  68.722  1.00  0.00    -0.053 A  
HETATM   19  C   UNL     1      -9.762   6.131  74.032  1.00  0.00    -0.205 A  
HETATM   20  C   UNL     1     -10.180   6.143  72.693  1.00  0.00    -0.202 A  
HETATM   21  C   UNL     1      -5.609   8.574  68.912  1.00  0.00    -0.040 C  
HETATM   22  C   UNL     1      -7.927   7.797  69.402  1.00  0.00    -0.124 A  
ENDBRANCH   5   6
ENDBRANCH   4   5
BRANCH   4  23
HETATM   23  C   UNL     1     -12.443  11.472  69.893  1.00  0.00    -0.094 C  
HETATM   24  C   UNL     1     -12.832  10.877  71.258  1.00  0.00    -0.536 C  
HETATM   25  C   UNL     1     -11.918  12.892  70.222  1.00  0.00    -0.359 C  
ENDBRANCH   4  23
ENDBRANCH   2   4
TORSDOF 4
ENDMDL
MODEL      152
REMARK 921   NORMALIZED FREE ENERGY PREDICTED BY IDOCK:   -3.79 KCAL/MOL
REMARK 922        TOTAL FREE ENERGY PREDICTED BY IDOCK:   -5.52 KCAL/MOL
REMARK 923 INTER-LIGAND FREE ENERGY PREDICTED BY IDOCK:   -4.06 KCAL/MOL
REMARK 924 INTRA-LIGAND FREE ENERGY PREDICTED BY IDOCK:   -1.46 KCAL/MOL
REMARK 927      BINDING AFFINITY PREDICTED BY RF-SCORE:    0.00 PKD
ROOT
HETATM    1  C   UNL     1     -11.561   6.219  70.066  1.00  0.00    -0.378 C  
HETATM    2  C   UNL     1     -10.914   6.652  71.406  1.00  0.00    -0.250 C  
HETATM    3  C   UNL     1     -11.401   5.613  72.433  1.00  0.00    -0.327 C  
ENDROOT
BRANCH   2   4
HETATM    4  N   UNL     1      -9.427   6.785  71.315  1.00  0.00    -0.166 NA 
BRANCH   4   5
HETATM    5  C   UNL     1      -8.868   6.169  70.082  1.00  0.00    -0.144 C  
BRANCH   5   6
HETATM    6  C   UNL     1      -7.524   6.706  69.552  1.00  0.00    -0.093 C  
HETATM    7  C   UNL     1      -7.532   7.321  68.115  1.00  0.00    -0.102 C  
HETATM    8  C   UNL     1      -8.438   8.552  67.915  1.00  0.00    -0.130 A  
HETATM    9  C   UNL     1      -7.637   6.294  66.973  1.00  0.00    -0.095 A  
HETATM   10  C   UNL     1      -6.578   5.940  66.122  1.00  0.00    -0.047 A  
HETATM   11  C   UNL     1      -9.842   8.488  67.943  1.00  0.00    -0.208 A  
HETATM   12  O   UNL     1      -5.293   6.383  66.252  1.00  0.00    -0.012 OA 
HETATM   13  C   UNL     1     -10.640   9.589  67.632  1.00  0.00    -0.329 A  
HETATM   14  C   UNL     1      -6.779   5.089  65.026  1.00  0.00    -0.048 A  
HETATM   15  C   UNL     1      -8.042   4.581  64.736  1.00  0.00    -0.101 A  
HETATM   16  C   UNL     1     -10.052  10.805  67.326  1.00  0.00    -0.233 A  
HETATM   17  H   UNL     1      -4.577   6.144  65.675  1.00  0.00     0.000 HD 
HETATM   18  C   UNL     1      -9.110   4.896  65.563  1.00  0.00    -0.153 A  
HETATM   19  C   UNL     1      -8.661  10.915  67.332  1.00  0.00    -0.127 A  
HETATM   20  C   UNL     1      -7.863   9.798  67.621  1.00  0.00    -0.095 A  
HETATM   21  C   UNL     1     -10.514   4.451  65.278  1.00  0.00    -0.204 C  
HETATM   22  C   UNL     1      -8.883   5.708  66.683  1.00  0.00    -0.119 A  
ENDBRANCH   5   6
ENDBRANCH   4   5
BRANCH   4  23
HETATM   23  C   UNL     1      -8.833   8.127  71.601  1.00  0.00    -0.156 C  
HETATM   24  C   UNL     1      -9.795   9.316  71.424  1.00  0.00    -0.296 C  
HETATM   25  C   UNL     1      -8.319   8.254  73.057  1.00  0.00    -0.246 C  
ENDBRANCH   4  23
ENDBRANCH   2   4
TORSDOF 4
ENDMDL
MODEL      153
REMARK 921   NORMALIZED FREE ENERGY PREDICTED BY IDOCK:   -3.78 KCAL/MOL
REMARK 922        TOTAL FREE ENERGY PREDICTED BY IDOCK:   -5.51 KCAL/MOL
REMARK 923 INTER-LIGAND FREE ENERGY PREDICTED BY IDOCK:   -4.45 KCAL/MOL
REMARK 924 INTRA-LIGAND FREE ENERGY PREDICTED BY IDOCK:   -1.06 KCAL/MOL
REMARK 927      BINDING AFFINITY PREDICTED BY RF-SCORE:    0.00 PKD
ROOT
HETATM    1  C   UNL     1      -6.555  11.525  66.706  1.00  0.00    -0.119 C  
HETATM    2  C   UNL     1      -7.185  10.327  67.462  1.00  0.00    -0.088 C  
HETATM    3  C   UNL     1      -7.194  10.754  68.941  1.00  0.00    -0.088 C  
ENDROOT
BRANCH   2   4
HETATM    4  N   UNL     1      -8.523   9.939  66.920  1.00  0.00    -0.124 NA 
BRANCH   4   5
HETATM    5  C   UNL     1      -9.421   9.367  67.958  1.00  0.00    -0.133 C  
BRANCH   5   6
HETATM    6  C   UNL     1     -10.054   7.988  67.685  1.00  0.00    -0.269 C  
HETATM    7  C   UNL     1     -10.066   6.974  68.874  1.00  0.00    -0.174 C  
HETATM    8  C   UNL     1     -10.852   7.413  70.125  1.00  0.00    -0.270 A  
HETATM    9  C   UNL     1      -8.700   6.344  69.201  1.00  0.00    -0.127 A  
HETATM   10  C   UNL     1      -8.345   5.017  68.912  1.00  0.00    -0.083 A  
HETATM   11  C   UNL     1     -10.439   8.461  70.966  1.00  0.00    -0.251 A  
HETATM   12  O   UNL     1      -9.124   4.137  68.216  1.00  0.00    -0.114 OA 
HETATM   13  C   UNL     1     -11.097   8.755  72.160  1.00  0.00    -0.406 A  
HETATM   14  C   UNL     1      -7.128   4.477  69.350  1.00  0.00    -0.051 A  
HETATM   15  C   UNL     1      -6.238   5.237  70.104  1.00  0.00    -0.026 A  
HETATM   16  C   UNL     1     -12.220   8.034  72.528  1.00  0.00    -0.294 A  
HETATM   17  H   UNL     1      -8.884   3.239  68.021  1.00  0.00     0.000 HD 
HETATM   18  C   UNL     1      -6.546   6.557  70.397  1.00  0.00    -0.045 A  
HETATM   19  C   UNL     1     -12.684   7.015  71.694  1.00  0.00    -0.417 A  
HETATM   20  C   UNL     1     -12.004   6.707  70.507  1.00  0.00    -0.377 A  
HETATM   21  C   UNL     1      -5.678   7.419  71.265  1.00  0.00    -0.035 C  
HETATM   22  C   UNL     1      -7.745   7.097  69.909  1.00  0.00    -0.108 A  
ENDBRANCH   5   6
ENDBRANCH   4   5
BRANCH   4  23
HETATM   23  C   UNL     1      -9.226  10.924  66.040  1.00  0.00    -0.188 C  
HETATM   24  C   UNL     1      -9.606  10.396  64.645  1.00  0.00    -0.360 C  
HETATM   25  C   UNL     1     -10.562  11.418  66.648  1.00  0.00    -0.302 C  
ENDBRANCH   4  23
ENDBRANCH   2   4
TORSDOF 4
ENDMDL
MODEL      154
REMARK 921   NORMALIZED FREE ENERGY PREDICTED BY IDOCK:   -3.76 KCAL/MOL
REMARK 922        TOTAL FREE ENERGY PREDICTED BY IDOCK:   -5.48 KCAL/MOL
REMARK 923 INTER-LIGAND FREE ENERGY PREDICTED BY IDOCK:   -4.50 KCAL/MOL
REMARK 924 INTRA-LIGAND FREE ENERGY PREDICTED BY IDOCK:   -0.97 KCAL/MOL
REMARK 927      BINDING AFFINITY PREDICTED BY RF-SCORE:    0.00 PKD
ROOT
HETATM    1  C   UNL     1      -9.876   8.871  66.136  1.00  0.00    -0.326 C  
HETATM    2  C   UNL     1     -10.496   8.009  67.265  1.00  0.00    -0.314 C  
HETATM    3  C   UNL     1      -9.522   6.830  67.442  1.00  0.00    -0.150 C  
ENDROOT
BRANCH   2   4
HETATM    4  N   UNL     1     -10.759   8.789  68.513  1.00  0.00    -0.122 NA 
BRANCH   4   5
HETATM    5  C   UNL     1      -9.902   8.361  69.651  1.00  0.00    -0.184 C  
BRANCH   5   6
HETATM    6  C   UNL     1     -10.596   7.967  70.970  1.00  0.00    -0.239 C  
HETATM    7  C   UNL     1      -9.767   7.096  71.967  1.00  0.00    -0.173 C  
HETATM    8  C   UNL     1      -8.469   7.734  72.499  1.00  0.00    -0.175 A  
HETATM    9  C   UNL     1      -9.598   5.623  71.552  1.00  0.00    -0.184 A  
HETATM   10  C   UNL     1     -10.260   4.544  72.159  1.00  0.00    -0.188 A  
HETATM   11  C   UNL     1      -7.339   7.967  71.695  1.00  0.00    -0.078 A  
HETATM   12  O   UNL     1     -11.213   4.662  73.131  1.00  0.00    -0.277 OA 
HETATM   13  C   UNL     1      -6.134   8.426  72.227  1.00  0.00    -0.065 A  
HETATM   14  C   UNL     1      -9.963   3.219  71.810  1.00  0.00    -0.192 A  
HETATM   15  C   UNL     1      -8.987   2.930  70.861  1.00  0.00    -0.164 A  
HETATM   16  C   UNL     1      -6.037   8.708  73.580  1.00  0.00    -0.116 A  
HETATM   17  H   UNL     1     -11.660   3.932  73.541  1.00  0.00     0.000 HD 
HETATM   18  C   UNL     1      -8.323   3.970  70.227  1.00  0.00    -0.081 A  
HETATM   19  C   UNL     1      -7.153   8.529  74.400  1.00  0.00    -0.195 A  
HETATM   20  C   UNL     1      -8.355   8.044  73.863  1.00  0.00    -0.319 A  
HETATM   21  C   UNL     1      -7.209   3.743  69.249  1.00  0.00    -0.049 C  
HETATM   22  C   UNL     1      -8.666   5.290  70.552  1.00  0.00    -0.132 A  
ENDBRANCH   5   6
ENDBRANCH   4   5
BRANCH   4  23
HETATM   23  C   UNL     1     -10.845  10.277  68.394  1.00  0.00    -0.245 C  
HETATM   24  C   UNL     1     -12.007  10.926  69.167  1.00  0.00    -0.359 C  
HETATM   25  C   UNL     1      -9.577  10.992  68.924  1.00  0.00    -0.174 C  
ENDBRANCH   4  23
ENDBRANCH   2   4
TORSDOF 4
ENDMDL
MODEL      155
REMARK 921   NORMALIZED FREE ENERGY PREDICTED BY IDOCK:   -3.75 KCAL/MOL
REMARK 922        TOTAL FREE ENERGY PREDICTED BY IDOCK:   -5.47 KCAL/MOL
REMARK 923 INTER-LIGAND FREE ENERGY PREDICTED BY IDOCK:   -4.08 KCAL/MOL
REMARK 924 INTRA-LIGAND FREE ENERGY PREDICTED BY IDOCK:   -1.40 KCAL/MOL
REMARK 927      BINDING AFFINITY PREDICTED BY RF-SCORE:    0.00 PKD
ROOT
HETATM    1  C   UNL     1     -12.403   8.680  72.264  1.00  0.00    -0.449 C  
HETATM    2  C   UNL     1     -11.107   8.617  71.417  1.00  0.00    -0.274 C  
HETATM    3  C   UNL     1      -9.960   8.698  72.441  1.00  0.00    -0.320 C  
ENDROOT
BRANCH   2   4
HETATM    4  N   UNL     1     -11.056   7.420  70.522  1.00  0.00    -0.257 NA 
BRANCH   4   5
HETATM    5  C   UNL     1     -10.707   7.764  69.118  1.00  0.00    -0.126 C  
BRANCH   5   6
HETATM    6  C   UNL     1     -10.345   9.228  68.802  1.00  0.00    -0.231 C  
HETATM    7  C   UNL     1      -8.924   9.487  68.205  1.00  0.00    -0.124 C  
HETATM    8  C   UNL     1      -8.632   8.815  66.850  1.00  0.00    -0.120 A  
HETATM    9  C   UNL     1      -7.767   9.361  69.212  1.00  0.00    -0.083 A  
HETATM   10  C   UNL     1      -7.044  10.445  69.734  1.00  0.00    -0.148 A  
HETATM   11  C   UNL     1      -8.491   7.425  66.694  1.00  0.00    -0.124 A  
HETATM   12  O   UNL     1      -7.331  11.759  69.496  1.00  0.00    -0.346 OA 
HETATM   13  C   UNL     1      -8.099   6.852  65.484  1.00  0.00    -0.132 A  
HETATM   14  C   UNL     1      -5.923  10.246  70.552  1.00  0.00    -0.106 A  
HETATM   15  C   UNL     1      -5.479   8.963  70.859  1.00  0.00    -0.029 A  
HETATM   16  C   UNL     1      -7.878   7.654  64.377  1.00  0.00    -0.137 A  
HETATM   17  H   UNL     1      -6.841  12.493  69.849  1.00  0.00     0.000 HD 
HETATM   18  C   UNL     1      -6.177   7.866  70.375  1.00  0.00    -0.036 A  
HETATM   19  C   UNL     1      -8.051   9.035  64.485  1.00  0.00    -0.143 A  
HETATM   20  C   UNL     1      -8.421   9.608  65.711  1.00  0.00    -0.142 A  
HETATM   21  C   UNL     1      -5.723   6.454  70.597  1.00  0.00    -0.023 C  
HETATM   22  C   UNL     1      -7.325   8.083  69.599  1.00  0.00    -0.085 A  
ENDBRANCH   5   6
ENDBRANCH   4   5
BRANCH   4  23
HETATM   23  C   UNL     1     -10.316   6.218  71.016  1.00  0.00    -0.211 C  
HETATM   24  C   UNL     1     -11.107   5.316  71.980  1.00  0.00    -0.151 C  
HETATM   25  C   UNL     1      -9.879   5.274  69.867  1.00  0.00    -0.282 C  
ENDBRANCH   4  23
ENDBRANCH   2   4
TORSDOF 4
ENDMDL
MODEL      156
REMARK 921   NORMALIZED FREE ENERGY PREDICTED BY IDOCK:   -3.75 KCAL/MOL
REMARK 922        TOTAL FREE ENERGY PREDICTED BY IDOCK:   -5.47 KCAL/MOL
REMARK 923 INTER-LIGAND FREE ENERGY PREDICTED BY IDOCK:   -4.63 KCAL/MOL
REMARK 924 INTRA-LIGAND FREE ENERGY PREDICTED BY IDOCK:   -0.84 KCAL/MOL
REMARK 927      BINDING AFFINITY PREDICTED BY RF-SCORE:    0.00 PKD
ROOT
HETATM    1  C   UNL     1      -8.817   9.760  64.151  1.00  0.00    -0.260 C  
HETATM    2  C   UNL     1      -7.545   9.185  64.824  1.00  0.00    -0.108 C  
HETATM    3  C   UNL     1      -6.450   9.278  63.746  1.00  0.00    -0.091 C  
ENDROOT
BRANCH   2   4
HETATM    4  N   UNL     1      -7.209   9.871  66.110  1.00  0.00    -0.100 NA 
BRANCH   4   5
HETATM    5  C   UNL     1      -7.969  11.135  66.304  1.00  0.00    -0.125 C  
BRANCH   5   6
HETATM    6  C   UNL     1      -9.187  11.108  67.249  1.00  0.00    -0.166 C  
HETATM    7  C   UNL     1     -10.167  12.322  67.166  1.00  0.00    -0.224 C  
HETATM    8  C   UNL     1     -10.859  12.535  65.805  1.00  0.00    -0.310 A  
HETATM    9  C   UNL     1      -9.638  13.625  67.792  1.00  0.00    -0.224 A  
HETATM   10  C   UNL     1     -10.091  14.164  69.007  1.00  0.00    -0.088 A  
HETATM   11  C   UNL     1     -10.175  12.952  64.650  1.00  0.00    -0.321 A  
HETATM   12  O   UNL     1     -10.987  13.560  69.842  1.00  0.00    -0.452 OA 
HETATM   13  C   UNL     1     -10.843  13.262  63.465  1.00  0.00     0.314 A  
HETATM   14  C   UNL     1      -9.651  15.418  69.455  1.00  0.00    -0.270 A  
HETATM   15  C   UNL     1      -8.763  16.177  68.698  1.00  0.00    -0.214 A  
HETATM   16  C   UNL     1     -12.218  13.120  63.388  1.00  0.00    -0.521 A  
HETATM   17  H   UNL     1     -11.293  13.925  70.663  1.00  0.00     0.000 HD 
HETATM   18  C   UNL     1      -8.281  15.671  67.500  1.00  0.00    -0.185 A  
HETATM   19  C   UNL     1     -12.924  12.666  64.504  1.00  0.00    -0.236 A  
HETATM   20  C   UNL     1     -12.250  12.380  65.700  1.00  0.00    -0.322 A  
HETATM   21  C   UNL     1      -7.382  16.456  66.592  1.00  0.00    -0.241 C  
HETATM   22  C   UNL     1      -8.692  14.394  67.091  1.00  0.00    -0.243 A  
ENDBRANCH   5   6
ENDBRANCH   4   5
BRANCH   4  23
HETATM   23  C   UNL     1      -7.167   9.036  67.350  1.00  0.00    -0.083 C  
HETATM   24  C   UNL     1      -7.918   7.696  67.259  1.00  0.00    -0.118 C  
HETATM   25  C   UNL     1      -5.723   8.648  67.757  1.00  0.00    -0.039 C  
ENDBRANCH   4  23
ENDBRANCH   2   4
TORSDOF 4
ENDMDL
MODEL      157
REMARK 921   NORMALIZED FREE ENERGY PREDICTED BY IDOCK:   -3.74 KCAL/MOL
REMARK 922        TOTAL FREE ENERGY PREDICTED BY IDOCK:   -5.46 KCAL/MOL
REMARK 923 INTER-LIGAND FREE ENERGY PREDICTED BY IDOCK:   -5.23 KCAL/MOL
REMARK 924 INTRA-LIGAND FREE ENERGY PREDICTED BY IDOCK:   -0.23 KCAL/MOL
REMARK 927      BINDING AFFINITY PREDICTED BY RF-SCORE:    0.00 PKD
ROOT
HETATM    1  C   UNL     1      -7.550  11.198  69.381  1.00  0.00    -0.013 C  
HETATM    2  C   UNL     1      -8.293  12.320  68.611  1.00  0.00    -0.002 C  
HETATM    3  C   UNL     1      -7.343  12.707  67.463  1.00  0.00    -0.151 C  
ENDROOT
BRANCH   2   4
HETATM    4  N   UNL     1      -9.663  11.913  68.172  1.00  0.00    -0.189 NA 
BRANCH   4   5
HETATM    5  C   UNL     1      -9.711  10.519  67.654  1.00  0.00    -0.165 C  
BRANCH   5   6
HETATM    6  C   UNL     1     -10.779  10.178  66.596  1.00  0.00    -0.156 C  
HETATM    7  C   UNL     1     -10.605  10.831  65.188  1.00  0.00    -0.239 C  
HETATM    8  C   UNL     1      -9.315  10.461  64.429  1.00  0.00    -0.321 A  
HETATM    9  C   UNL     1     -10.942  12.331  65.124  1.00  0.00    -0.344 A  
HETATM   10  C   UNL     1     -12.093  12.864  64.521  1.00  0.00    -0.413 A  
HETATM   11  C   UNL     1      -8.037  10.886  64.832  1.00  0.00     0.168 A  
HETATM   12  O   UNL     1     -13.113  12.122  63.998  1.00  0.00    -0.723 OA 
HETATM   13  C   UNL     1      -6.900  10.647  64.059  1.00  0.00     0.237 A  
HETATM   14  C   UNL     1     -12.273  14.249  64.394  1.00  0.00    -0.471 A  
HETATM   15  C   UNL     1     -11.304  15.141  64.845  1.00  0.00    -0.402 A  
HETATM   16  C   UNL     1      -7.004   9.934  62.877  1.00  0.00    -0.122 A  
HETATM   17  H   UNL     1     -13.891  12.482  63.591  1.00  0.00     0.000 HD 
HETATM   18  C   UNL     1     -10.161  14.653  65.460  1.00  0.00    -0.405 A  
HETATM   19  C   UNL     1      -8.252   9.460  62.469  1.00  0.00    -0.153 A  
HETATM   20  C   UNL     1      -9.395   9.724  63.237  1.00  0.00    -0.125 A  
HETATM   21  C   UNL     1      -9.038  15.542  65.906  1.00  0.00    -0.231 C  
HETATM   22  C   UNL     1     -10.019  13.268  65.625  1.00  0.00    -0.242 A  
ENDBRANCH   5   6
ENDBRANCH   4   5
BRANCH   4  23
HETATM   23  C   UNL     1     -10.804  12.218  69.090  1.00  0.00    -0.099 C  
HETATM   24  C   UNL     1     -11.933  13.058  68.467  1.00  0.00    -0.296 C  
HETATM   25  C   UNL     1     -11.508  10.941  69.611  1.00  0.00    -0.377 C  
ENDBRANCH   4  23
ENDBRANCH   2   4
TORSDOF 4
ENDMDL
MODEL      158
REMARK 921   NORMALIZED FREE ENERGY PREDICTED BY IDOCK:   -3.74 KCAL/MOL
REMARK 922        TOTAL FREE ENERGY PREDICTED BY IDOCK:   -5.46 KCAL/MOL
REMARK 923 INTER-LIGAND FREE ENERGY PREDICTED BY IDOCK:   -4.53 KCAL/MOL
REMARK 924 INTRA-LIGAND FREE ENERGY PREDICTED BY IDOCK:   -0.93 KCAL/MOL
REMARK 927      BINDING AFFINITY PREDICTED BY RF-SCORE:    0.00 PKD
ROOT
HETATM    1  C   UNL     1     -13.052   9.521  71.311  1.00  0.00    -0.402 C  
HETATM    2  C   UNL     1     -12.520   8.116  71.692  1.00  0.00    -0.319 C  
HETATM    3  C   UNL     1     -13.777   7.232  71.796  1.00  0.00    -0.399 C  
ENDROOT
BRANCH   2   4
HETATM    4  N   UNL     1     -11.483   7.611  70.741  1.00  0.00    -0.282 NA 
BRANCH   4   5
HETATM    5  C   UNL     1     -11.084   8.627  69.731  1.00  0.00    -0.067 C  
BRANCH   5   6
HETATM    6  C   UNL     1     -10.892   8.163  68.274  1.00  0.00     0.029 C  
HETATM    7  C   UNL     1      -9.688   8.782  67.493  1.00  0.00    -0.214 C  
HETATM    8  C   UNL     1      -8.290   8.498  68.077  1.00  0.00    -0.127 A  
HETATM    9  C   UNL     1      -9.883  10.245  67.059  1.00  0.00    -0.238 A  
HETATM   10  C   UNL     1     -10.124  10.659  65.739  1.00  0.00    -0.266 A  
HETATM   11  C   UNL     1      -7.838   9.042  69.292  1.00  0.00    -0.095 A  
HETATM   12  O   UNL     1     -10.315   9.816  64.682  1.00  0.00    -0.240 OA 
HETATM   13  C   UNL     1      -6.526   8.875  69.734  1.00  0.00    -0.035 A  
HETATM   14  C   UNL     1     -10.169  12.018  65.400  1.00  0.00    -0.295 A  
HETATM   15  C   UNL     1      -9.958  13.004  66.360  1.00  0.00    -0.277 A  
HETATM   16  C   UNL     1      -5.635   8.117  68.991  1.00  0.00    -0.034 A  
HETATM   17  H   UNL     1     -10.478  10.096  63.789  1.00  0.00     0.000 HD 
HETATM   18  C   UNL     1      -9.732  12.635  67.678  1.00  0.00    -0.197 A  
HETATM   19  C   UNL     1      -6.064   7.526  67.802  1.00  0.00    -0.044 A  
HETATM   20  C   UNL     1      -7.377   7.718  67.349  1.00  0.00    -0.092 A  
HETATM   21  C   UNL     1      -9.421  13.630  68.756  1.00  0.00     0.010 C  
HETATM   22  C   UNL     1      -9.740  11.272  68.010  1.00  0.00    -0.185 A  
ENDBRANCH   5   6
ENDBRANCH   4   5
BRANCH   4  23
HETATM   23  C   UNL     1     -10.307   6.889  71.318  1.00  0.00    -0.203 C  
HETATM   24  C   UNL     1     -10.321   6.740  72.849  1.00  0.00    -0.245 C  
HETATM   25  C   UNL     1     -10.179   5.439  70.786  1.00  0.00    -0.313 C  
ENDBRANCH   4  23
ENDBRANCH   2   4
TORSDOF 4
ENDMDL
MODEL      159
REMARK 921   NORMALIZED FREE ENERGY PREDICTED BY IDOCK:   -3.72 KCAL/MOL
REMARK 922        TOTAL FREE ENERGY PREDICTED BY IDOCK:   -5.44 KCAL/MOL
REMARK 923 INTER-LIGAND FREE ENERGY PREDICTED BY IDOCK:   -4.72 KCAL/MOL
REMARK 924 INTRA-LIGAND FREE ENERGY PREDICTED BY IDOCK:   -0.71 KCAL/MOL
REMARK 927      BINDING AFFINITY PREDICTED BY RF-SCORE:    0.00 PKD
ROOT
HETATM    1  C   UNL     1      -8.000   8.136  64.334  1.00  0.00    -0.145 C  
HETATM    2  C   UNL     1      -8.103   6.691  64.886  1.00  0.00    -0.115 C  
HETATM    3  C   UNL     1      -6.652   6.176  64.917  1.00  0.00    -0.039 C  
ENDROOT
BRANCH   2   4
HETATM    4  N   UNL     1      -8.814   6.622  66.200  1.00  0.00    -0.150 NA 
BRANCH   4   5
HETATM    5  C   UNL     1      -9.051   7.964  66.798  1.00  0.00    -0.156 C  
BRANCH   5   6
HETATM    6  C   UNL     1      -7.915   8.596  67.626  1.00  0.00    -0.107 C  
HETATM    7  C   UNL     1      -8.326   9.700  68.653  1.00  0.00    -0.114 C  
HETATM    8  C   UNL     1      -9.289   9.252  69.771  1.00  0.00    -0.199 A  
HETATM    9  C   UNL     1      -8.702  11.056  68.030  1.00  0.00    -0.138 A  
HETATM   10  C   UNL     1      -7.901  12.207  68.085  1.00  0.00    -0.147 A  
HETATM   11  C   UNL     1     -10.632   8.907  69.539  1.00  0.00    -0.233 A  
HETATM   12  O   UNL     1      -6.641  12.254  68.612  1.00  0.00    -0.067 OA 
HETATM   13  C   UNL     1     -11.516   8.630  70.581  1.00  0.00    -0.256 A  
HETATM   14  C   UNL     1      -8.362  13.439  67.602  1.00  0.00    -0.179 A  
HETATM   15  C   UNL     1      -9.641  13.564  67.066  1.00  0.00    -0.248 A  
HETATM   16  C   UNL     1     -11.069   8.649  71.892  1.00  0.00    -0.416 A  
HETATM   17  H   UNL     1      -6.099  13.033  68.649  1.00  0.00     0.000 HD 
HETATM   18  C   UNL     1     -10.457  12.446  66.980  1.00  0.00    -0.238 A  
HETATM   19  C   UNL     1      -9.731   8.946  72.156  1.00  0.00    -0.232 A  
HETATM   20  C   UNL     1      -8.852   9.247  71.105  1.00  0.00    -0.139 A  
HETATM   21  C   UNL     1     -11.872  12.511  66.487  1.00  0.00    -0.434 C  
HETATM   22  C   UNL     1      -9.962  11.211  67.423  1.00  0.00    -0.204 A  
ENDBRANCH   5   6
ENDBRANCH   4   5
BRANCH   4  23
HETATM   23  C   UNL     1     -10.016   5.738  66.291  1.00  0.00    -0.085 C  
HETATM   24  C   UNL     1      -9.723   4.276  66.672  1.00  0.00    -0.239 C  
HETATM   25  C   UNL     1     -11.033   6.222  67.355  1.00  0.00    -0.447 C  
ENDBRANCH   4  23
ENDBRANCH   2   4
TORSDOF 4
ENDMDL
MODEL      160
REMARK 921   NORMALIZED FREE ENERGY PREDICTED BY IDOCK:   -3.70 KCAL/MOL
REMARK 922        TOTAL FREE ENERGY PREDICTED BY IDOCK:   -5.40 KCAL/MOL
REMARK 923 INTER-LIGAND FREE ENERGY PREDICTED BY IDOCK:   -4.54 KCAL/MOL
REMARK 924 INTRA-LIGAND FREE ENERGY PREDICTED BY IDOCK:   -0.87 KCAL/MOL
REMARK 927      BINDING AFFINITY PREDICTED BY RF-SCORE:    0.00 PKD
ROOT
HETATM    1  C   UNL     1      -9.742  11.489  69.019  1.00  0.00     0.016 C  
HETATM    2  C   UNL     1     -11.091  10.816  68.660  1.00  0.00    -0.259 C  
HETATM    3  C   UNL     1     -10.753   9.841  67.517  1.00  0.00    -0.327 C  
ENDROOT
BRANCH   2   4
HETATM    4  N   UNL     1     -11.755  10.182  69.840  1.00  0.00    -0.214 NA 
BRANCH   4   5
HETATM    5  C   UNL     1     -11.073   8.938  70.286  1.00  0.00    -0.228 C  
BRANCH   5   6
HETATM    6  C   UNL     1     -10.383   8.946  71.664  1.00  0.00    -0.416 C  
HETATM    7  C   UNL     1      -9.065   8.116  71.793  1.00  0.00    -0.229 C  
HETATM    8  C   UNL     1      -7.902   8.554  70.881  1.00  0.00    -0.113 A  
HETATM    9  C   UNL     1      -9.264   6.591  71.840  1.00  0.00    -0.148 A  
HETATM   10  C   UNL     1      -9.116   5.804  72.993  1.00  0.00    -0.124 A  
HETATM   11  C   UNL     1      -7.916   8.394  69.485  1.00  0.00    -0.111 A  
HETATM   12  O   UNL     1      -8.874   6.294  74.244  1.00  0.00    -0.130 OA 
HETATM   13  C   UNL     1      -6.802   8.679  68.696  1.00  0.00    -0.063 A  
HETATM   14  C   UNL     1      -9.193   4.405  72.934  1.00  0.00    -0.135 A  
HETATM   15  C   UNL     1      -9.399   3.750  71.723  1.00  0.00    -0.196 A  
HETATM   16  C   UNL     1      -5.649   9.176  69.280  1.00  0.00    -0.035 A  
HETATM   17  H   UNL     1      -8.774   5.761  75.024  1.00  0.00     0.000 HD 
HETATM   18  C   UNL     1      -9.565   4.494  70.565  1.00  0.00    -0.274 A  
HETATM   19  C   UNL     1      -5.615   9.388  70.659  1.00  0.00    -0.045 A  
HETATM   20  C   UNL     1      -6.730   9.076  71.450  1.00  0.00    -0.076 A  
HETATM   21  C   UNL     1      -9.717   3.864  69.212  1.00  0.00    -0.157 C  
HETATM   22  C   UNL     1      -9.536   5.893  70.648  1.00  0.00    -0.208 A  
ENDBRANCH   5   6
ENDBRANCH   4   5
BRANCH   4  23
HETATM   23  C   UNL     1     -12.125  11.070  70.985  1.00  0.00    -0.301 C  
HETATM   24  C   UNL     1     -12.609  12.477  70.589  1.00  0.00    -0.237 C  
HETATM   25  C   UNL     1     -13.278  10.488  71.842  1.00  0.00    -0.526 C  
ENDBRANCH   4  23
ENDBRANCH   2   4
TORSDOF 4
ENDMDL
MODEL      161
REMARK 921   NORMALIZED FREE ENERGY PREDICTED BY IDOCK:   -3.69 KCAL/MOL
REMARK 922        TOTAL FREE ENERGY PREDICTED BY IDOCK:   -5.40 KCAL/MOL
REMARK 923 INTER-LIGAND FREE ENERGY PREDICTED BY IDOCK:   -3.98 KCAL/MOL
REMARK 924 INTRA-LIGAND FREE ENERGY PREDICTED BY IDOCK:   -1.43 KCAL/MOL
REMARK 927      BINDING AFFINITY PREDICTED BY RF-SCORE:    0.00 PKD
ROOT
HETATM    1  C   UNL     1      -9.654   9.721  64.869  1.00  0.00    -0.316 C  
HETATM    2  C   UNL     1      -8.396   8.831  64.704  1.00  0.00    -0.166 C  
HETATM    3  C   UNL     1      -8.233   8.656  63.183  1.00  0.00    -0.170 C  
ENDROOT
BRANCH   2   4
HETATM    4  N   UNL     1      -7.195   9.391  65.397  1.00  0.00    -0.090 NA 
BRANCH   4   5
HETATM    5  C   UNL     1      -7.437  10.743  65.967  1.00  0.00    -0.125 C  
BRANCH   5   6
HETATM    6  C   UNL     1      -6.671  11.136  67.245  1.00  0.00    -0.091 C  
HETATM    7  C   UNL     1      -7.533  11.507  68.494  1.00  0.00    -0.115 C  
HETATM    8  C   UNL     1      -8.449  10.391  69.034  1.00  0.00    -0.155 A  
HETATM    9  C   UNL     1      -8.224  12.880  68.418  1.00  0.00    -0.121 A  
HETATM   10  C   UNL     1      -7.831  14.010  69.153  1.00  0.00     0.106 A  
HETATM   11  C   UNL     1      -9.577   9.917  68.342  1.00  0.00    -0.157 A  
HETATM   12  O   UNL     1      -6.728  14.072  69.956  1.00  0.00    -0.329 OA 
HETATM   13  C   UNL     1     -10.462   8.999  68.908  1.00  0.00    -0.231 A  
HETATM   14  C   UNL     1      -8.583  15.193  69.126  1.00  0.00    -0.218 A  
HETATM   15  C   UNL     1      -9.756  15.279  68.382  1.00  0.00    -0.213 A  
HETATM   16  C   UNL     1     -10.218   8.492  70.173  1.00  0.00    -0.202 A  
HETATM   17  H   UNL     1      -6.463  14.837  70.453  1.00  0.00     0.000 HD 
HETATM   18  C   UNL     1     -10.169  14.189  67.631  1.00  0.00    -0.241 A  
HETATM   19  C   UNL     1      -9.083   8.908  70.872  1.00  0.00    -0.283 A  
HETATM   20  C   UNL     1      -8.210   9.850  70.308  1.00  0.00    -0.102 A  
HETATM   21  C   UNL     1     -11.457  14.174  66.863  1.00  0.00    -0.373 C  
HETATM   22  C   UNL     1      -9.379  13.029  67.629  1.00  0.00    -0.202 A  
ENDBRANCH   5   6
ENDBRANCH   4   5
BRANCH   4  23
HETATM   23  C   UNL     1      -6.462   8.496  66.345  1.00  0.00    -0.058 C  
HETATM   24  C   UNL     1      -7.343   7.478  67.091  1.00  0.00    -0.094 C  
HETATM   25  C   UNL     1      -5.383   7.636  65.640  1.00  0.00    -0.029 C  
ENDBRANCH   4  23
ENDBRANCH   2   4
TORSDOF 4
ENDMDL
MODEL      162
REMARK 921   NORMALIZED FREE ENERGY PREDICTED BY IDOCK:   -3.65 KCAL/MOL
REMARK 922        TOTAL FREE ENERGY PREDICTED BY IDOCK:   -5.34 KCAL/MOL
REMARK 923 INTER-LIGAND FREE ENERGY PREDICTED BY IDOCK:   -4.22 KCAL/MOL
REMARK 924 INTRA-LIGAND FREE ENERGY PREDICTED BY IDOCK:   -1.12 KCAL/MOL
REMARK 927      BINDING AFFINITY PREDICTED BY RF-SCORE:    0.00 PKD
ROOT
HETATM    1  C   UNL     1      -9.556   3.298  72.321  1.00  0.00    -0.202 C  
HETATM    2  C   UNL     1     -10.587   4.365  72.771  1.00  0.00    -0.182 C  
HETATM    3  C   UNL     1     -10.639   4.241  74.305  1.00  0.00    -0.307 C  
ENDROOT
BRANCH   2   4
HETATM    4  N   UNL     1     -10.259   5.735  72.270  1.00  0.00    -0.191 NA 
BRANCH   4   5
HETATM    5  C   UNL     1      -9.723   5.728  70.882  1.00  0.00    -0.174 C  
BRANCH   5   6
HETATM    6  C   UNL     1      -8.301   6.277  70.654  1.00  0.00    -0.133 C  
HETATM    7  C   UNL     1      -8.067   7.094  69.343  1.00  0.00    -0.130 C  
HETATM    8  C   UNL     1      -8.903   8.380  69.194  1.00  0.00    -0.142 A  
HETATM    9  C   UNL     1      -8.008   6.251  68.057  1.00  0.00    -0.108 A  
HETATM   10  C   UNL     1      -6.834   5.979  67.336  1.00  0.00    -0.063 A  
HETATM   11  C   UNL     1     -10.295   8.375  68.993  1.00  0.00    -0.231 A  
HETATM   12  O   UNL     1      -5.578   6.341  67.730  1.00  0.00    -0.005 OA 
HETATM   13  C   UNL     1     -11.010   9.544  68.733  1.00  0.00    -0.116 A  
HETATM   14  C   UNL     1      -6.875   5.307  66.107  1.00  0.00    -0.058 A  
HETATM   15  C   UNL     1      -8.085   4.903  65.551  1.00  0.00    -0.113 A  
HETATM   16  C   UNL     1     -10.356  10.764  68.709  1.00  0.00    -0.209 A  
HETATM   17  H   UNL     1      -4.784   6.157  67.242  1.00  0.00     0.000 HD 
HETATM   18  C   UNL     1      -9.265   5.140  66.240  1.00  0.00    -0.147 A  
HETATM   19  C   UNL     1      -8.981  10.811  68.947  1.00  0.00    -0.158 A  
HETATM   20  C   UNL     1      -8.264   9.630  69.184  1.00  0.00    -0.120 A  
HETATM   21  C   UNL     1     -10.614   4.805  65.677  1.00  0.00    -0.220 C  
HETATM   22  C   UNL     1      -9.203   5.769  67.492  1.00  0.00    -0.108 A  
ENDBRANCH   5   6
ENDBRANCH   4   5
BRANCH   4  23
HETATM   23  C   UNL     1     -11.275   6.812  72.482  1.00  0.00    -0.268 C  
HETATM   24  C   UNL     1     -10.711   8.243  72.516  1.00  0.00    -0.411 C  
HETATM   25  C   UNL     1     -12.351   6.843  71.368  1.00  0.00    -0.421 C  
ENDBRANCH   4  23
ENDBRANCH   2   4
TORSDOF 4
ENDMDL
MODEL      163
REMARK 921   NORMALIZED FREE ENERGY PREDICTED BY IDOCK:   -3.64 KCAL/MOL
REMARK 922        TOTAL FREE ENERGY PREDICTED BY IDOCK:   -5.33 KCAL/MOL
REMARK 923 INTER-LIGAND FREE ENERGY PREDICTED BY IDOCK:   -4.44 KCAL/MOL
REMARK 924 INTRA-LIGAND FREE ENERGY PREDICTED BY IDOCK:   -0.89 KCAL/MOL
REMARK 927      BINDING AFFINITY PREDICTED BY RF-SCORE:    0.00 PKD
ROOT
HETATM    1  C   UNL     1     -10.874  11.307  64.785  1.00  0.00    -0.314 C  
HETATM    2  C   UNL     1      -9.923  10.204  65.316  1.00  0.00    -0.311 C  
HETATM    3  C   UNL     1      -8.515  10.820  65.230  1.00  0.00    -0.116 C  
ENDROOT
BRANCH   2   4
HETATM    4  N   UNL     1     -10.305   9.717  66.678  1.00  0.00    -0.226 NA 
BRANCH   4   5
HETATM    5  C   UNL     1      -9.729   8.383  66.994  1.00  0.00    -0.206 C  
BRANCH   5   6
HETATM    6  C   UNL     1     -10.645   7.150  66.859  1.00  0.00    -0.371 C  
HETATM    7  C   UNL     1     -10.015   5.765  67.212  1.00  0.00    -0.178 C  
HETATM    8  C   UNL     1      -9.518   5.602  68.662  1.00  0.00    -0.152 A  
HETATM    9  C   UNL     1      -9.030   5.217  66.164  1.00  0.00    -0.139 A  
HETATM   10  C   UNL     1      -9.305   4.150  65.294  1.00  0.00    -0.164 A  
HETATM   11  C   UNL     1      -8.404   6.289  69.177  1.00  0.00    -0.120 A  
HETATM   12  O   UNL     1     -10.513   3.520  65.192  1.00  0.00    -0.415 OA 
HETATM   13  C   UNL     1      -7.898   6.028  70.450  1.00  0.00    -0.106 A  
HETATM   14  C   UNL     1      -8.316   3.626  64.450  1.00  0.00    -0.093 A  
HETATM   15  C   UNL     1      -7.021   4.135  64.462  1.00  0.00    -0.050 A  
HETATM   16  C   UNL     1      -8.520   5.099  71.266  1.00  0.00    -0.124 A  
HETATM   17  H   UNL     1     -10.699   2.799  64.604  1.00  0.00     0.000 HD 
HETATM   18  C   UNL     1      -6.714   5.200  65.296  1.00  0.00    -0.048 A  
HETATM   19  C   UNL     1      -9.655   4.430  70.804  1.00  0.00    -0.259 A  
HETATM   20  C   UNL     1     -10.145   4.678  69.513  1.00  0.00    -0.212 A  
HETATM   21  C   UNL     1      -5.328   5.757  65.423  1.00  0.00    -0.010 C  
HETATM   22  C   UNL     1      -7.727   5.746  66.098  1.00  0.00    -0.095 A  
ENDBRANCH   5   6
ENDBRANCH   4   5
BRANCH   4  23
HETATM   23  C   UNL     1     -10.177  10.677  67.817  1.00  0.00    -0.180 C  
HETATM   24  C   UNL     1     -11.480  10.949  68.589  1.00  0.00    -0.380 C  
HETATM   25  C   UNL     1      -9.178  10.190  68.897  1.00  0.00    -0.172 C  
ENDBRANCH   4  23
ENDBRANCH   2   4
TORSDOF 4
ENDMDL
MODEL      164
REMARK 921   NORMALIZED FREE ENERGY PREDICTED BY IDOCK:   -3.63 KCAL/MOL
REMARK 922        TOTAL FREE ENERGY PREDICTED BY IDOCK:   -5.32 KCAL/MOL
REMARK 923 INTER-LIGAND FREE ENERGY PREDICTED BY IDOCK:   -4.18 KCAL/MOL
REMARK 924 INTRA-LIGAND FREE ENERGY PREDICTED BY IDOCK:   -1.15 KCAL/MOL
REMARK 927      BINDING AFFINITY PREDICTED BY RF-SCORE:    0.00 PKD
ROOT
HETATM    1  C   UNL     1     -11.572  11.469  69.634  1.00  0.00    -0.403 C  
HETATM    2  C   UNL     1     -11.547  10.091  70.343  1.00  0.00    -0.302 C  
HETATM    3  C   UNL     1     -12.999   9.855  70.799  1.00  0.00    -0.277 C  
ENDROOT
BRANCH   2   4
HETATM    4  N   UNL     1     -10.983   9.006  69.482  1.00  0.00    -0.165 NA 
BRANCH   4   5
HETATM    5  C   UNL     1     -10.154   9.532  68.364  1.00  0.00    -0.175 C  
BRANCH   5   6
HETATM    6  C   UNL     1      -8.623   9.386  68.470  1.00  0.00    -0.123 C  
HETATM    7  C   UNL     1      -7.903   8.661  67.288  1.00  0.00    -0.097 C  
HETATM    8  C   UNL     1      -8.038   9.332  65.906  1.00  0.00    -0.111 A  
HETATM    9  C   UNL     1      -8.102   7.135  67.248  1.00  0.00    -0.115 A  
HETATM   10  C   UNL     1      -7.114   6.195  67.581  1.00  0.00    -0.074 A  
HETATM   11  C   UNL     1      -9.248   9.389  65.192  1.00  0.00    -0.287 A  
HETATM   12  O   UNL     1      -5.880   6.505  68.078  1.00  0.00    -0.014 OA 
HETATM   13  C   UNL     1      -9.317   9.886  63.891  1.00  0.00    -0.262 A  
HETATM   14  C   UNL     1      -7.327   4.821  67.403  1.00  0.00    -0.074 A  
HETATM   15  C   UNL     1      -8.522   4.345  66.871  1.00  0.00    -0.104 A  
HETATM   16  C   UNL     1      -8.178  10.383  63.279  1.00  0.00    -0.148 A  
HETATM   17  H   UNL     1      -5.212   5.869  68.304  1.00  0.00     0.000 HD 
HETATM   18  C   UNL     1      -9.528   5.242  66.544  1.00  0.00    -0.155 A  
HETATM   19  C   UNL     1      -6.969  10.382  63.975  1.00  0.00     0.025 A  
HETATM   20  C   UNL     1      -6.901   9.858  65.274  1.00  0.00    -0.114 A  
HETATM   21  C   UNL     1     -10.813   4.818  65.897  1.00  0.00    -0.107 C  
HETATM   22  C   UNL     1      -9.318   6.609  66.774  1.00  0.00    -0.184 A  
ENDBRANCH   5   6
ENDBRANCH   4   5
BRANCH   4  23
HETATM   23  C   UNL     1     -10.344   7.841  70.166  1.00  0.00    -0.218 C  
HETATM   24  C   UNL     1     -10.116   8.018  71.678  1.00  0.00    -0.238 C  
HETATM   25  C   UNL     1     -11.185   6.545  70.048  1.00  0.00    -0.453 C  
ENDBRANCH   4  23
ENDBRANCH   2   4
TORSDOF 4
ENDMDL
MODEL      165
REMARK 921   NORMALIZED FREE ENERGY PREDICTED BY IDOCK:   -3.61 KCAL/MOL
REMARK 922        TOTAL FREE ENERGY PREDICTED BY IDOCK:   -5.29 KCAL/MOL
REMARK 923 INTER-LIGAND FREE ENERGY PREDICTED BY IDOCK:   -4.17 KCAL/MOL
REMARK 924 INTRA-LIGAND FREE ENERGY PREDICTED BY IDOCK:   -1.12 KCAL/MOL
REMARK 927      BINDING AFFINITY PREDICTED BY RF-SCORE:    0.00 PKD
ROOT
HETATM    1  C   UNL     1     -11.230  10.508  67.815  1.00  0.00    -0.344 C  
HETATM    2  C   UNL     1     -10.174  11.274  66.977  1.00  0.00    -0.215 C  
HETATM    3  C   UNL     1      -9.882  10.357  65.776  1.00  0.00    -0.300 C  
ENDROOT
BRANCH   2   4
HETATM    4  N   UNL     1     -10.617  12.655  66.611  1.00  0.00    -0.246 NA 
BRANCH   4   5
HETATM    5  C   UNL     1      -9.748  13.712  67.196  1.00  0.00    -0.245 C  
BRANCH   5   6
HETATM    6  C   UNL     1      -9.303  13.551  68.663  1.00  0.00    -0.036 C  
HETATM    7  C   UNL     1      -7.765  13.586  68.938  1.00  0.00     0.030 C  
HETATM    8  C   UNL     1      -7.044  14.894  68.556  1.00  0.00    -0.108 A  
HETATM    9  C   UNL     1      -7.002  12.320  68.509  1.00  0.00    -0.092 A  
HETATM   10  C   UNL     1      -6.490  11.361  69.396  1.00  0.00    -0.108 A  
HETATM   11  C   UNL     1      -6.860  15.312  67.226  1.00  0.00    -0.108 A  
HETATM   12  O   UNL     1      -6.683  11.369  70.748  1.00  0.00    -0.368 OA 
HETATM   13  C   UNL     1      -6.094  16.431  66.901  1.00  0.00    -0.045 A  
HETATM   14  C   UNL     1      -5.699  10.297  68.941  1.00  0.00    -0.041 A  
HETATM   15  C   UNL     1      -5.381  10.168  67.592  1.00  0.00    -0.037 A  
HETATM   16  C   UNL     1      -5.522  17.194  67.905  1.00  0.00    -0.124 A  
HETATM   17  H   UNL     1      -6.336  10.720  71.349  1.00  0.00     0.000 HD 
HETATM   18  C   UNL     1      -5.881  11.087  66.682  1.00  0.00    -0.113 A  
HETATM   19  C   UNL     1      -5.720  16.832  69.239  1.00  0.00    -0.160 A  
HETATM   20  C   UNL     1      -6.472  15.692  69.559  1.00  0.00    -0.173 A  
HETATM   21  C   UNL     1      -5.525  11.063  65.225  1.00  0.00     0.031 C  
HETATM   22  C   UNL     1      -6.711  12.117  67.147  1.00  0.00    -0.123 A  
ENDBRANCH   5   6
ENDBRANCH   4   5
BRANCH   4  23
HETATM   23  C   UNL     1     -10.947  12.919  65.177  1.00  0.00    -0.289 C  
HETATM   24  C   UNL     1     -12.432  12.753  64.809  1.00  0.00    -0.539 C  
HETATM   25  C   UNL     1     -10.596  14.364  64.741  1.00  0.00    -0.417 C  
ENDBRANCH   4  23
ENDBRANCH   2   4
TORSDOF 4
ENDMDL
MODEL      166
REMARK 921   NORMALIZED FREE ENERGY PREDICTED BY IDOCK:   -3.60 KCAL/MOL
REMARK 922        TOTAL FREE ENERGY PREDICTED BY IDOCK:   -5.28 KCAL/MOL
REMARK 923 INTER-LIGAND FREE ENERGY PREDICTED BY IDOCK:   -4.09 KCAL/MOL
REMARK 924 INTRA-LIGAND FREE ENERGY PREDICTED BY IDOCK:   -1.20 KCAL/MOL
REMARK 927      BINDING AFFINITY PREDICTED BY RF-SCORE:    0.00 PKD
ROOT
HETATM    1  C   UNL     1      -5.802   7.523  69.747  1.00  0.00    -0.024 C  
HETATM    2  C   UNL     1      -6.215   8.337  71.000  1.00  0.00    -0.034 C  
HETATM    3  C   UNL     1      -6.963   9.564  70.445  1.00  0.00    -0.112 C  
ENDROOT
BRANCH   2   4
HETATM    4  N   UNL     1      -6.996   7.528  71.985  1.00  0.00    -0.061 NA 
BRANCH   4   5
HETATM    5  C   UNL     1      -7.002   6.076  71.661  1.00  0.00    -0.076 C  
BRANCH   5   6
HETATM    6  C   UNL     1      -8.017   5.177  72.394  1.00  0.00    -0.102 C  
HETATM    7  C   UNL     1      -9.317   4.802  71.611  1.00  0.00    -0.194 C  
HETATM    8  C   UNL     1      -9.110   4.007  70.307  1.00  0.00    -0.181 A  
HETATM    9  C   UNL     1     -10.341   5.943  71.476  1.00  0.00    -0.273 A  
HETATM   10  C   UNL     1     -11.553   6.012  72.180  1.00  0.00    -0.293 A  
HETATM   11  C   UNL     1      -8.522   4.557  69.154  1.00  0.00    -0.091 A  
HETATM   12  O   UNL     1     -11.942   5.132  73.150  1.00  0.00    -0.525 OA 
HETATM   13  C   UNL     1      -8.464   3.859  67.948  1.00  0.00    -0.105 A  
HETATM   14  C   UNL     1     -12.493   7.018  71.915  1.00  0.00    -0.346 A  
HETATM   15  C   UNL     1     -12.262   7.972  70.928  1.00  0.00    -0.122 A  
HETATM   16  C   UNL     1      -8.956   2.567  67.871  1.00  0.00    -0.194 A  
HETATM   17  H   UNL     1     -12.762   5.179  73.627  1.00  0.00     0.000 HD 
HETATM   18  C   UNL     1     -11.069   7.946  70.221  1.00  0.00    -0.232 A  
HETATM   19  C   UNL     1      -9.507   1.974  69.008  1.00  0.00    -0.160 A  
HETATM   20  C   UNL     1      -9.585   2.690  70.212  1.00  0.00    -0.114 A  
HETATM   21  C   UNL     1     -10.774   8.889  69.093  1.00  0.00    -0.162 C  
HETATM   22  C   UNL     1     -10.118   6.963  70.533  1.00  0.00    -0.201 A  
ENDBRANCH   5   6
ENDBRANCH   4   5
BRANCH   4  23
HETATM   23  C   UNL     1      -6.757   7.786  73.438  1.00  0.00    -0.087 C  
HETATM   24  C   UNL     1      -5.651   8.813  73.744  1.00  0.00    -0.114 C  
HETATM   25  C   UNL     1      -8.011   8.338  74.160  1.00  0.00    -0.282 C  
ENDBRANCH   4  23
ENDBRANCH   2   4
TORSDOF 4
ENDMDL
MODEL      167
REMARK 921   NORMALIZED FREE ENERGY PREDICTED BY IDOCK:   -3.49 KCAL/MOL
REMARK 922        TOTAL FREE ENERGY PREDICTED BY IDOCK:   -5.14 KCAL/MOL
REMARK 923 INTER-LIGAND FREE ENERGY PREDICTED BY IDOCK:   -3.78 KCAL/MOL
REMARK 924 INTRA-LIGAND FREE ENERGY PREDICTED BY IDOCK:   -1.37 KCAL/MOL
REMARK 927      BINDING AFFINITY PREDICTED BY RF-SCORE:    0.00 PKD
ROOT
HETATM    1  C   UNL     1     -10.754   9.108  67.483  1.00  0.00    -0.255 C  
HETATM    2  C   UNL     1      -9.804   9.972  68.352  1.00  0.00    -0.154 C  
HETATM    3  C   UNL     1     -10.380   9.883  69.776  1.00  0.00    -0.278 C  
ENDROOT
BRANCH   2   4
HETATM    4  N   UNL     1      -8.372   9.556  68.234  1.00  0.00    -0.117 NA 
BRANCH   4   5
HETATM    5  C   UNL     1      -8.198   8.316  67.431  1.00  0.00    -0.121 C  
BRANCH   5   6
HETATM    6  C   UNL     1      -7.203   7.256  67.946  1.00  0.00    -0.091 C  
HETATM    7  C   UNL     1      -7.795   5.855  68.306  1.00  0.00    -0.105 C  
HETATM    8  C   UNL     1      -8.463   5.090  67.147  1.00  0.00    -0.106 A  
HETATM    9  C   UNL     1      -8.604   5.812  69.614  1.00  0.00    -0.116 A  
HETATM   10  C   UNL     1      -8.160   5.218  70.806  1.00  0.00    -0.106 A  
HETATM   11  C   UNL     1      -9.671   5.495  66.552  1.00  0.00    -0.179 A  
HETATM   12  O   UNL     1      -6.915   4.688  70.995  1.00  0.00    -0.035 OA 
HETATM   13  C   UNL     1     -10.321   4.717  65.594  1.00  0.00    -0.266 A  
HETATM   14  C   UNL     1      -9.000   5.108  71.922  1.00  0.00    -0.147 A  
HETATM   15  C   UNL     1     -10.313   5.569  71.878  1.00  0.00    -0.270 A  
HETATM   16  C   UNL     1      -9.757   3.525  65.170  1.00  0.00    -0.129 A  
HETATM   17  H   UNL     1      -6.614   4.286  71.801  1.00  0.00     0.000 HD 
HETATM   18  C   UNL     1     -10.785   6.175  70.723  1.00  0.00    -0.326 A  
HETATM   19  C   UNL     1      -8.536   3.114  65.708  1.00  0.00    -0.118 A  
HETATM   20  C   UNL     1      -7.899   3.889  66.689  1.00  0.00    -0.089 A  
HETATM   21  C   UNL     1     -12.205   6.630  70.568  1.00  0.00    -0.209 C  
HETATM   22  C   UNL     1      -9.915   6.322  69.632  1.00  0.00    -0.201 A  
ENDBRANCH   5   6
ENDBRANCH   4   5
BRANCH   4  23
HETATM   23  C   UNL     1      -7.372  10.609  67.879  1.00  0.00    -0.089 C  
HETATM   24  C   UNL     1      -7.134  10.801  66.371  1.00  0.00    -0.134 C  
HETATM   25  C   UNL     1      -7.778  12.013  68.392  1.00  0.00    -0.138 C  
ENDBRANCH   4  23
ENDBRANCH   2   4
TORSDOF 4
ENDMDL
MODEL      168
REMARK 921   NORMALIZED FREE ENERGY PREDICTED BY IDOCK:   -3.48 KCAL/MOL
REMARK 922        TOTAL FREE ENERGY PREDICTED BY IDOCK:   -5.13 KCAL/MOL
REMARK 923 INTER-LIGAND FREE ENERGY PREDICTED BY IDOCK:   -3.96 KCAL/MOL
REMARK 924 INTRA-LIGAND FREE ENERGY PREDICTED BY IDOCK:   -1.18 KCAL/MOL
REMARK 927      BINDING AFFINITY PREDICTED BY RF-SCORE:    0.00 PKD
ROOT
HETATM    1  C   UNL     1     -10.736   9.122  67.306  1.00  0.00    -0.224 C  
HETATM    2  C   UNL     1     -10.010  10.239  68.099  1.00  0.00    -0.146 C  
HETATM    3  C   UNL     1     -10.914  10.511  69.315  1.00  0.00    -0.291 C  
ENDROOT
BRANCH   2   4
HETATM    4  N   UNL     1      -8.599   9.882  68.442  1.00  0.00    -0.114 NA 
BRANCH   4   5
HETATM    5  C   UNL     1      -8.358   8.414  68.434  1.00  0.00    -0.131 C  
BRANCH   5   6
HETATM    6  C   UNL     1      -7.402   7.833  69.494  1.00  0.00    -0.088 C  
HETATM    7  C   UNL     1      -7.949   6.656  70.363  1.00  0.00    -0.115 C  
HETATM    8  C   UNL     1      -8.344   5.380  69.595  1.00  0.00    -0.100 A  
HETATM    9  C   UNL     1      -8.976   7.067  71.434  1.00  0.00    -0.139 A  
HETATM   10  C   UNL     1      -8.713   7.115  72.812  1.00  0.00    -0.118 A  
HETATM   11  C   UNL     1      -9.450   5.312  68.729  1.00  0.00    -0.171 A  
HETATM   12  O   UNL     1      -7.489   6.900  73.379  1.00  0.00    -0.081 OA 
HETATM   13  C   UNL     1      -9.862   4.114  68.147  1.00  0.00    -0.084 A  
HETATM   14  C   UNL     1      -9.731   7.379  73.739  1.00  0.00    -0.330 A  
HETATM   15  C   UNL     1     -11.044   7.584  73.321  1.00  0.00    -0.294 A  
HETATM   16  C   UNL     1      -9.149   2.950  68.380  1.00  0.00    -0.217 A  
HETATM   17  H   UNL     1      -7.311   6.933  74.312  1.00  0.00     0.000 HD 
HETATM   18  C   UNL     1     -11.340   7.559  71.967  1.00  0.00    -0.314 A  
HETATM   19  C   UNL     1      -8.020   2.989  69.200  1.00  0.00    -0.058 A  
HETATM   20  C   UNL     1      -7.625   4.192  69.802  1.00  0.00    -0.053 A  
HETATM   21  C   UNL     1     -12.738   7.696  71.440  1.00  0.00    -0.357 C  
HETATM   22  C   UNL     1     -10.301   7.343  71.050  1.00  0.00    -0.201 A  
ENDBRANCH   5   6
ENDBRANCH   4   5
BRANCH   4  23
HETATM   23  C   UNL     1      -7.507  10.642  67.760  1.00  0.00    -0.091 C  
HETATM   24  C   UNL     1      -6.742   9.856  66.681  1.00  0.00    -0.080 C  
HETATM   25  C   UNL     1      -8.027  11.905  67.028  1.00  0.00    -0.158 C  
ENDBRANCH   4  23
ENDBRANCH   2   4
TORSDOF 4
ENDMDL
MODEL      169
REMARK 921   NORMALIZED FREE ENERGY PREDICTED BY IDOCK:   -3.48 KCAL/MOL
REMARK 922        TOTAL FREE ENERGY PREDICTED BY IDOCK:   -5.13 KCAL/MOL
REMARK 923 INTER-LIGAND FREE ENERGY PREDICTED BY IDOCK:   -5.49 KCAL/MOL
REMARK 924 INTRA-LIGAND FREE ENERGY PREDICTED BY IDOCK:    0.36 KCAL/MOL
REMARK 927      BINDING AFFINITY PREDICTED BY RF-SCORE:    0.00 PKD
ROOT
HETATM    1  C   UNL     1     -13.057  13.977  73.238  1.00  0.00     0.078 C  
HETATM    2  C   UNL     1     -13.728  14.535  71.957  1.00  0.00    -0.436 C  
HETATM    3  C   UNL     1     -13.872  16.047  72.214  1.00  0.00    -0.106 C  
ENDROOT
BRANCH   2   4
HETATM    4  N   UNL     1     -12.979  14.186  70.711  1.00  0.00    -0.308 NA 
BRANCH   4   5
HETATM    5  C   UNL     1     -12.118  15.298  70.226  1.00  0.00    -0.350 C  
BRANCH   5   6
HETATM    6  C   UNL     1     -10.608  15.228  70.529  1.00  0.00    -0.190 C  
HETATM    7  C   UNL     1      -9.641  15.341  69.308  1.00  0.00    -0.249 C  
HETATM    8  C   UNL     1      -9.718  16.658  68.510  1.00  0.00    -0.244 A  
HETATM    9  C   UNL     1      -9.577  14.089  68.415  1.00  0.00    -0.222 A  
HETATM   10  C   UNL     1      -8.494  13.197  68.372  1.00  0.00    -0.126 A  
HETATM   11  C   UNL     1     -10.825  17.018  67.722  1.00  0.00    -0.269 A  
HETATM   12  O   UNL     1      -7.398  13.263  69.185  1.00  0.00    -0.282 OA 
HETATM   13  C   UNL     1     -10.818  18.151  66.909  1.00  0.00    -0.115 A  
HETATM   14  C   UNL     1      -8.452  12.146  67.446  1.00  0.00    -0.173 A  
HETATM   15  C   UNL     1      -9.478  11.965  66.522  1.00  0.00    -0.226 A  
HETATM   16  C   UNL     1      -9.712  18.986  66.894  1.00  0.00    -0.372 A  
HETATM   17  H   UNL     1      -6.665  12.659  69.156  1.00  0.00     0.000 HD 
HETATM   18  C   UNL     1     -10.573  12.817  66.543  1.00  0.00    -0.270 A  
HETATM   19  C   UNL     1      -8.612  18.682  67.697  1.00  0.00    -0.288 A  
HETATM   20  C   UNL     1      -8.616  17.528  68.494  1.00  0.00    -0.276 A  
HETATM   21  C   UNL     1     -11.682  12.737  65.537  1.00  0.00    -0.436 C  
HETATM   22  C   UNL     1     -10.622  13.833  67.509  1.00  0.00    -0.246 A  
ENDBRANCH   5   6
ENDBRANCH   4   5
BRANCH   4  23
HETATM   23  C   UNL     1     -12.280  12.865  70.670  1.00  0.00    -0.302 C  
HETATM   24  C   UNL     1     -12.694  11.875  71.774  1.00  0.00    -0.287 C  
HETATM   25  C   UNL     1     -12.528  12.100  69.346  1.00  0.00     0.201 C  
ENDBRANCH   4  23
ENDBRANCH   2   4
TORSDOF 4
ENDMDL
MODEL      170
REMARK 921   NORMALIZED FREE ENERGY PREDICTED BY IDOCK:   -3.48 KCAL/MOL
REMARK 922        TOTAL FREE ENERGY PREDICTED BY IDOCK:   -5.13 KCAL/MOL
REMARK 923 INTER-LIGAND FREE ENERGY PREDICTED BY IDOCK:   -5.52 KCAL/MOL
REMARK 924 INTRA-LIGAND FREE ENERGY PREDICTED BY IDOCK:    0.39 KCAL/MOL
REMARK 927      BINDING AFFINITY PREDICTED BY RF-SCORE:    0.00 PKD
ROOT
HETATM    1  C   UNL     1     -10.388  10.731  64.250  1.00  0.00    -0.401 C  
HETATM    2  C   UNL     1     -10.924  12.089  64.771  1.00  0.00    -0.311 C  
HETATM    3  C   UNL     1     -12.133  12.407  63.873  1.00  0.00    -0.587 C  
ENDROOT
BRANCH   2   4
HETATM    4  N   UNL     1     -11.226  12.069  66.236  1.00  0.00    -0.328 NA 
BRANCH   4   5
HETATM    5  C   UNL     1     -10.540  10.960  66.950  1.00  0.00    -0.261 C  
BRANCH   5   6
HETATM    6  C   UNL     1      -9.095  10.618  66.536  1.00  0.00    -0.179 C  
HETATM    7  C   UNL     1      -8.479   9.318  67.146  1.00  0.00    -0.124 C  
HETATM    8  C   UNL     1      -9.202   8.003  66.795  1.00  0.00    -0.206 A  
HETATM    9  C   UNL     1      -8.088   9.422  68.631  1.00  0.00    -0.104 A  
HETATM   10  C   UNL     1      -6.769   9.502  69.103  1.00  0.00    -0.049 A  
HETATM   11  C   UNL     1     -10.482   7.675  67.277  1.00  0.00    -0.396 A  
HETATM   12  O   UNL     1      -5.662   9.596  68.309  1.00  0.00    -0.040 OA 
HETATM   13  C   UNL     1     -11.060   6.426  67.051  1.00  0.00    -0.405 A  
HETATM   14  C   UNL     1      -6.483   9.471  70.475  1.00  0.00    -0.086 A  
HETATM   15  C   UNL     1      -7.502   9.341  71.416  1.00  0.00     0.078 A  
HETATM   16  C   UNL     1     -10.390   5.479  66.295  1.00  0.00    -0.215 A  
HETATM   17  H   UNL     1      -4.769   9.649  68.628  1.00  0.00     0.000 HD 
HETATM   18  C   UNL     1      -8.820   9.275  70.989  1.00  0.00    -0.205 A  
HETATM   19  C   UNL     1      -9.136   5.787  65.764  1.00  0.00    -0.122 A  
HETATM   20  C   UNL     1      -8.549   7.036  66.015  1.00  0.00    -0.154 A  
HETATM   21  C   UNL     1      -9.967   9.061  71.931  1.00  0.00    -0.304 C  
HETATM   22  C   UNL     1      -9.092   9.358  69.615  1.00  0.00    -0.190 A  
ENDBRANCH   5   6
ENDBRANCH   4   5
BRANCH   4  23
HETATM   23  C   UNL     1     -11.140  13.364  66.978  1.00  0.00    -0.292 C  
HETATM   24  C   UNL     1     -11.860  13.385  68.338  1.00  0.00    -0.401 C  
HETATM   25  C   UNL     1      -9.680  13.768  67.303  1.00  0.00    -0.242 C  
ENDBRANCH   4  23
ENDBRANCH   2   4
TORSDOF 4
ENDMDL
MODEL      171
REMARK 921   NORMALIZED FREE ENERGY PREDICTED BY IDOCK:   -3.47 KCAL/MOL
REMARK 922        TOTAL FREE ENERGY PREDICTED BY IDOCK:   -5.12 KCAL/MOL
REMARK 923 INTER-LIGAND FREE ENERGY PREDICTED BY IDOCK:   -4.24 KCAL/MOL
REMARK 924 INTRA-LIGAND FREE ENERGY PREDICTED BY IDOCK:   -0.89 KCAL/MOL
REMARK 927      BINDING AFFINITY PREDICTED BY RF-SCORE:    0.00 PKD
ROOT
HETATM    1  C   UNL     1      -8.569  14.468  66.909  1.00  0.00    -0.207 C  
HETATM    2  C   UNL     1      -8.277  13.013  67.356  1.00  0.00    -0.183 C  
HETATM    3  C   UNL     1      -7.766  13.138  68.802  1.00  0.00    -0.006 C  
ENDROOT
BRANCH   2   4
HETATM    4  N   UNL     1      -9.457  12.109  67.191  1.00  0.00    -0.186 NA 
BRANCH   4   5
HETATM    5  C   UNL     1      -9.307  10.826  67.928  1.00  0.00    -0.150 C  
BRANCH   5   6
HETATM    6  C   UNL     1      -9.748   9.529  67.221  1.00  0.00    -0.215 C  
HETATM    7  C   UNL     1      -9.566   8.198  68.018  1.00  0.00    -0.174 C  
HETATM    8  C   UNL     1     -10.353   8.092  69.339  1.00  0.00    -0.219 A  
HETATM    9  C   UNL     1      -8.112   7.707  68.132  1.00  0.00    -0.124 A  
HETATM   10  C   UNL     1      -7.585   6.610  67.432  1.00  0.00    -0.104 A  
HETATM   11  C   UNL     1     -10.058   8.864  70.476  1.00  0.00    -0.248 A  
HETATM   12  O   UNL     1      -8.259   5.894  66.484  1.00  0.00    -0.108 OA 
HETATM   13  C   UNL     1     -10.699   8.659  71.697  1.00  0.00    -0.374 A  
HETATM   14  C   UNL     1      -6.286   6.145  67.679  1.00  0.00    -0.029 A  
HETATM   15  C   UNL     1      -5.481   6.746  68.643  1.00  0.00    -0.017 A  
HETATM   16  C   UNL     1     -11.692   7.700  71.805  1.00  0.00    -0.319 A  
HETATM   17  H   UNL     1      -7.903   5.153  66.010  1.00  0.00     0.000 HD 
HETATM   18  C   UNL     1      -5.961   7.842  69.345  1.00  0.00    -0.033 A  
HETATM   19  C   UNL     1     -12.042   6.945  70.684  1.00  0.00    -0.363 A  
HETATM   20  C   UNL     1     -11.376   7.139  69.465  1.00  0.00    -0.056 A  
HETATM   21  C   UNL     1      -5.189   8.498  70.450  1.00  0.00    -0.021 C  
HETATM   22  C   UNL     1      -7.244   8.326  69.051  1.00  0.00    -0.073 A  
ENDBRANCH   5   6
ENDBRANCH   4   5
BRANCH   4  23
HETATM   23  C   UNL     1     -10.817  12.707  67.360  1.00  0.00    -0.243 C  
HETATM   24  C   UNL     1     -11.822  12.366  66.245  1.00  0.00    -0.431 C  
HETATM   25  C   UNL     1     -11.512  12.247  68.666  1.00  0.00    -0.355 C  
ENDBRANCH   4  23
ENDBRANCH   2   4
TORSDOF 4
ENDMDL
MODEL      172
REMARK 921   NORMALIZED FREE ENERGY PREDICTED BY IDOCK:   -3.45 KCAL/MOL
REMARK 922        TOTAL FREE ENERGY PREDICTED BY IDOCK:   -5.10 KCAL/MOL
REMARK 923 INTER-LIGAND FREE ENERGY PREDICTED BY IDOCK:   -4.37 KCAL/MOL
REMARK 924 INTRA-LIGAND FREE ENERGY PREDICTED BY IDOCK:   -0.73 KCAL/MOL
REMARK 927      BINDING AFFINITY PREDICTED BY RF-SCORE:    0.00 PKD
ROOT
HETATM    1  C   UNL     1      -6.187  11.592  66.573  1.00  0.00    -0.072 C  
HETATM    2  C   UNL     1      -6.662  10.349  67.369  1.00  0.00    -0.072 C  
HETATM    3  C   UNL     1      -5.675  10.234  68.546  1.00  0.00    -0.037 C  
ENDROOT
BRANCH   2   4
HETATM    4  N   UNL     1      -8.100  10.432  67.771  1.00  0.00    -0.103 NA 
BRANCH   4   5
HETATM    5  C   UNL     1      -8.285  10.457  69.247  1.00  0.00    -0.158 C  
BRANCH   5   6
HETATM    6  C   UNL     1      -9.629   9.960  69.815  1.00  0.00    -0.261 C  
HETATM    7  C   UNL     1      -9.641   8.526  70.435  1.00  0.00    -0.189 C  
HETATM    8  C   UNL     1      -8.714   8.309  71.647  1.00  0.00    -0.213 A  
HETATM    9  C   UNL     1      -9.586   7.379  69.411  1.00  0.00    -0.155 A  
HETATM   10  C   UNL     1     -10.672   6.551  69.083  1.00  0.00    -0.275 A  
HETATM   11  C   UNL     1      -7.311   8.303  71.552  1.00  0.00    -0.092 A  
HETATM   12  O   UNL     1     -11.944   6.713  69.554  1.00  0.00    -0.642 OA 
HETATM   13  C   UNL     1      -6.497   7.978  72.637  1.00  0.00    -0.076 A  
HETATM   14  C   UNL     1     -10.516   5.448  68.233  1.00  0.00    -0.191 A  
HETATM   15  C   UNL     1      -9.271   5.126  67.698  1.00  0.00    -0.127 A  
HETATM   16  C   UNL     1      -7.065   7.689  73.866  1.00  0.00    -0.123 A  
HETATM   17  H   UNL     1     -12.678   6.153  69.332  1.00  0.00     0.000 HD 
HETATM   18  C   UNL     1      -8.177   5.929  67.986  1.00  0.00    -0.105 A  
HETATM   19  C   UNL     1      -8.453   7.729  74.007  1.00  0.00    -0.304 A  
HETATM   20  C   UNL     1      -9.268   8.033  72.907  1.00  0.00    -0.332 A  
HETATM   21  C   UNL     1      -6.791   5.610  67.513  1.00  0.00    -0.060 C  
HETATM   22  C   UNL     1      -8.360   7.057  68.799  1.00  0.00    -0.122 A  
ENDBRANCH   5   6
ENDBRANCH   4   5
BRANCH   4  23
HETATM   23  C   UNL     1      -8.956  11.440  67.073  1.00  0.00    -0.166 C  
HETATM   24  C   UNL     1     -10.320  10.913  66.592  1.00  0.00    -0.289 C  
HETATM   25  C   UNL     1      -9.302  12.654  67.971  1.00  0.00    -0.209 C  
ENDBRANCH   4  23
ENDBRANCH   2   4
TORSDOF 4
ENDMDL
MODEL      173
REMARK 921   NORMALIZED FREE ENERGY PREDICTED BY IDOCK:   -3.44 KCAL/MOL
REMARK 922        TOTAL FREE ENERGY PREDICTED BY IDOCK:   -5.09 KCAL/MOL
REMARK 923 INTER-LIGAND FREE ENERGY PREDICTED BY IDOCK:   -3.90 KCAL/MOL
REMARK 924 INTRA-LIGAND FREE ENERGY PREDICTED BY IDOCK:   -1.19 KCAL/MOL
REMARK 927      BINDING AFFINITY PREDICTED BY RF-SCORE:    0.00 PKD
ROOT
HETATM    1  C   UNL     1      -5.905   6.657  69.173  1.00  0.00    -0.018 C  
HETATM    2  C   UNL     1      -5.890   7.690  68.018  1.00  0.00    -0.039 C  
HETATM    3  C   UNL     1      -6.011   6.849  66.734  1.00  0.00    -0.029 C  
ENDROOT
BRANCH   2   4
HETATM    4  N   UNL     1      -6.939   8.745  68.170  1.00  0.00    -0.073 NA 
BRANCH   4   5
HETATM    5  C   UNL     1      -8.104   8.287  68.974  1.00  0.00    -0.117 C  
BRANCH   5   6
HETATM    6  C   UNL     1      -9.462   8.140  68.259  1.00  0.00    -0.148 C  
HETATM    7  C   UNL     1     -10.259   6.825  68.532  1.00  0.00    -0.186 C  
HETATM    8  C   UNL     1     -10.673   6.580  69.997  1.00  0.00    -0.302 A  
HETATM    9  C   UNL     1      -9.696   5.571  67.839  1.00  0.00    -0.155 A  
HETATM   10  C   UNL     1     -10.286   4.941  66.732  1.00  0.00    -0.235 A  
HETATM   11  C   UNL     1      -9.752   6.285  71.018  1.00  0.00    -0.196 A  
HETATM   12  O   UNL     1     -11.380   5.409  66.061  1.00  0.00    -0.773 OA 
HETATM   13  C   UNL     1     -10.161   5.942  72.306  1.00  0.00    -0.222 A  
HETATM   14  C   UNL     1      -9.784   3.732  66.230  1.00  0.00    -0.138 A  
HETATM   15  C   UNL     1      -8.693   3.107  66.827  1.00  0.00    -0.135 A  
HETATM   16  C   UNL     1     -11.509   5.926  72.624  1.00  0.00    -0.319 A  
HETATM   17  H   UNL     1     -11.779   4.982  65.312  1.00  0.00     0.000 HD 
HETATM   18  C   UNL     1      -8.074   3.706  67.913  1.00  0.00    -0.085 A  
HETATM   19  C   UNL     1     -12.448   6.256  71.646  1.00  0.00    -0.004 A  
HETATM   20  C   UNL     1     -12.032   6.577  70.345  1.00  0.00    -0.295 A  
HETATM   21  C   UNL     1      -6.943   3.063  68.658  1.00  0.00    -0.048 C  
HETATM   22  C   UNL     1      -8.557   4.940  68.372  1.00  0.00    -0.101 A  
ENDBRANCH   5   6
ENDBRANCH   4   5
BRANCH   4  23
HETATM   23  C   UNL     1      -6.489  10.119  68.552  1.00  0.00    -0.049 C  
HETATM   24  C   UNL     1      -6.992  11.248  67.634  1.00  0.00    -0.085 C  
HETATM   25  C   UNL     1      -6.962  10.529  69.969  1.00  0.00    -0.150 C  
ENDBRANCH   4  23
ENDBRANCH   2   4
TORSDOF 4
ENDMDL
MODEL      174
REMARK 921   NORMALIZED FREE ENERGY PREDICTED BY IDOCK:   -3.40 KCAL/MOL
REMARK 922        TOTAL FREE ENERGY PREDICTED BY IDOCK:   -5.04 KCAL/MOL
REMARK 923 INTER-LIGAND FREE ENERGY PREDICTED BY IDOCK:   -5.02 KCAL/MOL
REMARK 924 INTRA-LIGAND FREE ENERGY PREDICTED BY IDOCK:   -0.02 KCAL/MOL
REMARK 927      BINDING AFFINITY PREDICTED BY RF-SCORE:    0.00 PKD
ROOT
HETATM    1  C   UNL     1     -13.898  15.413  71.580  1.00  0.00    -0.606 C  
HETATM    2  C   UNL     1     -12.457  14.880  71.370  1.00  0.00    -0.337 C  
HETATM    3  C   UNL     1     -11.799  14.962  72.759  1.00  0.00    -0.300 C  
ENDROOT
BRANCH   2   4
HETATM    4  N   UNL     1     -12.428  13.520  70.748  1.00  0.00    -0.362 NA 
BRANCH   4   5
HETATM    5  C   UNL     1     -11.219  13.297  69.910  1.00  0.00     0.116 C  
BRANCH   5   6
HETATM    6  C   UNL     1     -11.413  12.664  68.517  1.00  0.00    -0.349 C  
HETATM    7  C   UNL     1     -10.311  12.966  67.451  1.00  0.00    -0.233 C  
HETATM    8  C   UNL     1      -8.890  12.482  67.797  1.00  0.00    -0.178 A  
HETATM    9  C   UNL     1     -10.347  14.391  66.870  1.00  0.00    -0.265 A  
HETATM   10  C   UNL     1     -10.783  14.712  65.575  1.00  0.00    -0.349 A  
HETATM   11  C   UNL     1      -8.112  13.046  68.823  1.00  0.00     0.086 A  
HETATM   12  O   UNL     1     -11.326  13.821  64.693  1.00  0.00    -0.345 OA 
HETATM   13  C   UNL     1      -6.783  12.678  69.032  1.00  0.00    -0.097 A  
HETATM   14  C   UNL     1     -10.672  16.015  65.071  1.00  0.00    -0.400 A  
HETATM   15  C   UNL     1     -10.106  17.032  65.835  1.00  0.00    -0.281 A  
HETATM   16  C   UNL     1      -6.203  11.698  68.244  1.00  0.00    -0.049 A  
HETATM   17  H   UNL     1     -11.621  14.038  63.817  1.00  0.00     0.000 HD 
HETATM   18  C   UNL     1      -9.677  16.757  67.126  1.00  0.00    -0.251 A  
HETATM   19  C   UNL     1      -6.960  11.085  67.244  1.00  0.00    -0.096 A  
HETATM   20  C   UNL     1      -8.289  11.476  67.023  1.00  0.00    -0.165 A  
HETATM   21  C   UNL     1      -8.989  17.776  67.985  1.00  0.00    -0.263 C  
HETATM   22  C   UNL     1      -9.841  15.460  67.632  1.00  0.00    -0.220 A  
ENDBRANCH   5   6
ENDBRANCH   4   5
BRANCH   4  23
HETATM   23  C   UNL     1     -12.736  12.350  71.626  1.00  0.00    -0.194 C  
HETATM   24  C   UNL     1     -14.199  12.254  72.094  1.00  0.00     0.623 C  
HETATM   25  C   UNL     1     -12.458  10.994  70.931  1.00  0.00    -0.509 C  
ENDBRANCH   4  23
ENDBRANCH   2   4
TORSDOF 4
ENDMDL
MODEL      175
REMARK 921   NORMALIZED FREE ENERGY PREDICTED BY IDOCK:   -3.39 KCAL/MOL
REMARK 922        TOTAL FREE ENERGY PREDICTED BY IDOCK:   -5.02 KCAL/MOL
REMARK 923 INTER-LIGAND FREE ENERGY PREDICTED BY IDOCK:   -4.20 KCAL/MOL
REMARK 924 INTRA-LIGAND FREE ENERGY PREDICTED BY IDOCK:   -0.82 KCAL/MOL
REMARK 927      BINDING AFFINITY PREDICTED BY RF-SCORE:    0.00 PKD
ROOT
HETATM    1  C   UNL     1     -11.218  10.594  67.966  1.00  0.00    -0.373 C  
HETATM    2  C   UNL     1      -9.879  10.546  67.186  1.00  0.00    -0.176 C  
HETATM    3  C   UNL     1     -10.283  10.635  65.703  1.00  0.00    -0.319 C  
ENDROOT
BRANCH   2   4
HETATM    4  N   UNL     1      -8.911  11.595  67.630  1.00  0.00    -0.154 NA 
BRANCH   4   5
HETATM    5  C   UNL     1      -9.580  12.769  68.254  1.00  0.00    -0.211 C  
BRANCH   5   6
HETATM    6  C   UNL     1      -8.759  13.633  69.231  1.00  0.00     0.657 C  
HETATM    7  C   UNL     1      -9.285  15.080  69.500  1.00  0.00    -0.066 C  
HETATM    8  C   UNL     1     -10.688  15.179  70.130  1.00  0.00    -0.245 A  
HETATM    9  C   UNL     1      -9.063  16.074  68.346  1.00  0.00    -0.192 A  
HETATM   10  C   UNL     1      -8.112  17.107  68.357  1.00  0.00    -0.255 A  
HETATM   11  C   UNL     1     -11.866  14.831  69.446  1.00  0.00    -0.360 A  
HETATM   12  O   UNL     1      -7.193  17.309  69.348  1.00  0.00    -0.176 OA 
HETATM   13  C   UNL     1     -13.131  15.050  69.991  1.00  0.00     0.094 A  
HETATM   14  C   UNL     1      -8.049  18.050  67.322  1.00  0.00    -0.218 A  
HETATM   15  C   UNL     1      -8.943  18.002  66.255  1.00  0.00    -0.194 A  
HETATM   16  C   UNL     1     -13.254  15.587  71.262  1.00  0.00    -0.588 A  
HETATM   17  H   UNL     1      -6.550  18.008  69.355  1.00  0.00     0.000 HD 
HETATM   18  C   UNL     1      -9.886  16.987  66.201  1.00  0.00    -0.297 A  
HETATM   19  C   UNL     1     -12.104  15.904  71.987  1.00  0.00    -0.591 A  
HETATM   20  C   UNL     1     -10.835  15.704  71.424  1.00  0.00     0.025 A  
HETATM   21  C   UNL     1     -10.931  16.908  65.127  1.00  0.00    -0.060 C  
HETATM   22  C   UNL     1      -9.903  16.023  67.219  1.00  0.00    -0.236 A  
ENDBRANCH   5   6
ENDBRANCH   4   5
BRANCH   4  23
HETATM   23  C   UNL     1      -7.710  11.148  68.402  1.00  0.00    -0.125 C  
HETATM   24  C   UNL     1      -7.689   9.653  68.765  1.00  0.00    -0.080 C  
HETATM   25  C   UNL     1      -6.386  11.381  67.631  1.00  0.00    -0.062 C  
ENDBRANCH   4  23
ENDBRANCH   2   4
TORSDOF 4
ENDMDL
MODEL      176
REMARK 921   NORMALIZED FREE ENERGY PREDICTED BY IDOCK:   -3.39 KCAL/MOL
REMARK 922        TOTAL FREE ENERGY PREDICTED BY IDOCK:   -5.02 KCAL/MOL
REMARK 923 INTER-LIGAND FREE ENERGY PREDICTED BY IDOCK:   -4.09 KCAL/MOL
REMARK 924 INTRA-LIGAND FREE ENERGY PREDICTED BY IDOCK:   -0.93 KCAL/MOL
REMARK 927      BINDING AFFINITY PREDICTED BY RF-SCORE:    0.00 PKD
ROOT
HETATM    1  C   UNL     1     -10.652   5.460  67.597  1.00  0.00    -0.188 C  
HETATM    2  C   UNL     1      -9.349   4.912  66.960  1.00  0.00    -0.129 C  
HETATM    3  C   UNL     1      -9.711   4.648  65.487  1.00  0.00    -0.192 C  
ENDROOT
BRANCH   2   4
HETATM    4  N   UNL     1      -8.180   5.823  67.158  1.00  0.00    -0.102 NA 
BRANCH   4   5
HETATM    5  C   UNL     1      -8.546   7.088  67.849  1.00  0.00    -0.126 C  
BRANCH   5   6
HETATM    6  C   UNL     1      -7.495   7.740  68.769  1.00  0.00    -0.096 C  
HETATM    7  C   UNL     1      -7.997   8.884  69.707  1.00  0.00    -0.100 C  
HETATM    8  C   UNL     1      -9.078   8.489  70.732  1.00  0.00    -0.196 A  
HETATM    9  C   UNL     1      -8.286  10.220  68.999  1.00  0.00    -0.148 A  
HETATM   10  C   UNL     1      -7.479  11.364  69.098  1.00  0.00    -0.057 A  
HETATM   11  C   UNL     1     -10.394   8.149  70.372  1.00  0.00    -0.208 A  
HETATM   12  O   UNL     1      -6.281  11.418  69.752  1.00  0.00    -0.104 OA 
HETATM   13  C   UNL     1     -11.386   7.920  71.324  1.00  0.00    -0.289 A  
HETATM   14  C   UNL     1      -7.870  12.582  68.524  1.00  0.00    -0.108 A  
HETATM   15  C   UNL     1      -9.083  12.701  67.853  1.00  0.00    -0.200 A  
HETATM   16  C   UNL     1     -11.079   7.983  72.673  1.00  0.00    -0.453 A  
HETATM   17  H   UNL     1      -5.735  12.193  69.819  1.00  0.00     0.000 HD 
HETATM   18  C   UNL     1      -9.901  11.588  67.721  1.00  0.00    -0.186 A  
HETATM   19  C   UNL     1      -9.773   8.275  73.067  1.00  0.00    -0.276 A  
HETATM   20  C   UNL     1      -8.784   8.528  72.104  1.00  0.00    -0.267 A  
HETATM   21  C   UNL     1     -11.255  11.650  67.079  1.00  0.00    -0.376 C  
HETATM   22  C   UNL     1      -9.473  10.365  68.257  1.00  0.00    -0.153 A  
ENDBRANCH   5   6
ENDBRANCH   4   5
BRANCH   4  23
HETATM   23  C   UNL     1      -6.920   5.224  67.697  1.00  0.00    -0.065 C  
HETATM   24  C   UNL     1      -7.014   3.734  68.069  1.00  0.00    -0.051 C  
HETATM   25  C   UNL     1      -5.745   5.301  66.690  1.00  0.00    -0.018 C  
ENDBRANCH   4  23
ENDBRANCH   2   4
TORSDOF 4
ENDMDL
MODEL      177
REMARK 921   NORMALIZED FREE ENERGY PREDICTED BY IDOCK:   -3.34 KCAL/MOL
REMARK 922        TOTAL FREE ENERGY PREDICTED BY IDOCK:   -4.96 KCAL/MOL
REMARK 923 INTER-LIGAND FREE ENERGY PREDICTED BY IDOCK:   -4.23 KCAL/MOL
REMARK 924 INTRA-LIGAND FREE ENERGY PREDICTED BY IDOCK:   -0.73 KCAL/MOL
REMARK 927      BINDING AFFINITY PREDICTED BY RF-SCORE:    0.00 PKD
ROOT
HETATM    1  C   UNL     1      -7.273  13.677  67.426  1.00  0.00    -0.108 C  
HETATM    2  C   UNL     1      -6.684  12.255  67.243  1.00  0.00    -0.143 C  
HETATM    3  C   UNL     1      -5.428  12.231  68.134  1.00  0.00    -0.060 C  
ENDROOT
BRANCH   2   4
HETATM    4  N   UNL     1      -7.675  11.175  67.537  1.00  0.00    -0.112 NA 
BRANCH   4   5
HETATM    5  C   UNL     1      -7.110   9.811  67.356  1.00  0.00    -0.085 C  
BRANCH   5   6
HETATM    6  C   UNL     1      -6.513   9.453  65.981  1.00  0.00    -0.069 C  
HETATM    7  C   UNL     1      -7.510   8.933  64.896  1.00  0.00    -0.098 C  
HETATM    8  C   UNL     1      -8.626   9.912  64.483  1.00  0.00    -0.198 A  
HETATM    9  C   UNL     1      -8.011   7.494  65.115  1.00  0.00    -0.128 A  
HETATM   10  C   UNL     1      -7.605   6.385  64.355  1.00  0.00    -0.098 A  
HETATM   11  C   UNL     1      -9.680  10.283  65.337  1.00  0.00    -0.340 A  
HETATM   12  O   UNL     1      -6.643   6.416  63.386  1.00  0.00    -0.035 OA 
HETATM   13  C   UNL     1     -10.746  11.069  64.899  1.00  0.00    -0.278 A  
HETATM   14  C   UNL     1      -8.196   5.126  64.531  1.00  0.00    -0.133 A  
HETATM   15  C   UNL     1      -9.219   4.939  65.456  1.00  0.00    -0.160 A  
HETATM   16  C   UNL     1     -10.766  11.545  63.598  1.00  0.00    -0.491 A  
HETATM   17  H   UNL     1      -6.369   5.666  62.872  1.00  0.00     0.000 HD 
HETATM   18  C   UNL     1      -9.636   6.007  66.238  1.00  0.00    -0.136 A  
HETATM   19  C   UNL     1      -9.714  11.232  62.736  1.00  0.00    -0.289 A  
HETATM   20  C   UNL     1      -8.657  10.421  63.176  1.00  0.00    -0.191 A  
HETATM   21  C   UNL     1     -10.781   5.907  67.202  1.00  0.00    -0.387 C  
HETATM   22  C   UNL     1      -9.001   7.247  66.084  1.00  0.00    -0.179 A  
ENDBRANCH   5   6
ENDBRANCH   4   5
BRANCH   4  23
HETATM   23  C   UNL     1      -8.479  11.296  68.792  1.00  0.00    -0.112 C  
HETATM   24  C   UNL     1      -9.994  11.465  68.581  1.00  0.00    -0.209 C  
HETATM   25  C   UNL     1      -8.349  10.051  69.705  1.00  0.00    -0.187 C  
ENDBRANCH   4  23
ENDBRANCH   2   4
TORSDOF 4
ENDMDL
MODEL      178
REMARK 921   NORMALIZED FREE ENERGY PREDICTED BY IDOCK:   -3.33 KCAL/MOL
REMARK 922        TOTAL FREE ENERGY PREDICTED BY IDOCK:   -4.96 KCAL/MOL
REMARK 923 INTER-LIGAND FREE ENERGY PREDICTED BY IDOCK:   -4.30 KCAL/MOL
REMARK 924 INTRA-LIGAND FREE ENERGY PREDICTED BY IDOCK:   -0.65 KCAL/MOL
REMARK 927      BINDING AFFINITY PREDICTED BY RF-SCORE:    0.00 PKD
ROOT
HETATM    1  C   UNL     1      -9.533   2.354  72.016  1.00  0.00    -0.184 C  
HETATM    2  C   UNL     1     -10.454   3.530  72.432  1.00  0.00    -0.029 C  
HETATM    3  C   UNL     1     -11.091   3.082  73.760  1.00  0.00    -0.295 C  
ENDROOT
BRANCH   2   4
HETATM    4  N   UNL     1      -9.730   4.836  72.500  1.00  0.00    -0.145 NA 
BRANCH   4   5
HETATM    5  C   UNL     1      -9.312   5.334  71.162  1.00  0.00    -0.151 C  
BRANCH   5   6
HETATM    6  C   UNL     1     -10.157   4.920  69.941  1.00  0.00    -0.332 C  
HETATM    7  C   UNL     1      -9.549   5.219  68.533  1.00  0.00    -0.180 C  
HETATM    8  C   UNL     1      -8.214   4.518  68.215  1.00  0.00    -0.090 A  
HETATM    9  C   UNL     1      -9.574   6.702  68.120  1.00  0.00    -0.120 A  
HETATM   10  C   UNL     1     -10.437   7.244  67.154  1.00  0.00    -0.324 A  
HETATM   11  C   UNL     1      -7.004   4.839  68.853  1.00  0.00    -0.052 A  
HETATM   12  O   UNL     1     -11.433   6.553  66.524  1.00  0.00    -0.610 OA 
HETATM   13  C   UNL     1      -5.788   4.282  68.458  1.00  0.00    -0.025 A  
HETATM   14  C   UNL     1     -10.320   8.578  66.740  1.00  0.00    -0.346 A  
HETATM   15  C   UNL     1      -9.329   9.405  67.262  1.00  0.00    -0.159 A  
HETATM   16  C   UNL     1      -5.753   3.350  67.435  1.00  0.00    -0.022 A  
HETATM   17  H   UNL     1     -12.017   6.920  65.871  1.00  0.00     0.000 HD 
HETATM   18  C   UNL     1      -8.467   8.910  68.230  1.00  0.00    -0.130 A  
HETATM   19  C   UNL     1      -6.943   2.975  66.808  1.00  0.00    -0.053 A  
HETATM   20  C   UNL     1      -8.159   3.557  67.193  1.00  0.00    -0.087 A  
HETATM   21  C   UNL     1      -7.328   9.711  68.787  1.00  0.00    -0.074 C  
HETATM   22  C   UNL     1      -8.630   7.588  68.669  1.00  0.00    -0.129 A  
ENDBRANCH   5   6
ENDBRANCH   4   5
BRANCH   4  23
HETATM   23  C   UNL     1     -10.325   5.915  73.348  1.00  0.00    -0.231 C  
HETATM   24  C   UNL     1      -9.477   6.333  74.562  1.00  0.00    -0.251 C  
HETATM   25  C   UNL     1     -10.558   7.230  72.563  1.00  0.00    -0.285 C  
ENDBRANCH   4  23
ENDBRANCH   2   4
TORSDOF 4
ENDMDL
MODEL      179
REMARK 921   NORMALIZED FREE ENERGY PREDICTED BY IDOCK:   -3.28 KCAL/MOL
REMARK 922        TOTAL FREE ENERGY PREDICTED BY IDOCK:   -4.89 KCAL/MOL
REMARK 923 INTER-LIGAND FREE ENERGY PREDICTED BY IDOCK:   -3.99 KCAL/MOL
REMARK 924 INTRA-LIGAND FREE ENERGY PREDICTED BY IDOCK:   -0.90 KCAL/MOL
REMARK 927      BINDING AFFINITY PREDICTED BY RF-SCORE:    0.00 PKD
ROOT
HETATM    1  C   UNL     1      -6.948   5.729  64.731  1.00  0.00    -0.052 C  
HETATM    2  C   UNL     1      -7.249   4.510  65.640  1.00  0.00    -0.072 C  
HETATM    3  C   UNL     1      -5.881   4.098  66.213  1.00  0.00    -0.023 C  
ENDROOT
BRANCH   2   4
HETATM    4  N   UNL     1      -8.292   4.800  66.672  1.00  0.00    -0.107 NA 
BRANCH   4   5
HETATM    5  C   UNL     1      -8.307   6.227  67.091  1.00  0.00    -0.109 C  
BRANCH   5   6
HETATM    6  C   UNL     1      -7.431   6.638  68.291  1.00  0.00    -0.095 C  
HETATM    7  C   UNL     1      -8.071   7.618  69.325  1.00  0.00    -0.128 C  
HETATM    8  C   UNL     1      -9.332   7.104  70.046  1.00  0.00    -0.154 A  
HETATM    9  C   UNL     1      -8.193   9.075  68.844  1.00  0.00    -0.120 A  
HETATM   10  C   UNL     1      -7.392  10.134  69.301  1.00  0.00    -0.098 A  
HETATM   11  C   UNL     1     -10.566   6.912  69.400  1.00  0.00    -0.254 A  
HETATM   12  O   UNL     1      -6.336   9.998  70.156  1.00  0.00    -0.067 OA 
HETATM   13  C   UNL     1     -11.723   6.570  70.099  1.00  0.00    -0.419 A  
HETATM   14  C   UNL     1      -7.642  11.457  68.910  1.00  0.00    -0.114 A  
HETATM   15  C   UNL     1      -8.707  11.766  68.068  1.00  0.00    -0.167 A  
HETATM   16  C   UNL     1     -11.670   6.367  71.468  1.00  0.00    -0.369 A  
HETATM   17  H   UNL     1      -5.794  10.714  70.465  1.00  0.00     0.000 HD 
HETATM   18  C   UNL     1      -9.511  10.745  67.584  1.00  0.00    -0.166 A  
HETATM   19  C   UNL     1     -10.453   6.507  72.136  1.00  0.00    -0.229 A  
HETATM   20  C   UNL     1      -9.297   6.875  71.431  1.00  0.00    -0.156 A  
HETATM   21  C   UNL     1     -10.721  11.001  66.735  1.00  0.00    -0.319 C  
HETATM   22  C   UNL     1      -9.218   9.422  67.944  1.00  0.00    -0.139 A  
ENDBRANCH   5   6
ENDBRANCH   4   5
BRANCH   4  23
HETATM   23  C   UNL     1      -9.667   4.261  66.437  1.00  0.00    -0.214 C  
HETATM   24  C   UNL     1     -10.778   5.323  66.358  1.00  0.00    -0.290 C  
HETATM   25  C   UNL     1      -9.781   3.479  65.105  1.00  0.00    -0.129 C  
ENDBRANCH   4  23
ENDBRANCH   2   4
TORSDOF 4
ENDMDL
MODEL      180
REMARK 921   NORMALIZED FREE ENERGY PREDICTED BY IDOCK:   -3.26 KCAL/MOL
REMARK 922        TOTAL FREE ENERGY PREDICTED BY IDOCK:   -4.86 KCAL/MOL
REMARK 923 INTER-LIGAND FREE ENERGY PREDICTED BY IDOCK:   -3.81 KCAL/MOL
REMARK 924 INTRA-LIGAND FREE ENERGY PREDICTED BY IDOCK:   -1.05 KCAL/MOL
REMARK 927      BINDING AFFINITY PREDICTED BY RF-SCORE:    0.00 PKD
ROOT
HETATM    1  C   UNL     1      -8.388  11.258  66.399  1.00  0.00    -0.159 C  
HETATM    2  C   UNL     1      -7.093  10.439  66.635  1.00  0.00    -0.112 C  
HETATM    3  C   UNL     1      -5.988  11.494  66.826  1.00  0.00    -0.139 C  
ENDROOT
BRANCH   2   4
HETATM    4  N   UNL     1      -7.221   9.464  67.762  1.00  0.00    -0.082 NA 
BRANCH   4   5
HETATM    5  C   UNL     1      -7.612   8.104  67.304  1.00  0.00    -0.097 C  
BRANCH   5   6
HETATM    6  C   UNL     1      -9.116   7.782  67.197  1.00  0.00    -0.154 C  
HETATM    7  C   UNL     1      -9.557   6.343  67.616  1.00  0.00    -0.126 C  
HETATM    8  C   UNL     1      -9.279   5.955  69.081  1.00  0.00    -0.131 A  
HETATM    9  C   UNL     1      -9.191   5.236  66.611  1.00  0.00    -0.130 A  
HETATM   10  C   UNL     1     -10.112   4.582  65.777  1.00  0.00    -0.255 A  
HETATM   11  C   UNL     1      -7.985   5.754  69.593  1.00  0.00    -0.100 A  
HETATM   12  O   UNL     1     -11.435   4.906  65.674  1.00  0.00    -0.869 OA 
HETATM   13  C   UNL     1      -7.765   5.278  70.886  1.00  0.00    -0.093 A  
HETATM   14  C   UNL     1      -9.727   3.499  64.975  1.00  0.00    -0.142 A  
HETATM   15  C   UNL     1      -8.419   3.024  64.995  1.00  0.00    -0.097 A  
HETATM   16  C   UNL     1      -8.839   5.030  71.724  1.00  0.00    -0.144 A  
HETATM   17  H   UNL     1     -12.058   4.464  65.110  1.00  0.00     0.000 HD 
HETATM   18  C   UNL     1      -7.476   3.654  65.794  1.00  0.00    -0.077 A  
HETATM   19  C   UNL     1     -10.137   5.260  71.263  1.00  0.00    -0.278 A  
HETATM   20  C   UNL     1     -10.352   5.715  69.954  1.00  0.00    -0.347 A  
HETATM   21  C   UNL     1      -6.067   3.158  65.929  1.00  0.00    -0.024 C  
HETATM   22  C   UNL     1      -7.866   4.767  66.552  1.00  0.00    -0.099 A  
ENDBRANCH   5   6
ENDBRANCH   4   5
BRANCH   4  23
HETATM   23  C   UNL     1      -6.123   9.430  68.776  1.00  0.00    -0.043 C  
HETATM   24  C   UNL     1      -6.589   9.484  70.242  1.00  0.00    -0.077 C  
HETATM   25  C   UNL     1      -5.269   8.140  68.686  1.00  0.00    -0.031 C  
ENDBRANCH   4  23
ENDBRANCH   2   4
TORSDOF 4
ENDMDL
MODEL      181
REMARK 921   NORMALIZED FREE ENERGY PREDICTED BY IDOCK:   -3.23 KCAL/MOL
REMARK 922        TOTAL FREE ENERGY PREDICTED BY IDOCK:   -4.83 KCAL/MOL
REMARK 923 INTER-LIGAND FREE ENERGY PREDICTED BY IDOCK:   -3.78 KCAL/MOL
REMARK 924 INTRA-LIGAND FREE ENERGY PREDICTED BY IDOCK:   -1.05 KCAL/MOL
REMARK 927      BINDING AFFINITY PREDICTED BY RF-SCORE:    0.00 PKD
ROOT
HETATM    1  C   UNL     1      -7.032   5.077  68.860  1.00  0.00    -0.052 C  
HETATM    2  C   UNL     1      -7.712   4.910  67.477  1.00  0.00    -0.091 C  
HETATM    3  C   UNL     1      -8.502   3.592  67.582  1.00  0.00    -0.105 C  
ENDROOT
BRANCH   2   4
HETATM    4  N   UNL     1      -8.535   6.097  67.088  1.00  0.00    -0.105 NA 
BRANCH   4   5
HETATM    5  C   UNL     1      -8.615   7.119  68.166  1.00  0.00    -0.129 C  
BRANCH   5   6
HETATM    6  C   UNL     1     -10.006   7.455  68.740  1.00  0.00    -0.171 C  
HETATM    7  C   UNL     1     -10.085   8.670  69.719  1.00  0.00    -0.199 C  
HETATM    8  C   UNL     1      -9.674  10.035  69.132  1.00  0.00    -0.217 A  
HETATM    9  C   UNL     1      -9.507   8.410  71.122  1.00  0.00    -0.227 A  
HETATM   10  C   UNL     1     -10.279   8.244  72.283  1.00  0.00    -0.305 A  
HETATM   11  C   UNL     1      -8.352  10.354  68.776  1.00  0.00    -0.134 A  
HETATM   12  O   UNL     1     -11.643   8.194  72.310  1.00  0.00    -0.322 OA 
HETATM   13  C   UNL     1      -7.984  11.636  68.368  1.00  0.00    -0.140 A  
HETATM   14  C   UNL     1      -9.680   8.133  73.545  1.00  0.00     0.020 A  
HETATM   15  C   UNL     1      -8.297   8.201  73.690  1.00  0.00    -0.305 A  
HETATM   16  C   UNL     1      -8.941  12.631  68.264  1.00  0.00    -0.176 A  
HETATM   17  H   UNL     1     -12.165   8.083  73.096  1.00  0.00     0.000 HD 
HETATM   18  C   UNL     1      -7.500   8.348  72.564  1.00  0.00    -0.122 A  
HETATM   19  C   UNL     1     -10.271  12.338  68.568  1.00  0.00    -0.213 A  
HETATM   20  C   UNL     1     -10.632  11.053  69.001  1.00  0.00    -0.258 A  
HETATM   21  C   UNL     1      -6.010   8.505  72.641  1.00  0.00    -0.074 C  
HETATM   22  C   UNL     1      -8.112   8.408  71.304  1.00  0.00    -0.152 A  
ENDBRANCH   5   6
ENDBRANCH   4   5
BRANCH   4  23
HETATM   23  C   UNL     1      -8.283   6.704  65.745  1.00  0.00    -0.135 C  
HETATM   24  C   UNL     1      -8.281   8.243  65.715  1.00  0.00    -0.123 C  
HETATM   25  C   UNL     1      -6.907   6.300  65.158  1.00  0.00    -0.047 C  
ENDBRANCH   4  23
ENDBRANCH   2   4
TORSDOF 4
ENDMDL
MODEL      182
REMARK 921   NORMALIZED FREE ENERGY PREDICTED BY IDOCK:   -3.18 KCAL/MOL
REMARK 922        TOTAL FREE ENERGY PREDICTED BY IDOCK:   -4.77 KCAL/MOL
REMARK 923 INTER-LIGAND FREE ENERGY PREDICTED BY IDOCK:   -3.79 KCAL/MOL
REMARK 924 INTRA-LIGAND FREE ENERGY PREDICTED BY IDOCK:   -0.98 KCAL/MOL
REMARK 927      BINDING AFFINITY PREDICTED BY RF-SCORE:    0.00 PKD
ROOT
HETATM    1  C   UNL     1     -11.833  11.941  67.966  1.00  0.00    -0.323 C  
HETATM    2  C   UNL     1     -11.709  12.461  66.512  1.00  0.00    -0.379 C  
HETATM    3  C   UNL     1     -11.458  13.974  66.653  1.00  0.00    -0.377 C  
ENDROOT
BRANCH   2   4
HETATM    4  N   UNL     1     -10.670  11.731  65.722  1.00  0.00    -0.273 NA 
BRANCH   4   5
HETATM    5  C   UNL     1     -10.070  10.596  66.471  1.00  0.00    -0.223 C  
BRANCH   5   6
HETATM    6  C   UNL     1     -10.176   9.186  65.856  1.00  0.00     0.034 C  
HETATM    7  C   UNL     1      -8.862   8.342  65.806  1.00  0.00    -0.204 C  
HETATM    8  C   UNL     1      -8.218   8.018  67.168  1.00  0.00    -0.117 A  
HETATM    9  C   UNL     1      -7.845   8.791  64.740  1.00  0.00    -0.124 A  
HETATM   10  C   UNL     1      -7.580   8.095  63.551  1.00  0.00    -0.136 A  
HETATM   11  C   UNL     1      -7.613   8.990  67.984  1.00  0.00    -0.092 A  
HETATM   12  O   UNL     1      -8.253   6.984  63.131  1.00  0.00    -0.303 OA 
HETATM   13  C   UNL     1      -6.925   8.653  69.150  1.00  0.00    -0.063 A  
HETATM   14  C   UNL     1      -6.553   8.499  62.686  1.00  0.00    -0.091 A  
HETATM   15  C   UNL     1      -5.749   9.594  62.990  1.00  0.00    -0.092 A  
HETATM   16  C   UNL     1      -6.858   7.331  69.557  1.00  0.00    -0.050 A  
HETATM   17  H   UNL     1      -8.073   6.513  62.326  1.00  0.00     0.000 HD 
HETATM   18  C   UNL     1      -5.991  10.317  64.149  1.00  0.00    -0.132 A  
HETATM   19  C   UNL     1      -7.484   6.345  68.793  1.00  0.00    -0.088 A  
HETATM   20  C   UNL     1      -8.154   6.687  67.609  1.00  0.00    -0.119 A  
HETATM   21  C   UNL     1      -5.127  11.461  64.585  1.00  0.00     0.885 C  
HETATM   22  C   UNL     1      -7.054   9.930  64.978  1.00  0.00    -0.131 A  
ENDBRANCH   5   6
ENDBRANCH   4   5
BRANCH   4  23
HETATM   23  C   UNL     1     -11.002  11.368  64.309  1.00  0.00    -0.321 C  
HETATM   24  C   UNL     1     -12.149  12.181  63.681  1.00  0.00    -0.648 C  
HETATM   25  C   UNL     1      -9.806  11.570  63.346  1.00  0.00    -0.422 C  
ENDBRANCH   4  23
ENDBRANCH   2   4
TORSDOF 4
ENDMDL
MODEL      183
REMARK 921   NORMALIZED FREE ENERGY PREDICTED BY IDOCK:   -3.15 KCAL/MOL
REMARK 922        TOTAL FREE ENERGY PREDICTED BY IDOCK:   -4.73 KCAL/MOL
REMARK 923 INTER-LIGAND FREE ENERGY PREDICTED BY IDOCK:   -3.95 KCAL/MOL
REMARK 924 INTRA-LIGAND FREE ENERGY PREDICTED BY IDOCK:   -0.78 KCAL/MOL
REMARK 927      BINDING AFFINITY PREDICTED BY RF-SCORE:    0.00 PKD
ROOT
HETATM    1  C   UNL     1     -10.766   5.912  68.478  1.00  0.00    -0.327 C  
HETATM    2  C   UNL     1      -9.955   5.453  67.240  1.00  0.00    -0.171 C  
HETATM    3  C   UNL     1     -11.008   5.223  66.141  1.00  0.00    -0.029 C  
ENDROOT
BRANCH   2   4
HETATM    4  N   UNL     1      -8.870   6.413  66.868  1.00  0.00    -0.117 NA 
BRANCH   4   5
HETATM    5  C   UNL     1      -8.976   7.709  67.591  1.00  0.00    -0.127 C  
BRANCH   5   6
HETATM    6  C   UNL     1      -8.414   8.968  66.903  1.00  0.00    -0.120 C  
HETATM    7  C   UNL     1      -8.224  10.233  67.801  1.00  0.00    -0.110 C  
HETATM    8  C   UNL     1      -7.241  10.080  68.978  1.00  0.00    -0.076 A  
HETATM    9  C   UNL     1      -9.528  10.956  68.183  1.00  0.00    -0.167 A  
HETATM   10  C   UNL     1      -9.942  12.186  67.649  1.00  0.00    -0.197 A  
HETATM   11  C   UNL     1      -7.501   9.271  70.098  1.00  0.00    -0.098 A  
HETATM   12  O   UNL     1      -9.297  12.858  66.650  1.00  0.00    -0.240 OA 
HETATM   13  C   UNL     1      -6.656   9.250  71.208  1.00  0.00    -0.057 A  
HETATM   14  C   UNL     1     -11.080  12.845  68.134  1.00  0.00    -0.282 A  
HETATM   15  C   UNL     1     -11.828  12.307  69.178  1.00  0.00    -0.355 A  
HETATM   16  C   UNL     1      -5.498  10.009  71.211  1.00  0.00    -0.075 A  
HETATM   17  H   UNL     1      -9.577  13.690  66.288  1.00  0.00     0.000 HD 
HETATM   18  C   UNL     1     -11.459  11.085  69.722  1.00  0.00    -0.387 A  
HETATM   19  C   UNL     1      -5.187  10.791  70.097  1.00  0.00    -0.052 A  
HETATM   20  C   UNL     1      -6.053  10.827  68.994  1.00  0.00    -0.041 A  
HETATM   21  C   UNL     1     -12.165  10.474  70.896  1.00  0.00    -0.490 C  
HETATM   22  C   UNL     1     -10.347  10.416  69.191  1.00  0.00    -0.241 A  
ENDBRANCH   5   6
ENDBRANCH   4   5
BRANCH   4  23
HETATM   23  C   UNL     1      -7.468   5.895  66.832  1.00  0.00    -0.084 C  
HETATM   24  C   UNL     1      -6.642   6.335  65.611  1.00  0.00    -0.047 C  
HETATM   25  C   UNL     1      -6.632   6.351  68.054  1.00  0.00    -0.066 C  
ENDBRANCH   4  23
ENDBRANCH   2   4
TORSDOF 4
ENDMDL
MODEL      184
REMARK 921   NORMALIZED FREE ENERGY PREDICTED BY IDOCK:   -3.10 KCAL/MOL
REMARK 922        TOTAL FREE ENERGY PREDICTED BY IDOCK:   -4.67 KCAL/MOL
REMARK 923 INTER-LIGAND FREE ENERGY PREDICTED BY IDOCK:   -3.43 KCAL/MOL
REMARK 924 INTRA-LIGAND FREE ENERGY PREDICTED BY IDOCK:   -1.24 KCAL/MOL
REMARK 927      BINDING AFFINITY PREDICTED BY RF-SCORE:    0.00 PKD
ROOT
HETATM    1  C   UNL     1      -7.735   8.296  69.270  1.00  0.00    -0.103 C  
HETATM    2  C   UNL     1      -7.445   8.463  70.783  1.00  0.00    -0.065 C  
HETATM    3  C   UNL     1      -8.782   8.923  71.393  1.00  0.00    -0.262 C  
ENDROOT
BRANCH   2   4
HETATM    4  N   UNL     1      -6.871   7.230  71.403  1.00  0.00    -0.051 NA 
BRANCH   4   5
HETATM    5  C   UNL     1      -6.705   6.119  70.428  1.00  0.00    -0.053 C  
BRANCH   5   6
HETATM    6  C   UNL     1      -6.778   4.674  70.960  1.00  0.00    -0.031 C  
HETATM    7  C   UNL     1      -8.105   3.893  70.690  1.00  0.00    -0.058 C  
HETATM    8  C   UNL     1      -8.469   3.678  69.208  1.00  0.00    -0.096 A  
HETATM    9  C   UNL     1      -9.300   4.331  71.555  1.00  0.00    -0.203 A  
HETATM   10  C   UNL     1      -9.829   3.584  72.619  1.00  0.00    -0.149 A  
HETATM   11  C   UNL     1      -8.858   4.722  68.351  1.00  0.00    -0.119 A  
HETATM   12  O   UNL     1      -9.296   2.419  73.093  1.00  0.00    -0.085 OA 
HETATM   13  C   UNL     1      -9.306   4.485  67.051  1.00  0.00    -0.160 A  
HETATM   14  C   UNL     1     -10.995   3.987  73.284  1.00  0.00    -0.313 A  
HETATM   15  C   UNL     1     -11.679   5.136  72.896  1.00  0.00    -0.220 A  
HETATM   16  C   UNL     1      -9.336   3.192  66.554  1.00  0.00    -0.120 A  
HETATM   17  H   UNL     1      -9.653   1.913  73.813  1.00  0.00     0.000 HD 
HETATM   18  C   UNL     1     -11.179   5.910  71.858  1.00  0.00    -0.323 A  
HETATM   19  C   UNL     1      -8.915   2.136  67.364  1.00  0.00    -0.178 A  
HETATM   20  C   UNL     1      -8.489   2.378  68.678  1.00  0.00    -0.094 A  
HETATM   21  C   UNL     1     -11.894   7.118  71.331  1.00  0.00    -0.344 C  
HETATM   22  C   UNL     1      -9.984   5.519  71.237  1.00  0.00    -0.249 A  
ENDBRANCH   5   6
ENDBRANCH   4   5
BRANCH   4  23
HETATM   23  C   UNL     1      -5.678   7.391  72.290  1.00  0.00    -0.037 C  
HETATM   24  C   UNL     1      -5.278   8.848  72.586  1.00  0.00    -0.061 C  
HETATM   25  C   UNL     1      -5.883   6.752  73.687  1.00  0.00    -0.058 C  
ENDBRANCH   4  23
ENDBRANCH   2   4
TORSDOF 4
ENDMDL
MODEL      185
REMARK 921   NORMALIZED FREE ENERGY PREDICTED BY IDOCK:   -3.09 KCAL/MOL
REMARK 922        TOTAL FREE ENERGY PREDICTED BY IDOCK:   -4.66 KCAL/MOL
REMARK 923 INTER-LIGAND FREE ENERGY PREDICTED BY IDOCK:   -3.47 KCAL/MOL
REMARK 924 INTRA-LIGAND FREE ENERGY PREDICTED BY IDOCK:   -1.18 KCAL/MOL
REMARK 927      BINDING AFFINITY PREDICTED BY RF-SCORE:    0.00 PKD
ROOT
HETATM    1  C   UNL     1     -10.175   7.692  72.871  1.00  0.00    -0.356 C  
HETATM    2  C   UNL     1     -10.519   6.533  71.901  1.00  0.00    -0.206 C  
HETATM    3  C   UNL     1     -11.734   7.035  71.100  1.00  0.00    -0.366 C  
ENDROOT
BRANCH   2   4
HETATM    4  N   UNL     1      -9.354   6.113  71.063  1.00  0.00    -0.163 NA 
BRANCH   4   5
HETATM    5  C   UNL     1      -8.542   7.265  70.588  1.00  0.00    -0.142 C  
BRANCH   5   6
HETATM    6  C   UNL     1      -8.309   7.409  69.071  1.00  0.00    -0.126 C  
HETATM    7  C   UNL     1      -8.262   8.863  68.503  1.00  0.00    -0.116 C  
HETATM    8  C   UNL     1      -7.141   9.765  69.057  1.00  0.00    -0.067 A  
HETATM    9  C   UNL     1      -9.627   9.569  68.417  1.00  0.00    -0.152 A  
HETATM   10  C   UNL     1     -10.324   9.812  67.223  1.00  0.00    -0.248 A  
HETATM   11  C   UNL     1      -7.114  10.235  70.382  1.00  0.00    -0.040 A  
HETATM   12  O   UNL     1      -9.935   9.369  65.990  1.00  0.00    -0.293 OA 
HETATM   13  C   UNL     1      -6.160  11.152  70.822  1.00  0.00     0.074 A  
HETATM   14  C   UNL     1     -11.503  10.569  67.209  1.00  0.00     0.158 A  
HETATM   15  C   UNL     1     -12.013  11.122  68.381  1.00  0.00    -0.211 A  
HETATM   16  C   UNL     1      -5.174  11.595  69.957  1.00  0.00    -0.079 A  
HETATM   17  H   UNL     1     -10.406   9.533  65.183  1.00  0.00     0.000 HD 
HETATM   18  C   UNL     1     -11.361  10.891  69.583  1.00  0.00    -0.362 A  
HETATM   19  C   UNL     1      -5.144  11.115  68.647  1.00  0.00    -0.040 A  
HETATM   20  C   UNL     1      -6.121  10.212  68.202  1.00  0.00    -0.048 A  
HETATM   21  C   UNL     1     -11.801  11.512  70.876  1.00  0.00    -0.038 C  
HETATM   22  C   UNL     1     -10.209  10.090  69.587  1.00  0.00    -0.267 A  
ENDBRANCH   5   6
ENDBRANCH   4   5
BRANCH   4  23
HETATM   23  C   UNL     1      -8.507   4.989  71.568  1.00  0.00    -0.123 C  
HETATM   24  C   UNL     1      -7.329   5.412  72.462  1.00  0.00    -0.095 C  
HETATM   25  C   UNL     1      -9.308   3.980  72.429  1.00  0.00    -0.167 C  
ENDBRANCH   4  23
ENDBRANCH   2   4
TORSDOF 4
ENDMDL
MODEL      186
REMARK 921   NORMALIZED FREE ENERGY PREDICTED BY IDOCK:   -3.07 KCAL/MOL
REMARK 922        TOTAL FREE ENERGY PREDICTED BY IDOCK:   -4.63 KCAL/MOL
REMARK 923 INTER-LIGAND FREE ENERGY PREDICTED BY IDOCK:   -4.14 KCAL/MOL
REMARK 924 INTRA-LIGAND FREE ENERGY PREDICTED BY IDOCK:   -0.49 KCAL/MOL
REMARK 927      BINDING AFFINITY PREDICTED BY RF-SCORE:    0.00 PKD
ROOT
HETATM    1  C   UNL     1      -5.441   6.746  67.968  1.00  0.00    -0.015 C  
HETATM    2  C   UNL     1      -6.665   7.555  67.467  1.00  0.00    -0.067 C  
HETATM    3  C   UNL     1      -7.844   6.566  67.530  1.00  0.00    -0.113 C  
ENDROOT
BRANCH   2   4
HETATM    4  N   UNL     1      -6.876   8.822  68.233  1.00  0.00    -0.065 NA 
BRANCH   4   5
HETATM    5  C   UNL     1      -7.322   8.581  69.631  1.00  0.00    -0.060 C  
BRANCH   5   6
HETATM    6  C   UNL     1      -8.084   9.712  70.351  1.00  0.00    -0.198 C  
HETATM    7  C   UNL     1      -9.579   9.920  69.945  1.00  0.00    -0.265 C  
HETATM    8  C   UNL     1     -10.518   8.725  70.203  1.00  0.00    -0.230 A  
HETATM    9  C   UNL     1      -9.790  10.577  68.570  1.00  0.00    -0.175 A  
HETATM   10  C   UNL     1     -10.221  11.900  68.377  1.00  0.00    -0.204 A  
HETATM   11  C   UNL     1     -10.445   7.519  69.483  1.00  0.00    -0.227 A  
HETATM   12  O   UNL     1     -10.416  12.808  69.378  1.00  0.00    -0.417 OA 
HETATM   13  C   UNL     1     -11.387   6.503  69.645  1.00  0.00    -0.443 A  
HETATM   14  C   UNL     1     -10.509  12.392  67.097  1.00  0.00    -0.236 A  
HETATM   15  C   UNL     1     -10.394  11.577  65.974  1.00  0.00    -0.290 A  
HETATM   16  C   UNL     1     -12.409   6.647  70.569  1.00  0.00    -0.088 A  
HETATM   17  H   UNL     1     -10.708  13.703  69.248  1.00  0.00     0.000 HD 
HETATM   18  C   UNL     1      -9.957  10.270  66.122  1.00  0.00    -0.300 A  
HETATM   19  C   UNL     1     -12.486   7.813  71.331  1.00  0.00    -0.342 A  
HETATM   20  C   UNL     1     -11.550   8.842  71.146  1.00  0.00    -0.344 A  
HETATM   21  C   UNL     1      -9.878   9.307  64.975  1.00  0.00     0.273 C  
HETATM   22  C   UNL     1      -9.625   9.808  67.404  1.00  0.00    -0.187 A  
ENDBRANCH   5   6
ENDBRANCH   4   5
BRANCH   4  23
HETATM   23  C   UNL     1      -5.811   9.868  68.148  1.00  0.00    -0.042 C  
HETATM   24  C   UNL     1      -6.229  11.167  67.436  1.00  0.00    -0.066 C  
HETATM   25  C   UNL     1      -5.315  10.329  69.541  1.00  0.00    -0.038 C  
ENDBRANCH   4  23
ENDBRANCH   2   4
TORSDOF 4
ENDMDL
MODEL      187
REMARK 921   NORMALIZED FREE ENERGY PREDICTED BY IDOCK:   -3.04 KCAL/MOL
REMARK 922        TOTAL FREE ENERGY PREDICTED BY IDOCK:   -4.60 KCAL/MOL
REMARK 923 INTER-LIGAND FREE ENERGY PREDICTED BY IDOCK:   -4.81 KCAL/MOL
REMARK 924 INTRA-LIGAND FREE ENERGY PREDICTED BY IDOCK:    0.21 KCAL/MOL
REMARK 927      BINDING AFFINITY PREDICTED BY RF-SCORE:    0.00 PKD
ROOT
HETATM    1  C   UNL     1      -6.764  12.173  68.507  1.00  0.00    -0.071 C  
HETATM    2  C   UNL     1      -5.839  11.706  69.660  1.00  0.00    -0.091 C  
HETATM    3  C   UNL     1      -5.648  12.953  70.542  1.00  0.00    -0.174 C  
ENDROOT
BRANCH   2   4
HETATM    4  N   UNL     1      -6.373  10.510  70.383  1.00  0.00    -0.179 NA 
BRANCH   4   5
HETATM    5  C   UNL     1      -7.784  10.204  70.027  1.00  0.00    -0.136 C  
BRANCH   5   6
HETATM    6  C   UNL     1      -8.040   9.230  68.860  1.00  0.00    -0.103 C  
HETATM    7  C   UNL     1      -9.517   9.095  68.370  1.00  0.00    -0.150 C  
HETATM    8  C   UNL     1     -10.165  10.382  67.823  1.00  0.00    -0.229 A  
HETATM    9  C   UNL     1     -10.440   8.299  69.311  1.00  0.00    -0.218 A  
HETATM   10  C   UNL     1     -10.911   7.002  69.053  1.00  0.00    -0.182 A  
HETATM   11  C   UNL     1     -10.489  11.485  68.632  1.00  0.00    -0.224 A  
HETATM   12  O   UNL     1     -10.537   6.235  67.986  1.00  0.00    -0.202 OA 
HETATM   13  C   UNL     1     -11.190  12.585  68.138  1.00  0.00    -0.312 A  
HETATM   14  C   UNL     1     -11.846   6.386  69.896  1.00  0.00    -0.145 A  
HETATM   15  C   UNL     1     -12.354   7.051  71.009  1.00  0.00    -0.402 A  
HETATM   16  C   UNL     1     -11.552  12.632  66.803  1.00  0.00    -0.438 A  
HETATM   17  H   UNL     1     -10.856   5.357  67.812  1.00  0.00     0.000 HD 
HETATM   18  C   UNL     1     -11.901   8.329  71.305  1.00  0.00    -0.319 A  
HETATM   19  C   UNL     1     -11.209  11.573  65.961  1.00  0.00    -0.240 A  
HETATM   20  C   UNL     1     -10.524  10.459  66.469  1.00  0.00    -0.262 A  
HETATM   21  C   UNL     1     -12.452   9.141  72.439  1.00  0.00    -0.350 C  
HETATM   22  C   UNL     1     -10.928   8.911  70.480  1.00  0.00    -0.280 A  
ENDBRANCH   5   6
ENDBRANCH   4   5
BRANCH   4  23
HETATM   23  C   UNL     1      -5.516   9.285  70.421  1.00  0.00    -0.031 C  
HETATM   24  C   UNL     1      -6.135   8.080  71.151  1.00  0.00    -0.034 C  
HETATM   25  C   UNL     1      -5.177   8.752  69.006  1.00  0.00    -0.036 C  
ENDBRANCH   4  23
ENDBRANCH   2   4
TORSDOF 4
ENDMDL
MODEL      188
REMARK 921   NORMALIZED FREE ENERGY PREDICTED BY IDOCK:   -3.04 KCAL/MOL
REMARK 922        TOTAL FREE ENERGY PREDICTED BY IDOCK:   -4.59 KCAL/MOL
REMARK 923 INTER-LIGAND FREE ENERGY PREDICTED BY IDOCK:   -4.11 KCAL/MOL
REMARK 924 INTRA-LIGAND FREE ENERGY PREDICTED BY IDOCK:   -0.49 KCAL/MOL
REMARK 927      BINDING AFFINITY PREDICTED BY RF-SCORE:    0.00 PKD
ROOT
HETATM    1  C   UNL     1      -7.441   9.746  70.072  1.00  0.00    -0.158 C  
HETATM    2  C   UNL     1      -6.617  11.047  70.247  1.00  0.00    -0.009 C  
HETATM    3  C   UNL     1      -5.227  10.576  70.711  1.00  0.00    -0.079 C  
ENDROOT
BRANCH   2   4
HETATM    4  N   UNL     1      -6.606  11.895  69.015  1.00  0.00    -0.084 NA 
BRANCH   4   5
HETATM    5  C   UNL     1      -7.409  11.312  67.907  1.00  0.00    -0.092 C  
BRANCH   5   6
HETATM    6  C   UNL     1      -8.944  11.442  67.981  1.00  0.00    -0.163 C  
HETATM    7  C   UNL     1      -9.772  10.529  67.021  1.00  0.00    -0.212 C  
HETATM    8  C   UNL     1      -9.598   9.011  67.222  1.00  0.00    -0.206 A  
HETATM    9  C   UNL     1      -9.750  10.956  65.543  1.00  0.00    -0.282 A  
HETATM   10  C   UNL     1     -10.830  11.550  64.870  1.00  0.00    -0.283 A  
HETATM   11  C   UNL     1      -8.409   8.325  66.918  1.00  0.00    -0.114 A  
HETATM   12  O   UNL     1     -12.007  11.917  65.458  1.00  0.00    -0.399 OA 
HETATM   13  C   UNL     1      -8.318   6.934  66.987  1.00  0.00    -0.121 A  
HETATM   14  C   UNL     1     -10.780  11.800  63.491  1.00  0.00    -0.501 A  
HETATM   15  C   UNL     1      -9.662  11.449  62.740  1.00  0.00    -0.253 A  
HETATM   16  C   UNL     1      -9.408   6.189  67.405  1.00  0.00    -0.115 A  
HETATM   17  H   UNL     1     -12.737  12.319  65.002  1.00  0.00     0.000 HD 
HETATM   18  C   UNL     1      -8.569  10.874  63.372  1.00  0.00    -0.020 A  
HETATM   19  C   UNL     1     -10.591   6.841  67.755  1.00  0.00    -0.307 A  
HETATM   20  C   UNL     1     -10.684   8.238  67.661  1.00  0.00    -0.195 A  
HETATM   21  C   UNL     1      -7.358  10.399  62.625  1.00  0.00    -0.142 C  
HETATM   22  C   UNL     1      -8.615  10.676  64.760  1.00  0.00    -0.136 A  
ENDBRANCH   5   6
ENDBRANCH   4   5
BRANCH   4  23
HETATM   23  C   UNL     1      -6.847  13.362  69.182  1.00  0.00    -0.076 C  
HETATM   24  C   UNL     1      -6.316  13.964  70.495  1.00  0.00    -0.012 C  
HETATM   25  C   UNL     1      -6.179  14.206  68.068  1.00  0.00    -0.150 C  
ENDBRANCH   4  23
ENDBRANCH   2   4
TORSDOF 4
ENDMDL
MODEL      189
REMARK 921   NORMALIZED FREE ENERGY PREDICTED BY IDOCK:   -3.03 KCAL/MOL
REMARK 922        TOTAL FREE ENERGY PREDICTED BY IDOCK:   -4.58 KCAL/MOL
REMARK 923 INTER-LIGAND FREE ENERGY PREDICTED BY IDOCK:   -3.59 KCAL/MOL
REMARK 924 INTRA-LIGAND FREE ENERGY PREDICTED BY IDOCK:   -0.99 KCAL/MOL
REMARK 927      BINDING AFFINITY PREDICTED BY RF-SCORE:    0.00 PKD
ROOT
HETATM    1  C   UNL     1     -10.482   4.246  64.914  1.00  0.00    -0.176 C  
HETATM    2  C   UNL     1      -9.311   3.913  63.955  1.00  0.00    -0.148 C  
HETATM    3  C   UNL     1      -9.947   3.871  62.554  1.00  0.00    -0.150 C  
ENDROOT
BRANCH   2   4
HETATM    4  N   UNL     1      -8.165   4.865  64.087  1.00  0.00    -0.115 NA 
BRANCH   4   5
HETATM    5  C   UNL     1      -8.414   5.928  65.097  1.00  0.00    -0.130 C  
BRANCH   5   6
HETATM    6  C   UNL     1      -7.331   6.180  66.164  1.00  0.00    -0.080 C  
HETATM    7  C   UNL     1      -7.718   7.121  67.349  1.00  0.00    -0.110 C  
HETATM    8  C   UNL     1      -8.890   6.647  68.230  1.00  0.00    -0.124 A  
HETATM    9  C   UNL     1      -7.790   8.616  66.990  1.00  0.00    -0.096 A  
HETATM   10  C   UNL     1      -6.842   9.575  67.380  1.00  0.00    -0.083 A  
HETATM   11  C   UNL     1     -10.221   6.595  67.779  1.00  0.00    -0.207 A  
HETATM   12  O   UNL     1      -5.681   9.297  68.044  1.00  0.00    -0.038 OA 
HETATM   13  C   UNL     1     -11.280   6.285  68.632  1.00  0.00    -0.328 A  
HETATM   14  C   UNL     1      -7.037  10.939  67.121  1.00  0.00    -0.103 A  
HETATM   15  C   UNL     1      -8.190  11.389  66.483  1.00  0.00    -0.152 A  
HETATM   16  C   UNL     1     -11.033   5.974  69.958  1.00  0.00    -0.450 A  
HETATM   17  H   UNL     1      -5.039   9.946  68.307  1.00  0.00     0.000 HD 
HETATM   18  C   UNL     1      -9.143  10.470  66.069  1.00  0.00    -0.191 A  
HETATM   19  C   UNL     1      -9.719   5.973  70.429  1.00  0.00    -0.206 A  
HETATM   20  C   UNL     1      -8.660   6.309  69.573  1.00  0.00    -0.132 A  
HETATM   21  C   UNL     1     -10.444  10.878  65.444  1.00  0.00    -0.291 C  
HETATM   22  C   UNL     1      -8.909   9.105  66.291  1.00  0.00    -0.176 A  
ENDBRANCH   5   6
ENDBRANCH   4   5
BRANCH   4  23
HETATM   23  C   UNL     1      -6.791   4.284  64.199  1.00  0.00    -0.045 C  
HETATM   24  C   UNL     1      -6.742   2.804  64.618  1.00  0.00    -0.039 C  
HETATM   25  C   UNL     1      -6.011   4.338  62.862  1.00  0.00    -0.017 C  
ENDBRANCH   4  23
ENDBRANCH   2   4
TORSDOF 4
ENDMDL
MODEL      190
REMARK 921   NORMALIZED FREE ENERGY PREDICTED BY IDOCK:   -3.00 KCAL/MOL
REMARK 922        TOTAL FREE ENERGY PREDICTED BY IDOCK:   -4.54 KCAL/MOL
REMARK 923 INTER-LIGAND FREE ENERGY PREDICTED BY IDOCK:   -3.59 KCAL/MOL
REMARK 924 INTRA-LIGAND FREE ENERGY PREDICTED BY IDOCK:   -0.95 KCAL/MOL
REMARK 927      BINDING AFFINITY PREDICTED BY RF-SCORE:    0.00 PKD
ROOT
HETATM    1  C   UNL     1     -12.900  15.476  69.824  1.00  0.00     0.138 C  
HETATM    2  C   UNL     1     -11.808  16.144  70.699  1.00  0.00    -0.214 C  
HETATM    3  C   UNL     1     -11.579  15.162  71.862  1.00  0.00    -0.490 C  
ENDROOT
BRANCH   2   4
HETATM    4  N   UNL     1     -10.575  16.488  69.925  1.00  0.00    -0.266 NA 
BRANCH   4   5
HETATM    5  C   UNL     1      -9.997  15.317  69.212  1.00  0.00    -0.251 C  
BRANCH   5   6
HETATM    6  C   UNL     1      -8.637  14.777  69.695  1.00  0.00     0.192 C  
HETATM    7  C   UNL     1      -7.582  14.445  68.592  1.00  0.00    -0.132 C  
HETATM    8  C   UNL     1      -7.131  15.629  67.715  1.00  0.00    -0.174 A  
HETATM    9  C   UNL     1      -7.868  13.164  67.787  1.00  0.00    -0.152 A  
HETATM   10  C   UNL     1      -7.157  11.962  67.925  1.00  0.00    -0.093 A  
HETATM   11  C   UNL     1      -7.971  16.262  66.782  1.00  0.00    -0.306 A  
HETATM   12  O   UNL     1      -6.184  11.735  68.857  1.00  0.00    -0.051 OA 
HETATM   13  C   UNL     1      -7.502  17.245  65.911  1.00  0.00    -0.069 A  
HETATM   14  C   UNL     1      -7.393  10.875  67.073  1.00  0.00    -0.118 A  
HETATM   15  C   UNL     1      -8.330  10.959  66.047  1.00  0.00    -0.165 A  
HETATM   16  C   UNL     1      -6.182  17.657  65.978  1.00  0.00    -0.247 A  
HETATM   17  H   UNL     1      -5.702  10.922  68.950  1.00  0.00     0.000 HD 
HETATM   18  C   UNL     1      -9.064  12.126  65.888  1.00  0.00    -0.001 A  
HETATM   19  C   UNL     1      -5.330  17.081  66.922  1.00  0.00    -0.195 A  
HETATM   20  C   UNL     1      -5.801  16.076  67.779  1.00  0.00    -0.162 A  
HETATM   21  C   UNL     1     -10.037  12.325  64.765  1.00  0.00    -0.271 C  
HETATM   22  C   UNL     1      -8.851  13.186  66.781  1.00  0.00    -0.140 A  
ENDBRANCH   5   6
ENDBRANCH   4   5
BRANCH   4  23
HETATM   23  C   UNL     1     -10.615  17.713  69.068  1.00  0.00    -0.081 C  
HETATM   24  C   UNL     1      -9.280  18.470  68.952  1.00  0.00    -0.219 C  
HETATM   25  C   UNL     1     -11.017  17.404  67.605  1.00  0.00    -0.125 C  
ENDBRANCH   4  23
ENDBRANCH   2   4
TORSDOF 4
ENDMDL
MODEL      191
REMARK 921   NORMALIZED FREE ENERGY PREDICTED BY IDOCK:   -2.98 KCAL/MOL
REMARK 922        TOTAL FREE ENERGY PREDICTED BY IDOCK:   -4.51 KCAL/MOL
REMARK 923 INTER-LIGAND FREE ENERGY PREDICTED BY IDOCK:   -3.57 KCAL/MOL
REMARK 924 INTRA-LIGAND FREE ENERGY PREDICTED BY IDOCK:   -0.94 KCAL/MOL
REMARK 927      BINDING AFFINITY PREDICTED BY RF-SCORE:    0.00 PKD
ROOT
HETATM    1  C   UNL     1      -9.141  11.934  68.696  1.00  0.00    -0.047 C  
HETATM    2  C   UNL     1      -8.518  11.895  67.277  1.00  0.00    -0.172 C  
HETATM    3  C   UNL     1      -7.476  13.027  67.272  1.00  0.00    -0.083 C  
ENDROOT
BRANCH   2   4
HETATM    4  N   UNL     1      -7.974  10.548  66.920  1.00  0.00    -0.118 NA 
BRANCH   4   5
HETATM    5  C   UNL     1      -7.715   9.698  68.113  1.00  0.00    -0.086 C  
BRANCH   5   6
HETATM    6  C   UNL     1      -7.940   8.179  67.979  1.00  0.00    -0.127 C  
HETATM    7  C   UNL     1      -8.307   7.406  69.287  1.00  0.00    -0.132 C  
HETATM    8  C   UNL     1      -9.617   7.835  69.975  1.00  0.00    -0.161 A  
HETATM    9  C   UNL     1      -7.139   7.204  70.268  1.00  0.00    -0.066 A  
HETATM   10  C   UNL     1      -6.489   5.979  70.490  1.00  0.00    -0.037 A  
HETATM   11  C   UNL     1      -9.782   9.077  70.612  1.00  0.00    -0.287 A  
HETATM   12  O   UNL     1      -6.737   4.829  69.797  1.00  0.00    -0.038 OA 
HETATM   13  C   UNL     1     -10.931   9.390  71.338  1.00  0.00    -0.443 A  
HETATM   14  C   UNL     1      -5.514   5.843  71.489  1.00  0.00    -0.021 A  
HETATM   15  C   UNL     1      -5.173   6.917  72.307  1.00  0.00    -0.036 A  
HETATM   16  C   UNL     1     -11.973   8.481  71.413  1.00  0.00    -0.345 A  
HETATM   17  H   UNL     1      -6.297   4.001  69.948  1.00  0.00     0.000 HD 
HETATM   18  C   UNL     1      -5.782   8.147  72.108  1.00  0.00    -0.039 A  
HETATM   19  C   UNL     1     -11.860   7.254  70.756  1.00  0.00    -0.324 A  
HETATM   20  C   UNL     1     -10.693   6.935  70.047  1.00  0.00    -0.276 A  
HETATM   21  C   UNL     1      -5.526   9.331  72.992  1.00  0.00    -0.056 C  
HETATM   22  C   UNL     1      -6.719   8.279  71.072  1.00  0.00    -0.045 A  
ENDBRANCH   5   6
ENDBRANCH   4   5
BRANCH   4  23
HETATM   23  C   UNL     1      -8.653   9.796  65.821  1.00  0.00    -0.135 C  
HETATM   24  C   UNL     1     -10.009  10.373  65.377  1.00  0.00    -0.362 C  
HETATM   25  C   UNL     1      -7.808   9.745  64.524  1.00  0.00    -0.137 C  
ENDBRANCH   4  23
ENDBRANCH   2   4
TORSDOF 4
ENDMDL
MODEL      192
REMARK 921   NORMALIZED FREE ENERGY PREDICTED BY IDOCK:   -2.97 KCAL/MOL
REMARK 922        TOTAL FREE ENERGY PREDICTED BY IDOCK:   -4.51 KCAL/MOL
REMARK 923 INTER-LIGAND FREE ENERGY PREDICTED BY IDOCK:   -3.54 KCAL/MOL
REMARK 924 INTRA-LIGAND FREE ENERGY PREDICTED BY IDOCK:   -0.97 KCAL/MOL
REMARK 927      BINDING AFFINITY PREDICTED BY RF-SCORE:    0.00 PKD
ROOT
HETATM    1  C   UNL     1      -5.552   9.678  66.657  1.00  0.00    -0.046 C  
HETATM    2  C   UNL     1      -6.036   9.352  68.093  1.00  0.00    -0.052 C  
HETATM    3  C   UNL     1      -5.518  10.515  68.959  1.00  0.00    -0.041 C  
ENDROOT
BRANCH   2   4
HETATM    4  N   UNL     1      -7.513   9.131  68.171  1.00  0.00    -0.083 NA 
BRANCH   4   5
HETATM    5  C   UNL     1      -7.957   8.674  69.515  1.00  0.00    -0.097 C  
BRANCH   5   6
HETATM    6  C   UNL     1      -7.230   7.470  70.145  1.00  0.00    -0.068 C  
HETATM    7  C   UNL     1      -8.019   6.122  70.197  1.00  0.00    -0.107 C  
HETATM    8  C   UNL     1      -8.431   5.532  68.834  1.00  0.00    -0.101 A  
HETATM    9  C   UNL     1      -9.139   6.068  71.250  1.00  0.00    -0.149 A  
HETATM   10  C   UNL     1      -9.074   5.335  72.445  1.00  0.00    -0.134 A  
HETATM   11  C   UNL     1      -9.402   6.119  68.003  1.00  0.00    -0.114 A  
HETATM   12  O   UNL     1      -7.974   4.652  72.881  1.00  0.00    -0.094 OA 
HETATM   13  C   UNL     1      -9.850   5.499  66.836  1.00  0.00    -0.181 A  
HETATM   14  C   UNL     1     -10.181   5.234  73.299  1.00  0.00    -0.216 A  
HETATM   15  C   UNL     1     -11.390   5.844  72.978  1.00  0.00    -0.211 A  
HETATM   16  C   UNL     1      -9.306   4.288  66.443  1.00  0.00    -0.170 A  
HETATM   17  H   UNL     1      -7.929   4.157  73.690  1.00  0.00     0.000 HD 
HETATM   18  C   UNL     1     -11.490   6.590  71.813  1.00  0.00    -0.346 A  
HETATM   19  C   UNL     1      -8.309   3.698  67.221  1.00  0.00    -0.096 A  
HETATM   20  C   UNL     1      -7.879   4.315  68.406  1.00  0.00    -0.074 A  
HETATM   21  C   UNL     1     -12.775   7.216  71.359  1.00  0.00    -0.433 C  
HETATM   22  C   UNL     1     -10.358   6.723  70.995  1.00  0.00    -0.228 A  
ENDBRANCH   5   6
ENDBRANCH   4   5
BRANCH   4  23
HETATM   23  C   UNL     1      -8.403  10.193  67.608  1.00  0.00    -0.114 C  
HETATM   24  C   UNL     1      -9.563   9.677  66.739  1.00  0.00    -0.225 C  
HETATM   25  C   UNL     1      -9.086  11.042  68.708  1.00  0.00    -0.161 C  
ENDBRANCH   4  23
ENDBRANCH   2   4
TORSDOF 4
ENDMDL
MODEL      193
REMARK 921   NORMALIZED FREE ENERGY PREDICTED BY IDOCK:   -2.97 KCAL/MOL
REMARK 922        TOTAL FREE ENERGY PREDICTED BY IDOCK:   -4.51 KCAL/MOL
REMARK 923 INTER-LIGAND FREE ENERGY PREDICTED BY IDOCK:   -4.74 KCAL/MOL
REMARK 924 INTRA-LIGAND FREE ENERGY PREDICTED BY IDOCK:    0.23 KCAL/MOL
REMARK 927      BINDING AFFINITY PREDICTED BY RF-SCORE:    0.00 PKD
ROOT
HETATM    1  C   UNL     1      -7.334  12.906  67.093  1.00  0.00     0.002 C  
HETATM    2  C   UNL     1      -6.131  12.549  68.003  1.00  0.00    -0.088 C  
HETATM    3  C   UNL     1      -5.737  13.876  68.676  1.00  0.00    -0.085 C  
ENDROOT
BRANCH   2   4
HETATM    4  N   UNL     1      -6.435  11.436  68.954  1.00  0.00    -0.056 NA 
BRANCH   4   5
HETATM    5  C   UNL     1      -7.602  10.618  68.529  1.00  0.00    -0.097 C  
BRANCH   5   6
HETATM    6  C   UNL     1      -7.569   9.989  67.122  1.00  0.00    -0.092 C  
HETATM    7  C   UNL     1      -8.941   9.547  66.519  1.00  0.00    -0.173 C  
HETATM    8  C   UNL     1      -9.978  10.669  66.314  1.00  0.00    -0.274 A  
HETATM    9  C   UNL     1      -9.538   8.270  67.137  1.00  0.00    -0.234 A  
HETATM   10  C   UNL     1      -9.582   7.021  66.497  1.00  0.00    -0.144 A  
HETATM   11  C   UNL     1     -10.611  11.337  67.376  1.00  0.00    -0.262 A  
HETATM   12  O   UNL     1      -9.015   6.748  65.284  1.00  0.00    -0.368 OA 
HETATM   13  C   UNL     1     -11.638  12.257  67.165  1.00  0.00    -0.423 A  
HETATM   14  C   UNL     1     -10.251   5.932  67.071  1.00  0.00    -0.256 A  
HETATM   15  C   UNL     1     -10.911   6.059  68.290  1.00  0.00    -0.366 A  
HETATM   16  C   UNL     1     -12.033  12.570  65.876  1.00  0.00    -0.472 A  
HETATM   17  H   UNL     1      -9.045   5.903  64.851  1.00  0.00     0.000 HD 
HETATM   18  C   UNL     1     -10.877   7.273  68.961  1.00  0.00    -0.137 A  
HETATM   19  C   UNL     1     -11.396  11.958  64.795  1.00  0.00    -0.344 A  
HETATM   20  C   UNL     1     -10.381  11.015  65.014  1.00  0.00    -0.360 A  
HETATM   21  C   UNL     1     -11.624   7.513  70.239  1.00  0.00    -0.114 C  
HETATM   22  C   UNL     1     -10.162   8.339  68.396  1.00  0.00    -0.242 A  
ENDBRANCH   5   6
ENDBRANCH   4   5
BRANCH   4  23
HETATM   23  C   UNL     1      -5.291  10.596  69.425  1.00  0.00    -0.037 C  
HETATM   24  C   UNL     1      -5.149  10.486  70.954  1.00  0.00    -0.078 C  
HETATM   25  C   UNL     1      -5.388   9.129  68.936  1.00  0.00    -0.037 C  
ENDBRANCH   4  23
ENDBRANCH   2   4
TORSDOF 4
ENDMDL
MODEL      194
REMARK 921   NORMALIZED FREE ENERGY PREDICTED BY IDOCK:   -2.96 KCAL/MOL
REMARK 922        TOTAL FREE ENERGY PREDICTED BY IDOCK:   -4.50 KCAL/MOL
REMARK 923 INTER-LIGAND FREE ENERGY PREDICTED BY IDOCK:   -3.44 KCAL/MOL
REMARK 924 INTRA-LIGAND FREE ENERGY PREDICTED BY IDOCK:   -1.06 KCAL/MOL
REMARK 927      BINDING AFFINITY PREDICTED BY RF-SCORE:    0.00 PKD
ROOT
HETATM    1  C   UNL     1     -10.232   3.423  63.972  1.00  0.00    -0.212 C  
HETATM    2  C   UNL     1      -9.685   4.069  65.271  1.00  0.00    -0.197 C  
HETATM    3  C   UNL     1      -9.129   2.893  66.094  1.00  0.00    -0.136 C  
ENDROOT
BRANCH   2   4
HETATM    4  N   UNL     1      -8.700   5.162  65.004  1.00  0.00    -0.151 NA 
BRANCH   4   5
HETATM    5  C   UNL     1      -9.103   6.461  65.606  1.00  0.00     0.064 C  
BRANCH   5   6
HETATM    6  C   UNL     1     -10.295   6.465  66.583  1.00  0.00    -0.223 C  
HETATM    7  C   UNL     1     -10.233   7.490  67.760  1.00  0.00    -0.257 C  
HETATM    8  C   UNL     1     -10.181   8.977  67.357  1.00  0.00    -0.308 A  
HETATM    9  C   UNL     1      -9.243   7.127  68.882  1.00  0.00    -0.137 A  
HETATM   10  C   UNL     1      -9.617   6.662  70.153  1.00  0.00    -0.161 A  
HETATM   11  C   UNL     1      -9.069   9.566  66.728  1.00  0.00    -0.173 A  
HETATM   12  O   UNL     1     -10.897   6.376  70.533  1.00  0.00    -0.241 OA 
HETATM   13  C   UNL     1      -8.995  10.938  66.490  1.00  0.00    -0.178 A  
HETATM   14  C   UNL     1      -8.666   6.468  71.165  1.00  0.00    -0.138 A  
HETATM   15  C   UNL     1      -7.321   6.749  70.947  1.00  0.00    -0.082 A  
HETATM   16  C   UNL     1     -10.055  11.759  66.835  1.00  0.00    -0.231 A  
HETATM   17  H   UNL     1     -11.150   6.062  71.392  1.00  0.00     0.000 HD 
HETATM   18  C   UNL     1      -6.911   7.196  69.700  1.00  0.00    -0.050 A  
HETATM   19  C   UNL     1     -11.192  11.201  67.421  1.00  0.00    -0.363 A  
HETATM   20  C   UNL     1     -11.251   9.824  67.681  1.00  0.00     0.027 A  
HETATM   21  C   UNL     1      -5.494   7.592  69.406  1.00  0.00    -0.019 C  
HETATM   22  C   UNL     1      -7.867   7.337  68.683  1.00  0.00    -0.122 A  
ENDBRANCH   5   6
ENDBRANCH   4   5
BRANCH   4  23
HETATM   23  C   UNL     1      -7.252   4.857  65.224  1.00  0.00    -0.067 C  
HETATM   24  C   UNL     1      -6.514   4.283  64.001  1.00  0.00    -0.041 C  
HETATM   25  C   UNL     1      -6.433   6.110  65.621  1.00  0.00    -0.043 C  
ENDBRANCH   4  23
ENDBRANCH   2   4
TORSDOF 4
ENDMDL
MODEL      195
REMARK 921   NORMALIZED FREE ENERGY PREDICTED BY IDOCK:   -2.91 KCAL/MOL
REMARK 922        TOTAL FREE ENERGY PREDICTED BY IDOCK:   -4.44 KCAL/MOL
REMARK 923 INTER-LIGAND FREE ENERGY PREDICTED BY IDOCK:   -3.45 KCAL/MOL
REMARK 924 INTRA-LIGAND FREE ENERGY PREDICTED BY IDOCK:   -0.98 KCAL/MOL
REMARK 927      BINDING AFFINITY PREDICTED BY RF-SCORE:    0.00 PKD
ROOT
HETATM    1  C   UNL     1     -12.073   6.115  71.539  1.00  0.00    -0.044 C  
HETATM    2  C   UNL     1     -11.171   6.089  72.800  1.00  0.00    -0.261 C  
HETATM    3  C   UNL     1     -11.257   4.642  73.318  1.00  0.00    -0.411 C  
ENDROOT
BRANCH   2   4
HETATM    4  N   UNL     1      -9.782   6.570  72.528  1.00  0.00    -0.159 NA 
BRANCH   4   5
HETATM    5  C   UNL     1      -9.286   6.168  71.184  1.00  0.00    -0.164 C  
BRANCH   5   6
HETATM    6  C   UNL     1      -7.906   5.488  71.096  1.00  0.00    -0.109 C  
HETATM    7  C   UNL     1      -7.178   5.553  69.715  1.00  0.00    -0.065 C  
HETATM    8  C   UNL     1      -6.841   6.966  69.198  1.00  0.00    -0.068 A  
HETATM    9  C   UNL     1      -7.764   4.630  68.631  1.00  0.00    -0.072 A  
HETATM   10  C   UNL     1      -7.154   3.451  68.175  1.00  0.00    -0.050 A  
HETATM   11  C   UNL     1      -7.818   7.885  68.776  1.00  0.00    -0.118 A  
HETATM   12  O   UNL     1      -6.012   2.913  68.697  1.00  0.00    -0.023 OA 
HETATM   13  C   UNL     1      -7.481   9.107  68.193  1.00  0.00    -0.083 A  
HETATM   14  C   UNL     1      -7.685   2.726  67.099  1.00  0.00    -0.070 A  
HETATM   15  C   UNL     1      -8.827   3.164  66.435  1.00  0.00    -0.146 A  
HETATM   16  C   UNL     1      -6.151   9.465  68.055  1.00  0.00    -0.052 A  
HETATM   17  H   UNL     1      -5.599   2.115  68.388  1.00  0.00     0.000 HD 
HETATM   18  C   UNL     1      -9.467   4.317  66.866  1.00  0.00    -0.205 A  
HETATM   19  C   UNL     1      -5.156   8.595  68.503  1.00  0.00    -0.030 A  
HETATM   20  C   UNL     1      -5.500   7.357  69.066  1.00  0.00    -0.018 A  
HETATM   21  C   UNL     1     -10.657   4.896  66.160  1.00  0.00    -0.322 C  
HETATM   22  C   UNL     1      -8.952   5.003  67.975  1.00  0.00    -0.117 A  
ENDBRANCH   5   6
ENDBRANCH   4   5
BRANCH   4  23
HETATM   23  C   UNL     1      -9.467   7.996  72.848  1.00  0.00    -0.277 C  
HETATM   24  C   UNL     1      -7.992   8.278  73.184  1.00  0.00    -0.199 C  
HETATM   25  C   UNL     1      -9.790   8.955  71.675  1.00  0.00    -0.387 C  
ENDBRANCH   4  23
ENDBRANCH   2   4
TORSDOF 4
ENDMDL
MODEL      196
REMARK 921   NORMALIZED FREE ENERGY PREDICTED BY IDOCK:   -2.89 KCAL/MOL
REMARK 922        TOTAL FREE ENERGY PREDICTED BY IDOCK:   -4.40 KCAL/MOL
REMARK 923 INTER-LIGAND FREE ENERGY PREDICTED BY IDOCK:   -3.55 KCAL/MOL
REMARK 924 INTRA-LIGAND FREE ENERGY PREDICTED BY IDOCK:   -0.85 KCAL/MOL
REMARK 927      BINDING AFFINITY PREDICTED BY RF-SCORE:    0.00 PKD
ROOT
HETATM    1  C   UNL     1      -9.899   3.576  67.097  1.00  0.00     0.114 C  
HETATM    2  C   UNL     1      -9.892   4.953  67.810  1.00  0.00    -0.147 C  
HETATM    3  C   UNL     1      -9.589   4.632  69.285  1.00  0.00    -0.251 C  
ENDROOT
BRANCH   2   4
HETATM    4  N   UNL     1      -8.948   5.926  67.179  1.00  0.00    -0.114 NA 
BRANCH   4   5
HETATM    5  C   UNL     1      -7.822   6.299  68.076  1.00  0.00    -0.104 C  
BRANCH   5   6
HETATM    6  C   UNL     1      -7.451   7.791  68.188  1.00  0.00    -0.108 C  
HETATM    7  C   UNL     1      -7.724   8.481  69.563  1.00  0.00    -0.091 C  
HETATM    8  C   UNL     1      -6.962   7.900  70.770  1.00  0.00    -0.045 A  
HETATM    9  C   UNL     1      -9.206   8.770  69.859  1.00  0.00    -0.160 A  
HETATM   10  C   UNL     1      -9.790  10.047  69.828  1.00  0.00    -0.235 A  
HETATM   11  C   UNL     1      -7.225   6.627  71.307  1.00  0.00    -0.078 A  
HETATM   12  O   UNL     1      -9.148  11.187  69.438  1.00  0.00    -0.391 OA 
HETATM   13  C   UNL     1      -6.613   6.176  72.477  1.00  0.00    -0.068 A  
HETATM   14  C   UNL     1     -11.118  10.250  70.228  1.00  0.00    -0.388 A  
HETATM   15  C   UNL     1     -11.897   9.192  70.688  1.00  0.00    -0.222 A  
HETATM   16  C   UNL     1      -5.682   6.972  73.122  1.00  0.00    -0.045 A  
HETATM   17  H   UNL     1      -9.543  12.051  69.417  1.00  0.00     0.000 HD 
HETATM   18  C   UNL     1     -11.361   7.913  70.718  1.00  0.00    -0.283 A  
HETATM   19  C   UNL     1      -5.364   8.224  72.592  1.00  0.00    -0.040 A  
HETATM   20  C   UNL     1      -6.001   8.682  71.430  1.00  0.00    -0.047 A  
HETATM   21  C   UNL     1     -12.107   6.734  71.268  1.00  0.00    -0.421 C  
HETATM   22  C   UNL     1     -10.047   7.719  70.268  1.00  0.00    -0.195 A  
ENDBRANCH   5   6
ENDBRANCH   4   5
BRANCH   4  23
HETATM   23  C   UNL     1      -8.494   5.646  65.782  1.00  0.00    -0.140 C  
HETATM   24  C   UNL     1      -8.346   6.887  64.884  1.00  0.00    -0.022 C  
HETATM   25  C   UNL     1      -7.106   4.960  65.733  1.00  0.00    -0.067 C  
ENDBRANCH   4  23
ENDBRANCH   2   4
TORSDOF 4
ENDMDL
MODEL      197
REMARK 921   NORMALIZED FREE ENERGY PREDICTED BY IDOCK:   -2.88 KCAL/MOL
REMARK 922        TOTAL FREE ENERGY PREDICTED BY IDOCK:   -4.40 KCAL/MOL
REMARK 923 INTER-LIGAND FREE ENERGY PREDICTED BY IDOCK:   -4.14 KCAL/MOL
REMARK 924 INTRA-LIGAND FREE ENERGY PREDICTED BY IDOCK:   -0.25 KCAL/MOL
REMARK 927      BINDING AFFINITY PREDICTED BY RF-SCORE:    0.00 PKD
ROOT
HETATM    1  C   UNL     1      -7.654  18.894  69.539  1.00  0.00     0.138 C  
HETATM    2  C   UNL     1      -6.670  17.842  68.967  1.00  0.00    -0.246 C  
HETATM    3  C   UNL     1      -5.270  18.418  69.245  1.00  0.00    -0.192 C  
ENDROOT
BRANCH   2   4
HETATM    4  N   UNL     1      -6.899  16.473  69.522  1.00  0.00    -0.221 NA 
BRANCH   4   5
HETATM    5  C   UNL     1      -8.057  15.783  68.894  1.00  0.00    -0.207 C  
BRANCH   5   6
HETATM    6  C   UNL     1      -9.133  16.651  68.214  1.00  0.00    -0.218 C  
HETATM    7  C   UNL     1     -10.478  15.945  67.848  1.00  0.00    -0.288 C  
HETATM    8  C   UNL     1     -11.277  15.365  69.031  1.00  0.00    -0.295 A  
HETATM    9  C   UNL     1     -10.401  14.994  66.639  1.00  0.00    -0.278 A  
HETATM   10  C   UNL     1     -10.943  15.270  65.374  1.00  0.00    -0.372 A  
HETATM   11  C   UNL     1     -10.847  14.256  69.781  1.00  0.00    -0.040 A  
HETATM   12  O   UNL     1     -11.524  16.453  65.017  1.00  0.00    -0.072 OA 
HETATM   13  C   UNL     1     -11.647  13.672  70.763  1.00  0.00     0.180 A  
HETATM   14  C   UNL     1     -10.942  14.306  64.356  1.00  0.00    -0.204 A  
HETATM   15  C   UNL     1     -10.419  13.035  64.574  1.00  0.00    -0.413 A  
HETATM   16  C   UNL     1     -12.889  14.210  71.055  1.00  0.00    -0.421 A  
HETATM   17  H   UNL     1     -11.891  16.640  64.161  1.00  0.00     0.000 HD 
HETATM   18  C   UNL     1      -9.860  12.730  65.807  1.00  0.00    -0.222 A  
HETATM   19  C   UNL     1     -13.329  15.338  70.360  1.00  0.00    -0.087 A  
HETATM   20  C   UNL     1     -12.530  15.906  69.357  1.00  0.00     0.203 A  
HETATM   21  C   UNL     1      -9.343  11.363  66.146  1.00  0.00    -0.232 C  
HETATM   22  C   UNL     1      -9.824  13.721  66.798  1.00  0.00    -0.275 A  
ENDBRANCH   5   6
ENDBRANCH   4   5
BRANCH   4  23
HETATM   23  C   UNL     1      -5.711  15.576  69.665  1.00  0.00    -0.119 C  
HETATM   24  C   UNL     1      -5.753  14.626  70.875  1.00  0.00    -0.154 C  
HETATM   25  C   UNL     1      -5.519  14.643  68.443  1.00  0.00    -0.108 C  
ENDBRANCH   4  23
ENDBRANCH   2   4
TORSDOF 4
ENDMDL
MODEL      198
REMARK 921   NORMALIZED FREE ENERGY PREDICTED BY IDOCK:   -2.84 KCAL/MOL
REMARK 922        TOTAL FREE ENERGY PREDICTED BY IDOCK:   -4.34 KCAL/MOL
REMARK 923 INTER-LIGAND FREE ENERGY PREDICTED BY IDOCK:   -4.52 KCAL/MOL
REMARK 924 INTRA-LIGAND FREE ENERGY PREDICTED BY IDOCK:    0.17 KCAL/MOL
REMARK 927      BINDING AFFINITY PREDICTED BY RF-SCORE:    0.00 PKD
ROOT
HETATM    1  C   UNL     1      -6.972   6.717  66.568  1.00  0.00    -0.066 C  
HETATM    2  C   UNL     1      -5.862   7.790  66.701  1.00  0.00    -0.040 C  
HETATM    3  C   UNL     1      -5.519   8.185  65.253  1.00  0.00    -0.036 C  
ENDROOT
BRANCH   2   4
HETATM    4  N   UNL     1      -6.263   8.933  67.577  1.00  0.00    -0.052 NA 
BRANCH   4   5
HETATM    5  C   UNL     1      -7.268   9.824  66.938  1.00  0.00    -0.090 C  
BRANCH   5   6
HETATM    6  C   UNL     1      -8.364   9.172  66.073  1.00  0.00    -0.125 C  
HETATM    7  C   UNL     1      -9.837   9.328  66.572  1.00  0.00    -0.331 C  
HETATM    8  C   UNL     1     -10.364  10.773  66.671  1.00  0.00    -0.294 A  
HETATM    9  C   UNL     1     -10.203   8.459  67.788  1.00  0.00    -0.283 A  
HETATM   10  C   UNL     1     -11.019   7.318  67.735  1.00  0.00    -0.070 A  
HETATM   11  C   UNL     1      -9.898  11.699  67.621  1.00  0.00    -0.195 A  
HETATM   12  O   UNL     1     -11.516   6.769  66.588  1.00  0.00    -0.649 OA 
HETATM   13  C   UNL     1     -10.480  12.957  67.775  1.00  0.00    -0.225 A  
HETATM   14  C   UNL     1     -11.409   6.648  68.903  1.00  0.00    -0.209 A  
HETATM   15  C   UNL     1     -11.014   7.105  70.157  1.00  0.00    -0.293 A  
HETATM   16  C   UNL     1     -11.522  13.344  66.949  1.00  0.00    -0.376 A  
HETATM   17  H   UNL     1     -12.068   5.998  66.552  1.00  0.00     0.000 HD 
HETATM   18  C   UNL     1     -10.195   8.220  70.250  1.00  0.00    -0.199 A  
HETATM   19  C   UNL     1     -11.981  12.466  65.966  1.00  0.00    -0.419 A  
HETATM   20  C   UNL     1     -11.408  11.193  65.832  1.00  0.00     0.108 A  
HETATM   21  C   UNL     1      -9.786   8.819  71.562  1.00  0.00    -0.371 C  
HETATM   22  C   UNL     1      -9.772   8.850  69.070  1.00  0.00    -0.171 A  
ENDBRANCH   5   6
ENDBRANCH   4   5
BRANCH   4  23
HETATM   23  C   UNL     1      -6.597   8.629  69.003  1.00  0.00    -0.048 C  
HETATM   24  C   UNL     1      -5.787   7.481  69.631  1.00  0.00    -0.023 C  
HETATM   25  C   UNL     1      -6.355   9.837  69.942  1.00  0.00    -0.058 C  
ENDBRANCH   4  23
ENDBRANCH   2   4
TORSDOF 4
ENDMDL
MODEL      199
REMARK 921   NORMALIZED FREE ENERGY PREDICTED BY IDOCK:   -2.78 KCAL/MOL
REMARK 922        TOTAL FREE ENERGY PREDICTED BY IDOCK:   -4.27 KCAL/MOL
REMARK 923 INTER-LIGAND FREE ENERGY PREDICTED BY IDOCK:   -3.40 KCAL/MOL
REMARK 924 INTRA-LIGAND FREE ENERGY PREDICTED BY IDOCK:   -0.87 KCAL/MOL
REMARK 927      BINDING AFFINITY PREDICTED BY RF-SCORE:    0.00 PKD
ROOT
HETATM    1  C   UNL     1      -6.639   7.710  70.449  1.00  0.00    -0.038 C  
HETATM    2  C   UNL     1      -7.917   7.161  71.133  1.00  0.00    -0.102 C  
HETATM    3  C   UNL     1      -8.213   8.153  72.272  1.00  0.00    -0.205 C  
ENDROOT
BRANCH   2   4
HETATM    4  N   UNL     1      -9.048   6.962  70.174  1.00  0.00    -0.152 NA 
BRANCH   4   5
HETATM    5  C   UNL     1      -8.585   6.671  68.791  1.00  0.00    -0.122 C  
BRANCH   5   6
HETATM    6  C   UNL     1      -9.504   7.074  67.621  1.00  0.00    -0.134 C  
HETATM    7  C   UNL     1      -8.961   8.168  66.646  1.00  0.00    -0.181 C  
HETATM    8  C   UNL     1      -7.667   7.810  65.890  1.00  0.00    -0.094 A  
HETATM    9  C   UNL     1      -8.962   9.598  67.213  1.00  0.00    -0.146 A  
HETATM   10  C   UNL     1      -9.857  10.608  66.824  1.00  0.00    -0.198 A  
HETATM   11  C   UNL     1      -6.415   7.689  66.519  1.00  0.00    -0.049 A  
HETATM   12  O   UNL     1     -10.905  10.432  65.966  1.00  0.00    -0.049 OA 
HETATM   13  C   UNL     1      -5.239   7.492  65.795  1.00  0.00    -0.025 A  
HETATM   14  C   UNL     1      -9.720  11.922  67.294  1.00  0.00    -0.191 A  
HETATM   15  C   UNL     1      -8.678  12.272  68.148  1.00  0.00    -0.186 A  
HETATM   16  C   UNL     1      -5.287   7.367  64.417  1.00  0.00    -0.029 A  
HETATM   17  H   UNL     1     -11.510  11.115  65.703  1.00  0.00     0.000 HD 
HETATM   18  C   UNL     1      -7.783  11.299  68.567  1.00  0.00    -0.131 A  
HETATM   19  C   UNL     1      -6.518   7.440  63.764  1.00  0.00    -0.052 A  
HETATM   20  C   UNL     1      -7.694   7.662  64.494  1.00  0.00    -0.126 A  
HETATM   21  C   UNL     1      -6.593  11.608  69.426  1.00  0.00    -0.115 C  
HETATM   22  C   UNL     1      -7.964   9.979  68.128  1.00  0.00    -0.100 A  
ENDBRANCH   5   6
ENDBRANCH   4   5
BRANCH   4  23
HETATM   23  C   UNL     1     -10.167   6.067  70.600  1.00  0.00    -0.205 C  
HETATM   24  C   UNL     1     -11.568   6.516  70.148  1.00  0.00    -0.466 C  
HETATM   25  C   UNL     1     -10.022   4.627  70.048  1.00  0.00    -0.302 C  
ENDBRANCH   4  23
ENDBRANCH   2   4
TORSDOF 4
ENDMDL
MODEL      200
REMARK 921   NORMALIZED FREE ENERGY PREDICTED BY IDOCK:   -2.77 KCAL/MOL
REMARK 922        TOTAL FREE ENERGY PREDICTED BY IDOCK:   -4.25 KCAL/MOL
REMARK 923 INTER-LIGAND FREE ENERGY PREDICTED BY IDOCK:   -3.46 KCAL/MOL
REMARK 924 INTRA-LIGAND FREE ENERGY PREDICTED BY IDOCK:   -0.80 KCAL/MOL
REMARK 927      BINDING AFFINITY PREDICTED BY RF-SCORE:    0.00 PKD
ROOT
HETATM    1  C   UNL     1     -10.711  10.411  68.532  1.00  0.00    -0.255 C  
HETATM    2  C   UNL     1     -10.092  11.191  67.344  1.00  0.00    -0.185 C  
HETATM    3  C   UNL     1      -9.028  12.103  67.982  1.00  0.00    -0.189 C  
ENDROOT
BRANCH   2   4
HETATM    4  N   UNL     1      -9.574  10.292  66.267  1.00  0.00    -0.180 NA 
BRANCH   4   5
HETATM    5  C   UNL     1      -9.361   8.896  66.736  1.00  0.00    -0.175 C  
BRANCH   5   6
HETATM    6  C   UNL     1      -8.018   8.218  66.399  1.00  0.00    -0.096 C  
HETATM    7  C   UNL     1      -7.906   6.691  66.710  1.00  0.00    -0.107 C  
HETATM    8  C   UNL     1      -8.891   5.778  65.954  1.00  0.00    -0.153 A  
HETATM    9  C   UNL     1      -7.772   6.343  68.203  1.00  0.00    -0.104 A  
HETATM   10  C   UNL     1      -6.588   5.901  68.814  1.00  0.00    -0.055 A  
HETATM   11  C   UNL     1     -10.276   5.769  66.198  1.00  0.00    -0.044 A  
HETATM   12  O   UNL     1      -5.375   5.814  68.191  1.00  0.00    -0.004 OA 
HETATM   13  C   UNL     1     -11.128   4.845  65.595  1.00  0.00     0.138 A  
HETATM   14  C   UNL     1      -6.571   5.485  70.152  1.00  0.00    -0.042 A  
HETATM   15  C   UNL     1      -7.735   5.479  70.915  1.00  0.00    -0.092 A  
HETATM   16  C   UNL     1     -10.624   3.924  64.692  1.00  0.00    -0.171 A  
HETATM   17  H   UNL     1      -4.574   5.515  68.604  1.00  0.00     0.000 HD 
HETATM   18  C   UNL     1      -8.922   5.923  70.351  1.00  0.00    -0.154 A  
HETATM   19  C   UNL     1      -9.260   3.932  64.394  1.00  0.00    -0.147 A  
HETATM   20  C   UNL     1      -8.404   4.849  65.022  1.00  0.00    -0.136 A  
HETATM   21  C   UNL     1     -10.232   5.878  71.080  1.00  0.00    -0.266 C  
HETATM   22  C   UNL     1      -8.912   6.383  69.026  1.00  0.00    -0.128 A  
ENDBRANCH   5   6
ENDBRANCH   4   5
BRANCH   4  23
HETATM   23  C   UNL     1     -10.249  10.348  64.934  1.00  0.00    -0.260 C  
HETATM   24  C   UNL     1     -11.063  11.627  64.669  1.00  0.00    -0.342 C  
HETATM   25  C   UNL     1      -9.247  10.272  63.755  1.00  0.00    -0.312 C  
ENDBRANCH   4  23
ENDBRANCH   2   4
TORSDOF 4
ENDMDL
MODEL      201
REMARK 921   NORMALIZED FREE ENERGY PREDICTED BY IDOCK:   -2.76 KCAL/MOL
REMARK 922        TOTAL FREE ENERGY PREDICTED BY IDOCK:   -4.25 KCAL/MOL
REMARK 923 INTER-LIGAND FREE ENERGY PREDICTED BY IDOCK:   -5.90 KCAL/MOL
REMARK 924 INTRA-LIGAND FREE ENERGY PREDICTED BY IDOCK:    1.65 KCAL/MOL
REMARK 927      BINDING AFFINITY PREDICTED BY RF-SCORE:    0.00 PKD
ROOT
HETATM    1  C   UNL     1     -13.358  12.717  72.188  1.00  0.00    -0.593 C  
HETATM    2  C   UNL     1     -12.294  13.229  71.184  1.00  0.00    -0.232 C  
HETATM    3  C   UNL     1     -12.902  12.965  69.794  1.00  0.00     0.647 C  
ENDROOT
BRANCH   2   4
HETATM    4  N   UNL     1     -11.901  14.651  71.430  1.00  0.00    -0.331 NA 
BRANCH   4   5
HETATM    5  C   UNL     1     -10.910  15.153  70.441  1.00  0.00    -0.218 C  
BRANCH   5   6
HETATM    6  C   UNL     1     -11.120  14.790  68.958  1.00  0.00    -0.268 C  
HETATM    7  C   UNL     1      -9.985  15.203  67.967  1.00  0.00    -0.221 C  
HETATM    8  C   UNL     1      -8.602  14.574  68.228  1.00  0.00    -0.171 A  
HETATM    9  C   UNL     1      -9.921  16.707  67.647  1.00  0.00    -0.264 A  
HETATM   10  C   UNL     1     -10.315  17.279  66.427  1.00  0.00    -0.316 A  
HETATM   11  C   UNL     1      -7.807  14.897  69.342  1.00  0.00    -0.139 A  
HETATM   12  O   UNL     1     -10.899  16.595  65.399  1.00  0.00    -0.384 OA 
HETATM   13  C   UNL     1      -6.507  14.413  69.488  1.00  0.00    -0.133 A  
HETATM   14  C   UNL     1     -10.114  18.641  66.163  1.00  0.00    -0.399 A  
HETATM   15  C   UNL     1      -9.497  19.468  67.098  1.00  0.00    -0.422 A  
HETATM   16  C   UNL     1      -5.978  13.551  68.542  1.00  0.00    -0.090 A  
HETATM   17  H   UNL     1     -11.166  16.982  64.574  1.00  0.00     0.000 HD 
HETATM   18  C   UNL     1      -9.107  18.943  68.321  1.00  0.00    -0.363 A  
HETATM   19  C   UNL     1      -6.756  13.175  67.446  1.00  0.00    -0.107 A  
HETATM   20  C   UNL     1      -8.054  13.684  67.291  1.00  0.00    -0.152 A  
HETATM   21  C   UNL     1      -8.371  19.747  69.351  1.00  0.00     0.217 C  
HETATM   22  C   UNL     1      -9.361  17.590  68.589  1.00  0.00    -0.277 A  
ENDBRANCH   5   6
ENDBRANCH   4   5
BRANCH   4  23
HETATM   23  C   UNL     1     -12.995  15.636  71.690  1.00  0.00    -0.476 C  
HETATM   24  C   UNL     1     -14.395  15.191  71.230  1.00  0.00    -0.512 C  
HETATM   25  C   UNL     1     -13.163  15.957  73.196  1.00  0.00    -0.692 C  
ENDBRANCH   4  23
ENDBRANCH   2   4
TORSDOF 4
ENDMDL
MODEL      202
REMARK 921   NORMALIZED FREE ENERGY PREDICTED BY IDOCK:   -2.74 KCAL/MOL
REMARK 922        TOTAL FREE ENERGY PREDICTED BY IDOCK:   -4.22 KCAL/MOL
REMARK 923 INTER-LIGAND FREE ENERGY PREDICTED BY IDOCK:   -3.65 KCAL/MOL
REMARK 924 INTRA-LIGAND FREE ENERGY PREDICTED BY IDOCK:   -0.57 KCAL/MOL
REMARK 927      BINDING AFFINITY PREDICTED BY RF-SCORE:    0.00 PKD
ROOT
HETATM    1  C   UNL     1     -11.402   8.010  72.781  1.00  0.00    -0.439 C  
HETATM    2  C   UNL     1     -11.391   6.732  71.904  1.00  0.00    -0.271 C  
HETATM    3  C   UNL     1     -12.454   6.989  70.820  1.00  0.00    -0.253 C  
ENDROOT
BRANCH   2   4
HETATM    4  N   UNL     1     -10.032   6.403  71.375  1.00  0.00    -0.184 NA 
BRANCH   4   5
HETATM    5  C   UNL     1      -9.886   6.716  69.929  1.00  0.00    -0.167 C  
BRANCH   5   6
HETATM    6  C   UNL     1     -10.548   5.765  68.913  1.00  0.00    -0.337 C  
HETATM    7  C   UNL     1      -9.593   4.832  68.100  1.00  0.00    -0.200 C  
HETATM    8  C   UNL     1      -8.758   3.838  68.929  1.00  0.00    -0.132 A  
HETATM    9  C   UNL     1      -8.785   5.538  66.996  1.00  0.00    -0.108 A  
HETATM   10  C   UNL     1      -9.036   5.410  65.621  1.00  0.00    -0.156 A  
HETATM   11  C   UNL     1      -7.714   4.234  69.784  1.00  0.00    -0.053 A  
HETATM   12  O   UNL     1     -10.087   4.725  65.081  1.00  0.00    -0.371 OA 
HETATM   13  C   UNL     1      -6.889   3.309  70.424  1.00  0.00    -0.033 A  
HETATM   14  C   UNL     1      -8.182   5.985  64.669  1.00  0.00    -0.108 A  
HETATM   15  C   UNL     1      -7.044   6.686  65.059  1.00  0.00    -0.064 A  
HETATM   16  C   UNL     1      -7.114   1.952  70.261  1.00  0.00    -0.033 A  
HETATM   17  H   UNL     1     -10.256   4.639  64.151  1.00  0.00     0.000 HD 
HETATM   18  C   UNL     1      -6.771   6.847  66.409  1.00  0.00    -0.052 A  
HETATM   19  C   UNL     1      -8.170   1.523  69.454  1.00  0.00    -0.063 A  
HETATM   20  C   UNL     1      -8.980   2.458  68.794  1.00  0.00    -0.175 A  
HETATM   21  C   UNL     1      -5.530   7.523  66.910  1.00  0.00    -0.027 C  
HETATM   22  C   UNL     1      -7.662   6.309  67.349  1.00  0.00    -0.097 A  
ENDBRANCH   5   6
ENDBRANCH   4   5
BRANCH   4  23
HETATM   23  C   UNL     1      -8.851   6.849  72.176  1.00  0.00    -0.131 C  
HETATM   24  C   UNL     1      -8.125   5.730  72.944  1.00  0.00    -0.115 C  
HETATM   25  C   UNL     1      -7.749   7.500  71.303  1.00  0.00    -0.085 C  
ENDBRANCH   4  23
ENDBRANCH   2   4
TORSDOF 4
ENDMDL
MODEL      203
REMARK 921   NORMALIZED FREE ENERGY PREDICTED BY IDOCK:   -2.65 KCAL/MOL
REMARK 922        TOTAL FREE ENERGY PREDICTED BY IDOCK:   -4.11 KCAL/MOL
REMARK 923 INTER-LIGAND FREE ENERGY PREDICTED BY IDOCK:   -4.11 KCAL/MOL
REMARK 924 INTRA-LIGAND FREE ENERGY PREDICTED BY IDOCK:   -0.01 KCAL/MOL
REMARK 927      BINDING AFFINITY PREDICTED BY RF-SCORE:    0.00 PKD
ROOT
HETATM    1  C   UNL     1     -10.660   5.551  67.082  1.00  0.00    -0.313 C  
HETATM    2  C   UNL     1      -9.210   5.272  66.609  1.00  0.00    -0.130 C  
HETATM    3  C   UNL     1      -9.330   5.022  65.095  1.00  0.00    -0.062 C  
ENDROOT
BRANCH   2   4
HETATM    4  N   UNL     1      -8.258   6.362  66.985  1.00  0.00    -0.112 NA 
BRANCH   4   5
HETATM    5  C   UNL     1      -8.949   7.611  67.405  1.00  0.00    -0.126 C  
BRANCH   5   6
HETATM    6  C   UNL     1     -10.085   8.144  66.510  1.00  0.00    -0.286 C  
HETATM    7  C   UNL     1      -9.804   9.471  65.735  1.00  0.00    -0.363 C  
HETATM    8  C   UNL     1      -8.636   9.429  64.730  1.00  0.00    -0.202 A  
HETATM    9  C   UNL     1      -9.816  10.742  66.604  1.00  0.00    -0.241 A  
HETATM   10  C   UNL     1     -10.839  11.703  66.593  1.00  0.00    -0.283 A  
HETATM   11  C   UNL     1      -7.289   9.319  65.118  1.00  0.00    -0.098 A  
HETATM   12  O   UNL     1     -12.003  11.594  65.886  1.00  0.00    -0.312 OA 
HETATM   13  C   UNL     1      -6.244   9.413  64.199  1.00  0.00    -0.092 A  
HETATM   14  C   UNL     1     -10.724  12.896  67.320  1.00  0.00    -0.260 A  
HETATM   15  C   UNL     1      -9.581  13.175  68.063  1.00  0.00    -0.220 A  
HETATM   16  C   UNL     1      -6.519   9.576  62.852  1.00  0.00    -0.101 A  
HETATM   17  H   UNL     1     -12.695  12.245  65.879  1.00  0.00     0.000 HD 
HETATM   18  C   UNL     1      -8.555  12.242  68.111  1.00  0.00    -0.181 A  
HETATM   19  C   UNL     1      -7.847   9.644  62.426  1.00  0.00    -0.126 A  
HETATM   20  C   UNL     1      -8.893   9.575  63.358  1.00  0.00    -0.236 A  
HETATM   21  C   UNL     1      -7.261  12.496  68.826  1.00  0.00    -0.089 C  
HETATM   22  C   UNL     1      -8.707  11.032  67.418  1.00  0.00    -0.132 A  
ENDBRANCH   5   6
ENDBRANCH   4   5
BRANCH   4  23
HETATM   23  C   UNL     1      -7.122   6.008  67.891  1.00  0.00    -0.074 C  
HETATM   24  C   UNL     1      -6.149   4.954  67.333  1.00  0.00    -0.031 C  
HETATM   25  C   UNL     1      -6.227   7.227  68.228  1.00  0.00    -0.036 C  
ENDBRANCH   4  23
ENDBRANCH   2   4
TORSDOF 4
ENDMDL
MODEL      204
REMARK 921   NORMALIZED FREE ENERGY PREDICTED BY IDOCK:   -2.58 KCAL/MOL
REMARK 922        TOTAL FREE ENERGY PREDICTED BY IDOCK:   -4.03 KCAL/MOL
REMARK 923 INTER-LIGAND FREE ENERGY PREDICTED BY IDOCK:   -3.08 KCAL/MOL
REMARK 924 INTRA-LIGAND FREE ENERGY PREDICTED BY IDOCK:   -0.94 KCAL/MOL
REMARK 927      BINDING AFFINITY PREDICTED BY RF-SCORE:    0.00 PKD
ROOT
HETATM    1  C   UNL     1      -9.385   8.362  66.076  1.00  0.00    -0.244 C  
HETATM    2  C   UNL     1      -8.048   8.908  66.638  1.00  0.00    -0.107 C  
HETATM    3  C   UNL     1      -8.423   9.568  67.977  1.00  0.00    -0.119 C  
ENDROOT
BRANCH   2   4
HETATM    4  N   UNL     1      -6.990   7.856  66.740  1.00  0.00    -0.071 NA 
BRANCH   4   5
HETATM    5  C   UNL     1      -7.339   6.614  65.999  1.00  0.00    -0.076 C  
BRANCH   5   6
HETATM    6  C   UNL     1      -6.692   5.293  66.458  1.00  0.00    -0.057 C  
HETATM    7  C   UNL     1      -7.664   4.139  66.863  1.00  0.00    -0.092 C  
HETATM    8  C   UNL     1      -8.606   3.633  65.754  1.00  0.00    -0.114 A  
HETATM    9  C   UNL     1      -8.365   4.331  68.220  1.00  0.00    -0.098 A  
HETATM   10  C   UNL     1      -8.054   3.614  69.385  1.00  0.00    -0.053 A  
HETATM   11  C   UNL     1      -9.664   4.399  65.232  1.00  0.00    -0.199 A  
HETATM   12  O   UNL     1      -7.025   2.722  69.500  1.00  0.00    -0.036 OA 
HETATM   13  C   UNL     1     -10.581   3.873  64.322  1.00  0.00    -0.239 A  
HETATM   14  C   UNL     1      -8.817   3.755  70.553  1.00  0.00    -0.140 A  
HETATM   15  C   UNL     1      -9.923   4.600  70.587  1.00  0.00    -0.293 A  
HETATM   16  C   UNL     1     -10.440   2.571  63.872  1.00  0.00    -0.052 A  
HETATM   17  H   UNL     1      -6.814   2.237  70.289  1.00  0.00     0.000 HD 
HETATM   18  C   UNL     1     -10.253   5.337  69.460  1.00  0.00    -0.338 A  
HETATM   19  C   UNL     1      -9.376   1.795  64.336  1.00  0.00    -0.132 A  
HETATM   20  C   UNL     1      -8.471   2.322  65.270  1.00  0.00    -0.101 A  
HETATM   21  C   UNL     1     -11.470   6.211  69.391  1.00  0.00    -0.256 C  
HETATM   22  C   UNL     1      -9.450   5.222  68.316  1.00  0.00    -0.155 A  
ENDBRANCH   5   6
ENDBRANCH   4   5
BRANCH   4  23
HETATM   23  C   UNL     1      -5.572   8.275  66.513  1.00  0.00    -0.035 C  
HETATM   24  C   UNL     1      -5.268   8.803  65.100  1.00  0.00    -0.038 C  
HETATM   25  C   UNL     1      -5.131   9.419  67.461  1.00  0.00    -0.037 C  
ENDBRANCH   4  23
ENDBRANCH   2   4
TORSDOF 4
ENDMDL
MODEL      205
REMARK 921   NORMALIZED FREE ENERGY PREDICTED BY IDOCK:   -2.54 KCAL/MOL
REMARK 922        TOTAL FREE ENERGY PREDICTED BY IDOCK:   -3.98 KCAL/MOL
REMARK 923 INTER-LIGAND FREE ENERGY PREDICTED BY IDOCK:   -3.51 KCAL/MOL
REMARK 924 INTRA-LIGAND FREE ENERGY PREDICTED BY IDOCK:   -0.47 KCAL/MOL
REMARK 927      BINDING AFFINITY PREDICTED BY RF-SCORE:    0.00 PKD
ROOT
HETATM    1  C   UNL     1      -7.682   7.751  68.613  1.00  0.00    -0.118 C  
HETATM    2  C   UNL     1      -7.185   9.179  68.957  1.00  0.00    -0.072 C  
HETATM    3  C   UNL     1      -8.345  10.108  68.553  1.00  0.00    -0.116 C  
ENDROOT
BRANCH   2   4
HETATM    4  N   UNL     1      -6.748   9.314  70.381  1.00  0.00    -0.063 NA 
BRANCH   4   5
HETATM    5  C   UNL     1      -6.817   8.030  71.128  1.00  0.00    -0.046 C  
BRANCH   5   6
HETATM    6  C   UNL     1      -7.627   7.999  72.439  1.00  0.00    -0.139 C  
HETATM    7  C   UNL     1      -8.610   6.799  72.629  1.00  0.00    -0.128 C  
HETATM    8  C   UNL     1      -7.966   5.399  72.650  1.00  0.00    -0.103 A  
HETATM    9  C   UNL     1      -9.888   6.870  71.775  1.00  0.00    -0.170 A  
HETATM   10  C   UNL     1     -11.166   7.164  72.278  1.00  0.00    -0.261 A  
HETATM   11  C   UNL     1      -7.385   4.800  71.518  1.00  0.00    -0.069 A  
HETATM   12  O   UNL     1     -11.431   7.523  73.569  1.00  0.00    -0.608 OA 
HETATM   13  C   UNL     1      -6.925   3.484  71.531  1.00  0.00    -0.031 A  
HETATM   14  C   UNL     1     -12.304   7.091  71.463  1.00  0.00    -0.420 A  
HETATM   15  C   UNL     1     -12.205   6.703  70.129  1.00  0.00     0.043 A  
HETATM   16  C   UNL     1      -6.993   2.738  72.696  1.00  0.00    -0.031 A  
HETATM   17  H   UNL     1     -12.295   7.723  73.909  1.00  0.00     0.000 HD 
HETATM   18  C   UNL     1     -10.958   6.419  69.592  1.00  0.00    -0.420 A  
HETATM   19  C   UNL     1      -7.524   3.315  73.850  1.00  0.00    -0.060 A  
HETATM   20  C   UNL     1      -8.007   4.632  73.825  1.00  0.00    -0.105 A  
HETATM   21  C   UNL     1     -10.774   5.924  68.188  1.00  0.00    -0.329 C  
HETATM   22  C   UNL     1      -9.825   6.546  70.407  1.00  0.00    -0.193 A  
ENDBRANCH   5   6
ENDBRANCH   4   5
BRANCH   4  23
HETATM   23  C   UNL     1      -5.481  10.062  70.648  1.00  0.00    -0.060 C  
HETATM   24  C   UNL     1      -5.389  11.446  69.983  1.00  0.00    -0.075 C  
HETATM   25  C   UNL     1      -5.260  10.338  72.157  1.00  0.00     0.061 C  
ENDBRANCH   4  23
ENDBRANCH   2   4
TORSDOF 4
ENDMDL
MODEL      206
REMARK 921   NORMALIZED FREE ENERGY PREDICTED BY IDOCK:   -2.43 KCAL/MOL
REMARK 922        TOTAL FREE ENERGY PREDICTED BY IDOCK:   -3.84 KCAL/MOL
REMARK 923 INTER-LIGAND FREE ENERGY PREDICTED BY IDOCK:   -2.85 KCAL/MOL
REMARK 924 INTRA-LIGAND FREE ENERGY PREDICTED BY IDOCK:   -0.99 KCAL/MOL
REMARK 927      BINDING AFFINITY PREDICTED BY RF-SCORE:    0.00 PKD
ROOT
HETATM    1  C   UNL     1     -11.396   6.133  69.550  1.00  0.00    -0.426 C  
HETATM    2  C   UNL     1     -10.576   6.544  70.800  1.00  0.00    -0.231 C  
HETATM    3  C   UNL     1     -10.261   5.219  71.519  1.00  0.00    -0.276 C  
ENDROOT
BRANCH   2   4
HETATM    4  N   UNL     1      -9.374   7.366  70.461  1.00  0.00    -0.158 NA 
BRANCH   4   5
HETATM    5  C   UNL     1      -8.855   7.090  69.094  1.00  0.00    -0.135 C  
BRANCH   5   6
HETATM    6  C   UNL     1      -7.564   6.258  68.966  1.00  0.00    -0.096 C  
HETATM    7  C   UNL     1      -7.107   5.890  67.518  1.00  0.00    -0.074 C  
HETATM    8  C   UNL     1      -6.780   7.080  66.594  1.00  0.00    -0.053 A  
HETATM    9  C   UNL     1      -7.947   4.798  66.832  1.00  0.00    -0.103 A  
HETATM   10  C   UNL     1      -7.514   3.480  66.614  1.00  0.00    -0.076 A  
HETATM   11  C   UNL     1      -7.755   7.968  66.107  1.00  0.00    -0.087 A  
HETATM   12  O   UNL     1      -6.333   2.964  67.066  1.00  0.00    -0.033 OA 
HETATM   13  C   UNL     1      -7.454   8.958  65.171  1.00  0.00    -0.097 A  
HETATM   14  C   UNL     1      -8.285   2.573  65.874  1.00  0.00    -0.088 A  
HETATM   15  C   UNL     1      -9.500   2.957  65.314  1.00  0.00    -0.061 A  
HETATM   16  C   UNL     1      -6.153   9.116  64.725  1.00  0.00    -0.066 A  
HETATM   17  H   UNL     1      -6.040   2.073  66.919  1.00  0.00     0.000 HD 
HETATM   18  C   UNL     1      -9.969   4.246  65.520  1.00  0.00    -0.233 A  
HETATM   19  C   UNL     1      -5.151   8.279  65.220  1.00  0.00    -0.031 A  
HETATM   20  C   UNL     1      -5.465   7.270  66.143  1.00  0.00    -0.027 A  
HETATM   21  C   UNL     1     -11.229   4.760  64.890  1.00  0.00     0.471 C  
HETATM   22  C   UNL     1      -9.210   5.126  66.305  1.00  0.00    -0.147 A  
ENDBRANCH   5   6
ENDBRANCH   4   5
BRANCH   4  23
HETATM   23  C   UNL     1      -9.428   8.829  70.765  1.00  0.00    -0.206 C  
HETATM   24  C   UNL     1      -8.829   9.743  69.680  1.00  0.00    -0.224 C  
HETATM   25  C   UNL     1     -10.876   9.346  70.953  1.00  0.00    -0.392 C  
ENDBRANCH   4  23
ENDBRANCH   2   4
TORSDOF 4
ENDMDL
MODEL      207
REMARK 921   NORMALIZED FREE ENERGY PREDICTED BY IDOCK:   -2.32 KCAL/MOL
REMARK 922        TOTAL FREE ENERGY PREDICTED BY IDOCK:   -3.71 KCAL/MOL
REMARK 923 INTER-LIGAND FREE ENERGY PREDICTED BY IDOCK:   -2.99 KCAL/MOL
REMARK 924 INTRA-LIGAND FREE ENERGY PREDICTED BY IDOCK:   -0.71 KCAL/MOL
REMARK 927      BINDING AFFINITY PREDICTED BY RF-SCORE:    0.00 PKD
ROOT
HETATM    1  C   UNL     1      -9.735   2.686  66.367  1.00  0.00     0.390 C  
HETATM    2  C   UNL     1      -9.179   3.219  67.712  1.00  0.00    -0.195 C  
HETATM    3  C   UNL     1      -9.003   1.966  68.591  1.00  0.00    -0.162 C  
ENDROOT
BRANCH   2   4
HETATM    4  N   UNL     1      -7.939   4.038  67.544  1.00  0.00    -0.090 NA 
BRANCH   4   5
HETATM    5  C   UNL     1      -8.036   5.371  68.195  1.00  0.00    -0.095 C  
BRANCH   5   6
HETATM    6  C   UNL     1      -9.406   6.077  68.195  1.00  0.00    -0.115 C  
HETATM    7  C   UNL     1      -9.650   7.136  69.318  1.00  0.00    -0.155 C  
HETATM    8  C   UNL     1      -8.698   8.348  69.317  1.00  0.00    -0.138 A  
HETATM    9  C   UNL     1      -9.890   6.549  70.720  1.00  0.00    -0.201 A  
HETATM   10  C   UNL     1     -11.136   6.518  71.367  1.00  0.00    -0.268 A  
HETATM   11  C   UNL     1      -7.332   8.255  69.642  1.00  0.00    -0.073 A  
HETATM   12  O   UNL     1     -12.316   6.913  70.805  1.00  0.00    -0.497 OA 
HETATM   13  C   UNL     1      -6.521   9.383  69.759  1.00  0.00    -0.041 A  
HETATM   14  C   UNL     1     -11.256   6.079  72.693  1.00  0.00    -0.326 A  
HETATM   15  C   UNL     1     -10.138   5.676  73.418  1.00  0.00    -0.202 A  
HETATM   16  C   UNL     1      -7.044  10.641  69.512  1.00  0.00    -0.127 A  
HETATM   17  H   UNL     1     -13.158   6.892  71.243  1.00  0.00     0.000 HD 
HETATM   18  C   UNL     1      -8.892   5.678  72.808  1.00  0.00    -0.122 A  
HETATM   19  C   UNL     1      -8.385  10.767  69.146  1.00  0.00    -0.111 A  
HETATM   20  C   UNL     1      -9.203   9.630  69.052  1.00  0.00    -0.156 A  
HETATM   21  C   UNL     1      -7.631   5.331  73.541  1.00  0.00    -0.096 C  
HETATM   22  C   UNL     1      -8.797   6.072  71.466  1.00  0.00    -0.139 A  
ENDBRANCH   5   6
ENDBRANCH   4   5
BRANCH   4  23
HETATM   23  C   UNL     1      -6.627   3.370  67.806  1.00  0.00    -0.038 C  
HETATM   24  C   UNL     1      -6.144   2.422  66.694  1.00  0.00    -0.024 C  
HETATM   25  C   UNL     1      -5.468   4.382  67.986  1.00  0.00    -0.016 C  
ENDBRANCH   4  23
ENDBRANCH   2   4
TORSDOF 4
ENDMDL
MODEL      208
REMARK 921   NORMALIZED FREE ENERGY PREDICTED BY IDOCK:   -2.31 KCAL/MOL
REMARK 922        TOTAL FREE ENERGY PREDICTED BY IDOCK:   -3.69 KCAL/MOL
REMARK 923 INTER-LIGAND FREE ENERGY PREDICTED BY IDOCK:   -3.10 KCAL/MOL
REMARK 924 INTRA-LIGAND FREE ENERGY PREDICTED BY IDOCK:   -0.59 KCAL/MOL
REMARK 927      BINDING AFFINITY PREDICTED BY RF-SCORE:    0.00 PKD
ROOT
HETATM    1  C   UNL     1     -13.490   8.592  71.036  1.00  0.00     0.072 C  
HETATM    2  C   UNL     1     -11.989   8.369  70.722  1.00  0.00    -0.110 C  
HETATM    3  C   UNL     1     -11.247   9.403  71.588  1.00  0.00    -0.431 C  
ENDROOT
BRANCH   2   4
HETATM    4  N   UNL     1     -11.556   6.954  70.937  1.00  0.00    -0.318 NA 
BRANCH   4   5
HETATM    5  C   UNL     1     -10.682   6.447  69.846  1.00  0.00    -0.274 C  
BRANCH   5   6
HETATM    6  C   UNL     1      -9.645   7.415  69.242  1.00  0.00    -0.154 C  
HETATM    7  C   UNL     1      -8.476   6.773  68.428  1.00  0.00    -0.122 C  
HETATM    8  C   UNL     1      -8.888   5.970  67.179  1.00  0.00    -0.108 A  
HETATM    9  C   UNL     1      -7.405   6.069  69.280  1.00  0.00    -0.083 A  
HETATM   10  C   UNL     1      -6.115   6.571  69.511  1.00  0.00    -0.022 A  
HETATM   11  C   UNL     1      -9.575   4.745  67.242  1.00  0.00    -0.185 A  
HETATM   12  O   UNL     1      -5.669   7.793  69.096  1.00  0.00    -0.028 OA 
HETATM   13  C   UNL     1      -9.823   3.975  66.105  1.00  0.00    -0.176 A  
HETATM   14  C   UNL     1      -5.152   5.817  70.196  1.00  0.00    -0.005 A  
HETATM   15  C   UNL     1      -5.440   4.534  70.654  1.00  0.00    -0.008 A  
HETATM   16  C   UNL     1      -9.427   4.433  64.860  1.00  0.00    -0.164 A  
HETATM   17  H   UNL     1      -4.796   8.133  69.252  1.00  0.00     0.000 HD 
HETATM   18  C   UNL     1      -6.709   4.009  70.458  1.00  0.00    -0.033 A  
HETATM   19  C   UNL     1      -8.781   5.666  64.755  1.00  0.00    -0.005 A  
HETATM   20  C   UNL     1      -8.513   6.424  65.904  1.00  0.00    -0.147 A  
HETATM   21  C   UNL     1      -7.076   2.610  70.853  1.00  0.00    -0.033 C  
HETATM   22  C   UNL     1      -7.675   4.796  69.815  1.00  0.00    -0.059 A  
ENDBRANCH   5   6
ENDBRANCH   4   5
BRANCH   4  23
HETATM   23  C   UNL     1     -11.046   6.584  72.293  1.00  0.00    -0.263 C  
HETATM   24  C   UNL     1     -11.651   5.299  72.888  1.00  0.00    -0.292 C  
HETATM   25  C   UNL     1      -9.517   6.339  72.309  1.00  0.00    -0.152 C  
ENDBRANCH   4  23
ENDBRANCH   2   4
TORSDOF 4
ENDMDL
MODEL      209
REMARK 921   NORMALIZED FREE ENERGY PREDICTED BY IDOCK:   -2.30 KCAL/MOL
REMARK 922        TOTAL FREE ENERGY PREDICTED BY IDOCK:   -3.68 KCAL/MOL
REMARK 923 INTER-LIGAND FREE ENERGY PREDICTED BY IDOCK:   -5.52 KCAL/MOL
REMARK 924 INTRA-LIGAND FREE ENERGY PREDICTED BY IDOCK:    1.84 KCAL/MOL
REMARK 927      BINDING AFFINITY PREDICTED BY RF-SCORE:    0.00 PKD
ROOT
HETATM    1  C   UNL     1      -6.175  12.591  69.839  1.00  0.00    -0.094 C  
HETATM    2  C   UNL     1      -5.433  13.446  68.781  1.00  0.00    -0.074 C  
HETATM    3  C   UNL     1      -5.167  12.483  67.610  1.00  0.00    -0.107 C  
ENDROOT
BRANCH   2   4
HETATM    4  N   UNL     1      -6.183  14.685  68.408  1.00  0.00    -0.094 NA 
BRANCH   4   5
HETATM    5  C   UNL     1      -7.597  14.662  68.869  1.00  0.00    -0.139 C  
BRANCH   5   6
HETATM    6  C   UNL     1      -8.066  15.784  69.816  1.00  0.00     0.136 C  
HETATM    7  C   UNL     1      -9.563  16.216  69.705  1.00  0.00    -0.060 C  
HETATM    8  C   UNL     1     -10.604  15.122  70.011  1.00  0.00    -0.237 A  
HETATM    9  C   UNL     1      -9.904  17.051  68.458  1.00  0.00    -0.290 A  
HETATM   10  C   UNL     1     -10.174  18.429  68.471  1.00  0.00    -0.364 A  
HETATM   11  C   UNL     1     -10.819  14.008  69.180  1.00  0.00    -0.235 A  
HETATM   12  O   UNL     1     -10.074  19.231  69.572  1.00  0.00    -0.484 OA 
HETATM   13  C   UNL     1     -11.852  13.101  69.410  1.00  0.00    -0.383 A  
HETATM   14  C   UNL     1     -10.597  19.099  67.315  1.00  0.00    -0.573 A  
HETATM   15  C   UNL     1     -10.783  18.414  66.118  1.00  0.00    -0.210 A  
HETATM   16  C   UNL     1     -12.679  13.257  70.510  1.00  0.00    -0.169 A  
HETATM   17  H   UNL     1     -10.256  20.163  69.581  1.00  0.00     0.000 HD 
HETATM   18  C   UNL     1     -10.512  17.055  66.061  1.00  0.00    -0.280 A  
HETATM   19  C   UNL     1     -12.467  14.327  71.381  1.00  0.00    -0.437 A  
HETATM   20  C   UNL     1     -11.441  15.250  71.131  1.00  0.00    -0.414 A  
HETATM   21  C   UNL     1     -10.757  16.230  64.832  1.00  0.00    -0.256 C  
HETATM   22  C   UNL     1     -10.041  16.409  67.213  1.00  0.00    -0.270 A  
ENDBRANCH   5   6
ENDBRANCH   4   5
BRANCH   4  23
HETATM   23  C   UNL     1      -5.521  16.000  68.666  1.00  0.00    -0.101 C  
HETATM   24  C   UNL     1      -5.154  16.804  67.406  1.00  0.00    -0.153 C  
HETATM   25  C   UNL     1      -6.407  16.961  69.498  1.00  0.00    -0.233 C  
ENDBRANCH   4  23
ENDBRANCH   2   4
TORSDOF 4
ENDMDL
MODEL      210
REMARK 921   NORMALIZED FREE ENERGY PREDICTED BY IDOCK:   -2.24 KCAL/MOL
REMARK 922        TOTAL FREE ENERGY PREDICTED BY IDOCK:   -3.60 KCAL/MOL
REMARK 923 INTER-LIGAND FREE ENERGY PREDICTED BY IDOCK:   -2.47 KCAL/MOL
REMARK 924 INTRA-LIGAND FREE ENERGY PREDICTED BY IDOCK:   -1.13 KCAL/MOL
REMARK 927      BINDING AFFINITY PREDICTED BY RF-SCORE:    0.00 PKD
ROOT
HETATM    1  C   UNL     1      -7.268  11.409  68.091  1.00  0.00    -0.082 C  
HETATM    2  C   UNL     1      -6.252  10.680  69.007  1.00  0.00    -0.045 C  
HETATM    3  C   UNL     1      -6.036  11.634  70.195  1.00  0.00    -0.161 C  
ENDROOT
BRANCH   2   4
HETATM    4  N   UNL     1      -6.698   9.305  69.388  1.00  0.00    -0.047 NA 
BRANCH   4   5
HETATM    5  C   UNL     1      -6.032   8.241  68.589  1.00  0.00    -0.044 C  
BRANCH   5   6
HETATM    6  C   UNL     1      -6.449   8.077  67.115  1.00  0.00    -0.057 C  
HETATM    7  C   UNL     1      -7.264   6.793  66.755  1.00  0.00    -0.076 C  
HETATM    8  C   UNL     1      -8.625   6.640  67.462  1.00  0.00    -0.120 A  
HETATM    9  C   UNL     1      -6.442   5.493  66.725  1.00  0.00    -0.047 A  
HETATM   10  C   UNL     1      -6.074   4.810  65.555  1.00  0.00    -0.030 A  
HETATM   11  C   UNL     1      -8.753   6.388  68.839  1.00  0.00    -0.126 A  
HETATM   12  O   UNL     1      -6.309   5.257  64.286  1.00  0.00    -0.025 OA 
HETATM   13  C   UNL     1      -9.989   6.126  69.431  1.00  0.00    -0.205 A  
HETATM   14  C   UNL     1      -5.430   3.566  65.609  1.00  0.00    -0.013 A  
HETATM   15  C   UNL     1      -5.151   2.958  66.830  1.00  0.00    -0.004 A  
HETATM   16  C   UNL     1     -11.143   6.152  68.667  1.00  0.00    -0.378 A  
HETATM   17  H   UNL     1      -6.060   4.795  63.494  1.00  0.00     0.000 HD 
HETATM   18  C   UNL     1      -5.485   3.608  68.008  1.00  0.00    -0.013 A  
HETATM   19  C   UNL     1     -11.057   6.442  67.304  1.00  0.00    -0.416 A  
HETATM   20  C   UNL     1      -9.809   6.680  66.709  1.00  0.00    -0.227 A  
HETATM   21  C   UNL     1      -5.287   2.989  69.360  1.00  0.00    -0.012 C  
HETATM   22  C   UNL     1      -6.084   4.874  67.937  1.00  0.00    -0.027 A  
ENDBRANCH   5   6
ENDBRANCH   4   5
BRANCH   4  23
HETATM   23  C   UNL     1      -6.751   8.973  70.845  1.00  0.00    -0.080 C  
HETATM   24  C   UNL     1      -8.164   8.746  71.411  1.00  0.00    -0.203 C  
HETATM   25  C   UNL     1      -5.980   7.674  71.189  1.00  0.00    -0.035 C  
ENDBRANCH   4  23
ENDBRANCH   2   4
TORSDOF 4
ENDMDL
MODEL      211
REMARK 921   NORMALIZED FREE ENERGY PREDICTED BY IDOCK:   -2.21 KCAL/MOL
REMARK 922        TOTAL FREE ENERGY PREDICTED BY IDOCK:   -3.57 KCAL/MOL
REMARK 923 INTER-LIGAND FREE ENERGY PREDICTED BY IDOCK:   -3.08 KCAL/MOL
REMARK 924 INTRA-LIGAND FREE ENERGY PREDICTED BY IDOCK:   -0.49 KCAL/MOL
REMARK 927      BINDING AFFINITY PREDICTED BY RF-SCORE:    0.00 PKD
ROOT
HETATM    1  C   UNL     1      -7.579  10.342  64.381  1.00  0.00    -0.094 C  
HETATM    2  C   UNL     1      -6.262   9.579  64.086  1.00  0.00    -0.097 C  
HETATM    3  C   UNL     1      -5.162  10.655  64.141  1.00  0.00    -0.145 C  
ENDROOT
BRANCH   2   4
HETATM    4  N   UNL     1      -6.044   8.421  65.006  1.00  0.00    -0.052 NA 
BRANCH   4   5
HETATM    5  C   UNL     1      -6.904   8.478  66.218  1.00  0.00    -0.073 C  
BRANCH   5   6
HETATM    6  C   UNL     1      -6.450   7.691  67.463  1.00  0.00    -0.058 C  
HETATM    7  C   UNL     1      -7.575   7.032  68.324  1.00  0.00    -0.111 C  
HETATM    8  C   UNL     1      -8.437   5.973  67.608  1.00  0.00    -0.107 A  
HETATM    9  C   UNL     1      -8.398   8.015  69.176  1.00  0.00    -0.132 A  
HETATM   10  C   UNL     1      -8.292   8.141  70.570  1.00  0.00    -0.123 A  
HETATM   11  C   UNL     1      -9.346   6.286  66.582  1.00  0.00    -0.167 A  
HETATM   12  O   UNL     1      -7.380   7.483  71.345  1.00  0.00    -0.075 OA 
HETATM   13  C   UNL     1     -10.206   5.332  66.039  1.00  0.00    -0.167 A  
HETATM   14  C   UNL     1      -9.160   8.970  71.294  1.00  0.00    -0.302 A  
HETATM   15  C   UNL     1     -10.171   9.682  70.653  1.00  0.00    -0.346 A  
HETATM   16  C   UNL     1     -10.151   4.020  66.478  1.00  0.00     0.017 A  
HETATM   17  H   UNL     1      -7.308   7.569  72.288  1.00  0.00     0.000 HD 
HETATM   18  C   UNL     1     -10.297   9.595  69.274  1.00  0.00    -0.223 A  
HETATM   19  C   UNL     1      -9.231   3.665  67.466  1.00  0.00    -0.224 A  
HETATM   20  C   UNL     1      -8.385   4.634  68.025  1.00  0.00    -0.098 A  
HETATM   21  C   UNL     1     -11.403  10.269  68.518  1.00  0.00    -0.231 C  
HETATM   22  C   UNL     1      -9.389   8.800  68.560  1.00  0.00    -0.142 A  
ENDBRANCH   5   6
ENDBRANCH   4   5
BRANCH   4  23
HETATM   23  C   UNL     1      -6.004   7.054  64.400  1.00  0.00    -0.036 C  
HETATM   24  C   UNL     1      -5.456   5.949  65.321  1.00  0.00    -0.016 C  
HETATM   25  C   UNL     1      -7.406   6.549  63.977  1.00  0.00    -0.077 C  
ENDBRANCH   4  23
ENDBRANCH   2   4
TORSDOF 4
ENDMDL
MODEL      212
REMARK 921   NORMALIZED FREE ENERGY PREDICTED BY IDOCK:   -2.20 KCAL/MOL
REMARK 922        TOTAL FREE ENERGY PREDICTED BY IDOCK:   -3.56 KCAL/MOL
REMARK 923 INTER-LIGAND FREE ENERGY PREDICTED BY IDOCK:   -4.31 KCAL/MOL
REMARK 924 INTRA-LIGAND FREE ENERGY PREDICTED BY IDOCK:    0.75 KCAL/MOL
REMARK 927      BINDING AFFINITY PREDICTED BY RF-SCORE:    0.00 PKD
ROOT
HETATM    1  C   UNL     1      -9.241  10.610  69.391  1.00  0.00    -0.073 C  
HETATM    2  C   UNL     1      -9.783  11.294  68.110  1.00  0.00    -0.185 C  
HETATM    3  C   UNL     1     -11.295  11.446  68.352  1.00  0.00    -0.346 C  
ENDROOT
BRANCH   2   4
HETATM    4  N   UNL     1      -9.073  12.572  67.791  1.00  0.00    -0.183 NA 
BRANCH   4   5
HETATM    5  C   UNL     1      -9.160  13.568  68.891  1.00  0.00     0.221 C  
BRANCH   5   6
HETATM    6  C   UNL     1     -10.403  14.478  68.947  1.00  0.00    -0.237 C  
HETATM    7  C   UNL     1     -10.677  15.369  67.692  1.00  0.00    -0.292 C  
HETATM    8  C   UNL     1     -10.927  14.613  66.373  1.00  0.00    -0.325 A  
HETATM    9  C   UNL     1      -9.732  16.574  67.536  1.00  0.00    -0.242 A  
HETATM   10  C   UNL     1     -10.100  17.909  67.769  1.00  0.00    -0.348 A  
HETATM   11  C   UNL     1      -9.927  13.892  65.696  1.00  0.00    -0.298 A  
HETATM   12  O   UNL     1     -11.311  18.309  68.258  1.00  0.00     0.109 OA 
HETATM   13  C   UNL     1     -10.145  13.325  64.441  1.00  0.00    -0.190 A  
HETATM   14  C   UNL     1      -9.222  18.965  67.488  1.00  0.00    -0.319 A  
HETATM   15  C   UNL     1      -7.961  18.724  66.950  1.00  0.00    -0.262 A  
HETATM   16  C   UNL     1     -11.389  13.426  63.841  1.00  0.00    -0.298 A  
HETATM   17  H   UNL     1     -11.559  19.212  68.415  1.00  0.00     0.000 HD 
HETATM   18  C   UNL     1      -7.556  17.417  66.720  1.00  0.00    -0.263 A  
HETATM   19  C   UNL     1     -12.417  14.097  64.504  1.00  0.00    -0.350 A  
HETATM   20  C   UNL     1     -12.186  14.687  65.756  1.00  0.00    -0.168 A  
HETATM   21  C   UNL     1      -6.245  17.077  66.075  1.00  0.00     0.344 C  
HETATM   22  C   UNL     1      -8.426  16.370  67.053  1.00  0.00    -0.226 A  
ENDBRANCH   5   6
ENDBRANCH   4   5
BRANCH   4  23
HETATM   23  C   UNL     1      -7.696  12.474  67.217  1.00  0.00    -0.146 C  
HETATM   24  C   UNL     1      -6.566  12.933  68.156  1.00  0.00    -0.093 C  
HETATM   25  C   UNL     1      -7.315  11.025  66.826  1.00  0.00    -0.139 C  
ENDBRANCH   4  23
ENDBRANCH   2   4
TORSDOF 4
ENDMDL
MODEL      213
REMARK 921   NORMALIZED FREE ENERGY PREDICTED BY IDOCK:   -2.19 KCAL/MOL
REMARK 922        TOTAL FREE ENERGY PREDICTED BY IDOCK:   -3.55 KCAL/MOL
REMARK 923 INTER-LIGAND FREE ENERGY PREDICTED BY IDOCK:   -3.03 KCAL/MOL
REMARK 924 INTRA-LIGAND FREE ENERGY PREDICTED BY IDOCK:   -0.52 KCAL/MOL
REMARK 927      BINDING AFFINITY PREDICTED BY RF-SCORE:    0.00 PKD
ROOT
HETATM    1  C   UNL     1      -6.411   9.852  68.848  1.00  0.00    -0.041 C  
HETATM    2  C   UNL     1      -5.634   9.389  70.107  1.00  0.00    -0.031 C  
HETATM    3  C   UNL     1      -5.238  10.691  70.827  1.00  0.00    -0.087 C  
ENDROOT
BRANCH   2   4
HETATM    4  N   UNL     1      -6.412   8.427  70.946  1.00  0.00    -0.037 NA 
BRANCH   4   5
HETATM    5  C   UNL     1      -6.667   7.135  70.255  1.00  0.00    -0.052 C  
BRANCH   5   6
HETATM    6  C   UNL     1      -7.662   7.130  69.077  1.00  0.00    -0.109 C  
HETATM    7  C   UNL     1      -9.027   6.409  69.315  1.00  0.00    -0.133 C  
HETATM    8  C   UNL     1      -9.908   6.990  70.438  1.00  0.00    -0.184 A  
HETATM    9  C   UNL     1      -8.952   4.871  69.330  1.00  0.00    -0.133 A  
HETATM   10  C   UNL     1      -9.423   4.041  68.301  1.00  0.00    -0.156 A  
HETATM   11  C   UNL     1      -9.575   6.902  71.801  1.00  0.00    -0.162 A  
HETATM   12  O   UNL     1      -9.919   4.484  67.108  1.00  0.00    -0.197 OA 
HETATM   13  C   UNL     1     -10.449   7.320  72.805  1.00  0.00    -0.302 A  
HETATM   14  C   UNL     1      -9.433   2.646  68.438  1.00  0.00    -0.212 A  
HETATM   15  C   UNL     1      -8.992   2.039  69.611  1.00  0.00    -0.149 A  
HETATM   16  C   UNL     1     -11.670   7.882  72.470  1.00  0.00    -0.423 A  
HETATM   17  H   UNL     1     -10.237   3.922  66.412  1.00  0.00     0.000 HD 
HETATM   18  C   UNL     1      -8.505   2.825  70.645  1.00  0.00    -0.092 A  
HETATM   19  C   UNL     1     -12.014   8.024  71.125  1.00  0.00    -0.297 A  
HETATM   20  C   UNL     1     -11.142   7.579  70.120  1.00  0.00    -0.246 A  
HETATM   21  C   UNL     1      -8.083   2.256  71.966  1.00  0.00    -0.053 C  
HETATM   22  C   UNL     1      -8.456   4.216  70.472  1.00  0.00    -0.095 A  
ENDBRANCH   5   6
ENDBRANCH   4   5
BRANCH   4  23
HETATM   23  C   UNL     1      -5.977   8.237  72.365  1.00  0.00    -0.055 C  
HETATM   24  C   UNL     1      -6.781   9.037  73.405  1.00  0.00     0.273 C  
HETATM   25  C   UNL     1      -6.092   6.764  72.831  1.00  0.00    -0.053 C  
ENDBRANCH   4  23
ENDBRANCH   2   4
TORSDOF 4
ENDMDL
MODEL      214
REMARK 921   NORMALIZED FREE ENERGY PREDICTED BY IDOCK:   -2.18 KCAL/MOL
REMARK 922        TOTAL FREE ENERGY PREDICTED BY IDOCK:   -3.53 KCAL/MOL
REMARK 923 INTER-LIGAND FREE ENERGY PREDICTED BY IDOCK:   -2.56 KCAL/MOL
REMARK 924 INTRA-LIGAND FREE ENERGY PREDICTED BY IDOCK:   -0.97 KCAL/MOL
REMARK 927      BINDING AFFINITY PREDICTED BY RF-SCORE:    0.00 PKD
ROOT
HETATM    1  C   UNL     1      -7.715   8.822  63.414  1.00  0.00    -0.132 C  
HETATM    2  C   UNL     1      -6.723   7.633  63.356  1.00  0.00    -0.058 C  
HETATM    3  C   UNL     1      -5.370   8.266  62.981  1.00  0.00    -0.063 C  
ENDROOT
BRANCH   2   4
HETATM    4  N   UNL     1      -6.704   6.831  64.618  1.00  0.00    -0.042 NA 
BRANCH   4   5
HETATM    5  C   UNL     1      -7.245   7.579  65.783  1.00  0.00    -0.066 C  
BRANCH   5   6
HETATM    6  C   UNL     1      -6.242   8.285  66.718  1.00  0.00    -0.055 C  
HETATM    7  C   UNL     1      -6.834   8.986  67.982  1.00  0.00    -0.069 C  
HETATM    8  C   UNL     1      -7.565   8.066  68.980  1.00  0.00    -0.098 A  
HETATM    9  C   UNL     1      -7.583  10.301  67.702  1.00  0.00    -0.090 A  
HETATM   10  C   UNL     1      -7.092  11.578  68.013  1.00  0.00    -0.079 A  
HETATM   11  C   UNL     1      -8.794   7.444  68.696  1.00  0.00    -0.126 A  
HETATM   12  O   UNL     1      -5.847  11.833  68.513  1.00  0.00    -0.049 OA 
HETATM   13  C   UNL     1      -9.498   6.722  69.660  1.00  0.00    -0.146 A  
HETATM   14  C   UNL     1      -7.881  12.724  67.840  1.00  0.00    -0.156 A  
HETATM   15  C   UNL     1      -9.189  12.628  67.372  1.00  0.00    -0.191 A  
HETATM   16  C   UNL     1      -8.969   6.564  70.930  1.00  0.00    -0.147 A  
HETATM   17  H   UNL     1      -5.514  12.698  68.724  1.00  0.00     0.000 HD 
HETATM   18  C   UNL     1      -9.705  11.384  67.039  1.00  0.00    -0.210 A  
HETATM   19  C   UNL     1      -7.731   7.132  71.233  1.00  0.00    -0.093 A  
HETATM   20  C   UNL     1      -7.039   7.878  70.268  1.00  0.00    -0.049 A  
HETATM   21  C   UNL     1     -11.125  11.187  66.600  1.00  0.00    -0.255 C  
HETATM   22  C   UNL     1      -8.885  10.254  67.170  1.00  0.00    -0.141 A  
ENDBRANCH   5   6
ENDBRANCH   4   5
BRANCH   4  23
HETATM   23  C   UNL     1      -7.218   5.428  64.554  1.00  0.00    -0.055 C  
HETATM   24  C   UNL     1      -6.413   4.402  65.371  1.00  0.00    -0.039 C  
HETATM   25  C   UNL     1      -8.667   5.299  65.085  1.00  0.00    -0.146 C  
ENDBRANCH   4  23
ENDBRANCH   2   4
TORSDOF 4
ENDMDL
MODEL      215
REMARK 921   NORMALIZED FREE ENERGY PREDICTED BY IDOCK:   -2.13 KCAL/MOL
REMARK 922        TOTAL FREE ENERGY PREDICTED BY IDOCK:   -3.48 KCAL/MOL
REMARK 923 INTER-LIGAND FREE ENERGY PREDICTED BY IDOCK:   -3.91 KCAL/MOL
REMARK 924 INTRA-LIGAND FREE ENERGY PREDICTED BY IDOCK:    0.43 KCAL/MOL
REMARK 927      BINDING AFFINITY PREDICTED BY RF-SCORE:    0.00 PKD
ROOT
HETATM    1  C   UNL     1      -8.084   7.507  65.044  1.00  0.00    -0.127 C  
HETATM    2  C   UNL     1      -8.410   7.560  66.558  1.00  0.00    -0.126 C  
HETATM    3  C   UNL     1      -7.385   8.545  67.149  1.00  0.00    -0.084 C  
ENDROOT
BRANCH   2   4
HETATM    4  N   UNL     1      -9.838   7.913  66.831  1.00  0.00    -0.216 NA 
BRANCH   4   5
HETATM    5  C   UNL     1     -10.271   7.538  68.204  1.00  0.00    -0.189 C  
BRANCH   5   6
HETATM    6  C   UNL     1     -10.690   6.076  68.455  1.00  0.00    -0.354 C  
HETATM    7  C   UNL     1     -10.049   5.366  69.691  1.00  0.00    -0.319 C  
HETATM    8  C   UNL     1     -10.355   5.997  71.063  1.00  0.00    -0.270 A  
HETATM    9  C   UNL     1      -8.572   4.971  69.516  1.00  0.00    -0.102 A  
HETATM   10  C   UNL     1      -8.116   3.657  69.331  1.00  0.00    -0.053 A  
HETATM   11  C   UNL     1      -9.851   7.247  71.466  1.00  0.00    -0.182 A  
HETATM   12  O   UNL     1      -8.924   2.565  69.183  1.00  0.00    -0.087 OA 
HETATM   13  C   UNL     1     -10.036   7.738  72.758  1.00  0.00    -0.321 A  
HETATM   14  C   UNL     1      -6.746   3.359  69.301  1.00  0.00    -0.037 A  
HETATM   15  C   UNL     1      -5.793   4.358  69.474  1.00  0.00    -0.018 A  
HETATM   16  C   UNL     1     -10.771   7.009  73.677  1.00  0.00    -0.310 A  
HETATM   17  H   UNL     1      -8.615   1.676  69.057  1.00  0.00     0.000 HD 
HETATM   18  C   UNL     1      -6.204   5.671  69.644  1.00  0.00    -0.029 A  
HETATM   19  C   UNL     1     -11.323   5.784  73.298  1.00  0.00    -0.100 A  
HETATM   20  C   UNL     1     -11.114   5.284  72.004  1.00  0.00    -0.151 A  
HETATM   21  C   UNL     1      -5.245   6.793  69.911  1.00  0.00    -0.014 C  
HETATM   22  C   UNL     1      -7.576   5.960  69.621  1.00  0.00    -0.081 A  
ENDBRANCH   5   6
ENDBRANCH   4   5
BRANCH   4  23
HETATM   23  C   UNL     1     -10.299   9.281  66.442  1.00  0.00    -0.168 C  
HETATM   24  C   UNL     1     -10.009  10.385  67.474  1.00  0.00    -0.215 C  
HETATM   25  C   UNL     1      -9.636   9.784  65.135  1.00  0.00    -0.356 C  
ENDBRANCH   4  23
ENDBRANCH   2   4
TORSDOF 4
ENDMDL
MODEL      216
REMARK 921   NORMALIZED FREE ENERGY PREDICTED BY IDOCK:   -2.13 KCAL/MOL
REMARK 922        TOTAL FREE ENERGY PREDICTED BY IDOCK:   -3.47 KCAL/MOL
REMARK 923 INTER-LIGAND FREE ENERGY PREDICTED BY IDOCK:   -4.34 KCAL/MOL
REMARK 924 INTRA-LIGAND FREE ENERGY PREDICTED BY IDOCK:    0.87 KCAL/MOL
REMARK 927      BINDING AFFINITY PREDICTED BY RF-SCORE:    0.00 PKD
ROOT
HETATM    1  C   UNL     1     -12.234  13.222  63.213  1.00  0.00    -0.387 C  
HETATM    2  C   UNL     1     -11.321  13.677  64.380  1.00  0.00    -0.374 C  
HETATM    3  C   UNL     1     -12.169  13.467  65.649  1.00  0.00    -0.510 C  
ENDROOT
BRANCH   2   4
HETATM    4  N   UNL     1     -10.002  12.973  64.392  1.00  0.00    -0.199 NA 
BRANCH   4   5
HETATM    5  C   UNL     1      -9.295  13.097  65.695  1.00  0.00     0.241 C  
BRANCH   5   6
HETATM    6  C   UNL     1      -8.799  11.805  66.374  1.00  0.00    -0.170 C  
HETATM    7  C   UNL     1      -8.725  11.815  67.934  1.00  0.00    -0.164 C  
HETATM    8  C   UNL     1     -10.062  12.035  68.669  1.00  0.00    -0.170 A  
HETATM    9  C   UNL     1      -7.563  12.636  68.521  1.00  0.00    -0.121 A  
HETATM   10  C   UNL     1      -6.415  12.083  69.110  1.00  0.00    -0.099 A  
HETATM   11  C   UNL     1     -10.759  13.256  68.651  1.00  0.00    -0.281 A  
HETATM   12  O   UNL     1      -6.128  10.748  69.153  1.00  0.00    -0.041 OA 
HETATM   13  C   UNL     1     -11.898  13.470  69.427  1.00  0.00    -0.389 A  
HETATM   14  C   UNL     1      -5.454  12.891  69.733  1.00  0.00    -0.095 A  
HETATM   15  C   UNL     1      -5.619  14.272  69.805  1.00  0.00    -0.100 A  
HETATM   16  C   UNL     1     -12.400  12.448  70.215  1.00  0.00    -0.264 A  
HETATM   17  H   UNL     1      -5.352  10.373  69.551  1.00  0.00     0.000 HD 
HETATM   18  C   UNL     1      -6.732  14.857  69.222  1.00  0.00    -0.141 A  
HETATM   19  C   UNL     1     -11.758  11.209  70.224  1.00  0.00    -0.431 A  
HETATM   20  C   UNL     1     -10.599  11.008  69.460  1.00  0.00    -0.182 A  
HETATM   21  C   UNL     1      -7.021  16.326  69.320  1.00  0.00    -0.217 C  
HETATM   22  C   UNL     1      -7.659  14.039  68.559  1.00  0.00    -0.130 A  
ENDBRANCH   5   6
ENDBRANCH   4   5
BRANCH   4  23
HETATM   23  C   UNL     1      -9.954  11.581  63.849  1.00  0.00    -0.324 C  
HETATM   24  C   UNL     1     -11.313  11.006  63.411  1.00  0.00     0.449 C  
HETATM   25  C   UNL     1      -9.057  11.463  62.591  1.00  0.00    -0.242 C  
ENDBRANCH   4  23
ENDBRANCH   2   4
TORSDOF 4
ENDMDL
MODEL      217
REMARK 921   NORMALIZED FREE ENERGY PREDICTED BY IDOCK:   -2.06 KCAL/MOL
REMARK 922        TOTAL FREE ENERGY PREDICTED BY IDOCK:   -3.39 KCAL/MOL
REMARK 923 INTER-LIGAND FREE ENERGY PREDICTED BY IDOCK:   -3.81 KCAL/MOL
REMARK 924 INTRA-LIGAND FREE ENERGY PREDICTED BY IDOCK:    0.42 KCAL/MOL
REMARK 927      BINDING AFFINITY PREDICTED BY RF-SCORE:    0.00 PKD
ROOT
HETATM    1  C   UNL     1      -7.573  17.685  66.064  1.00  0.00    -0.256 C  
HETATM    2  C   UNL     1      -9.092  17.709  65.755  1.00  0.00     0.310 C  
HETATM    3  C   UNL     1      -9.419  16.283  65.272  1.00  0.00     0.574 C  
ENDROOT
BRANCH   2   4
HETATM    4  N   UNL     1      -9.913  18.175  66.915  1.00  0.00    -0.324 NA 
BRANCH   4   5
HETATM    5  C   UNL     1     -10.676  17.073  67.560  1.00  0.00    -0.266 C  
BRANCH   5   6
HETATM    6  C   UNL     1     -10.614  16.954  69.095  1.00  0.00    -0.330 C  
HETATM    7  C   UNL     1     -10.009  15.634  69.673  1.00  0.00    -0.290 C  
HETATM    8  C   UNL     1      -8.542  15.348  69.299  1.00  0.00    -0.252 A  
HETATM    9  C   UNL     1     -10.921  14.400  69.557  1.00  0.00    -0.230 A  
HETATM   10  C   UNL     1     -11.596  13.806  70.635  1.00  0.00     0.062 A  
HETATM   11  C   UNL     1      -8.129  15.018  67.995  1.00  0.00    -0.132 A  
HETATM   12  O   UNL     1     -11.615  14.298  71.909  1.00  0.00    -0.210 OA 
HETATM   13  C   UNL     1      -6.818  14.637  67.708  1.00  0.00    -0.193 A  
HETATM   14  C   UNL     1     -12.311  12.610  70.476  1.00  0.00    -0.350 A  
HETATM   15  C   UNL     1     -12.359  11.963  69.245  1.00  0.00    -0.016 A  
HETATM   16  C   UNL     1      -5.867  14.618  68.714  1.00  0.00    -0.085 A  
HETATM   17  H   UNL     1     -12.072  13.896  72.638  1.00  0.00     0.000 HD 
HETATM   18  C   UNL     1     -11.717  12.527  68.153  1.00  0.00    -0.400 A  
HETATM   19  C   UNL     1      -6.232  14.982  70.011  1.00  0.00    -0.157 A  
HETATM   20  C   UNL     1      -7.557  15.340  70.299  1.00  0.00     0.490 A  
HETATM   21  C   UNL     1     -11.657  11.856  66.813  1.00  0.00    -0.341 C  
HETATM   22  C   UNL     1     -11.048  13.748  68.317  1.00  0.00    -0.279 A  
ENDBRANCH   5   6
ENDBRANCH   4   5
BRANCH   4  23
HETATM   23  C   UNL     1      -9.254  19.072  67.913  1.00  0.00    -0.301 C  
HETATM   24  C   UNL     1      -8.426  20.221  67.311  1.00  0.00    -0.415 C  
HETATM   25  C   UNL     1     -10.271  19.772  68.848  1.00  0.00    -0.418 C  
ENDBRANCH   4  23
ENDBRANCH   2   4
TORSDOF 4
ENDMDL
MODEL      218
REMARK 921   NORMALIZED FREE ENERGY PREDICTED BY IDOCK:   -2.02 KCAL/MOL
REMARK 922        TOTAL FREE ENERGY PREDICTED BY IDOCK:   -3.34 KCAL/MOL
REMARK 923 INTER-LIGAND FREE ENERGY PREDICTED BY IDOCK:   -3.70 KCAL/MOL
REMARK 924 INTRA-LIGAND FREE ENERGY PREDICTED BY IDOCK:    0.37 KCAL/MOL
REMARK 927      BINDING AFFINITY PREDICTED BY RF-SCORE:    0.00 PKD
ROOT
HETATM    1  C   UNL     1      -7.461  20.075  70.802  1.00  0.00     1.006 C  
HETATM    2  C   UNL     1      -6.217  20.061  69.877  1.00  0.00    -0.361 C  
HETATM    3  C   UNL     1      -5.127  20.803  70.671  1.00  0.00    -0.286 C  
ENDROOT
BRANCH   2   4
HETATM    4  N   UNL     1      -5.836  18.683  69.438  1.00  0.00    -0.234 NA 
BRANCH   4   5
HETATM    5  C   UNL     1      -5.126  18.671  68.132  1.00  0.00    -0.176 C  
BRANCH   5   6
HETATM    6  C   UNL     1      -5.451  17.535  67.142  1.00  0.00    -0.162 C  
HETATM    7  C   UNL     1      -6.442  17.877  65.983  1.00  0.00    -0.299 C  
HETATM    8  C   UNL     1      -5.986  18.986  65.014  1.00  0.00    -0.310 A  
HETATM    9  C   UNL     1      -7.916  18.005  66.408  1.00  0.00    -0.296 A  
HETATM   10  C   UNL     1      -8.912  17.059  66.120  1.00  0.00    -0.208 A  
HETATM   11  C   UNL     1      -5.885  20.338  65.385  1.00  0.00    -0.226 A  
HETATM   12  O   UNL     1      -8.691  15.856  65.512  1.00  0.00    -0.128 OA 
HETATM   13  C   UNL     1      -5.595  21.340  64.458  1.00  0.00    -0.174 A  
HETATM   14  C   UNL     1     -10.257  17.300  66.432  1.00  0.00    -0.333 A  
HETATM   15  C   UNL     1     -10.651  18.498  67.023  1.00  0.00    -0.421 A  
HETATM   16  C   UNL     1      -5.354  21.010  63.135  1.00  0.00    -0.254 A  
HETATM   17  H   UNL     1      -9.365  15.216  65.318  1.00  0.00     0.000 HD 
HETATM   18  C   UNL     1      -9.693  19.451  67.337  1.00  0.00    -0.424 A  
HETATM   19  C   UNL     1      -5.404  19.672  62.741  1.00  0.00    -0.343 A  
HETATM   20  C   UNL     1      -5.720  18.672  63.672  1.00  0.00     0.399 A  
HETATM   21  C   UNL     1     -10.043  20.794  67.904  1.00  0.00    -0.093 C  
HETATM   22  C   UNL     1      -8.346  19.173  67.063  1.00  0.00    -0.294 A  
ENDBRANCH   5   6
ENDBRANCH   4   5
BRANCH   4  23
HETATM   23  C   UNL     1      -5.189  17.789  70.447  1.00  0.00    -0.262 C  
HETATM   24  C   UNL     1      -5.323  18.252  71.909  1.00  0.00     0.273 C  
HETATM   25  C   UNL     1      -5.776  16.355  70.436  1.00  0.00    -0.100 C  
ENDBRANCH   4  23
ENDBRANCH   2   4
TORSDOF 4
ENDMDL
MODEL      219
REMARK 921   NORMALIZED FREE ENERGY PREDICTED BY IDOCK:   -1.90 KCAL/MOL
REMARK 922        TOTAL FREE ENERGY PREDICTED BY IDOCK:   -3.18 KCAL/MOL
REMARK 923 INTER-LIGAND FREE ENERGY PREDICTED BY IDOCK:   -3.78 KCAL/MOL
REMARK 924 INTRA-LIGAND FREE ENERGY PREDICTED BY IDOCK:    0.59 KCAL/MOL
REMARK 927      BINDING AFFINITY PREDICTED BY RF-SCORE:    0.00 PKD
ROOT
HETATM    1  C   UNL     1      -9.837   2.436  71.546  1.00  0.00    -0.197 C  
HETATM    2  C   UNL     1     -10.216   3.839  72.083  1.00  0.00    -0.109 C  
HETATM    3  C   UNL     1      -9.728   3.848  73.543  1.00  0.00    -0.140 C  
ENDROOT
BRANCH   2   4
HETATM    4  N   UNL     1      -9.674   4.949  71.240  1.00  0.00    -0.168 NA 
BRANCH   4   5
HETATM    5  C   UNL     1      -9.553   4.575  69.805  1.00  0.00    -0.199 C  
BRANCH   5   6
HETATM    6  C   UNL     1     -10.497   5.261  68.798  1.00  0.00    -0.166 C  
HETATM    7  C   UNL     1      -9.890   5.630  67.407  1.00  0.00    -0.160 C  
HETATM    8  C   UNL     1      -9.373   4.448  66.564  1.00  0.00    -0.165 A  
HETATM    9  C   UNL     1      -8.934   6.836  67.417  1.00  0.00    -0.115 A  
HETATM   10  C   UNL     1      -9.246   8.104  66.900  1.00  0.00    -0.160 A  
HETATM   11  C   UNL     1      -8.237   3.694  66.908  1.00  0.00    -0.095 A  
HETATM   12  O   UNL     1     -10.468   8.465  66.409  1.00  0.00    -0.380 OA 
HETATM   13  C   UNL     1      -7.715   2.714  66.064  1.00  0.00    -0.080 A  
HETATM   14  C   UNL     1      -8.282   9.120  66.833  1.00  0.00    -0.116 A  
HETATM   15  C   UNL     1      -6.977   8.898  67.261  1.00  0.00    -0.078 A  
HETATM   16  C   UNL     1      -8.344   2.427  64.864  1.00  0.00    -0.089 A  
HETATM   17  H   UNL     1     -10.679   9.322  66.059  1.00  0.00     0.000 HD 
HETATM   18  C   UNL     1      -6.634   7.663  67.793  1.00  0.00    -0.062 A  
HETATM   19  C   UNL     1      -9.499   3.126  64.511  1.00  0.00    -0.147 A  
HETATM   20  C   UNL     1     -10.005   4.127  65.352  1.00  0.00    -0.211 A  
HETATM   21  C   UNL     1      -5.234   7.319  68.206  1.00  0.00    -0.021 C  
HETATM   22  C   UNL     1      -7.622   6.673  67.899  1.00  0.00    -0.107 A  
ENDBRANCH   5   6
ENDBRANCH   4   5
BRANCH   4  23
HETATM   23  C   UNL     1     -10.262   6.311  71.426  1.00  0.00    -0.201 C  
HETATM   24  C   UNL     1      -9.336   7.478  71.041  1.00  0.00    -0.157 C  
HETATM   25  C   UNL     1     -11.540   6.529  70.578  1.00  0.00    -0.455 C  
ENDBRANCH   4  23
ENDBRANCH   2   4
TORSDOF 4
ENDMDL
MODEL      220
REMARK 921   NORMALIZED FREE ENERGY PREDICTED BY IDOCK:   -1.83 KCAL/MOL
REMARK 922        TOTAL FREE ENERGY PREDICTED BY IDOCK:   -3.10 KCAL/MOL
REMARK 923 INTER-LIGAND FREE ENERGY PREDICTED BY IDOCK:   -2.60 KCAL/MOL
REMARK 924 INTRA-LIGAND FREE ENERGY PREDICTED BY IDOCK:   -0.51 KCAL/MOL
REMARK 927      BINDING AFFINITY PREDICTED BY RF-SCORE:    0.00 PKD
ROOT
HETATM    1  C   UNL     1      -6.203   9.790  68.826  1.00  0.00    -0.042 C  
HETATM    2  C   UNL     1      -5.940   8.789  69.980  1.00  0.00    -0.030 C  
HETATM    3  C   UNL     1      -6.183   9.598  71.267  1.00  0.00    -0.009 C  
ENDROOT
BRANCH   2   4
HETATM    4  N   UNL     1      -6.761   7.544  69.866  1.00  0.00    -0.045 NA 
BRANCH   4   5
HETATM    5  C   UNL     1      -6.115   6.505  69.020  1.00  0.00    -0.026 C  
BRANCH   5   6
HETATM    6  C   UNL     1      -5.869   6.832  67.534  1.00  0.00    -0.020 C  
HETATM    7  C   UNL     1      -7.087   6.674  66.570  1.00  0.00    -0.068 C  
HETATM    8  C   UNL     1      -8.303   7.572  66.869  1.00  0.00    -0.125 A  
HETATM    9  C   UNL     1      -7.469   5.219  66.243  1.00  0.00    -0.087 A  
HETATM   10  C   UNL     1      -7.229   4.591  65.011  1.00  0.00    -0.067 A  
HETATM   11  C   UNL     1      -9.122   7.409  68.000  1.00  0.00    -0.130 A  
HETATM   12  O   UNL     1      -6.541   5.150  63.972  1.00  0.00    -0.036 OA 
HETATM   13  C   UNL     1     -10.290   8.150  68.182  1.00  0.00    -0.251 A  
HETATM   14  C   UNL     1      -7.714   3.303  64.744  1.00  0.00    -0.078 A  
HETATM   15  C   UNL     1      -8.467   2.611  65.689  1.00  0.00    -0.103 A  
HETATM   16  C   UNL     1     -10.651   9.112  67.254  1.00  0.00    -0.303 A  
HETATM   17  H   UNL     1      -6.380   4.725  63.138  1.00  0.00     0.000 HD 
HETATM   18  C   UNL     1      -8.711   3.192  66.925  1.00  0.00    -0.137 A  
HETATM   19  C   UNL     1      -9.837   9.331  66.141  1.00  0.00    -0.363 A  
HETATM   20  C   UNL     1      -8.677   8.566  65.951  1.00  0.00    -0.203 A  
HETATM   21  C   UNL     1      -9.574   2.547  67.968  1.00  0.00    -0.083 C  
HETATM   22  C   UNL     1      -8.177   4.461  67.194  1.00  0.00    -0.101 A  
ENDBRANCH   5   6
ENDBRANCH   4   5
BRANCH   4  23
HETATM   23  C   UNL     1      -7.338   6.977  71.123  1.00  0.00    -0.076 C  
HETATM   24  C   UNL     1      -8.802   7.361  71.399  1.00  0.00    -0.129 C  
HETATM   25  C   UNL     1      -7.332   5.428  71.136  1.00  0.00    -0.083 C  
ENDBRANCH   4  23
ENDBRANCH   2   4
TORSDOF 4
ENDMDL
MODEL      221
REMARK 921   NORMALIZED FREE ENERGY PREDICTED BY IDOCK:   -1.83 KCAL/MOL
REMARK 922        TOTAL FREE ENERGY PREDICTED BY IDOCK:   -3.10 KCAL/MOL
REMARK 923 INTER-LIGAND FREE ENERGY PREDICTED BY IDOCK:   -3.78 KCAL/MOL
REMARK 924 INTRA-LIGAND FREE ENERGY PREDICTED BY IDOCK:    0.69 KCAL/MOL
REMARK 927      BINDING AFFINITY PREDICTED BY RF-SCORE:    0.00 PKD
ROOT
HETATM    1  C   UNL     1      -8.138  19.543  69.780  1.00  0.00     0.490 C  
HETATM    2  C   UNL     1      -7.221  18.533  69.044  1.00  0.00    -0.240 C  
HETATM    3  C   UNL     1      -5.796  19.085  69.231  1.00  0.00    -0.251 C  
ENDROOT
BRANCH   2   4
HETATM    4  N   UNL     1      -7.409  17.127  69.518  1.00  0.00     0.028 NA 
BRANCH   4   5
HETATM    5  C   UNL     1      -8.730  16.562  69.132  1.00  0.00    -0.150 C  
BRANCH   5   6
HETATM    6  C   UNL     1      -9.796  17.528  68.579  1.00  0.00    -0.330 C  
HETATM    7  C   UNL     1      -9.857  17.690  67.026  1.00  0.00    -0.307 C  
HETATM    8  C   UNL     1     -10.180  16.411  66.229  1.00  0.00    -0.341 A  
HETATM    9  C   UNL     1      -8.711  18.517  66.417  1.00  0.00    -0.274 A  
HETATM   10  C   UNL     1      -8.849  19.821  65.916  1.00  0.00    -0.126 A  
HETATM   11  C   UNL     1      -9.293  15.325  66.123  1.00  0.00    -0.360 A  
HETATM   12  O   UNL     1      -9.991  20.567  65.991  1.00  0.00    -0.594 OA 
HETATM   13  C   UNL     1      -9.554  14.235  65.292  1.00  0.00     0.105 A  
HETATM   14  C   UNL     1      -7.789  20.467  65.264  1.00  0.00     0.403 A  
HETATM   15  C   UNL     1      -6.568  19.826  65.075  1.00  0.00    -0.289 A  
HETATM   16  C   UNL     1     -10.735  14.181  64.572  1.00  0.00    -0.323 A  
HETATM   17  H   UNL     1     -10.084  21.450  65.652  1.00  0.00     0.000 HD 
HETATM   18  C   UNL     1      -6.388  18.542  65.569  1.00  0.00    -0.320 A  
HETATM   19  C   UNL     1     -11.657  15.222  64.686  1.00  0.00    -0.333 A  
HETATM   20  C   UNL     1     -11.379  16.327  65.504  1.00  0.00     0.258 A  
HETATM   21  C   UNL     1      -5.131  17.756  65.342  1.00  0.00    -0.067 C  
HETATM   22  C   UNL     1      -7.441  17.930  66.263  1.00  0.00    -0.321 A  
ENDBRANCH   5   6
ENDBRANCH   4   5
BRANCH   4  23
HETATM   23  C   UNL     1      -6.289  16.164  69.290  1.00  0.00    -0.174 C  
HETATM   24  C   UNL     1      -5.406  15.888  70.521  1.00  0.00    -0.164 C  
HETATM   25  C   UNL     1      -6.786  14.766  68.846  1.00  0.00    -0.105 C  
ENDBRANCH   4  23
ENDBRANCH   2   4
TORSDOF 4
ENDMDL
MODEL      222
REMARK 921   NORMALIZED FREE ENERGY PREDICTED BY IDOCK:   -1.54 KCAL/MOL
REMARK 922        TOTAL FREE ENERGY PREDICTED BY IDOCK:   -2.74 KCAL/MOL
REMARK 923 INTER-LIGAND FREE ENERGY PREDICTED BY IDOCK:   -3.29 KCAL/MOL
REMARK 924 INTRA-LIGAND FREE ENERGY PREDICTED BY IDOCK:    0.55 KCAL/MOL
REMARK 927      BINDING AFFINITY PREDICTED BY RF-SCORE:    0.00 PKD
ROOT
HETATM    1  C   UNL     1     -12.508  12.982  70.851  1.00  0.00    -0.396 C  
HETATM    2  C   UNL     1     -12.722  14.440  70.370  1.00  0.00    -0.304 C  
HETATM    3  C   UNL     1     -13.792  15.015  71.317  1.00  0.00    -0.528 C  
ENDROOT
BRANCH   2   4
HETATM    4  N   UNL     1     -11.451  15.226  70.319  1.00  0.00    -0.273 NA 
BRANCH   4   5
HETATM    5  C   UNL     1     -10.300  14.427  69.823  1.00  0.00     0.227 C  
BRANCH   5   6
HETATM    6  C   UNL     1     -10.582  13.010  69.284  1.00  0.00     0.107 C  
HETATM    7  C   UNL     1     -10.005  12.669  67.873  1.00  0.00    -0.228 C  
HETATM    8  C   UNL     1      -8.470  12.731  67.741  1.00  0.00    -0.177 A  
HETATM    9  C   UNL     1     -10.746  13.326  66.695  1.00  0.00    -0.284 A  
HETATM   10  C   UNL     1     -11.592  12.643  65.807  1.00  0.00    -0.387 A  
HETATM   11  C   UNL     1      -7.740  13.931  67.797  1.00  0.00    -0.177 A  
HETATM   12  O   UNL     1     -11.950  11.330  65.925  1.00  0.00     0.107 OA 
HETATM   13  C   UNL     1      -6.369  13.975  67.547  1.00  0.00    -0.036 A  
HETATM   14  C   UNL     1     -12.136  13.282  64.684  1.00  0.00    -0.458 A  
HETATM   15  C   UNL     1     -11.839  14.613  64.402  1.00  0.00    -0.405 A  
HETATM   16  C   UNL     1      -5.676  12.807  67.275  1.00  0.00    -0.005 A  
HETATM   17  H   UNL     1     -12.522  10.869  65.325  1.00  0.00     0.000 HD 
HETATM   18  C   UNL     1     -11.018  15.325  65.265  1.00  0.00    -0.403 A  
HETATM   19  C   UNL     1      -6.362  11.592  67.254  1.00  0.00    -0.118 A  
HETATM   20  C   UNL     1      -7.746  11.557  67.482  1.00  0.00    -0.132 A  
HETATM   21  C   UNL     1     -10.589  16.736  64.994  1.00  0.00    -0.060 C  
HETATM   22  C   UNL     1     -10.522  14.686  66.410  1.00  0.00    -0.296 A  
ENDBRANCH   5   6
ENDBRANCH   4   5
BRANCH   4  23
HETATM   23  C   UNL     1     -11.504  16.589  69.707  1.00  0.00     0.052 C  
HETATM   24  C   UNL     1     -10.139  17.279  69.534  1.00  0.00     0.012 C  
HETATM   25  C   UNL     1     -12.120  16.580  68.286  1.00  0.00     0.872 C  
ENDBRANCH   4  23
ENDBRANCH   2   4
TORSDOF 4
ENDMDL
MODEL      223
REMARK 921   NORMALIZED FREE ENERGY PREDICTED BY IDOCK:   -1.54 KCAL/MOL
REMARK 922        TOTAL FREE ENERGY PREDICTED BY IDOCK:   -2.74 KCAL/MOL
REMARK 923 INTER-LIGAND FREE ENERGY PREDICTED BY IDOCK:   -3.41 KCAL/MOL
REMARK 924 INTRA-LIGAND FREE ENERGY PREDICTED BY IDOCK:    0.67 KCAL/MOL
REMARK 927      BINDING AFFINITY PREDICTED BY RF-SCORE:    0.00 PKD
ROOT
HETATM    1  C   UNL     1     -11.252  14.847  65.066  1.00  0.00    -0.408 C  
HETATM    2  C   UNL     1     -11.717  13.373  64.953  1.00  0.00    -0.351 C  
HETATM    3  C   UNL     1     -12.575  13.327  63.675  1.00  0.00    -0.200 C  
ENDROOT
BRANCH   2   4
HETATM    4  N   UNL     1     -10.580  12.402  64.972  1.00  0.00    -0.288 NA 
BRANCH   4   5
HETATM    5  C   UNL     1     -10.684  11.414  66.078  1.00  0.00    -0.263 C  
BRANCH   5   6
HETATM    6  C   UNL     1     -11.011  11.941  67.489  1.00  0.00    -0.299 C  
HETATM    7  C   UNL     1      -9.971  11.631  68.613  1.00  0.00    -0.192 C  
HETATM    8  C   UNL     1      -8.560  12.216  68.402  1.00  0.00    -0.141 A  
HETATM    9  C   UNL     1      -9.960  10.171  69.100  1.00  0.00    -0.221 A  
HETATM   10  C   UNL     1     -10.465   9.741  70.337  1.00  0.00    -0.297 A  
HETATM   11  C   UNL     1      -7.680  11.765  67.403  1.00  0.00    -0.151 A  
HETATM   12  O   UNL     1     -11.120  10.539  71.231  1.00  0.00    -0.097 OA 
HETATM   13  C   UNL     1      -6.365  12.219  67.315  1.00  0.00    -0.150 A  
HETATM   14  C   UNL     1     -10.310   8.415  70.765  1.00  0.00    -0.228 A  
HETATM   15  C   UNL     1      -9.632   7.484  69.982  1.00  0.00    -0.164 A  
HETATM   16  C   UNL     1      -5.902  13.176  68.202  1.00  0.00    -0.097 A  
HETATM   17  H   UNL     1     -11.462  10.248  72.067  1.00  0.00     0.000 HD 
HETATM   18  C   UNL     1      -9.132   7.868  68.747  1.00  0.00    -0.140 A  
HETATM   19  C   UNL     1      -6.762  13.678  69.180  1.00  0.00    -0.109 A  
HETATM   20  C   UNL     1      -8.076  13.199  69.280  1.00  0.00     0.647 A  
HETATM   21  C   UNL     1      -8.327   6.948  67.878  1.00  0.00    -0.121 C  
HETATM   22  C   UNL     1      -9.339   9.185  68.311  1.00  0.00    -0.141 A  
ENDBRANCH   5   6
ENDBRANCH   4   5
BRANCH   4  23
HETATM   23  C   UNL     1     -10.190  11.767  63.675  1.00  0.00    -0.428 C  
HETATM   24  C   UNL     1      -9.370  10.471  63.806  1.00  0.00    -0.319 C  
HETATM   25  C   UNL     1     -11.415  11.369  62.815  1.00  0.00     0.749 C  
ENDBRANCH   4  23
ENDBRANCH   2   4
TORSDOF 4
ENDMDL
MODEL      224
REMARK 921   NORMALIZED FREE ENERGY PREDICTED BY IDOCK:   -1.47 KCAL/MOL
REMARK 922        TOTAL FREE ENERGY PREDICTED BY IDOCK:   -2.66 KCAL/MOL
REMARK 923 INTER-LIGAND FREE ENERGY PREDICTED BY IDOCK:   -2.95 KCAL/MOL
REMARK 924 INTRA-LIGAND FREE ENERGY PREDICTED BY IDOCK:    0.29 KCAL/MOL
REMARK 927      BINDING AFFINITY PREDICTED BY RF-SCORE:    0.00 PKD
ROOT
HETATM    1  C   UNL     1     -10.697   3.208  63.892  1.00  0.00    -0.151 C  
HETATM    2  C   UNL     1     -10.259   3.786  65.262  1.00  0.00    -0.000 C  
HETATM    3  C   UNL     1      -9.488   2.641  65.945  1.00  0.00     0.089 C  
ENDROOT
BRANCH   2   4
HETATM    4  N   UNL     1      -9.490   5.062  65.134  1.00  0.00    -0.067 NA 
BRANCH   4   5
HETATM    5  C   UNL     1      -9.359   5.787  66.426  1.00  0.00    -0.156 C  
BRANCH   5   6
HETATM    6  C   UNL     1      -7.942   6.158  66.906  1.00  0.00    -0.105 C  
HETATM    7  C   UNL     1      -7.713   7.642  67.338  1.00  0.00    -0.117 C  
HETATM    8  C   UNL     1      -8.562   8.135  68.526  1.00  0.00    -0.130 A  
HETATM    9  C   UNL     1      -7.644   8.650  66.177  1.00  0.00    -0.093 A  
HETATM   10  C   UNL     1      -6.467   9.271  65.730  1.00  0.00    -0.068 A  
HETATM   11  C   UNL     1      -9.953   8.325  68.453  1.00  0.00    -0.211 A  
HETATM   12  O   UNL     1      -5.214   8.992  66.198  1.00  0.00    -0.032 OA 
HETATM   13  C   UNL     1     -10.679   8.893  69.500  1.00  0.00    -0.206 A  
HETATM   14  C   UNL     1      -6.498  10.271  64.749  1.00  0.00    -0.105 A  
HETATM   15  C   UNL     1      -7.704  10.694  64.197  1.00  0.00     0.160 A  
HETATM   16  C   UNL     1     -10.037   9.250  70.674  1.00  0.00    -0.339 A  
HETATM   17  H   UNL     1      -4.417   9.412  65.896  1.00  0.00     0.000 HD 
HETATM   18  C   UNL     1      -8.887  10.094  64.601  1.00  0.00    -0.220 A  
HETATM   19  C   UNL     1      -8.663   9.034  70.797  1.00  0.00    -0.269 A  
HETATM   20  C   UNL     1      -7.934   8.485  69.732  1.00  0.00    -0.103 A  
HETATM   21  C   UNL     1     -10.232  10.543  64.112  1.00  0.00    -0.287 C  
HETATM   22  C   UNL     1      -8.834   9.061  65.548  1.00  0.00    -0.233 A  
ENDBRANCH   5   6
ENDBRANCH   4   5
BRANCH   4  23
HETATM   23  C   UNL     1      -8.205   5.023  64.370  1.00  0.00    -0.128 C  
HETATM   24  C   UNL     1      -8.052   3.826  63.414  1.00  0.00    -0.088 C  
HETATM   25  C   UNL     1      -8.009   6.269  63.471  1.00  0.00    -0.094 C  
ENDBRANCH   4  23
ENDBRANCH   2   4
TORSDOF 4
ENDMDL
MODEL      225
REMARK 921   NORMALIZED FREE ENERGY PREDICTED BY IDOCK:   -1.43 KCAL/MOL
REMARK 922        TOTAL FREE ENERGY PREDICTED BY IDOCK:   -2.60 KCAL/MOL
REMARK 923 INTER-LIGAND FREE ENERGY PREDICTED BY IDOCK:   -3.13 KCAL/MOL
REMARK 924 INTRA-LIGAND FREE ENERGY PREDICTED BY IDOCK:    0.53 KCAL/MOL
REMARK 927      BINDING AFFINITY PREDICTED BY RF-SCORE:    0.00 PKD
ROOT
HETATM    1  C   UNL     1     -12.257  14.010  64.139  1.00  0.00    -0.433 C  
HETATM    2  C   UNL     1     -11.262  13.325  65.110  1.00  0.00    -0.302 C  
HETATM    3  C   UNL     1     -10.173  14.383  65.370  1.00  0.00    -0.408 C  
ENDROOT
BRANCH   2   4
HETATM    4  N   UNL     1     -11.925  12.801  66.344  1.00  0.00    -0.478 NA 
BRANCH   4   5
HETATM    5  C   UNL     1     -11.105  11.779  67.048  1.00  0.00    -0.304 C  
BRANCH   5   6
HETATM    6  C   UNL     1     -10.032  11.029  66.235  1.00  0.00    -0.269 C  
HETATM    7  C   UNL     1      -8.744  10.594  67.006  1.00  0.00    -0.128 C  
HETATM    8  C   UNL     1      -8.959   9.617  68.177  1.00  0.00    -0.123 A  
HETATM    9  C   UNL     1      -7.771  11.740  67.337  1.00  0.00    -0.151 A  
HETATM   10  C   UNL     1      -6.541  11.951  66.694  1.00  0.00     0.078 A  
HETATM   11  C   UNL     1      -9.604   9.978  69.373  1.00  0.00    -0.237 A  
HETATM   12  O   UNL     1      -6.087  11.231  65.626  1.00  0.00    -0.378 OA 
HETATM   13  C   UNL     1      -9.673   9.115  70.467  1.00  0.00    -0.287 A  
HETATM   14  C   UNL     1      -5.651  12.942  67.131  1.00  0.00     0.219 A  
HETATM   15  C   UNL     1      -5.952  13.739  68.232  1.00  0.00    -0.108 A  
HETATM   16  C   UNL     1      -9.132   7.843  70.381  1.00  0.00    -0.154 A  
HETATM   17  H   UNL     1      -5.255  11.373  65.191  1.00  0.00     0.000 HD 
HETATM   18  C   UNL     1      -7.165  13.571  68.884  1.00  0.00    -0.070 A  
HETATM   19  C   UNL     1      -8.521   7.436  69.193  1.00  0.00    -0.133 A  
HETATM   20  C   UNL     1      -8.434   8.317  68.105  1.00  0.00    -0.132 A  
HETATM   21  C   UNL     1      -7.533  14.335  70.121  1.00  0.00     0.586 C  
HETATM   22  C   UNL     1      -8.065  12.609  68.404  1.00  0.00    -0.137 A  
ENDBRANCH   5   6
ENDBRANCH   4   5
BRANCH   4  23
HETATM   23  C   UNL     1     -12.524  13.797  67.285  1.00  0.00     0.018 C  
HETATM   24  C   UNL     1     -12.032  13.697  68.740  1.00  0.00    -0.394 C  
HETATM   25  C   UNL     1     -12.225  15.261  66.873  1.00  0.00     0.598 C  
ENDBRANCH   4  23
ENDBRANCH   2   4
TORSDOF 4
ENDMDL
MODEL      226
REMARK 921   NORMALIZED FREE ENERGY PREDICTED BY IDOCK:   -1.31 KCAL/MOL
REMARK 922        TOTAL FREE ENERGY PREDICTED BY IDOCK:   -2.45 KCAL/MOL
REMARK 923 INTER-LIGAND FREE ENERGY PREDICTED BY IDOCK:   -1.45 KCAL/MOL
REMARK 924 INTRA-LIGAND FREE ENERGY PREDICTED BY IDOCK:   -1.01 KCAL/MOL
REMARK 927      BINDING AFFINITY PREDICTED BY RF-SCORE:    0.00 PKD
ROOT
HETATM    1  C   UNL     1     -10.171   3.685  66.729  1.00  0.00     0.724 C  
HETATM    2  C   UNL     1      -9.649   4.980  67.403  1.00  0.00    -0.145 C  
HETATM    3  C   UNL     1      -9.362   4.578  68.861  1.00  0.00    -0.209 C  
ENDROOT
BRANCH   2   4
HETATM    4  N   UNL     1      -8.483   5.578  66.682  1.00  0.00    -0.112 NA 
BRANCH   4   5
HETATM    5  C   UNL     1      -8.687   7.013  66.350  1.00  0.00    -0.142 C  
BRANCH   5   6
HETATM    6  C   UNL     1      -9.906   7.731  66.961  1.00  0.00    -0.286 C  
HETATM    7  C   UNL     1      -9.894   9.293  66.920  1.00  0.00    -0.276 C  
HETATM    8  C   UNL     1      -9.854   9.929  65.517  1.00  0.00    -0.381 A  
HETATM    9  C   UNL     1      -8.931   9.958  67.920  1.00  0.00    -0.129 A  
HETATM   10  C   UNL     1      -9.333  10.630  69.086  1.00  0.00    -0.160 A  
HETATM   11  C   UNL     1      -8.735   9.855  64.669  1.00  0.00    -0.215 A  
HETATM   12  O   UNL     1     -10.619  10.700  69.540  1.00  0.00    -0.227 OA 
HETATM   13  C   UNL     1      -8.676  10.547  63.460  1.00  0.00    -0.187 A  
HETATM   14  C   UNL     1      -8.409  11.317  69.885  1.00  0.00     1.274 A  
HETATM   15  C   UNL     1      -7.062  11.372  69.537  1.00  0.00    -0.020 A  
HETATM   16  C   UNL     1      -9.759  11.302  63.040  1.00  0.00    -0.389 A  
HETATM   17  H   UNL     1     -10.891  11.154  70.329  1.00  0.00     0.000 HD 
HETATM   18  C   UNL     1      -6.624  10.707  68.401  1.00  0.00    -0.055 A  
HETATM   19  C   UNL     1     -10.903  11.362  63.836  1.00  0.00    -0.463 A  
HETATM   20  C   UNL     1     -10.947  10.684  65.064  1.00  0.00     0.213 A  
HETATM   21  C   UNL     1      -5.207  10.778  67.916  1.00  0.00    -0.036 C  
HETATM   22  C   UNL     1      -7.553   9.983  67.639  1.00  0.00    -0.091 A  
ENDBRANCH   5   6
ENDBRANCH   4   5
BRANCH   4  23
HETATM   23  C   UNL     1      -7.118   5.309  67.230  1.00  0.00    -0.070 C  
HETATM   24  C   UNL     1      -6.415   4.069  66.648  1.00  0.00    -0.041 C  
HETATM   25  C   UNL     1      -6.131   6.475  66.972  1.00  0.00    -0.025 C  
ENDBRANCH   4  23
ENDBRANCH   2   4
TORSDOF 4
ENDMDL
MODEL      227
REMARK 921   NORMALIZED FREE ENERGY PREDICTED BY IDOCK:   -1.12 KCAL/MOL
REMARK 922        TOTAL FREE ENERGY PREDICTED BY IDOCK:   -2.22 KCAL/MOL
REMARK 923 INTER-LIGAND FREE ENERGY PREDICTED BY IDOCK:   -3.25 KCAL/MOL
REMARK 924 INTRA-LIGAND FREE ENERGY PREDICTED BY IDOCK:    1.03 KCAL/MOL
REMARK 927      BINDING AFFINITY PREDICTED BY RF-SCORE:    0.00 PKD
ROOT
HETATM    1  C   UNL     1      -6.642   8.819  66.406  1.00  0.00    -0.063 C  
HETATM    2  C   UNL     1      -8.008   8.191  66.781  1.00  0.00    -0.103 C  
HETATM    3  C   UNL     1      -8.601   7.709  65.444  1.00  0.00    -0.074 C  
ENDROOT
BRANCH   2   4
HETATM    4  N   UNL     1      -7.891   7.129  67.827  1.00  0.00    -0.112 NA 
BRANCH   4   5
HETATM    5  C   UNL     1      -9.213   6.647  68.309  1.00  0.00    -0.121 C  
BRANCH   5   6
HETATM    6  C   UNL     1      -9.250   5.818  69.608  1.00  0.00    -0.159 C  
HETATM    7  C   UNL     1      -9.098   6.607  70.948  1.00  0.00    -0.154 C  
HETATM    8  C   UNL     1     -10.190   7.655  71.239  1.00  0.00    -0.204 A  
HETATM    9  C   UNL     1      -7.674   7.111  71.244  1.00  0.00    -0.093 A  
HETATM   10  C   UNL     1      -6.821   6.562  72.215  1.00  0.00    -0.068 A  
HETATM   11  C   UNL     1     -10.331   8.845  70.504  1.00  0.00    -0.246 A  
HETATM   12  O   UNL     1      -7.100   5.450  72.957  1.00  0.00    -0.084 OA 
HETATM   13  C   UNL     1     -11.243   9.836  70.868  1.00  0.00    -0.429 A  
HETATM   14  C   UNL     1      -5.585   7.150  72.514  1.00  0.00    -0.038 A  
HETATM   15  C   UNL     1      -5.170   8.312  71.869  1.00  0.00    -0.035 A  
HETATM   16  C   UNL     1     -12.076   9.644  71.957  1.00  0.00    -0.269 A  
HETATM   17  H   UNL     1      -6.523   5.078  73.614  1.00  0.00     0.000 HD 
HETATM   18  C   UNL     1      -5.978   8.876  70.893  1.00  0.00    -0.041 A  
HETATM   19  C   UNL     1     -11.993   8.455  72.684  1.00  0.00    -0.346 A  
HETATM   20  C   UNL     1     -11.057   7.473  72.328  1.00  0.00    -0.319 A  
HETATM   21  C   UNL     1      -5.639  10.165  70.205  1.00  0.00    -0.054 C  
HETATM   22  C   UNL     1      -7.189   8.247  70.570  1.00  0.00    -0.045 A  
ENDBRANCH   5   6
ENDBRANCH   4   5
BRANCH   4  23
HETATM   23  C   UNL     1      -6.934   6.009  67.572  1.00  0.00    -0.069 C  
HETATM   24  C   UNL     1      -6.970   4.873  68.609  1.00  0.00    -0.053 C  
HETATM   25  C   UNL     1      -7.189   5.306  66.215  1.00  0.00    -0.073 C  
ENDBRANCH   4  23
ENDBRANCH   2   4
TORSDOF 4
ENDMDL
MODEL      228
REMARK 921   NORMALIZED FREE ENERGY PREDICTED BY IDOCK:   -0.57 KCAL/MOL
REMARK 922        TOTAL FREE ENERGY PREDICTED BY IDOCK:   -1.55 KCAL/MOL
REMARK 923 INTER-LIGAND FREE ENERGY PREDICTED BY IDOCK:   -1.06 KCAL/MOL
REMARK 924 INTRA-LIGAND FREE ENERGY PREDICTED BY IDOCK:   -0.49 KCAL/MOL
REMARK 927      BINDING AFFINITY PREDICTED BY RF-SCORE:    0.00 PKD
ROOT
HETATM    1  C   UNL     1     -10.185   4.453  67.787  1.00  0.00     0.079 C  
HETATM    2  C   UNL     1      -9.733   5.901  67.470  1.00  0.00    -0.115 C  
HETATM    3  C   UNL     1      -9.397   6.519  68.839  1.00  0.00    -0.131 C  
ENDROOT
BRANCH   2   4
HETATM    4  N   UNL     1      -8.618   5.955  66.475  1.00  0.00    -0.120 NA 
BRANCH   4   5
HETATM    5  C   UNL     1      -7.289   6.161  67.110  1.00  0.00    -0.076 C  
BRANCH   5   6
HETATM    6  C   UNL     1      -6.274   7.067  66.386  1.00  0.00    -0.039 C  
HETATM    7  C   UNL     1      -6.450   8.608  66.574  1.00  0.00    -0.059 C  
HETATM    8  C   UNL     1      -6.325   9.128  68.020  1.00  0.00    -0.055 A  
HETATM    9  C   UNL     1      -7.633   9.223  65.804  1.00  0.00    -0.098 A  
HETATM   10  C   UNL     1      -7.507  10.025  64.659  1.00  0.00    -0.143 A  
HETATM   11  C   UNL     1      -7.273   8.853  69.021  1.00  0.00    -0.072 A  
HETATM   12  O   UNL     1      -6.329  10.286  64.017  1.00  0.00    -0.168 OA 
HETATM   13  C   UNL     1      -7.205   9.440  70.285  1.00  0.00    -0.104 A  
HETATM   14  C   UNL     1      -8.620  10.651  64.082  1.00  0.00    -0.100 A  
HETATM   15  C   UNL     1      -9.888  10.512  64.640  1.00  0.00    -0.404 A  
HETATM   16  C   UNL     1      -6.157  10.288  70.599  1.00  0.00    -0.103 A  
HETATM   17  H   UNL     1      -6.244  10.828  63.242  1.00  0.00     0.000 HD 
HETATM   18  C   UNL     1     -10.056   9.716  65.763  1.00  0.00    -0.274 A  
HETATM   19  C   UNL     1      -5.174  10.549  69.642  1.00  0.00    -0.038 A  
HETATM   20  C   UNL     1      -5.261   9.976  68.365  1.00  0.00    -0.035 A  
HETATM   21  C   UNL     1     -11.372   9.575  66.468  1.00  0.00     1.425 C  
HETATM   22  C   UNL     1      -8.939   9.056  66.298  1.00  0.00    -0.199 A  
ENDBRANCH   5   6
ENDBRANCH   4   5
BRANCH   4  23
HETATM   23  C   UNL     1      -8.585   4.902  65.414  1.00  0.00    -0.138 C  
HETATM   24  C   UNL     1      -8.661   5.429  63.970  1.00  0.00    -0.018 C  
HETATM   25  C   UNL     1      -7.287   4.057  65.453  1.00  0.00    -0.076 C  
ENDBRANCH   4  23
ENDBRANCH   2   4
TORSDOF 4
ENDMDL
MODEL      229
REMARK 921   NORMALIZED FREE ENERGY PREDICTED BY IDOCK:   -0.30 KCAL/MOL
REMARK 922        TOTAL FREE ENERGY PREDICTED BY IDOCK:   -1.21 KCAL/MOL
REMARK 923 INTER-LIGAND FREE ENERGY PREDICTED BY IDOCK:   -2.94 KCAL/MOL
REMARK 924 INTRA-LIGAND FREE ENERGY PREDICTED BY IDOCK:    1.73 KCAL/MOL
REMARK 927      BINDING AFFINITY PREDICTED BY RF-SCORE:    0.00 PKD
ROOT
HETATM    1  C   UNL     1      -5.242  18.009  64.638  1.00  0.00     0.138 C  
HETATM    2  C   UNL     1      -6.335  18.355  65.682  1.00  0.00    -0.272 C  
HETATM    3  C   UNL     1      -7.173  19.466  65.023  1.00  0.00     0.414 C  
ENDROOT
BRANCH   2   4
HETATM    4  N   UNL     1      -7.121  17.160  66.117  1.00  0.00    -0.246 NA 
BRANCH   4   5
HETATM    5  C   UNL     1      -6.309  16.191  66.901  1.00  0.00     0.079 C  
BRANCH   5   6
HETATM    6  C   UNL     1      -6.702  15.943  68.371  1.00  0.00    -0.116 C  
HETATM    7  C   UNL     1      -7.449  14.607  68.681  1.00  0.00    -0.125 C  
HETATM    8  C   UNL     1      -6.674  13.313  68.364  1.00  0.00    -0.096 A  
HETATM    9  C   UNL     1      -8.918  14.566  68.224  1.00  0.00    -0.184 A  
HETATM   10  C   UNL     1     -10.023  14.638  69.087  1.00  0.00    -0.143 A  
HETATM   11  C   UNL     1      -6.378  12.894  67.055  1.00  0.00     0.380 A  
HETATM   12  O   UNL     1      -9.947  14.852  70.433  1.00  0.00    -0.414 OA 
HETATM   13  C   UNL     1      -5.789  11.658  66.789  1.00  0.00    -0.140 A  
HETATM   14  C   UNL     1     -11.331  14.471  68.610  1.00  0.00    -0.300 A  
HETATM   15  C   UNL     1     -11.575  14.209  67.265  1.00  0.00    -0.399 A  
HETATM   16  C   UNL     1      -5.437  10.819  67.834  1.00  0.00    -0.039 A  
HETATM   17  H   UNL     1     -10.695  14.901  71.017  1.00  0.00     0.000 HD 
HETATM   18  C   UNL     1     -10.510  14.145  66.378  1.00  0.00    -0.283 A  
HETATM   19  C   UNL     1      -5.677  11.223  69.148  1.00  0.00    -0.041 A  
HETATM   20  C   UNL     1      -6.292  12.456  69.409  1.00  0.00    -0.119 A  
HETATM   21  C   UNL     1     -10.681  13.794  64.930  1.00  0.00    -0.410 C  
HETATM   22  C   UNL     1      -9.212  14.364  66.862  1.00  0.00    -0.269 A  
ENDBRANCH   5   6
ENDBRANCH   4   5
BRANCH   4  23
HETATM   23  C   UNL     1      -8.466  17.399  66.724  1.00  0.00    -0.254 C  
HETATM   24  C   UNL     1      -8.444  18.035  68.126  1.00  0.00    -0.273 C  
HETATM   25  C   UNL     1      -9.341  18.356  65.876  1.00  0.00     0.173 C  
ENDBRANCH   4  23
ENDBRANCH   2   4
TORSDOF 4
ENDMDL
MODEL      230
REMARK 921   NORMALIZED FREE ENERGY PREDICTED BY IDOCK:   -0.29 KCAL/MOL
REMARK 922        TOTAL FREE ENERGY PREDICTED BY IDOCK:   -1.20 KCAL/MOL
REMARK 923 INTER-LIGAND FREE ENERGY PREDICTED BY IDOCK:   -3.16 KCAL/MOL
REMARK 924 INTRA-LIGAND FREE ENERGY PREDICTED BY IDOCK:    1.96 KCAL/MOL
REMARK 927      BINDING AFFINITY PREDICTED BY RF-SCORE:    0.00 PKD
ROOT
HETATM    1  C   UNL     1     -12.782  15.789  70.532  1.00  0.00    -0.277 C  
HETATM    2  C   UNL     1     -12.243  15.333  69.152  1.00  0.00    -0.153 C  
HETATM    3  C   UNL     1     -10.801  15.869  69.095  1.00  0.00    -0.268 C  
ENDROOT
BRANCH   2   4
HETATM    4  N   UNL     1     -12.365  13.857  68.941  1.00  0.00    -0.203 NA 
BRANCH   4   5
HETATM    5  C   UNL     1     -11.129  13.251  68.380  1.00  0.00    -0.270 C  
BRANCH   5   6
HETATM    6  C   UNL     1     -10.500  12.063  69.134  1.00  0.00    -0.005 C  
HETATM    7  C   UNL     1      -9.172  11.484  68.549  1.00  0.00    -0.167 C  
HETATM    8  C   UNL     1      -7.979  12.459  68.494  1.00  0.00    -0.110 A  
HETATM    9  C   UNL     1      -9.340  10.653  67.264  1.00  0.00    -0.166 A  
HETATM   10  C   UNL     1      -9.226   9.255  67.201  1.00  0.00    -0.130 A  
HETATM   11  C   UNL     1      -7.929  13.567  67.629  1.00  0.00    -0.177 A  
HETATM   12  O   UNL     1      -9.050   8.438  68.281  1.00  0.00    -0.139 OA 
HETATM   13  C   UNL     1      -6.787  14.359  67.507  1.00  0.00    -0.162 A  
HETATM   14  C   UNL     1      -9.270   8.576  65.975  1.00  0.00    -0.262 A  
HETATM   15  C   UNL     1      -9.409   9.270  64.777  1.00  0.00    -0.080 A  
HETATM   16  C   UNL     1      -5.672  14.090  68.282  1.00  0.00    -0.116 A  
HETATM   17  H   UNL     1      -8.973   7.492  68.238  1.00  0.00     0.000 HD 
HETATM   18  C   UNL     1      -9.540  10.651  64.800  1.00  0.00    -0.334 A  
HETATM   19  C   UNL     1      -5.703  13.024  69.183  1.00  0.00    -0.076 A  
HETATM   20  C   UNL     1      -6.845  12.217  69.284  1.00  0.00    -0.052 A  
HETATM   21  C   UNL     1      -9.618  11.479  63.552  1.00  0.00    -0.297 C  
HETATM   22  C   UNL     1      -9.544  11.310  66.038  1.00  0.00    -0.245 A  
ENDBRANCH   5   6
ENDBRANCH   4   5
BRANCH   4  23
HETATM   23  C   UNL     1     -12.943  13.044  70.056  1.00  0.00     0.659 C  
HETATM   24  C   UNL     1     -12.770  11.522  69.909  1.00  0.00     0.089 C  
HETATM   25  C   UNL     1     -12.308  13.379  71.428  1.00  0.00    -0.214 C  
ENDBRANCH   4  23
ENDBRANCH   2   4
TORSDOF 4
ENDMDL
MODEL      231
REMARK 921   NORMALIZED FREE ENERGY PREDICTED BY IDOCK:   -0.27 KCAL/MOL
REMARK 922        TOTAL FREE ENERGY PREDICTED BY IDOCK:   -1.18 KCAL/MOL
REMARK 923 INTER-LIGAND FREE ENERGY PREDICTED BY IDOCK:   -2.27 KCAL/MOL
REMARK 924 INTRA-LIGAND FREE ENERGY PREDICTED BY IDOCK:    1.10 KCAL/MOL
REMARK 927      BINDING AFFINITY PREDICTED BY RF-SCORE:    0.00 PKD
ROOT
HETATM    1  C   UNL     1     -10.676   7.964  71.372  1.00  0.00    -0.258 C  
HETATM    2  C   UNL     1      -9.711   6.781  71.102  1.00  0.00    -0.174 C  
HETATM    3  C   UNL     1      -8.891   6.638  72.397  1.00  0.00    -0.134 C  
ENDROOT
BRANCH   2   4
HETATM    4  N   UNL     1     -10.424   5.537  70.678  1.00  0.00    -0.266 NA 
BRANCH   4   5
HETATM    5  C   UNL     1     -10.466   5.373  69.200  1.00  0.00    -0.207 C  
BRANCH   5   6
HETATM    6  C   UNL     1      -9.905   4.068  68.602  1.00  0.00    -0.046 C  
HETATM    7  C   UNL     1      -8.468   4.137  67.993  1.00  0.00    -0.103 C  
HETATM    8  C   UNL     1      -7.340   4.517  68.973  1.00  0.00    -0.056 A  
HETATM    9  C   UNL     1      -8.372   4.864  66.640  1.00  0.00    -0.107 A  
HETATM   10  C   UNL     1      -8.171   4.226  65.406  1.00  0.00    -0.109 A  
HETATM   11  C   UNL     1      -7.209   5.798  69.537  1.00  0.00    -0.066 A  
HETATM   12  O   UNL     1      -8.130   2.873  65.226  1.00  0.00    -0.085 OA 
HETATM   13  C   UNL     1      -6.110   6.154  70.318  1.00  0.00    -0.030 A  
HETATM   14  C   UNL     1      -7.971   4.962  64.230  1.00  0.00    -0.108 A  
HETATM   15  C   UNL     1      -7.949   6.354  64.252  1.00  0.00    -0.102 A  
HETATM   16  C   UNL     1      -5.125   5.221  70.594  1.00  0.00    -0.004 A  
HETATM   17  H   UNL     1      -7.993   2.441  64.391  1.00  0.00     0.000 HD 
HETATM   18  C   UNL     1      -8.160   7.021  65.450  1.00  0.00    -0.133 A  
HETATM   19  C   UNL     1      -5.245   3.926  70.086  1.00  0.00    -0.004 A  
HETATM   20  C   UNL     1      -6.341   3.581  69.281  1.00  0.00    -0.029 A  
HETATM   21  C   UNL     1      -8.076   8.513  65.572  1.00  0.00    -0.126 C  
HETATM   22  C   UNL     1      -8.407   6.270  66.608  1.00  0.00    -0.112 A  
ENDBRANCH   5   6
ENDBRANCH   4   5
BRANCH   4  23
HETATM   23  C   UNL     1     -10.076   4.265  71.382  1.00  0.00    -0.117 C  
HETATM   24  C   UNL     1      -8.701   4.259  72.074  1.00  0.00    -0.122 C  
HETATM   25  C   UNL     1     -11.080   3.913  72.508  1.00  0.00     0.224 C  
ENDBRANCH   4  23
ENDBRANCH   2   4
TORSDOF 4
ENDMDL
MODEL      232
REMARK 921   NORMALIZED FREE ENERGY PREDICTED BY IDOCK:   -0.07 KCAL/MOL
REMARK 922        TOTAL FREE ENERGY PREDICTED BY IDOCK:   -0.93 KCAL/MOL
REMARK 923 INTER-LIGAND FREE ENERGY PREDICTED BY IDOCK:   -2.20 KCAL/MOL
REMARK 924 INTRA-LIGAND FREE ENERGY PREDICTED BY IDOCK:    1.26 KCAL/MOL
REMARK 927      BINDING AFFINITY PREDICTED BY RF-SCORE:    0.00 PKD
ROOT
HETATM    1  C   UNL     1     -12.252  11.510  62.749  1.00  0.00     0.693 C  
HETATM    2  C   UNL     1     -11.889  12.702  63.672  1.00  0.00    -0.530 C  
HETATM    3  C   UNL     1     -13.108  12.870  64.598  1.00  0.00    -0.030 C  
ENDROOT
BRANCH   2   4
HETATM    4  N   UNL     1     -10.590  12.507  64.386  1.00  0.00    -0.327 NA 
BRANCH   4   5
HETATM    5  C   UNL     1     -10.566  13.153  65.725  1.00  0.00    -0.282 C  
BRANCH   5   6
HETATM    6  C   UNL     1      -9.214  13.242  66.461  1.00  0.00    -0.182 C  
HETATM    7  C   UNL     1      -9.227  12.928  67.991  1.00  0.00    -0.212 C  
HETATM    8  C   UNL     1      -9.680  11.508  68.383  1.00  0.00    -0.202 A  
HETATM    9  C   UNL     1      -9.842  14.030  68.872  1.00  0.00    -0.077 A  
HETATM   10  C   UNL     1      -9.106  14.887  69.706  1.00  0.00     0.217 A  
HETATM   11  C   UNL     1     -11.002  11.053  68.235  1.00  0.00    -0.287 A  
HETATM   12  O   UNL     1      -7.742  14.925  69.773  1.00  0.00    -0.367 OA 
HETATM   13  C   UNL     1     -11.414   9.810  68.714  1.00  0.00     0.122 A  
HETATM   14  C   UNL     1      -9.744  15.785  70.572  1.00  0.00     0.822 A  
HETATM   15  C   UNL     1     -11.132  15.843  70.648  1.00  0.00    -0.368 A  
HETATM   16  C   UNL     1     -10.501   8.963  69.321  1.00  0.00    -0.234 A  
HETATM   17  H   UNL     1      -7.244  15.505  70.337  1.00  0.00     0.000 HD 
HETATM   18  C   UNL     1     -11.895  15.023  69.829  1.00  0.00    -0.357 A  
HETATM   19  C   UNL     1      -9.171   9.366  69.446  1.00  0.00    -0.167 A  
HETATM   20  C   UNL     1      -8.767  10.627  68.983  1.00  0.00    -0.152 A  
HETATM   21  C   UNL     1     -13.392  14.970  69.902  1.00  0.00     0.601 C  
HETATM   22  C   UNL     1     -11.241  14.166  68.932  1.00  0.00    -0.294 A  
ENDBRANCH   5   6
ENDBRANCH   4   5
BRANCH   4  23
HETATM   23  C   UNL     1     -10.012  11.128  64.409  1.00  0.00    -0.301 C  
HETATM   24  C   UNL     1      -9.793  10.490  63.025  1.00  0.00    -0.267 C  
HETATM   25  C   UNL     1      -8.620  11.076  65.087  1.00  0.00    -0.015 C  
ENDBRANCH   4  23
ENDBRANCH   2   4
TORSDOF 4
ENDMDL
MODEL      233
REMARK 921   NORMALIZED FREE ENERGY PREDICTED BY IDOCK:   -0.07 KCAL/MOL
REMARK 922        TOTAL FREE ENERGY PREDICTED BY IDOCK:   -0.93 KCAL/MOL
REMARK 923 INTER-LIGAND FREE ENERGY PREDICTED BY IDOCK:   -2.12 KCAL/MOL
REMARK 924 INTRA-LIGAND FREE ENERGY PREDICTED BY IDOCK:    1.19 KCAL/MOL
REMARK 927      BINDING AFFINITY PREDICTED BY RF-SCORE:    0.00 PKD
ROOT
HETATM    1  C   UNL     1     -10.689   1.666  71.126  1.00  0.00     1.044 C  
HETATM    2  C   UNL     1     -10.346   2.824  72.098  1.00  0.00    -0.003 C  
HETATM    3  C   UNL     1      -9.148   2.310  72.917  1.00  0.00    -0.098 C  
ENDROOT
BRANCH   2   4
HETATM    4  N   UNL     1     -10.107   4.121  71.393  1.00  0.00    -0.144 NA 
BRANCH   4   5
HETATM    5  C   UNL     1      -8.930   4.857  71.927  1.00  0.00    -0.135 C  
BRANCH   5   6
HETATM    6  C   UNL     1      -7.875   5.360  70.922  1.00  0.00    -0.099 C  
HETATM    7  C   UNL     1      -7.605   6.898  70.899  1.00  0.00    -0.087 C  
HETATM    8  C   UNL     1      -7.072   7.507  72.211  1.00  0.00    -0.068 A  
HETATM    9  C   UNL     1      -8.713   7.740  70.242  1.00  0.00    -0.143 A  
HETATM   10  C   UNL     1      -8.607   8.351  68.982  1.00  0.00    -0.131 A  
HETATM   11  C   UNL     1      -7.846   7.617  73.380  1.00  0.00    -0.157 A  
HETATM   12  O   UNL     1      -7.550   8.201  68.130  1.00  0.00    -0.101 OA 
HETATM   13  C   UNL     1      -7.384   8.287  74.513  1.00  0.00    -0.255 A  
HETATM   14  C   UNL     1      -9.610   9.204  68.500  1.00  0.00    -0.156 A  
HETATM   15  C   UNL     1     -10.737   9.488  69.266  1.00  0.00    -0.240 A  
HETATM   16  C   UNL     1      -6.111   8.832  74.525  1.00  0.00    -0.152 A  
HETATM   17  H   UNL     1      -7.479   8.614  67.278  1.00  0.00     0.000 HD 
HETATM   18  C   UNL     1     -10.885   8.891  70.509  1.00  0.00    -0.276 A  
HETATM   19  C   UNL     1      -5.299   8.704  73.397  1.00  0.00    -0.075 A  
HETATM   20  C   UNL     1      -5.778   8.050  72.251  1.00  0.00    -0.038 A  
HETATM   21  C   UNL     1     -12.030   9.202  71.426  1.00  0.00    -0.410 C  
HETATM   22  C   UNL     1      -9.897   8.002  70.956  1.00  0.00    -0.200 A  
ENDBRANCH   5   6
ENDBRANCH   4   5
BRANCH   4  23
HETATM   23  C   UNL     1     -10.143   4.113  69.898  1.00  0.00     0.123 C  
HETATM   24  C   UNL     1     -10.771   5.363  69.256  1.00  0.00    -0.198 C  
HETATM   25  C   UNL     1      -8.731   4.018  69.268  1.00  0.00    -0.124 C  
ENDBRANCH   4  23
ENDBRANCH   2   4
TORSDOF 4
ENDMDL
MODEL      234
REMARK 921   NORMALIZED FREE ENERGY PREDICTED BY IDOCK:    2.23 KCAL/MOL
REMARK 922        TOTAL FREE ENERGY PREDICTED BY IDOCK:    1.91 KCAL/MOL
REMARK 923 INTER-LIGAND FREE ENERGY PREDICTED BY IDOCK:   -1.74 KCAL/MOL
REMARK 924 INTRA-LIGAND FREE ENERGY PREDICTED BY IDOCK:    3.66 KCAL/MOL
REMARK 927      BINDING AFFINITY PREDICTED BY RF-SCORE:    0.00 PKD
ROOT
HETATM    1  C   UNL     1      -6.388  12.956  69.669  1.00  0.00    -0.089 C  
HETATM    2  C   UNL     1      -7.222  13.297  68.408  1.00  0.00    -0.110 C  
HETATM    3  C   UNL     1      -8.405  12.312  68.440  1.00  0.00    -0.144 C  
ENDROOT
BRANCH   2   4
HETATM    4  N   UNL     1      -7.615  14.738  68.344  1.00  0.00    -0.110 NA 
BRANCH   4   5
HETATM    5  C   UNL     1      -8.353  15.187  69.555  1.00  0.00    -0.151 C  
BRANCH   5   6
HETATM    6  C   UNL     1      -9.834  15.582  69.395  1.00  0.00    -0.283 C  
HETATM    7  C   UNL     1     -10.307  15.959  67.954  1.00  0.00    -0.269 C  
HETATM    8  C   UNL     1     -10.185  14.846  66.894  1.00  0.00    -0.254 A  
HETATM    9  C   UNL     1      -9.829  17.333  67.455  1.00  0.00    -0.272 A  
HETATM   10  C   UNL     1     -10.651  18.464  67.328  1.00  0.00    -0.402 A  
HETATM   11  C   UNL     1      -8.952  14.374  66.412  1.00  0.00    -0.122 A  
HETATM   12  O   UNL     1     -11.957  18.526  67.721  1.00  0.00     1.386 OA 
HETATM   13  C   UNL     1      -8.869  13.459  65.362  1.00  0.00     1.524 A  
HETATM   14  C   UNL     1     -10.174  19.649  66.750  1.00  0.00    -0.563 A  
HETATM   15  C   UNL     1      -8.872  19.736  66.265  1.00  0.00    -0.417 A  
HETATM   16  C   UNL     1     -10.025  12.956  64.789  1.00  0.00    -0.151 A  
HETATM   17  H   UNL     1     -12.513  19.291  67.636  1.00  0.00     0.000 HD 
HETATM   18  C   UNL     1      -8.025  18.645  66.386  1.00  0.00    -0.298 A  
HETATM   19  C   UNL     1     -11.267  13.371  65.273  1.00  0.00    -0.305 A  
HETATM   20  C   UNL     1     -11.344  14.309  66.313  1.00  0.00    -0.347 A  
HETATM   21  C   UNL     1      -6.635  18.631  65.823  1.00  0.00    -0.304 C  
HETATM   22  C   UNL     1      -8.502  17.484  67.012  1.00  0.00    -0.252 A  
ENDBRANCH   5   6
ENDBRANCH   4   5
BRANCH   4  23
HETATM   23  C   UNL     1      -6.574  15.721  67.914  1.00  0.00    -0.148 C  
HETATM   24  C   UNL     1      -5.973  16.572  69.047  1.00  0.00    -0.150 C  
HETATM   25  C   UNL     1      -5.353  15.042  67.246  1.00  0.00     0.485 C  
ENDBRANCH   4  23
ENDBRANCH   2   4
TORSDOF 4
ENDMDL
MODEL      235
REMARK 921   NORMALIZED FREE ENERGY PREDICTED BY IDOCK:    2.58 KCAL/MOL
REMARK 922        TOTAL FREE ENERGY PREDICTED BY IDOCK:    2.34 KCAL/MOL
REMARK 923 INTER-LIGAND FREE ENERGY PREDICTED BY IDOCK:    2.82 KCAL/MOL
REMARK 924 INTRA-LIGAND FREE ENERGY PREDICTED BY IDOCK:   -0.48 KCAL/MOL
REMARK 927      BINDING AFFINITY PREDICTED BY RF-SCORE:    0.00 PKD
ROOT
HETATM    1  C   UNL     1     -10.756   9.827  69.857  1.00  0.00    -0.303 C  
HETATM    2  C   UNL     1      -9.360   9.582  69.228  1.00  0.00    -0.169 C  
HETATM    3  C   UNL     1      -9.649   9.196  67.766  1.00  0.00    -0.173 C  
ENDROOT
BRANCH   2   4
HETATM    4  N   UNL     1      -8.438  10.747  69.392  1.00  0.00    -0.054 NA 
BRANCH   4   5
HETATM    5  C   UNL     1      -9.132  12.055  69.253  1.00  0.00     0.766 C  
BRANCH   5   6
HETATM    6  C   UNL     1      -8.267  13.312  69.031  1.00  0.00     0.338 C  
HETATM    7  C   UNL     1      -9.030  14.658  68.814  1.00  0.00    -0.173 C  
HETATM    8  C   UNL     1      -9.923  15.121  69.981  1.00  0.00    -0.052 A  
HETATM    9  C   UNL     1      -9.700  14.807  67.436  1.00  0.00    -0.214 A  
HETATM   10  C   UNL     1      -9.234  15.646  66.411  1.00  0.00    -0.311 A  
HETATM   11  C   UNL     1     -11.107  14.461  70.354  1.00  0.00     0.034 A  
HETATM   12  O   UNL     1      -8.074  16.366  66.460  1.00  0.00    -0.254 OA 
HETATM   13  C   UNL     1     -11.963  14.972  71.329  1.00  0.00    -0.388 A  
HETATM   14  C   UNL     1      -9.965  15.824  65.228  1.00  0.00    -0.176 A  
HETATM   15  C   UNL     1     -11.188  15.186  65.039  1.00  0.00    -0.414 A  
HETATM   16  C   UNL     1     -11.637  16.143  71.993  1.00  0.00    -0.477 A  
HETATM   17  H   UNL     1      -7.760  16.933  65.767  1.00  0.00     0.000 HD 
HETATM   18  C   UNL     1     -11.673  14.337  66.022  1.00  0.00    -0.384 A  
HETATM   19  C   UNL     1     -10.447  16.801  71.679  1.00  0.00     2.752 A  
HETATM   20  C   UNL     1      -9.601  16.295  70.680  1.00  0.00     1.943 A  
HETATM   21  C   UNL     1     -13.014  13.672  65.929  1.00  0.00    -0.173 C  
HETATM   22  C   UNL     1     -10.907  14.132  67.179  1.00  0.00    -0.291 A  
ENDBRANCH   5   6
ENDBRANCH   4   5
BRANCH   4  23
HETATM   23  C   UNL     1      -7.492  10.724  70.551  1.00  0.00     1.199 C  
HETATM   24  C   UNL     1      -7.239   9.332  71.157  1.00  0.00    -0.055 C  
HETATM   25  C   UNL     1      -6.083  11.251  70.180  1.00  0.00    -0.149 C  
ENDBRANCH   4  23
ENDBRANCH   2   4
TORSDOF 4
ENDMDL
MODEL      236
REMARK 921   NORMALIZED FREE ENERGY PREDICTED BY IDOCK:    2.81 KCAL/MOL
REMARK 922        TOTAL FREE ENERGY PREDICTED BY IDOCK:    2.62 KCAL/MOL
REMARK 923 INTER-LIGAND FREE ENERGY PREDICTED BY IDOCK:   -0.64 KCAL/MOL
REMARK 924 INTRA-LIGAND FREE ENERGY PREDICTED BY IDOCK:    3.26 KCAL/MOL
REMARK 927      BINDING AFFINITY PREDICTED BY RF-SCORE:    0.00 PKD
ROOT
HETATM    1  C   UNL     1      -6.790   7.714  70.875  1.00  0.00    -0.042 C  
HETATM    2  C   UNL     1      -8.017   7.937  71.797  1.00  0.00    -0.104 C  
HETATM    3  C   UNL     1      -7.695   9.225  72.577  1.00  0.00     0.976 C  
ENDROOT
BRANCH   2   4
HETATM    4  N   UNL     1      -9.308   7.974  71.044  1.00  0.00    -0.147 NA 
BRANCH   4   5
HETATM    5  C   UNL     1      -9.164   7.529  69.632  1.00  0.00    -0.146 C  
BRANCH   5   6
HETATM    6  C   UNL     1      -7.815   6.922  69.200  1.00  0.00    -0.111 C  
HETATM    7  C   UNL     1      -7.821   5.411  68.801  1.00  0.00    -0.087 C  
HETATM    8  C   UNL     1      -8.708   5.037  67.598  1.00  0.00    -0.103 A  
HETATM    9  C   UNL     1      -7.947   4.431  69.981  1.00  0.00    -0.059 A  
HETATM   10  C   UNL     1      -6.899   3.637  70.472  1.00  0.00    -0.033 A  
HETATM   11  C   UNL     1     -10.113   5.077  67.634  1.00  0.00    -0.192 A  
HETATM   12  O   UNL     1      -5.606   3.698  70.036  1.00  0.00    -0.015 OA 
HETATM   13  C   UNL     1     -10.895   4.612  66.577  1.00  0.00     0.399 A  
HETATM   14  C   UNL     1      -7.118   2.678  71.471  1.00  0.00    -0.032 A  
HETATM   15  C   UNL     1      -8.391   2.469  71.995  1.00  0.00    -0.063 A  
HETATM   16  C   UNL     1     -10.290   4.130  65.429  1.00  0.00    -0.166 A  
HETATM   17  H   UNL     1      -4.897   3.161  70.368  1.00  0.00     0.000 HD 
HETATM   18  C   UNL     1      -9.450   3.244  71.546  1.00  0.00    -0.217 A  
HETATM   19  C   UNL     1      -8.897   4.115  65.341  1.00  0.00    -0.124 A  
HETATM   20  C   UNL     1      -8.116   4.562  66.417  1.00  0.00    -0.103 A  
HETATM   21  C   UNL     1     -10.862   3.032  72.004  1.00  0.00     0.701 C  
HETATM   22  C   UNL     1      -9.204   4.234  70.583  1.00  0.00    -0.193 A  
ENDBRANCH   5   6
ENDBRANCH   4   5
BRANCH   4  23
HETATM   23  C   UNL     1     -10.513   7.386  71.706  1.00  0.00    -0.196 C  
HETATM   24  C   UNL     1     -11.739   7.213  70.792  1.00  0.00    -0.363 C  
HETATM   25  C   UNL     1     -10.248   5.971  72.277  1.00  0.00    -0.215 C  
ENDBRANCH   4  23
ENDBRANCH   2   4
TORSDOF 4
ENDMDL
MODEL      237
REMARK 921   NORMALIZED FREE ENERGY PREDICTED BY IDOCK:    2.87 KCAL/MOL
REMARK 922        TOTAL FREE ENERGY PREDICTED BY IDOCK:    2.70 KCAL/MOL
REMARK 923 INTER-LIGAND FREE ENERGY PREDICTED BY IDOCK:    1.73 KCAL/MOL
REMARK 924 INTRA-LIGAND FREE ENERGY PREDICTED BY IDOCK:    0.97 KCAL/MOL
REMARK 927      BINDING AFFINITY PREDICTED BY RF-SCORE:    0.00 PKD
ROOT
HETATM    1  C   UNL     1     -10.910  13.107  63.136  1.00  0.00     1.005 C  
HETATM    2  C   UNL     1     -10.584  13.329  64.635  1.00  0.00    -0.404 C  
HETATM    3  C   UNL     1     -11.955  13.359  65.336  1.00  0.00    -0.419 C  
ENDROOT
BRANCH   2   4
HETATM    4  N   UNL     1      -9.632  12.311  65.178  1.00  0.00    -0.077 NA 
BRANCH   4   5
HETATM    5  C   UNL     1      -8.802  12.838  66.294  1.00  0.00     0.140 C  
BRANCH   5   6
HETATM    6  C   UNL     1      -8.875  12.114  67.653  1.00  0.00    -0.172 C  
HETATM    7  C   UNL     1      -8.991  13.017  68.923  1.00  0.00     0.315 C  
HETATM    8  C   UNL     1     -10.244  13.912  69.000  1.00  0.00    -0.071 A  
HETATM    9  C   UNL     1      -7.694  13.746  69.318  1.00  0.00     0.254 A  
HETATM   10  C   UNL     1      -6.893  13.405  70.419  1.00  0.00     0.811 A  
HETATM   11  C   UNL     1     -10.461  15.008  68.148  1.00  0.00    -0.245 A  
HETATM   12  O   UNL     1      -7.101  12.324  71.228  1.00  0.00     2.620 OA 
HETATM   13  C   UNL     1     -11.537  15.878  68.320  1.00  0.00    -0.274 A  
HETATM   14  C   UNL     1      -5.793  14.190  70.790  1.00  0.00    -0.203 A  
HETATM   15  C   UNL     1      -5.470  15.348  70.087  1.00  0.00    -0.131 A  
HETATM   16  C   UNL     1     -12.457  15.650  69.330  1.00  0.00     0.028 A  
HETATM   17  H   UNL     1      -6.558  12.093  71.973  1.00  0.00     0.000 HD 
HETATM   18  C   UNL     1      -6.229  15.710  68.984  1.00  0.00    -0.113 A  
HETATM   19  C   UNL     1     -12.296  14.545  70.168  1.00  0.00    -0.398 A  
HETATM   20  C   UNL     1     -11.198  13.688  70.005  1.00  0.00     0.054 A  
HETATM   21  C   UNL     1      -5.994  16.978  68.219  1.00  0.00    -0.134 C  
HETATM   22  C   UNL     1      -7.296  14.886  68.596  1.00  0.00    -0.120 A  
ENDBRANCH   5   6
ENDBRANCH   4   5
BRANCH   4  23
HETATM   23  C   UNL     1     -10.167  10.944  65.462  1.00  0.00    -0.271 C  
HETATM   24  C   UNL     1      -9.099   9.851  65.645  1.00  0.00    -0.220 C  
HETATM   25  C   UNL     1     -11.007  10.892  66.763  1.00  0.00    -0.248 C  
ENDBRANCH   4  23
ENDBRANCH   2   4
TORSDOF 4
ENDMDL
MODEL      238
REMARK 921   NORMALIZED FREE ENERGY PREDICTED BY IDOCK:    4.39 KCAL/MOL
REMARK 922        TOTAL FREE ENERGY PREDICTED BY IDOCK:    4.57 KCAL/MOL
REMARK 923 INTER-LIGAND FREE ENERGY PREDICTED BY IDOCK:    1.11 KCAL/MOL
REMARK 924 INTRA-LIGAND FREE ENERGY PREDICTED BY IDOCK:    3.46 KCAL/MOL
REMARK 927      BINDING AFFINITY PREDICTED BY RF-SCORE:    0.00 PKD
ROOT
HETATM    1  C   UNL     1      -9.325  15.114  65.023  1.00  0.00     0.971 C  
HETATM    2  C   UNL     1      -9.535  15.946  66.314  1.00  0.00    -0.318 C  
HETATM    3  C   UNL     1     -10.912  16.611  66.136  1.00  0.00     0.110 C  
ENDROOT
BRANCH   2   4
HETATM    4  N   UNL     1      -9.395  15.130  67.559  1.00  0.00    -0.196 NA 
BRANCH   4   5
HETATM    5  C   UNL     1      -8.647  13.864  67.336  1.00  0.00    -0.200 C  
BRANCH   5   6
HETATM    6  C   UNL     1      -8.046  13.616  65.938  1.00  0.00     2.432 C  
HETATM    7  C   UNL     1      -8.630  12.415  65.127  1.00  0.00     1.502 C  
HETATM    8  C   UNL     1     -10.131  12.498  64.789  1.00  0.00    -0.251 A  
HETATM    9  C   UNL     1      -8.191  11.025  65.624  1.00  0.00    -0.026 A  
HETATM   10  C   UNL     1      -7.272  10.197  64.961  1.00  0.00    -0.139 A  
HETATM   11  C   UNL     1     -11.145  12.393  65.757  1.00  0.00    -0.351 A  
HETATM   12  O   UNL     1      -6.571  10.549  63.842  1.00  0.00    -0.327 OA 
HETATM   13  C   UNL     1     -12.496  12.342  65.411  1.00  0.00    -0.010 A  
HETATM   14  C   UNL     1      -7.014   8.893  65.407  1.00  0.00    -0.080 A  
HETATM   15  C   UNL     1      -7.676   8.371  66.515  1.00  0.00    -0.089 A  
HETATM   16  C   UNL     1     -12.875  12.439  64.083  1.00  0.00    -0.364 A  
HETATM   17  H   UNL     1      -5.950   9.988  63.394  1.00  0.00     0.000 HD 
HETATM   18  C   UNL     1      -8.580   9.165  67.206  1.00  0.00    -0.118 A  
HETATM   19  C   UNL     1     -11.895  12.587  63.099  1.00  0.00    -0.346 A  
HETATM   20  C   UNL     1     -10.538  12.613  63.451  1.00  0.00    -0.169 A  
HETATM   21  C   UNL     1      -9.388   8.655  68.361  1.00  0.00    -0.141 C  
HETATM   22  C   UNL     1      -8.790  10.483  66.776  1.00  0.00    -0.139 A  
ENDBRANCH   5   6
ENDBRANCH   4   5
BRANCH   4  23
HETATM   23  C   UNL     1      -8.964  15.835  68.805  1.00  0.00    -0.214 C  
HETATM   24  C   UNL     1      -7.443  15.874  69.038  1.00  0.00    -0.194 C  
HETATM   25  C   UNL     1      -9.401  17.321  68.830  1.00  0.00    -0.239 C  
ENDBRANCH   4  23
ENDBRANCH   2   4
TORSDOF 4
ENDMDL
MODEL      239
REMARK 921   NORMALIZED FREE ENERGY PREDICTED BY IDOCK:    7.85 KCAL/MOL
REMARK 922        TOTAL FREE ENERGY PREDICTED BY IDOCK:    8.84 KCAL/MOL
REMARK 923 INTER-LIGAND FREE ENERGY PREDICTED BY IDOCK:    3.10 KCAL/MOL
REMARK 924 INTRA-LIGAND FREE ENERGY PREDICTED BY IDOCK:    5.74 KCAL/MOL
REMARK 927      BINDING AFFINITY PREDICTED BY RF-SCORE:    0.00 PKD
ROOT
HETATM    1  C   UNL     1      -8.469  16.701  65.400  1.00  0.00     1.522 C  
HETATM    2  C   UNL     1      -9.606  15.650  65.333  1.00  0.00    -0.085 C  
HETATM    3  C   UNL     1      -8.920  14.355  64.861  1.00  0.00     2.838 C  
ENDROOT
BRANCH   2   4
HETATM    4  N   UNL     1     -10.354  15.522  66.622  1.00  0.00    -0.279 NA 
BRANCH   4   5
HETATM    5  C   UNL     1     -11.119  16.750  66.968  1.00  0.00     0.175 C  
BRANCH   5   6
HETATM    6  C   UNL     1     -10.517  17.705  68.017  1.00  0.00    -0.395 C  
HETATM    7  C   UNL     1      -9.833  17.045  69.257  1.00  0.00    -0.126 C  
HETATM    8  C   UNL     1      -8.621  16.142  68.954  1.00  0.00    -0.245 A  
HETATM    9  C   UNL     1     -10.805  16.438  70.285  1.00  0.00    -0.218 A  
HETATM   10  C   UNL     1     -11.084  16.997  71.542  1.00  0.00     1.081 A  
HETATM   11  C   UNL     1      -8.727  14.903  68.298  1.00  0.00    -0.166 A  
HETATM   12  O   UNL     1     -10.611  18.200  71.982  1.00  0.00     2.032 OA 
HETATM   13  C   UNL     1      -7.636  14.047  68.151  1.00  0.00    -0.141 A  
HETATM   14  C   UNL     1     -11.886  16.325  72.475  1.00  0.00    -0.608 A  
HETATM   15  C   UNL     1     -12.416  15.070  72.191  1.00  0.00    -0.421 A  
HETATM   16  C   UNL     1      -6.390  14.427  68.620  1.00  0.00    -0.087 A  
HETATM   17  H   UNL     1     -10.800  18.578  72.832  1.00  0.00     0.000 HD 
HETATM   18  C   UNL     1     -12.174  14.491  70.954  1.00  0.00    -0.409 A  
HETATM   19  C   UNL     1      -6.239  15.670  69.238  1.00  0.00    -0.127 A  
HETATM   20  C   UNL     1      -7.345  16.516  69.405  1.00  0.00    -0.123 A  
HETATM   21  C   UNL     1     -12.645  13.112  70.598  1.00  0.00    -0.286 C  
HETATM   22  C   UNL     1     -11.412  15.198  70.013  1.00  0.00    -0.315 A  
ENDBRANCH   5   6
ENDBRANCH   4   5
BRANCH   4  23
HETATM   23  C   UNL     1     -11.149  14.275  66.840  1.00  0.00    -0.312 C  
HETATM   24  C   UNL     1     -10.353  13.085  67.405  1.00  0.00    -0.234 C  
HETATM   25  C   UNL     1     -12.312  14.478  67.844  1.00  0.00     0.031 C  
ENDBRANCH   4  23
ENDBRANCH   2   4
TORSDOF 4
ENDMDL
MODEL      240
REMARK 921   NORMALIZED FREE ENERGY PREDICTED BY IDOCK:    8.71 KCAL/MOL
REMARK 922        TOTAL FREE ENERGY PREDICTED BY IDOCK:    9.91 KCAL/MOL
REMARK 923 INTER-LIGAND FREE ENERGY PREDICTED BY IDOCK:    7.90 KCAL/MOL
REMARK 924 INTRA-LIGAND FREE ENERGY PREDICTED BY IDOCK:    2.01 KCAL/MOL
REMARK 927      BINDING AFFINITY PREDICTED BY RF-SCORE:    0.00 PKD
ROOT
HETATM    1  C   UNL     1      -6.206  12.779  69.652  1.00  0.00    -0.120 C  
HETATM    2  C   UNL     1      -6.310  12.947  68.115  1.00  0.00    -0.096 C  
HETATM    3  C   UNL     1      -6.904  11.618  67.612  1.00  0.00    -0.094 C  
ENDROOT
BRANCH   2   4
HETATM    4  N   UNL     1      -7.084  14.163  67.715  1.00  0.00    -0.159 NA 
BRANCH   4   5
HETATM    5  C   UNL     1      -7.667  14.882  68.879  1.00  0.00    -0.148 C  
BRANCH   5   6
HETATM    6  C   UNL     1      -8.774  14.175  69.685  1.00  0.00     0.844 C  
HETATM    7  C   UNL     1     -10.062  13.768  68.900  1.00  0.00    -0.075 C  
HETATM    8  C   UNL     1      -9.859  12.769  67.745  1.00  0.00    -0.220 A  
HETATM    9  C   UNL     1     -10.996  14.938  68.539  1.00  0.00    -0.260 A  
HETATM   10  C   UNL     1     -12.228  15.193  69.160  1.00  0.00    -0.150 A  
HETATM   11  C   UNL     1      -9.184  13.094  66.555  1.00  0.00    -0.185 A  
HETATM   12  O   UNL     1     -12.720  14.501  70.230  1.00  0.00    -0.434 OA 
HETATM   13  C   UNL     1      -9.125  12.215  65.473  1.00  0.00     0.204 A  
HETATM   14  C   UNL     1     -13.081  16.204  68.695  1.00  0.00     2.939 A  
HETATM   15  C   UNL     1     -12.740  16.977  67.589  1.00  0.00     4.193 A  
HETATM   16  C   UNL     1      -9.705  10.961  65.568  1.00  0.00    -0.282 A  
HETATM   17  H   UNL     1     -13.554  14.674  70.650  1.00  0.00     0.000 HD 
HETATM   18  C   UNL     1     -11.523  16.764  66.958  1.00  0.00     0.709 A  
HETATM   19  C   UNL     1     -10.345  10.589  66.751  1.00  0.00    -0.301 A  
HETATM   20  C   UNL     1     -10.423  11.486  67.826  1.00  0.00    -0.216 A  
HETATM   21  C   UNL     1     -11.114  17.501  65.717  1.00  0.00     0.423 C  
HETATM   22  C   UNL     1     -10.659  15.783  67.465  1.00  0.00    -0.309 A  
ENDBRANCH   5   6
ENDBRANCH   4   5
BRANCH   4  23
HETATM   23  C   UNL     1      -6.451  15.093  66.730  1.00  0.00     1.283 C  
HETATM   24  C   UNL     1      -7.337  16.269  66.282  1.00  0.00     0.227 C  
HETATM   25  C   UNL     1      -5.166  15.760  67.280  1.00  0.00     0.122 C  
ENDBRANCH   4  23
ENDBRANCH   2   4
TORSDOF 4
ENDMDL
MODEL      241
REMARK 921   NORMALIZED FREE ENERGY PREDICTED BY IDOCK:    8.74 KCAL/MOL
REMARK 922        TOTAL FREE ENERGY PREDICTED BY IDOCK:    9.94 KCAL/MOL
REMARK 923 INTER-LIGAND FREE ENERGY PREDICTED BY IDOCK:    5.13 KCAL/MOL
REMARK 924 INTRA-LIGAND FREE ENERGY PREDICTED BY IDOCK:    4.82 KCAL/MOL
REMARK 927      BINDING AFFINITY PREDICTED BY RF-SCORE:    0.00 PKD
ROOT
HETATM    1  C   UNL     1     -11.219  14.268  69.206  1.00  0.00    -0.309 C  
HETATM    2  C   UNL     1     -10.481  15.245  68.255  1.00  0.00    -0.244 C  
HETATM    3  C   UNL     1     -10.832  16.648  68.781  1.00  0.00    -0.331 C  
ENDROOT
BRANCH   2   4
HETATM    4  N   UNL     1      -9.015  14.965  68.161  1.00  0.00    -0.171 NA 
BRANCH   4   5
HETATM    5  C   UNL     1      -8.643  13.644  68.733  1.00  0.00     0.063 C  
BRANCH   5   6
HETATM    6  C   UNL     1      -9.685  12.510  68.671  1.00  0.00    -0.057 C  
HETATM    7  C   UNL     1      -9.976  11.900  67.262  1.00  0.00    -0.200 C  
HETATM    8  C   UNL     1      -8.777  11.234  66.558  1.00  0.00    -0.178 A  
HETATM    9  C   UNL     1     -10.811  12.795  66.330  1.00  0.00    -0.294 A  
HETATM   10  C   UNL     1     -12.156  12.564  65.999  1.00  0.00    -0.321 A  
HETATM   11  C   UNL     1      -7.675  11.954  66.067  1.00  0.00     0.612 A  
HETATM   12  O   UNL     1     -12.930  11.574  66.534  1.00  0.00     3.125 OA 
HETATM   13  C   UNL     1      -6.666  11.345  65.321  1.00  0.00     1.071 A  
HETATM   14  C   UNL     1     -12.817  13.352  65.047  1.00  0.00    -0.344 A  
HETATM   15  C   UNL     1     -12.154  14.381  64.384  1.00  0.00    -0.491 A  
HETATM   16  C   UNL     1      -6.709   9.982  65.080  1.00  0.00    -0.126 A  
HETATM   17  H   UNL     1     -13.840  11.418  66.311  1.00  0.00     0.000 HD 
HETATM   18  C   UNL     1     -10.829  14.650  64.695  1.00  0.00    -0.332 A  
HETATM   19  C   UNL     1      -7.767   9.229  65.590  1.00  0.00    -0.095 A  
HETATM   20  C   UNL     1      -8.792   9.851  66.319  1.00  0.00    -0.160 A  
HETATM   21  C   UNL     1     -10.023  15.689  63.974  1.00  0.00     4.052 C  
HETATM   22  C   UNL     1     -10.197  13.884  65.685  1.00  0.00    -0.344 A  
ENDBRANCH   5   6
ENDBRANCH   4   5
BRANCH   4  23
HETATM   23  C   UNL     1      -8.342  15.229  66.852  1.00  0.00    -0.243 C  
HETATM   24  C   UNL     1      -8.452  16.677  66.343  1.00  0.00    -0.348 C  
HETATM   25  C   UNL     1      -6.820  14.945  66.897  1.00  0.00     0.790 C  
ENDBRANCH   4  23
ENDBRANCH   2   4
TORSDOF 4
ENDMDL
MODEL      242
REMARK 921   NORMALIZED FREE ENERGY PREDICTED BY IDOCK:   10.56 KCAL/MOL
REMARK 922        TOTAL FREE ENERGY PREDICTED BY IDOCK:   12.18 KCAL/MOL
REMARK 923 INTER-LIGAND FREE ENERGY PREDICTED BY IDOCK:   10.71 KCAL/MOL
REMARK 924 INTRA-LIGAND FREE ENERGY PREDICTED BY IDOCK:    1.48 KCAL/MOL
REMARK 927      BINDING AFFINITY PREDICTED BY RF-SCORE:    0.00 PKD
ROOT
HETATM    1  C   UNL     1      -8.617  20.226  69.477  1.00  0.00     0.885 C  
HETATM    2  C   UNL     1      -7.401  19.419  68.953  1.00  0.00    -0.367 C  
HETATM    3  C   UNL     1      -6.285  20.463  68.768  1.00  0.00    -0.357 C  
ENDROOT
BRANCH   2   4
HETATM    4  N   UNL     1      -7.038  18.274  69.843  1.00  0.00     0.374 NA 
BRANCH   4   5
HETATM    5  C   UNL     1      -8.186  17.792  70.658  1.00  0.00     4.846 C  
BRANCH   5   6
HETATM    6  C   UNL     1      -9.529  18.536  70.524  1.00  0.00     2.787 C  
HETATM    7  C   UNL     1     -10.669  17.795  69.754  1.00  0.00     0.842 C  
HETATM    8  C   UNL     1     -11.134  16.459  70.365  1.00  0.00    -0.246 A  
HETATM    9  C   UNL     1     -10.485  17.737  68.227  1.00  0.00    -0.368 A  
HETATM   10  C   UNL     1     -11.230  18.492  67.307  1.00  0.00     0.339 A  
HETATM   11  C   UNL     1     -10.336  15.301  70.385  1.00  0.00    -0.088 A  
HETATM   12  O   UNL     1     -12.145  19.448  67.644  1.00  0.00     1.369 OA 
HETATM   13  C   UNL     1     -10.826  14.072  70.826  1.00  0.00     1.217 A  
HETATM   14  C   UNL     1     -11.093  18.298  65.925  1.00  0.00     0.482 A  
HETATM   15  C   UNL     1     -10.225  17.333  65.421  1.00  0.00     0.099 A  
HETATM   16  C   UNL     1     -12.123  13.974  71.303  1.00  0.00    -0.307 A  
HETATM   17  H   UNL     1     -12.649  19.959  67.021  1.00  0.00     0.000 HD 
HETATM   18  C   UNL     1      -9.460  16.578  66.298  1.00  0.00    -0.339 A  
HETATM   19  C   UNL     1     -12.929  15.113  71.337  1.00  0.00    -0.476 A  
HETATM   20  C   UNL     1     -12.439  16.341  70.869  1.00  0.00     0.442 A  
HETATM   21  C   UNL     1      -8.559  15.470  65.840  1.00  0.00     0.365 C  
HETATM   22  C   UNL     1      -9.573  16.820  67.675  1.00  0.00    -0.244 A  
ENDBRANCH   5   6
ENDBRANCH   4   5
BRANCH   4  23
HETATM   23  C   UNL     1      -6.256  17.151  69.242  1.00  0.00    -0.224 C  
HETATM   24  C   UNL     1      -6.965  15.785  69.250  1.00  0.00    -0.186 C  
HETATM   25  C   UNL     1      -5.904  17.399  67.754  1.00  0.00    -0.137 C  
ENDBRANCH   4  23
ENDBRANCH   2   4
TORSDOF 4
ENDMDL
MODEL      243
REMARK 921   NORMALIZED FREE ENERGY PREDICTED BY IDOCK:   12.58 KCAL/MOL
REMARK 922        TOTAL FREE ENERGY PREDICTED BY IDOCK:   14.68 KCAL/MOL
REMARK 923 INTER-LIGAND FREE ENERGY PREDICTED BY IDOCK:   12.11 KCAL/MOL
REMARK 924 INTRA-LIGAND FREE ENERGY PREDICTED BY IDOCK:    2.57 KCAL/MOL
REMARK 927      BINDING AFFINITY PREDICTED BY RF-SCORE:    0.00 PKD
ROOT
HETATM    1  C   UNL     1     -12.279   5.328  70.019  1.00  0.00     5.253 C  
HETATM    2  C   UNL     1     -10.896   5.707  70.608  1.00  0.00    -0.234 C  
HETATM    3  C   UNL     1     -10.479   4.488  71.452  1.00  0.00    -0.029 C  
ENDROOT
BRANCH   2   4
HETATM    4  N   UNL     1      -9.907   6.103  69.559  1.00  0.00    -0.155 NA 
BRANCH   4   5
HETATM    5  C   UNL     1     -10.455   7.098  68.598  1.00  0.00    -0.197 C  
BRANCH   5   6
HETATM    6  C   UNL     1     -10.314   6.802  67.092  1.00  0.00    -0.327 C  
HETATM    7  C   UNL     1      -9.507   7.838  66.246  1.00  0.00    -0.201 C  
HETATM    8  C   UNL     1      -8.031   8.028  66.646  1.00  0.00    -0.102 A  
HETATM    9  C   UNL     1     -10.241   9.163  65.974  1.00  0.00    -0.093 A  
HETATM   10  C   UNL     1     -10.782   9.533  64.732  1.00  0.00     2.885 A  
HETATM   11  C   UNL     1      -7.630   8.634  67.850  1.00  0.00    -0.098 A  
HETATM   12  O   UNL     1     -10.817   8.730  63.628  1.00  0.00     6.307 OA 
HETATM   13  C   UNL     1      -6.292   8.910  68.130  1.00  0.00    -0.055 A  
HETATM   14  C   UNL     1     -11.329  10.807  64.527  1.00  0.00     0.792 A  
HETATM   15  C   UNL     1     -11.336  11.756  65.546  1.00  0.00    -0.283 A  
HETATM   16  C   UNL     1      -5.306   8.547  67.228  1.00  0.00    -0.037 A  
HETATM   17  H   UNL     1     -11.182   8.981  62.788  1.00  0.00     0.000 HD 
HETATM   18  C   UNL     1     -10.825  11.423  66.792  1.00  0.00    -0.336 A  
HETATM   19  C   UNL     1      -5.665   7.904  66.042  1.00  0.00    -0.037 A  
HETATM   20  C   UNL     1      -7.014   7.651  65.754  1.00  0.00    -0.060 A  
HETATM   21  C   UNL     1     -10.727  12.408  67.918  1.00  0.00    -0.245 C  
HETATM   22  C   UNL     1     -10.327  10.128  66.995  1.00  0.00    -0.303 A  
ENDBRANCH   5   6
ENDBRANCH   4   5
BRANCH   4  23
HETATM   23  C   UNL     1      -8.523   6.446  70.006  1.00  0.00    -0.135 C  
HETATM   24  C   UNL     1      -7.396   5.705  69.266  1.00  0.00    -0.074 C  
HETATM   25  C   UNL     1      -8.191   7.948  69.819  1.00  0.00    -0.121 C  
ENDBRANCH   4  23
ENDBRANCH   2   4
TORSDOF 4
ENDMDL
MODEL      244
REMARK 921   NORMALIZED FREE ENERGY PREDICTED BY IDOCK:   15.43 KCAL/MOL
REMARK 922        TOTAL FREE ENERGY PREDICTED BY IDOCK:   18.19 KCAL/MOL
REMARK 923 INTER-LIGAND FREE ENERGY PREDICTED BY IDOCK:   11.64 KCAL/MOL
REMARK 924 INTRA-LIGAND FREE ENERGY PREDICTED BY IDOCK:    6.55 KCAL/MOL
REMARK 927      BINDING AFFINITY PREDICTED BY RF-SCORE:    0.00 PKD
ROOT
HETATM    1  C   UNL     1      -8.452  16.716  65.383  1.00  0.00     1.522 C  
HETATM    2  C   UNL     1      -9.626  15.704  65.371  1.00  0.00    -0.085 C  
HETATM    3  C   UNL     1      -8.986  14.362  64.970  1.00  0.00     2.411 C  
ENDROOT
BRANCH   2   4
HETATM    4  N   UNL     1     -10.378  15.672  66.663  1.00  0.00    -0.282 NA 
BRANCH   4   5
HETATM    5  C   UNL     1     -10.005  16.787  67.574  1.00  0.00    -0.266 C  
BRANCH   5   6
HETATM    6  C   UNL     1      -9.058  16.475  68.749  1.00  0.00    -0.256 C  
HETATM    7  C   UNL     1      -9.324  15.148  69.530  1.00  0.00    -0.139 C  
HETATM    8  C   UNL     1      -9.207  13.849  68.709  1.00  0.00    -0.013 A  
HETATM    9  C   UNL     1     -10.553  15.177  70.456  1.00  0.00    -0.127 A  
HETATM   10  C   UNL     1     -10.494  15.239  71.857  1.00  0.00     1.252 A  
HETATM   11  C   UNL     1     -10.121  13.490  67.702  1.00  0.00    -0.229 A  
HETATM   12  O   UNL     1      -9.345  15.380  72.582  1.00  0.00     4.882 OA 
HETATM   13  C   UNL     1     -10.068  12.251  67.063  1.00  0.00    -0.225 A  
HETATM   14  C   UNL     1     -11.652  15.138  72.640  1.00  0.00    -0.419 A  
HETATM   15  C   UNL     1     -12.900  14.955  72.051  1.00  0.00    -0.399 A  
HETATM   16  C   UNL     1      -9.068  11.349  67.383  1.00  0.00    -0.160 A  
HETATM   17  H   UNL     1      -9.304  15.421  73.530  1.00  0.00     0.000 HD 
HETATM   18  C   UNL     1     -13.002  14.905  70.669  1.00  0.00    -0.389 A  
HETATM   19  C   UNL     1      -8.119  11.690  68.347  1.00  0.00    -0.153 A  
HETATM   20  C   UNL     1      -8.191  12.927  69.004  1.00  0.00     0.385 A  
HETATM   21  C   UNL     1     -14.296  14.635  69.960  1.00  0.00     2.989 C  
HETATM   22  C   UNL     1     -11.840  15.057  69.899  1.00  0.00    -0.362 A  
ENDBRANCH   5   6
ENDBRANCH   4   5
BRANCH   4  23
HETATM   23  C   UNL     1     -11.857  15.459  66.599  1.00  0.00     0.279 C  
HETATM   24  C   UNL     1     -12.300  13.988  66.511  1.00  0.00    -0.442 C  
HETATM   25  C   UNL     1     -12.593  16.015  67.843  1.00  0.00     1.866 C  
ENDBRANCH   4  23
ENDBRANCH   2   4
TORSDOF 4
ENDMDL
MODEL      245
REMARK 921   NORMALIZED FREE ENERGY PREDICTED BY IDOCK:   16.05 KCAL/MOL
REMARK 922        TOTAL FREE ENERGY PREDICTED BY IDOCK:   18.96 KCAL/MOL
REMARK 923 INTER-LIGAND FREE ENERGY PREDICTED BY IDOCK:   15.45 KCAL/MOL
REMARK 924 INTRA-LIGAND FREE ENERGY PREDICTED BY IDOCK:    3.51 KCAL/MOL
REMARK 927      BINDING AFFINITY PREDICTED BY RF-SCORE:    0.00 PKD
ROOT
HETATM    1  C   UNL     1      -6.387  16.560  64.502  1.00  0.00     8.938 C  
HETATM    2  C   UNL     1      -7.315  16.588  65.743  1.00  0.00     1.226 C  
HETATM    3  C   UNL     1      -8.306  17.734  65.470  1.00  0.00     0.881 C  
ENDROOT
BRANCH   2   4
HETATM    4  N   UNL     1      -7.956  15.265  66.017  1.00  0.00     0.943 NA 
BRANCH   4   5
HETATM    5  C   UNL     1      -7.106  14.375  66.852  1.00  0.00     0.870 C  
BRANCH   5   6
HETATM    6  C   UNL     1      -7.329  14.384  68.377  1.00  0.00    -0.117 C  
HETATM    7  C   UNL     1      -7.884  13.070  69.013  1.00  0.00     0.248 C  
HETATM    8  C   UNL     1      -6.997  11.820  68.856  1.00  0.00    -0.109 A  
HETATM    9  C   UNL     1      -9.375  12.799  68.741  1.00  0.00     0.137 A  
HETATM   10  C   UNL     1     -10.395  12.933  69.696  1.00  0.00     0.920 A  
HETATM   11  C   UNL     1      -6.777  11.181  67.623  1.00  0.00    -0.071 A  
HETATM   12  O   UNL     1     -10.219  13.415  70.962  1.00  0.00     3.663 OA 
HETATM   13  C   UNL     1      -6.076   9.979  67.527  1.00  0.00    -0.058 A  
HETATM   14  C   UNL     1     -11.714  12.551  69.410  1.00  0.00    -0.383 A  
HETATM   15  C   UNL     1     -12.050  12.007  68.174  1.00  0.00    -0.040 A  
HETATM   16  C   UNL     1      -5.535   9.400  68.662  1.00  0.00    -0.037 A  
HETATM   17  H   UNL     1     -10.910  13.506  71.607  1.00  0.00     0.000 HD 
HETATM   18  C   UNL     1     -11.072  11.873  67.199  1.00  0.00    -0.347 A  
HETATM   19  C   UNL     1      -5.696  10.030  69.897  1.00  0.00    -0.043 A  
HETATM   20  C   UNL     1      -6.423  11.226  69.992  1.00  0.00    -0.114 A  
HETATM   21  C   UNL     1     -11.334  11.229  65.871  1.00  0.00     0.008 C  
HETATM   22  C   UNL     1      -9.768  12.306  67.484  1.00  0.00    -0.190 A  
ENDBRANCH   5   6
ENDBRANCH   4   5
BRANCH   4  23
HETATM   23  C   UNL     1      -9.385  15.266  66.459  1.00  0.00    -0.281 C  
HETATM   24  C   UNL     1      -9.605  15.579  67.950  1.00  0.00    -0.206 C  
HETATM   25  C   UNL     1     -10.239  16.318  65.709  1.00  0.00    -0.390 C  
ENDBRANCH   4  23
ENDBRANCH   2   4
TORSDOF 4
ENDMDL
MODEL      246
REMARK 921   NORMALIZED FREE ENERGY PREDICTED BY IDOCK:   19.53 KCAL/MOL
REMARK 922        TOTAL FREE ENERGY PREDICTED BY IDOCK:   23.26 KCAL/MOL
REMARK 923 INTER-LIGAND FREE ENERGY PREDICTED BY IDOCK:   -0.98 KCAL/MOL
REMARK 924 INTRA-LIGAND FREE ENERGY PREDICTED BY IDOCK:   24.24 KCAL/MOL
REMARK 927      BINDING AFFINITY PREDICTED BY RF-SCORE:    0.00 PKD
ROOT
HETATM    1  C   UNL     1      -9.474   7.715  64.972  1.00  0.00     1.269 C  
HETATM    2  C   UNL     1      -8.472   8.467  65.886  1.00  0.00    -0.148 C  
HETATM    3  C   UNL     1      -9.191   8.591  67.242  1.00  0.00    -0.168 C  
ENDROOT
BRANCH   2   4
HETATM    4  N   UNL     1      -7.135   7.800  65.952  1.00  0.00    -0.064 NA 
BRANCH   4   5
HETATM    5  C   UNL     1      -6.010   8.741  65.704  1.00  0.00    -0.051 C  
BRANCH   5   6
HETATM    6  C   UNL     1      -5.354   9.421  66.922  1.00  0.00    -0.039 C  
HETATM    7  C   UNL     1      -6.319  10.047  67.980  1.00  0.00    -0.054 C  
HETATM    8  C   UNL     1      -7.281   9.065  68.677  1.00  0.00    -0.072 A  
HETATM    9  C   UNL     1      -6.995  11.358  67.542  1.00  0.00    -0.101 A  
HETATM   10  C   UNL     1      -6.662  12.629  68.036  1.00  0.00    -0.095 A  
HETATM   11  C   UNL     1      -8.348   8.432  68.015  1.00  0.00    -0.128 A  
HETATM   12  O   UNL     1      -5.631  12.885  68.895  1.00  0.00    -0.069 OA 
HETATM   13  C   UNL     1      -9.281   7.649  68.695  1.00  0.00    -0.141 A  
HETATM   14  C   UNL     1      -7.404  13.765  67.682  1.00  0.00    -0.182 A  
HETATM   15  C   UNL     1      -8.509  13.665  66.842  1.00  0.00    -0.073 A  
HETATM   16  C   UNL     1      -9.147   7.441  70.058  1.00  0.00    -0.148 A  
HETATM   17  H   UNL     1      -5.406  13.745  69.229  1.00  0.00     0.000 HD 
HETATM   18  C   UNL     1      -8.861  12.428  66.322  1.00  0.00     0.021 A  
HETATM   19  C   UNL     1      -8.075   8.019  70.739  1.00  0.00    -0.101 A  
HETATM   20  C   UNL     1      -7.154   8.825  70.054  1.00  0.00    -0.047 A  
HETATM   21  C   UNL     1     -10.079  12.223  65.472  1.00  0.00    -0.279 C  
HETATM   22  C   UNL     1      -8.078  11.310  66.645  1.00  0.00    -0.160 A  
ENDBRANCH   5   6
ENDBRANCH   4   5
BRANCH   4  23
HETATM   23  C   UNL     1      -6.871   6.890  67.109  1.00  0.00    -0.072 C  
HETATM   24  C   UNL     1      -6.657   5.411  66.738  1.00  0.00    -0.056 C  
HETATM   25  C   UNL     1      -5.598   7.283  67.898  1.00  0.00    -0.025 C  
ENDBRANCH   4  23
ENDBRANCH   2   4
TORSDOF 4
ENDMDL
MODEL      247
REMARK 921   NORMALIZED FREE ENERGY PREDICTED BY IDOCK:   22.08 KCAL/MOL
REMARK 922        TOTAL FREE ENERGY PREDICTED BY IDOCK:   26.40 KCAL/MOL
REMARK 923 INTER-LIGAND FREE ENERGY PREDICTED BY IDOCK:   23.38 KCAL/MOL
REMARK 924 INTRA-LIGAND FREE ENERGY PREDICTED BY IDOCK:    3.02 KCAL/MOL
REMARK 927      BINDING AFFINITY PREDICTED BY RF-SCORE:    0.00 PKD
ROOT
HETATM    1  C   UNL     1     -12.651  15.246  70.509  1.00  0.00    -0.450 C  
HETATM    2  C   UNL     1     -12.367  14.885  69.028  1.00  0.00    -0.034 C  
HETATM    3  C   UNL     1     -12.742  16.150  68.235  1.00  0.00     2.032 C  
ENDROOT
BRANCH   2   4
HETATM    4  N   UNL     1     -10.968  14.405  68.807  1.00  0.00    -0.241 NA 
BRANCH   4   5
HETATM    5  C   UNL     1     -10.913  13.014  68.285  1.00  0.00    -0.260 C  
BRANCH   5   6
HETATM    6  C   UNL     1     -10.500  12.810  66.814  1.00  0.00    -0.253 C  
HETATM    7  C   UNL     1      -9.072  12.229  66.560  1.00  0.00    -0.188 C  
HETATM    8  C   UNL     1      -8.805  10.825  67.135  1.00  0.00    -0.135 A  
HETATM    9  C   UNL     1      -7.919  13.219  66.805  1.00  0.00     0.303 A  
HETATM   10  C   UNL     1      -7.157  13.819  65.790  1.00  0.00     6.495 A  
HETATM   11  C   UNL     1      -8.714  10.561  68.514  1.00  0.00    -0.140 A  
HETATM   12  O   UNL     1      -7.397  13.685  64.452  1.00  0.00    11.989 OA 
HETATM   13  C   UNL     1      -8.345   9.309  69.005  1.00  0.00    -0.123 A  
HETATM   14  C   UNL     1      -6.043  14.615  66.091  1.00  0.00     5.597 A  
HETATM   15  C   UNL     1      -5.644  14.821  67.409  1.00  0.00     0.315 A  
HETATM   16  C   UNL     1      -8.096   8.267  68.128  1.00  0.00    -0.124 A  
HETATM   17  H   UNL     1      -6.881  14.091  63.766  1.00  0.00     0.000 HD 
HETATM   18  C   UNL     1      -6.381  14.257  68.440  1.00  0.00    -0.101 A  
HETATM   19  C   UNL     1      -8.219   8.482  66.755  1.00  0.00    -0.105 A  
HETATM   20  C   UNL     1      -8.567   9.749  66.265  1.00  0.00    -0.137 A  
HETATM   21  C   UNL     1      -5.977  14.367  69.880  1.00  0.00    -0.132 C  
HETATM   22  C   UNL     1      -7.522  13.504  68.124  1.00  0.00    -0.132 A  
ENDBRANCH   5   6
ENDBRANCH   4   5
BRANCH   4  23
HETATM   23  C   UNL     1     -10.027  15.320  68.090  1.00  0.00    -0.221 C  
HETATM   24  C   UNL     1     -10.170  15.331  66.558  1.00  0.00    -0.282 C  
HETATM   25  C   UNL     1     -10.202  16.802  68.508  1.00  0.00    -0.298 C  
ENDBRANCH   4  23
ENDBRANCH   2   4
TORSDOF 4
ENDMDL
MODEL      248
REMARK 921   NORMALIZED FREE ENERGY PREDICTED BY IDOCK:   24.02 KCAL/MOL
REMARK 922        TOTAL FREE ENERGY PREDICTED BY IDOCK:   28.79 KCAL/MOL
REMARK 923 INTER-LIGAND FREE ENERGY PREDICTED BY IDOCK:    4.58 KCAL/MOL
REMARK 924 INTRA-LIGAND FREE ENERGY PREDICTED BY IDOCK:   24.21 KCAL/MOL
REMARK 927      BINDING AFFINITY PREDICTED BY RF-SCORE:    0.00 PKD
ROOT
HETATM    1  C   UNL     1      -8.595  18.821  70.313  1.00  0.00     2.280 C  
HETATM    2  C   UNL     1      -8.409  17.455  69.603  1.00  0.00     0.938 C  
HETATM    3  C   UNL     1      -7.263  16.766  70.367  1.00  0.00     1.888 C  
ENDROOT
BRANCH   2   4
HETATM    4  N   UNL     1      -9.674  16.662  69.533  1.00  0.00    -0.080 NA 
BRANCH   4   5
HETATM    5  C   UNL     1     -10.874  17.510  69.305  1.00  0.00     0.309 C  
BRANCH   5   6
HETATM    6  C   UNL     1     -11.054  18.147  67.913  1.00  0.00     0.103 C  
HETATM    7  C   UNL     1     -10.408  17.393  66.707  1.00  0.00    -0.305 C  
HETATM    8  C   UNL     1     -10.933  15.968  66.445  1.00  0.00    -0.070 A  
HETATM    9  C   UNL     1      -8.875  17.505  66.621  1.00  0.00    -0.284 A  
HETATM   10  C   UNL     1      -8.185  18.282  65.678  1.00  0.00     0.519 A  
HETATM   11  C   UNL     1     -10.688  14.886  67.309  1.00  0.00    -0.294 A  
HETATM   12  O   UNL     1      -8.777  19.119  64.775  1.00  0.00     2.129 OA 
HETATM   13  C   UNL     1     -11.063  13.582  66.987  1.00  0.00    -0.310 A  
HETATM   14  C   UNL     1      -6.787  18.239  65.581  1.00  0.00    -0.264 A  
HETATM   15  C   UNL     1      -6.038  17.407  66.408  1.00  0.00    -0.256 A  
HETATM   16  C   UNL     1     -11.736  13.327  65.804  1.00  0.00    -0.395 A  
HETATM   17  H   UNL     1      -8.310  19.645  64.137  1.00  0.00     0.000 HD 
HETATM   18  C   UNL     1      -6.682  16.635  67.363  1.00  0.00    -0.199 A  
HETATM   19  C   UNL     1     -12.035  14.385  64.943  1.00  0.00    -0.430 A  
HETATM   20  C   UNL     1     -11.634  15.691  65.261  1.00  0.00     0.081 A  
HETATM   21  C   UNL     1      -5.957  15.658  68.241  1.00  0.00    -0.117 C  
HETATM   22  C   UNL     1      -8.077  16.727  67.480  1.00  0.00    -0.188 A  
ENDBRANCH   5   6
ENDBRANCH   4   5
BRANCH   4  23
HETATM   23  C   UNL     1      -9.675  15.433  68.681  1.00  0.00    -0.210 C  
HETATM   24  C   UNL     1      -8.557  14.423  68.993  1.00  0.00     0.005 C  
HETATM   25  C   UNL     1     -10.986  14.618  68.811  1.00  0.00    -0.268 C  
ENDBRANCH   4  23
ENDBRANCH   2   4
TORSDOF 4
ENDMDL
MODEL      249
REMARK 921   NORMALIZED FREE ENERGY PREDICTED BY IDOCK:   42.51 KCAL/MOL
REMARK 922        TOTAL FREE ENERGY PREDICTED BY IDOCK:   51.61 KCAL/MOL
REMARK 923 INTER-LIGAND FREE ENERGY PREDICTED BY IDOCK:   33.63 KCAL/MOL
REMARK 924 INTRA-LIGAND FREE ENERGY PREDICTED BY IDOCK:   17.98 KCAL/MOL
REMARK 927      BINDING AFFINITY PREDICTED BY RF-SCORE:    0.00 PKD
ROOT
HETATM    1  C   UNL     1      -8.003  16.632  65.347  1.00  0.00     2.063 C  
HETATM    2  C   UNL     1      -9.437  16.267  65.810  1.00  0.00    -0.194 C  
HETATM    3  C   UNL     1      -9.904  15.178  64.826  1.00  0.00     0.382 C  
ENDROOT
BRANCH   2   4
HETATM    4  N   UNL     1      -9.498  15.869  67.250  1.00  0.00    -0.211 NA 
BRANCH   4   5
HETATM    5  C   UNL     1      -8.161  15.861  67.902  1.00  0.00    -0.141 C  
BRANCH   5   6
HETATM    6  C   UNL     1      -7.762  14.615  68.717  1.00  0.00    -0.137 C  
HETATM    7  C   UNL     1      -8.928  13.748  69.291  1.00  0.00     0.597 C  
HETATM    8  C   UNL     1      -9.877  13.124  68.250  1.00  0.00    -0.227 A  
HETATM    9  C   UNL     1      -9.663  14.368  70.493  1.00  0.00     1.856 A  
HETATM   10  C   UNL     1      -9.536  13.924  71.819  1.00  0.00     9.058 A  
HETATM   11  C   UNL     1     -10.767  13.880  67.466  1.00  0.00    -0.271 A  
HETATM   12  O   UNL     1      -8.672  12.951  72.235  1.00  0.00    15.489 OA 
HETATM   13  C   UNL     1     -11.705  13.282  66.625  1.00  0.00    -0.425 A  
HETATM   14  C   UNL     1     -10.330  14.457  72.844  1.00  0.00     5.028 A  
HETATM   15  C   UNL     1     -11.285  15.433  72.576  1.00  0.00    -0.134 A  
HETATM   16  C   UNL     1     -11.751  11.903  66.509  1.00  0.00    -0.247 A  
HETATM   17  H   UNL     1      -8.586  12.650  73.132  1.00  0.00     0.000 HD 
HETATM   18  C   UNL     1     -11.430  15.908  71.281  1.00  0.00    -0.489 A  
HETATM   19  C   UNL     1     -10.853  11.123  67.239  1.00  0.00    -0.326 A  
HETATM   20  C   UNL     1      -9.928  11.729  68.102  1.00  0.00    -0.196 A  
HETATM   21  C   UNL     1     -12.484  16.903  70.896  1.00  0.00     3.258 C  
HETATM   22  C   UNL     1     -10.594  15.401  70.276  1.00  0.00    -0.299 A  
ENDBRANCH   5   6
ENDBRANCH   4   5
BRANCH   4  23
HETATM   23  C   UNL     1     -10.543  16.513  68.103  1.00  0.00    -0.329 C  
HETATM   24  C   UNL     1     -11.469  15.535  68.848  1.00  0.00    -0.362 C  
HETATM   25  C   UNL     1      -9.938  17.403  69.217  1.00  0.00    -0.116 C  
ENDBRANCH   4  23
ENDBRANCH   2   4
TORSDOF 4
ENDMDL
MODEL      250
REMARK 921   NORMALIZED FREE ENERGY PREDICTED BY IDOCK:   51.56 KCAL/MOL
REMARK 922        TOTAL FREE ENERGY PREDICTED BY IDOCK:   62.78 KCAL/MOL
REMARK 923 INTER-LIGAND FREE ENERGY PREDICTED BY IDOCK:   33.73 KCAL/MOL
REMARK 924 INTRA-LIGAND FREE ENERGY PREDICTED BY IDOCK:   29.05 KCAL/MOL
REMARK 927      BINDING AFFINITY PREDICTED BY RF-SCORE:    0.00 PKD
ROOT
HETATM    1  C   UNL     1     -11.474  15.033  68.203  1.00  0.00    -0.355 C  
HETATM    2  C   UNL     1     -11.543  14.317  69.576  1.00  0.00    -0.301 C  
HETATM    3  C   UNL     1     -10.278  14.773  70.324  1.00  0.00     0.302 C  
ENDROOT
BRANCH   2   4
HETATM    4  N   UNL     1     -12.823  14.581  70.303  1.00  0.00    -0.280 NA 
BRANCH   4   5
HETATM    5  C   UNL     1     -13.733  15.490  69.556  1.00  0.00     2.458 C  
BRANCH   5   6
HETATM    6  C   UNL     1     -13.411  16.998  69.561  1.00  0.00     7.477 C  
HETATM    7  C   UNL     1     -12.010  17.415  70.113  1.00  0.00     3.925 C  
HETATM    8  C   UNL     1     -10.793  16.859  69.347  1.00  0.00    -0.186 A  
HETATM    9  C   UNL     1     -11.863  17.321  71.642  1.00  0.00     2.076 A  
HETATM   10  C   UNL     1     -11.821  18.427  72.507  1.00  0.00     5.334 A  
HETATM   11  C   UNL     1     -10.437  15.499  69.348  1.00  0.00    -0.253 A  
HETATM   12  O   UNL     1     -12.001  19.724  72.121  1.00  0.00     9.157 OA 
HETATM   13  C   UNL     1      -9.261  15.041  68.755  1.00  0.00    -0.200 A  
HETATM   14  C   UNL     1     -11.562  18.270  73.876  1.00  0.00     1.524 A  
HETATM   15  C   UNL     1     -11.321  17.012  74.420  1.00  0.00     1.397 A  
HETATM   16  C   UNL     1      -8.424  15.929  68.101  1.00  0.00    -0.167 A  
HETATM   17  H   UNL     1     -11.973  20.472  72.706  1.00  0.00     0.000 HD 
HETATM   18  C   UNL     1     -11.369  15.894  73.600  1.00  0.00     0.889 A  
HETATM   19  C   UNL     1      -8.768  17.281  68.043  1.00  0.00    -0.231 A  
HETATM   20  C   UNL     1      -9.940  17.739  68.663  1.00  0.00    -0.379 A  
HETATM   21  C   UNL     1     -11.048  14.514  74.092  1.00  0.00     2.648 C  
HETATM   22  C   UNL     1     -11.678  16.062  72.243  1.00  0.00    -0.581 A  
ENDBRANCH   5   6
ENDBRANCH   4   5
BRANCH   4  23
HETATM   23  C   UNL     1     -13.544  13.407  70.884  1.00  0.00     0.426 C  
HETATM   24  C   UNL     1     -12.683  12.148  71.085  1.00  0.00    -0.351 C  
HETATM   25  C   UNL     1     -14.133  13.704  72.286  1.00  0.00    -0.602 C  
ENDBRANCH   4  23
ENDBRANCH   2   4
TORSDOF 4
ENDMDL
MODEL      251
REMARK 921   NORMALIZED FREE ENERGY PREDICTED BY IDOCK:   53.96 KCAL/MOL
REMARK 922        TOTAL FREE ENERGY PREDICTED BY IDOCK:   65.74 KCAL/MOL
REMARK 923 INTER-LIGAND FREE ENERGY PREDICTED BY IDOCK:   34.92 KCAL/MOL
REMARK 924 INTRA-LIGAND FREE ENERGY PREDICTED BY IDOCK:   30.81 KCAL/MOL
REMARK 927      BINDING AFFINITY PREDICTED BY RF-SCORE:    0.00 PKD
ROOT
HETATM    1  C   UNL     1      -7.316  12.884  69.220  1.00  0.00     0.246 C  
HETATM    2  C   UNL     1      -7.709  12.890  67.721  1.00  0.00    -0.151 C  
HETATM    3  C   UNL     1      -8.018  11.419  67.388  1.00  0.00    -0.139 C  
ENDROOT
BRANCH   2   4
HETATM    4  N   UNL     1      -8.822  13.842  67.418  1.00  0.00    -0.199 NA 
BRANCH   4   5
HETATM    5  C   UNL     1      -9.562  14.269  68.635  1.00  0.00    -0.192 C  
BRANCH   5   6
HETATM    6  C   UNL     1      -9.922  13.192  69.677  1.00  0.00     1.259 C  
HETATM    7  C   UNL     1     -10.372  11.802  69.123  1.00  0.00    -0.008 C  
HETATM    8  C   UNL     1      -9.331  11.048  68.272  1.00  0.00    -0.172 A  
HETATM    9  C   UNL     1     -11.788  11.773  68.522  1.00  0.00    -0.365 A  
HETATM   10  C   UNL     1     -12.900  11.171  69.133  1.00  0.00     1.014 A  
HETATM   11  C   UNL     1      -8.926  11.475  66.995  1.00  0.00    -0.174 A  
HETATM   12  O   UNL     1     -12.898  10.619  70.382  1.00  0.00    -0.349 OA 
HETATM   13  C   UNL     1      -8.081  10.709  66.192  1.00  0.00    -0.154 A  
HETATM   14  C   UNL     1     -14.132  11.077  68.471  1.00  0.00    10.600 A  
HETATM   15  C   UNL     1     -14.287  11.561  67.175  1.00  0.00    19.357 A  
HETATM   16  C   UNL     1      -7.579   9.507  66.664  1.00  0.00    -0.097 A  
HETATM   17  H   UNL     1     -13.650  10.212  70.795  1.00  0.00     0.000 HD 
HETATM   18  C   UNL     1     -13.216  12.176  66.544  1.00  0.00     4.855 A  
HETATM   19  C   UNL     1      -7.926   9.074  67.945  1.00  0.00    -0.102 A  
HETATM   20  C   UNL     1      -8.795   9.837  68.738  1.00  0.00    -0.129 A  
HETATM   21  C   UNL     1     -13.279  12.656  65.124  1.00  0.00     0.689 C  
HETATM   22  C   UNL     1     -12.005  12.307  67.238  1.00  0.00    -0.201 A  
ENDBRANCH   5   6
ENDBRANCH   4   5
BRANCH   4  23
HETATM   23  C   UNL     1      -8.524  14.986  66.502  1.00  0.00    -0.058 C  
HETATM   24  C   UNL     1      -9.733  15.870  66.149  1.00  0.00    -0.351 C  
HETATM   25  C   UNL     1      -7.482  15.968  67.094  1.00  0.00    -0.253 C  
ENDBRANCH   4  23
ENDBRANCH   2   4
TORSDOF 4
ENDMDL
