MODEL        1
REMARK 921   NORMALIZED FREE ENERGY PREDICTED BY IDOCK:   -7.56 KCAL/MOL
REMARK 922        TOTAL FREE ENERGY PREDICTED BY IDOCK:   -9.98 KCAL/MOL
REMARK 923 INTER-LIGAND FREE ENERGY PREDICTED BY IDOCK:   -8.89 KCAL/MOL
REMARK 924 INTRA-LIGAND FREE ENERGY PREDICTED BY IDOCK:   -1.09 KCAL/MOL
REMARK 927      BINDING AFFINITY PREDICTED BY RF-SCORE:    0.00 PKD
ROOT
HETATM    1  C   UNL     1      -8.615   8.056  73.927  1.00  0.00    -0.324 C  
HETATM    2  C   UNL     1      -9.678   7.080  73.518  1.00  0.00    -0.269 A  
HETATM    3  C   UNL     1      -9.751   5.866  74.238  1.00  0.00    -0.204 A  
HETATM    4  C   UNL     1     -10.730   4.909  73.964  1.00  0.00    -0.354 A  
HETATM    5  C   UNL     1     -11.654   5.137  72.955  1.00  0.00    -0.301 A  
HETATM    6  C   UNL     1     -11.598   6.327  72.228  1.00  0.00    -0.355 A  
HETATM    7  C   UNL     1     -10.620   7.309  72.490  1.00  0.00    -0.285 A  
ENDROOT
BRANCH   7   8
HETATM    8  C   UNL     1     -10.755   8.560  71.664  1.00  0.00    -0.281 C  
HETATM    9  O   UNL     1     -11.585   9.385  72.035  1.00  0.00    -0.342 OA 
HETATM   10  N   UNL     1      -9.984   8.656  70.519  1.00  0.00    -0.183 N  
HETATM   11  H   UNL     1      -9.290   7.923  70.375  1.00  0.00     0.000 HD 
BRANCH  10  12
HETATM   12  C   UNL     1     -10.055   9.664  69.524  1.00  0.00    -0.209 A  
HETATM   13  C   UNL     1      -9.004  10.523  69.188  1.00  0.00    -0.171 A  
HETATM   14  C   UNL     1      -9.148  11.550  68.220  1.00  0.00    -0.185 A  
HETATM   15  C   UNL     1      -7.973  12.464  67.993  1.00  0.00    -0.155 C  
HETATM   16  C   UNL     1     -10.381  11.710  67.548  1.00  0.00    -0.220 A  
HETATM   17  C   UNL     1     -11.443  10.873  67.931  1.00  0.00    -0.344 A  
HETATM   18  C   UNL     1     -11.276   9.849  68.877  1.00  0.00    -0.126 A  
BRANCH  16  19
HETATM   19  C   UNL     1     -10.577  12.782  66.488  1.00  0.00    -0.254 C  
HETATM   20  N   UNL     1     -10.729  14.140  66.855  1.00  0.00    -0.284 N  
HETATM   21  O   UNL     1     -10.555  12.438  65.307  1.00  0.00    -0.274 OA 
HETATM   22  C   UNL     1     -10.963  15.158  65.812  1.00  0.00    -0.349 C  
HETATM   23  C   UNL     1      -9.843  16.189  65.632  1.00  0.00    -0.290 C  
HETATM   24  C   UNL     1      -9.446  16.980  66.881  1.00  0.00    -0.266 C  
HETATM   25  C   UNL     1      -9.002  16.076  68.033  1.00  0.00    -0.187 C  
HETATM   26  C   UNL     1     -10.209  15.543  68.778  1.00  0.00    -0.212 A  
HETATM   27  O   UNL     1      -8.133  16.780  68.921  1.00  0.00    -0.243 OA 
HETATM   28  H   UNL     1      -7.858  16.219  69.636  1.00  0.00     0.000 HD 
HETATM   29  C   UNL     1     -11.037  14.580  68.164  1.00  0.00    -0.266 A  
HETATM   30  C   UNL     1     -12.157  14.067  68.833  1.00  0.00    -0.351 A  
HETATM   31  C   UNL     1     -12.457  14.511  70.118  1.00  0.00    -0.375 A  
HETATM   32  C   UNL     1     -11.637  15.450  70.735  1.00  0.00    -0.347 A  
HETATM   33 CL   UNL     1     -12.007  15.993  72.325  1.00  0.00    -0.586 Cl 
HETATM   34  C   UNL     1     -10.516  15.962  70.076  1.00  0.00    -0.295 A  
ENDBRANCH  16  19
ENDBRANCH  10  12
ENDBRANCH   7   8
TORSDOF 3
ENDMDL
MODEL        2
REMARK 921   NORMALIZED FREE ENERGY PREDICTED BY IDOCK:   -7.46 KCAL/MOL
REMARK 922        TOTAL FREE ENERGY PREDICTED BY IDOCK:   -9.86 KCAL/MOL
REMARK 923 INTER-LIGAND FREE ENERGY PREDICTED BY IDOCK:   -9.00 KCAL/MOL
REMARK 924 INTRA-LIGAND FREE ENERGY PREDICTED BY IDOCK:   -0.86 KCAL/MOL
REMARK 927      BINDING AFFINITY PREDICTED BY RF-SCORE:    0.00 PKD
ROOT
HETATM    1  C   UNL     1     -11.159   5.973  69.881  1.00  0.00    -0.469 C  
HETATM    2  C   UNL     1     -10.897   6.256  71.330  1.00  0.00    -0.312 A  
HETATM    3  C   UNL     1     -10.706   5.145  72.181  1.00  0.00    -0.252 A  
HETATM    4  C   UNL     1     -10.414   5.301  73.538  1.00  0.00    -0.280 A  
HETATM    5  C   UNL     1     -10.319   6.573  74.080  1.00  0.00    -0.362 A  
HETATM    6  C   UNL     1     -10.509   7.686  73.260  1.00  0.00    -0.414 A  
HETATM    7  C   UNL     1     -10.800   7.552  71.886  1.00  0.00    -0.264 A  
ENDROOT
BRANCH   7   8
HETATM    8  C   UNL     1     -10.897   8.855  71.139  1.00  0.00    -0.281 C  
HETATM    9  O   UNL     1     -11.711   9.675  71.555  1.00  0.00    -0.371 OA 
HETATM   10  N   UNL     1     -10.115   9.004  70.008  1.00  0.00    -0.187 N  
HETATM   11  H   UNL     1      -9.437   8.265  69.823  1.00  0.00     0.000 HD 
BRANCH  10  12
HETATM   12  C   UNL     1     -10.152  10.074  69.077  1.00  0.00    -0.200 A  
HETATM   13  C   UNL     1      -9.070  10.907  68.781  1.00  0.00    -0.174 A  
HETATM   14  C   UNL     1      -9.180  11.996  67.880  1.00  0.00    -0.190 A  
HETATM   15  C   UNL     1      -7.968  12.873  67.694  1.00  0.00    -0.167 C  
HETATM   16  C   UNL     1     -10.412  12.250  67.236  1.00  0.00    -0.236 A  
HETATM   17  C   UNL     1     -11.504  11.436  67.580  1.00  0.00    -0.348 A  
HETATM   18  C   UNL     1     -11.371  10.350  68.459  1.00  0.00    -0.283 A  
BRANCH  16  19
HETATM   19  C   UNL     1     -10.573  13.393  66.246  1.00  0.00    -0.291 C  
HETATM   20  N   UNL     1     -10.695  14.728  66.700  1.00  0.00    -0.303 N  
HETATM   21  O   UNL     1     -10.549  13.126  65.046  1.00  0.00    -0.303 OA 
HETATM   22  C   UNL     1     -10.896  15.816  65.724  1.00  0.00    -0.280 C  
HETATM   23  C   UNL     1      -9.750  16.829  65.618  1.00  0.00    -0.045 C  
HETATM   24  C   UNL     1      -9.345  17.528  66.919  1.00  0.00    -0.275 C  
HETATM   25  C   UNL     1      -8.933  16.541  68.013  1.00  0.00    -0.204 C  
HETATM   26  C   UNL     1     -10.159  15.990  68.713  1.00  0.00    -0.225 A  
HETATM   27  O   UNL     1      -8.056  17.164  68.950  1.00  0.00    -0.259 OA 
HETATM   28  H   UNL     1      -7.800  16.551  69.629  1.00  0.00     0.000 HD 
HETATM   29  C   UNL     1     -11.004  15.089  68.032  1.00  0.00    -0.284 A  
HETATM   30  C   UNL     1     -12.142  14.562  68.658  1.00  0.00    -0.253 A  
HETATM   31  C   UNL     1     -12.442  14.929  69.967  1.00  0.00    -0.320 A  
HETATM   32  C   UNL     1     -11.606  15.806  70.650  1.00  0.00    -0.390 A  
HETATM   33 CL   UNL     1     -11.976  16.253  72.269  1.00  0.00    -0.614 Cl 
HETATM   34  C   UNL     1     -10.467  16.331  70.034  1.00  0.00    -0.164 A  
ENDBRANCH  16  19
ENDBRANCH  10  12
ENDBRANCH   7   8
TORSDOF 3
ENDMDL
MODEL        3
REMARK 921   NORMALIZED FREE ENERGY PREDICTED BY IDOCK:   -7.23 KCAL/MOL
REMARK 922        TOTAL FREE ENERGY PREDICTED BY IDOCK:   -9.59 KCAL/MOL
REMARK 923 INTER-LIGAND FREE ENERGY PREDICTED BY IDOCK:   -8.68 KCAL/MOL
REMARK 924 INTRA-LIGAND FREE ENERGY PREDICTED BY IDOCK:   -0.91 KCAL/MOL
REMARK 927      BINDING AFFINITY PREDICTED BY RF-SCORE:    0.00 PKD
ROOT
HETATM    1  C   UNL     1     -11.105   5.729  71.616  1.00  0.00    -0.290 C  
HETATM    2  C   UNL     1     -10.132   6.263  72.626  1.00  0.00    -0.192 A  
HETATM    3  C   UNL     1      -9.570   5.338  73.534  1.00  0.00    -0.139 A  
HETATM    4  C   UNL     1      -8.623   5.724  74.484  1.00  0.00    -0.118 A  
HETATM    5  C   UNL     1      -8.223   7.050  74.558  1.00  0.00    -0.189 A  
HETATM    6  C   UNL     1      -8.768   7.983  73.675  1.00  0.00    -0.332 A  
HETATM    7  C   UNL     1      -9.722   7.613  72.704  1.00  0.00    -0.251 A  
ENDROOT
BRANCH   7   8
HETATM    8  C   UNL     1     -10.145   8.730  71.787  1.00  0.00    -0.333 C  
HETATM    9  O   UNL     1     -11.182   9.322  72.072  1.00  0.00    -0.343 OA 
HETATM   10  N   UNL     1      -9.371   8.963  70.664  1.00  0.00    -0.193 N  
HETATM   11  H   UNL     1      -8.500   8.437  70.595  1.00  0.00     0.000 HD 
BRANCH  10  12
HETATM   12  C   UNL     1      -9.658   9.854  69.598  1.00  0.00    -0.227 A  
HETATM   13  C   UNL     1      -8.734  10.734  69.029  1.00  0.00    -0.136 A  
HETATM   14  C   UNL     1      -9.092  11.642  67.999  1.00  0.00    -0.177 A  
HETATM   15  C   UNL     1      -8.033  12.597  67.513  1.00  0.00    -0.174 C  
HETATM   16  C   UNL     1     -10.416  11.655  67.506  1.00  0.00    -0.228 A  
HETATM   17  C   UNL     1     -11.346  10.799  68.121  1.00  0.00    -0.377 A  
HETATM   18  C   UNL     1     -10.970   9.894  69.125  1.00  0.00    -0.233 A  
BRANCH  16  19
HETATM   19  C   UNL     1     -10.841  12.595  66.389  1.00  0.00    -0.269 C  
HETATM   20  N   UNL     1     -11.080  13.964  66.651  1.00  0.00    -0.302 N  
HETATM   21  O   UNL     1     -10.927  12.137  65.250  1.00  0.00    -0.288 OA 
HETATM   22  C   UNL     1     -11.535  14.848  65.561  1.00  0.00    -0.307 C  
HETATM   23  C   UNL     1     -10.551  15.950  65.148  1.00  0.00    -0.421 C  
HETATM   24  C   UNL     1     -10.088  16.893  66.261  1.00  0.00    -0.335 C  
HETATM   25  C   UNL     1      -9.423  16.150  67.422  1.00  0.00    -0.226 C  
HETATM   26  C   UNL     1     -10.475  15.592  68.359  1.00  0.00    -0.240 A  
HETATM   27  O   UNL     1      -8.528  17.012  68.125  1.00  0.00    -0.213 OA 
HETATM   28  H   UNL     1      -8.116  16.550  68.846  1.00  0.00     0.000 HD 
HETATM   29  C   UNL     1     -11.271  14.505  67.945  1.00  0.00    -0.295 A  
HETATM   30  C   UNL     1     -12.248  13.967  68.794  1.00  0.00    -0.232 A  
HETATM   31  C   UNL     1     -12.435  14.509  70.062  1.00  0.00    -0.348 A  
HETATM   32  C   UNL     1     -11.643  15.573  70.484  1.00  0.00    -0.346 A  
HETATM   33 CL   UNL     1     -11.872  16.238  72.054  1.00  0.00    -0.598 Cl 
HETATM   34  C   UNL     1     -10.665  16.111  69.644  1.00  0.00    -0.325 A  
ENDBRANCH  16  19
ENDBRANCH  10  12
ENDBRANCH   7   8
TORSDOF 3
ENDMDL
MODEL        4
REMARK 921   NORMALIZED FREE ENERGY PREDICTED BY IDOCK:   -7.09 KCAL/MOL
REMARK 922        TOTAL FREE ENERGY PREDICTED BY IDOCK:   -9.43 KCAL/MOL
REMARK 923 INTER-LIGAND FREE ENERGY PREDICTED BY IDOCK:   -8.24 KCAL/MOL
REMARK 924 INTRA-LIGAND FREE ENERGY PREDICTED BY IDOCK:   -1.19 KCAL/MOL
REMARK 927      BINDING AFFINITY PREDICTED BY RF-SCORE:    0.00 PKD
ROOT
HETATM    1  C   UNL     1     -13.273   6.980  71.356  1.00  0.00    -0.352 C  
HETATM    2  C   UNL     1     -11.911   6.698  71.918  1.00  0.00    -0.375 A  
HETATM    3  C   UNL     1     -11.723   5.455  72.562  1.00  0.00    -0.176 A  
HETATM    4  C   UNL     1     -10.483   5.077  73.081  1.00  0.00    -0.255 A  
HETATM    5  C   UNL     1      -9.402   5.940  72.979  1.00  0.00    -0.140 A  
HETATM    6  C   UNL     1      -9.565   7.176  72.352  1.00  0.00    -0.168 A  
HETATM    7  C   UNL     1     -10.807   7.575  71.816  1.00  0.00    -0.261 A  
ENDROOT
BRANCH   7   8
HETATM    8  C   UNL     1     -10.783   8.904  71.109  1.00  0.00    -0.263 C  
HETATM    9  O   UNL     1     -11.373   9.834  71.652  1.00  0.00    -0.349 OA 
HETATM   10  N   UNL     1     -10.157   8.961  69.877  1.00  0.00    -0.189 N  
HETATM   11  H   UNL     1      -9.651   8.125  69.585  1.00  0.00     0.000 HD 
BRANCH  10  12
HETATM   12  C   UNL     1     -10.141  10.057  68.977  1.00  0.00    -0.200 A  
HETATM   13  C   UNL     1      -9.054  10.916  68.790  1.00  0.00    -0.174 A  
HETATM   14  C   UNL     1      -9.113  12.029  67.914  1.00  0.00    -0.183 A  
HETATM   15  C   UNL     1      -7.907  12.930  67.848  1.00  0.00    -0.151 C  
HETATM   16  C   UNL     1     -10.295  12.281  67.181  1.00  0.00    -0.234 A  
HETATM   17  C   UNL     1     -11.396  11.440  67.415  1.00  0.00    -0.359 A  
HETATM   18  C   UNL     1     -11.312  10.331  68.272  1.00  0.00    -0.245 A  
BRANCH  16  19
HETATM   19  C   UNL     1     -10.399  13.450  66.214  1.00  0.00    -0.291 C  
HETATM   20  N   UNL     1     -10.555  14.772  66.694  1.00  0.00    -0.293 N  
HETATM   21  O   UNL     1     -10.299  13.215  65.011  1.00  0.00    -0.317 OA 
HETATM   22  C   UNL     1     -10.698  15.885  65.737  1.00  0.00    -0.316 C  
HETATM   23  C   UNL     1      -9.552  16.904  65.730  1.00  0.00    -0.077 C  
HETATM   24  C   UNL     1      -9.233  17.569  67.071  1.00  0.00    -0.253 C  
HETATM   25  C   UNL     1      -8.885  16.554  68.163  1.00  0.00    -0.203 C  
HETATM   26  C   UNL     1     -10.150  15.981  68.770  1.00  0.00    -0.225 A  
HETATM   27  O   UNL     1      -8.071  17.154  69.169  1.00  0.00    -0.164 OA 
HETATM   28  H   UNL     1      -7.855  16.524  69.846  1.00  0.00     0.000 HD 
HETATM   29  C   UNL     1     -10.947  15.097  68.014  1.00  0.00    -0.295 A  
HETATM   30  C   UNL     1     -12.120  14.550  68.554  1.00  0.00    -0.257 A  
HETATM   31  C   UNL     1     -12.503  14.881  69.850  1.00  0.00    -0.273 A  
HETATM   32  C   UNL     1     -11.714  15.742  70.607  1.00  0.00    -0.385 A  
HETATM   33 CL   UNL     1     -12.186  16.145  72.211  1.00  0.00    -0.571 Cl 
HETATM   34  C   UNL     1     -10.542  16.287  70.077  1.00  0.00    -0.239 A  
ENDBRANCH  16  19
ENDBRANCH  10  12
ENDBRANCH   7   8
TORSDOF 3
ENDMDL
MODEL        5
REMARK 921   NORMALIZED FREE ENERGY PREDICTED BY IDOCK:   -6.97 KCAL/MOL
REMARK 922        TOTAL FREE ENERGY PREDICTED BY IDOCK:   -9.29 KCAL/MOL
REMARK 923 INTER-LIGAND FREE ENERGY PREDICTED BY IDOCK:   -8.87 KCAL/MOL
REMARK 924 INTRA-LIGAND FREE ENERGY PREDICTED BY IDOCK:   -0.41 KCAL/MOL
REMARK 927      BINDING AFFINITY PREDICTED BY RF-SCORE:    0.00 PKD
ROOT
HETATM    1  C   UNL     1     -10.540  13.086  64.399  1.00  0.00    -0.429 C  
HETATM    2  C   UNL     1     -10.550  14.166  65.441  1.00  0.00    -0.358 A  
HETATM    3  C   UNL     1     -10.341  15.492  64.998  1.00  0.00    -0.327 A  
HETATM    4  C   UNL     1     -10.374  16.573  65.881  1.00  0.00    -0.365 A  
HETATM    5  C   UNL     1     -10.605  16.354  67.231  1.00  0.00    -0.293 A  
HETATM    6  C   UNL     1     -10.809  15.053  67.691  1.00  0.00    -0.291 A  
HETATM    7  C   UNL     1     -10.785  13.946  66.817  1.00  0.00    -0.281 A  
ENDROOT
BRANCH   7   8
HETATM    8  C   UNL     1     -11.099  12.628  67.471  1.00  0.00    -0.272 C  
HETATM    9  O   UNL     1     -12.020  11.973  66.988  1.00  0.00    -0.609 OA 
HETATM   10  N   UNL     1     -10.375  12.284  68.598  1.00  0.00    -0.313 N  
HETATM   11  H   UNL     1      -9.596  12.895  68.842  1.00  0.00     0.000 HD 
BRANCH  10  12
HETATM   12  C   UNL     1     -10.599  11.173  69.452  1.00  0.00    -0.134 A  
HETATM   13  C   UNL     1     -11.799  10.914  70.120  1.00  0.00    -0.438 A  
HETATM   14  C   UNL     1     -11.949   9.816  71.005  1.00  0.00    -0.440 A  
HETATM   15  C   UNL     1     -13.264   9.678  71.728  1.00  0.00    -0.520 C  
HETATM   16  C   UNL     1     -10.867   8.932  71.212  1.00  0.00    -0.360 A  
HETATM   17  C   UNL     1      -9.652   9.231  70.573  1.00  0.00    -0.317 A  
HETATM   18  C   UNL     1      -9.528  10.312  69.685  1.00  0.00    -0.180 A  
BRANCH  16  19
HETATM   19  C   UNL     1     -10.987   7.728  72.134  1.00  0.00    -0.266 C  
HETATM   20  N   UNL     1     -10.584   6.444  71.698  1.00  0.00    -0.217 N  
HETATM   21  O   UNL     1     -11.399   7.915  73.277  1.00  0.00    -0.312 OA 
HETATM   22  C   UNL     1     -10.751   5.283  72.594  1.00  0.00    -0.239 C  
HETATM   23  C   UNL     1      -9.451   4.622  73.069  1.00  0.00    -0.148 C  
HETATM   24  C   UNL     1      -8.496   4.146  71.971  1.00  0.00    -0.111 C  
HETATM   25  C   UNL     1      -8.073   5.277  71.030  1.00  0.00    -0.112 C  
HETATM   26  C   UNL     1      -9.136   5.510  69.977  1.00  0.00    -0.160 A  
HETATM   27  O   UNL     1      -6.816   4.981  70.420  1.00  0.00    -0.041 OA 
HETATM   28  H   UNL     1      -6.554   5.683  69.836  1.00  0.00     0.000 HD 
HETATM   29  C   UNL     1     -10.365   6.096  70.345  1.00  0.00    -0.213 A  
HETATM   30  C   UNL     1     -11.365   6.326  69.389  1.00  0.00    -0.448 A  
HETATM   31  C   UNL     1     -11.143   5.974  68.060  1.00  0.00    -0.233 A  
HETATM   32  C   UNL     1      -9.928   5.408  67.687  1.00  0.00    -0.162 A  
HETATM   33 CL   UNL     1      -9.655   4.979  66.044  1.00  0.00    -0.168 Cl 
HETATM   34  C   UNL     1      -8.926   5.180  68.634  1.00  0.00    -0.122 A  
ENDBRANCH  16  19
ENDBRANCH  10  12
ENDBRANCH   7   8
TORSDOF 3
ENDMDL
MODEL        6
REMARK 921   NORMALIZED FREE ENERGY PREDICTED BY IDOCK:   -6.91 KCAL/MOL
REMARK 922        TOTAL FREE ENERGY PREDICTED BY IDOCK:   -9.21 KCAL/MOL
REMARK 923 INTER-LIGAND FREE ENERGY PREDICTED BY IDOCK:   -8.44 KCAL/MOL
REMARK 924 INTRA-LIGAND FREE ENERGY PREDICTED BY IDOCK:   -0.77 KCAL/MOL
REMARK 927      BINDING AFFINITY PREDICTED BY RF-SCORE:    0.00 PKD
ROOT
HETATM    1  C   UNL     1     -10.599   7.434  73.322  1.00  0.00    -0.442 C  
HETATM    2  C   UNL     1     -10.321   6.434  72.238  1.00  0.00    -0.215 A  
HETATM    3  C   UNL     1     -10.120   5.092  72.632  1.00  0.00    -0.220 A  
HETATM    4  C   UNL     1      -9.897   4.079  71.699  1.00  0.00    -0.253 A  
HETATM    5  C   UNL     1      -9.858   4.384  70.347  1.00  0.00    -0.286 A  
HETATM    6  C   UNL     1     -10.049   5.703  69.934  1.00  0.00    -0.289 A  
HETATM    7  C   UNL     1     -10.280   6.742  70.859  1.00  0.00    -0.215 A  
ENDROOT
BRANCH   7   8
HETATM    8  C   UNL     1     -10.541   8.087  70.235  1.00  0.00    -0.231 C  
HETATM    9  O   UNL     1     -11.582   8.655  70.553  1.00  0.00    -0.243 OA 
HETATM   10  N   UNL     1      -9.624   8.550  69.308  1.00  0.00    -0.168 N  
HETATM   11  H   UNL     1      -8.772   8.001  69.197  1.00  0.00     0.000 HD 
BRANCH  10  12
HETATM   12  C   UNL     1      -9.741   9.707  68.496  1.00  0.00    -0.150 A  
HETATM   13  C   UNL     1      -8.734  10.662  68.324  1.00  0.00    -0.135 A  
HETATM   14  C   UNL     1      -8.926  11.829  67.541  1.00  0.00    -0.168 A  
HETATM   15  C   UNL     1      -7.797  12.826  67.488  1.00  0.00    -0.171 C  
HETATM   16  C   UNL     1     -10.161  12.038  66.889  1.00  0.00    -0.224 A  
HETATM   17  C   UNL     1     -11.181  11.096  67.109  1.00  0.00    -0.320 A  
HETATM   18  C   UNL     1     -10.966   9.937  67.872  1.00  0.00    -0.281 A  
BRANCH  16  19
HETATM   19  C   UNL     1     -10.406  13.263  66.021  1.00  0.00    -0.289 C  
HETATM   20  N   UNL     1     -10.601  14.535  66.609  1.00  0.00    -0.280 N  
HETATM   21  O   UNL     1     -10.385  13.120  64.800  1.00  0.00    -0.342 OA 
HETATM   22  C   UNL     1     -10.882  15.702  65.750  1.00  0.00    -0.306 C  
HETATM   23  C   UNL     1      -9.801  16.789  65.737  1.00  0.00    -0.209 C  
HETATM   24  C   UNL     1      -9.419  17.377  67.098  1.00  0.00    -0.257 C  
HETATM   25  C   UNL     1      -8.931  16.312  68.083  1.00  0.00    -0.187 C  
HETATM   26  C   UNL     1     -10.111  15.619  68.734  1.00  0.00    -0.211 A  
HETATM   27  O   UNL     1      -8.079  16.891  69.070  1.00  0.00    -0.237 OA 
HETATM   28  H   UNL     1      -7.776  16.230  69.681  1.00  0.00     0.000 HD 
HETATM   29  C   UNL     1     -10.911  14.741  67.974  1.00  0.00    -0.260 A  
HETATM   30  C   UNL     1     -12.005  14.085  68.554  1.00  0.00    -0.383 A  
HETATM   31  C   UNL     1     -12.307  14.299  69.896  1.00  0.00    -0.377 A  
HETATM   32  C   UNL     1     -11.514  15.152  70.657  1.00  0.00    -0.305 A  
HETATM   33 CL   UNL     1     -11.885  15.411  72.316  1.00  0.00    -0.503 Cl 
HETATM   34  C   UNL     1     -10.419  15.807  70.086  1.00  0.00    -0.288 A  
ENDBRANCH  16  19
ENDBRANCH  10  12
ENDBRANCH   7   8
TORSDOF 3
ENDMDL
MODEL        7
REMARK 921   NORMALIZED FREE ENERGY PREDICTED BY IDOCK:   -6.87 KCAL/MOL
REMARK 922        TOTAL FREE ENERGY PREDICTED BY IDOCK:   -9.17 KCAL/MOL
REMARK 923 INTER-LIGAND FREE ENERGY PREDICTED BY IDOCK:   -8.71 KCAL/MOL
REMARK 924 INTRA-LIGAND FREE ENERGY PREDICTED BY IDOCK:   -0.46 KCAL/MOL
REMARK 927      BINDING AFFINITY PREDICTED BY RF-SCORE:    0.00 PKD
ROOT
HETATM    1  C   UNL     1     -11.739  15.316  69.345  1.00  0.00    -0.361 C  
HETATM    2  C   UNL     1     -11.209  15.212  67.945  1.00  0.00    -0.334 A  
HETATM    3  C   UNL     1     -10.899  16.421  67.281  1.00  0.00    -0.194 A  
HETATM    4  C   UNL     1     -10.361  16.433  65.993  1.00  0.00    -0.365 A  
HETATM    5  C   UNL     1     -10.130  15.236  65.332  1.00  0.00    -0.397 A  
HETATM    6  C   UNL     1     -10.433  14.030  65.966  1.00  0.00    -0.307 A  
HETATM    7  C   UNL     1     -10.973  13.994  67.268  1.00  0.00    -0.303 A  
ENDROOT
BRANCH   7   8
HETATM    8  C   UNL     1     -11.165  12.610  67.826  1.00  0.00    -0.274 C  
HETATM    9  O   UNL     1     -11.928  11.865  67.216  1.00  0.00    -0.605 OA 
HETATM   10  N   UNL     1     -10.523  12.303  69.012  1.00  0.00    -0.419 N  
HETATM   11  H   UNL     1      -9.868  12.999  69.368  1.00  0.00     0.000 HD 
BRANCH  10  12
HETATM   12  C   UNL     1     -10.677  11.125  69.787  1.00  0.00    -0.010 A  
HETATM   13  C   UNL     1     -11.845  10.769  70.468  1.00  0.00    -0.453 A  
HETATM   14  C   UNL     1     -11.924   9.603  71.273  1.00  0.00    -0.462 A  
HETATM   15  C   UNL     1     -13.209   9.359  72.021  1.00  0.00    -0.529 C  
HETATM   16  C   UNL     1     -10.802   8.752  71.384  1.00  0.00    -0.359 A  
HETATM   17  C   UNL     1      -9.620   9.148  70.735  1.00  0.00    -0.338 A  
HETATM   18  C   UNL     1      -9.566  10.294  69.926  1.00  0.00    -0.082 A  
BRANCH  16  19
HETATM   19  C   UNL     1     -10.845   7.481  72.217  1.00  0.00    -0.258 C  
HETATM   20  N   UNL     1     -10.400   6.251  71.679  1.00  0.00    -0.208 N  
HETATM   21  O   UNL     1     -11.236   7.566  73.381  1.00  0.00    -0.296 OA 
HETATM   22  C   UNL     1     -10.493   5.022  72.491  1.00  0.00    -0.215 C  
HETATM   23  C   UNL     1      -9.154   4.387  72.886  1.00  0.00    -0.132 C  
HETATM   24  C   UNL     1      -8.208   4.036  71.735  1.00  0.00    -0.090 C  
HETATM   25  C   UNL     1      -7.858   5.249  70.870  1.00  0.00    -0.098 C  
HETATM   26  C   UNL     1      -8.958   5.510  69.861  1.00  0.00    -0.144 A  
HETATM   27  O   UNL     1      -6.607   5.055  70.212  1.00  0.00    -0.033 OA 
HETATM   28  H   UNL     1      -6.390   5.808  69.675  1.00  0.00     0.000 HD 
HETATM   29  C   UNL     1     -10.201   6.012  70.299  1.00  0.00    -0.208 A  
HETATM   30  C   UNL     1     -11.234   6.266  69.386  1.00  0.00    -0.489 A  
HETATM   31  C   UNL     1     -11.032   6.021  68.030  1.00  0.00    -0.340 A  
HETATM   32  C   UNL     1      -9.804   5.539  67.588  1.00  0.00    -0.144 A  
HETATM   33 CL   UNL     1      -9.555   5.243  65.913  1.00  0.00    -0.164 Cl 
HETATM   34  C   UNL     1      -8.769   5.288  68.493  1.00  0.00    -0.099 A  
ENDBRANCH  16  19
ENDBRANCH  10  12
ENDBRANCH   7   8
TORSDOF 3
ENDMDL
MODEL        8
REMARK 921   NORMALIZED FREE ENERGY PREDICTED BY IDOCK:   -6.66 KCAL/MOL
REMARK 922        TOTAL FREE ENERGY PREDICTED BY IDOCK:   -8.92 KCAL/MOL
REMARK 923 INTER-LIGAND FREE ENERGY PREDICTED BY IDOCK:   -8.12 KCAL/MOL
REMARK 924 INTRA-LIGAND FREE ENERGY PREDICTED BY IDOCK:   -0.80 KCAL/MOL
REMARK 927      BINDING AFFINITY PREDICTED BY RF-SCORE:    0.00 PKD
ROOT
HETATM    1  C   UNL     1     -10.814   6.540  67.326  1.00  0.00    -0.463 C  
HETATM    2  C   UNL     1     -10.521   6.441  68.794  1.00  0.00    -0.260 A  
HETATM    3  C   UNL     1     -10.249   5.156  69.313  1.00  0.00    -0.276 A  
HETATM    4  C   UNL     1      -9.923   4.961  70.657  1.00  0.00    -0.305 A  
HETATM    5  C   UNL     1      -9.873   6.047  71.518  1.00  0.00    -0.197 A  
HETATM    6  C   UNL     1     -10.144   7.325  71.029  1.00  0.00    -0.195 A  
HETATM    7  C   UNL     1     -10.470   7.546  69.674  1.00  0.00    -0.235 A  
ENDROOT
BRANCH   7   8
HETATM    8  C   UNL     1     -10.655   8.993  69.305  1.00  0.00    -0.213 C  
HETATM    9  O   UNL     1     -11.431   9.648  69.995  1.00  0.00    -0.225 OA 
HETATM   10  N   UNL     1      -9.991   9.457  68.184  1.00  0.00    -0.168 N  
HETATM   11  H   UNL     1      -9.327   8.815  67.750  1.00  0.00     0.000 HD 
BRANCH  10  12
HETATM   12  C   UNL     1     -10.132  10.729  67.572  1.00  0.00    -0.186 A  
HETATM   13  C   UNL     1     -11.202  11.102  66.753  1.00  0.00    -0.215 A  
HETATM   14  C   UNL     1     -11.264  12.371  66.124  1.00  0.00    -0.364 A  
HETATM   15  C   UNL     1     -12.426  12.637  65.202  1.00  0.00    -0.531 C  
HETATM   16  C   UNL     1     -10.230  13.310  66.338  1.00  0.00    -0.292 A  
HETATM   17  C   UNL     1      -9.136  12.904  67.123  1.00  0.00    -0.220 A  
HETATM   18  C   UNL     1      -9.102  11.651  67.754  1.00  0.00    -0.175 A  
BRANCH  16  19
HETATM   19  C   UNL     1     -10.262  14.691  65.702  1.00  0.00    -0.359 C  
HETATM   20  N   UNL     1     -10.330  15.853  66.506  1.00  0.00    -0.292 N  
HETATM   21  O   UNL     1     -10.184  14.765  64.477  1.00  0.00    -0.142 OA 
HETATM   22  C   UNL     1     -10.406  17.181  65.866  1.00  0.00    -0.284 C  
HETATM   23  C   UNL     1      -9.196  18.095  66.095  1.00  0.00    -0.136 C  
HETATM   24  C   UNL     1      -8.828  18.375  67.554  1.00  0.00    -0.267 C  
HETATM   25  C   UNL     1      -8.542  17.095  68.343  1.00  0.00    -0.246 C  
HETATM   26  C   UNL     1      -9.838  16.466  68.812  1.00  0.00    -0.250 A  
HETATM   27  O   UNL     1      -7.685  17.368  69.452  1.00  0.00    -0.022 OA 
HETATM   28  H   UNL     1      -7.508  16.573  69.942  1.00  0.00     0.000 HD 
HETATM   29  C   UNL     1     -10.694  15.854  67.873  1.00  0.00    -0.312 A  
HETATM   30  C   UNL     1     -11.898  15.261  68.280  1.00  0.00    -0.251 A  
HETATM   31  C   UNL     1     -12.252  15.273  69.626  1.00  0.00    -0.304 A  
HETATM   32  C   UNL     1     -11.405  15.862  70.561  1.00  0.00    -0.390 A  
HETATM   33 CL   UNL     1     -11.843  15.870  72.224  1.00  0.00    -0.571 Cl 
HETATM   34  C   UNL     1     -10.203  16.451  70.162  1.00  0.00     0.224 A  
ENDBRANCH  16  19
ENDBRANCH  10  12
ENDBRANCH   7   8
TORSDOF 3
ENDMDL
MODEL        9
REMARK 921   NORMALIZED FREE ENERGY PREDICTED BY IDOCK:   -6.64 KCAL/MOL
REMARK 922        TOTAL FREE ENERGY PREDICTED BY IDOCK:   -8.90 KCAL/MOL
REMARK 923 INTER-LIGAND FREE ENERGY PREDICTED BY IDOCK:   -7.88 KCAL/MOL
REMARK 924 INTRA-LIGAND FREE ENERGY PREDICTED BY IDOCK:   -1.02 KCAL/MOL
REMARK 927      BINDING AFFINITY PREDICTED BY RF-SCORE:    0.00 PKD
ROOT
HETATM    1  C   UNL     1      -7.011   7.800  66.596  1.00  0.00    -0.071 C  
HETATM    2  C   UNL     1      -8.346   7.180  66.885  1.00  0.00    -0.118 A  
HETATM    3  C   UNL     1      -8.348   5.915  67.515  1.00  0.00    -0.105 A  
HETATM    4  C   UNL     1      -9.536   5.271  67.864  1.00  0.00    -0.146 A  
HETATM    5  C   UNL     1     -10.754   5.871  67.582  1.00  0.00    -0.352 A  
HETATM    6  C   UNL     1     -10.777   7.118  66.956  1.00  0.00    -0.420 A  
HETATM    7  C   UNL     1      -9.588   7.789  66.598  1.00  0.00    -0.286 A  
ENDROOT
BRANCH   7   8
HETATM    8  C   UNL     1      -9.798   9.154  66.002  1.00  0.00    -0.272 C  
HETATM    9  O   UNL     1      -9.406   9.326  64.851  1.00  0.00    -0.211 OA 
HETATM   10  N   UNL     1     -10.355  10.128  66.812  1.00  0.00    -0.229 N  
HETATM   11  H   UNL     1     -10.694   9.821  67.724  1.00  0.00     0.000 HD 
BRANCH  10  12
HETATM   12  C   UNL     1     -10.507  11.506  66.513  1.00  0.00    -0.244 A  
HETATM   13  C   UNL     1     -11.702  12.103  66.103  1.00  0.00    -0.384 A  
HETATM   14  C   UNL     1     -11.782  13.478  65.765  1.00  0.00    -0.371 A  
HETATM   15  C   UNL     1     -13.105  13.996  65.263  1.00  0.00    -0.176 C  
HETATM   16  C   UNL     1     -10.631  14.290  65.861  1.00  0.00    -0.306 A  
HETATM   17  C   UNL     1      -9.425  13.667  66.226  1.00  0.00    -0.209 A  
HETATM   18  C   UNL     1      -9.369  12.309  66.577  1.00  0.00    -0.230 A  
BRANCH  16  19
HETATM   19  C   UNL     1     -10.672  15.774  65.529  1.00  0.00    -0.383 C  
HETATM   20  N   UNL     1     -10.566  16.744  66.554  1.00  0.00    -0.250 N  
HETATM   21  O   UNL     1     -10.755  16.099  64.346  1.00  0.00    -0.487 OA 
HETATM   22  C   UNL     1     -10.653  18.178  66.214  1.00  0.00    -0.274 C  
HETATM   23  C   UNL     1      -9.375  18.992  66.448  1.00  0.00    -0.358 C  
HETATM   24  C   UNL     1      -8.798  18.951  67.865  1.00  0.00    -0.326 C  
HETATM   25  C   UNL     1      -8.480  17.528  68.329  1.00  0.00    -0.266 C  
HETATM   26  C   UNL     1      -9.734  16.849  68.841  1.00  0.00    -0.256 A  
HETATM   27  O   UNL     1      -7.468  17.540  69.336  1.00  0.00    -0.077 OA 
HETATM   28  H   UNL     1      -7.270  16.657  69.624  1.00  0.00     0.000 HD 
HETATM   29  C   UNL     1     -10.742  16.470  67.930  1.00  0.00    -0.337 A  
HETATM   30  C   UNL     1     -11.910  15.837  68.377  1.00  0.00    -0.180 A  
HETATM   31  C   UNL     1     -12.079  15.577  69.734  1.00  0.00    -0.372 A  
HETATM   32  C   UNL     1     -11.083  15.935  70.637  1.00  0.00    -0.346 A  
HETATM   33 CL   UNL     1     -11.291  15.608  72.313  1.00  0.00    -0.435 Cl 
HETATM   34  C   UNL     1      -9.914  16.563  70.198  1.00  0.00     0.601 A  
ENDBRANCH  16  19
ENDBRANCH  10  12
ENDBRANCH   7   8
TORSDOF 3
ENDMDL
MODEL       10
REMARK 921   NORMALIZED FREE ENERGY PREDICTED BY IDOCK:   -6.60 KCAL/MOL
REMARK 922        TOTAL FREE ENERGY PREDICTED BY IDOCK:   -8.85 KCAL/MOL
REMARK 923 INTER-LIGAND FREE ENERGY PREDICTED BY IDOCK:   -8.03 KCAL/MOL
REMARK 924 INTRA-LIGAND FREE ENERGY PREDICTED BY IDOCK:   -0.82 KCAL/MOL
REMARK 927      BINDING AFFINITY PREDICTED BY RF-SCORE:    0.00 PKD
ROOT
HETATM    1  C   UNL     1     -10.078   7.843  70.963  1.00  0.00    -0.212 C  
HETATM    2  C   UNL     1     -10.209   7.250  69.591  1.00  0.00    -0.214 A  
HETATM    3  C   UNL     1     -10.170   5.841  69.490  1.00  0.00    -0.306 A  
HETATM    4  C   UNL     1     -10.325   5.189  68.265  1.00  0.00    -0.140 A  
HETATM    5  C   UNL     1     -10.512   5.931  67.109  1.00  0.00    -0.335 A  
HETATM    6  C   UNL     1     -10.550   7.324  67.184  1.00  0.00    -0.416 A  
HETATM    7  C   UNL     1     -10.400   8.003  68.411  1.00  0.00    -0.236 A  
ENDROOT
BRANCH   7   8
HETATM    8  C   UNL     1     -10.544   9.498  68.317  1.00  0.00    -0.216 C  
HETATM    9  O   UNL     1     -11.096  10.064  69.257  1.00  0.00    -0.228 OA 
HETATM   10  N   UNL     1     -10.103  10.113  67.158  1.00  0.00    -0.199 N  
HETATM   11  H   UNL     1      -9.603   9.523  66.493  1.00  0.00     0.000 HD 
BRANCH  10  12
HETATM   12  C   UNL     1     -10.271  11.474  66.796  1.00  0.00    -0.219 A  
HETATM   13  C   UNL     1     -11.462  12.027  66.318  1.00  0.00    -0.408 A  
HETATM   14  C   UNL     1     -11.558  13.385  65.920  1.00  0.00    -0.370 A  
HETATM   15  C   UNL     1     -12.871  13.854  65.350  1.00  0.00    -0.466 C  
HETATM   16  C   UNL     1     -10.426  14.225  66.022  1.00  0.00    -0.306 A  
HETATM   17  C   UNL     1      -9.223  13.644  66.456  1.00  0.00    -0.195 A  
HETATM   18  C   UNL     1      -9.152  12.303  66.866  1.00  0.00    -0.208 A  
BRANCH  16  19
HETATM   19  C   UNL     1     -10.485  15.693  65.627  1.00  0.00    -0.382 C  
HETATM   20  N   UNL     1     -10.471  16.706  66.614  1.00  0.00    -0.287 N  
HETATM   21  O   UNL     1     -10.500  15.968  64.428  1.00  0.00    -0.218 OA 
HETATM   22  C   UNL     1     -10.574  18.121  66.210  1.00  0.00    -0.274 C  
HETATM   23  C   UNL     1      -9.336  18.981  66.490  1.00  0.00    -0.365 C  
HETATM   24  C   UNL     1      -8.851  19.014  67.941  1.00  0.00    -0.335 C  
HETATM   25  C   UNL     1      -8.526  17.620  68.484  1.00  0.00    -0.289 C  
HETATM   26  C   UNL     1      -9.793  16.927  68.943  1.00  0.00    -0.267 A  
HETATM   27  O   UNL     1      -7.582  17.703  69.552  1.00  0.00     0.079 OA 
HETATM   28  H   UNL     1      -7.381  16.837  69.889  1.00  0.00     0.000 HD 
HETATM   29  C   UNL     1     -10.729  16.482  67.987  1.00  0.00    -0.343 A  
HETATM   30  C   UNL     1     -11.907  15.834  68.384  1.00  0.00    -0.180 A  
HETATM   31  C   UNL     1     -12.157  15.624  69.738  1.00  0.00    -0.346 A  
HETATM   32  C   UNL     1     -11.231  16.047  70.686  1.00  0.00    -0.372 A  
HETATM   33 CL   UNL     1     -11.538  15.782  72.358  1.00  0.00    -0.536 Cl 
HETATM   34  C   UNL     1     -10.052  16.690  70.297  1.00  0.00     0.763 A  
ENDBRANCH  16  19
ENDBRANCH  10  12
ENDBRANCH   7   8
TORSDOF 3
ENDMDL
MODEL       11
REMARK 921   NORMALIZED FREE ENERGY PREDICTED BY IDOCK:   -6.58 KCAL/MOL
REMARK 922        TOTAL FREE ENERGY PREDICTED BY IDOCK:   -8.83 KCAL/MOL
REMARK 923 INTER-LIGAND FREE ENERGY PREDICTED BY IDOCK:   -8.02 KCAL/MOL
REMARK 924 INTRA-LIGAND FREE ENERGY PREDICTED BY IDOCK:   -0.81 KCAL/MOL
REMARK 927      BINDING AFFINITY PREDICTED BY RF-SCORE:    0.00 PKD
ROOT
HETATM    1  C   UNL     1     -12.991  11.328  71.456  1.00  0.00    -0.520 C  
HETATM    2  C   UNL     1     -12.978  12.828  71.430  1.00  0.00    -0.359 A  
HETATM    3  C   UNL     1     -13.555  13.498  72.533  1.00  0.00    -0.674 A  
HETATM    4  C   UNL     1     -13.556  14.891  72.626  1.00  0.00    -0.563 A  
HETATM    5  C   UNL     1     -12.991  15.650  71.612  1.00  0.00    -0.551 A  
HETATM    6  C   UNL     1     -12.420  15.010  70.511  1.00  0.00    -0.425 A  
HETATM    7  C   UNL     1     -12.404  13.604  70.399  1.00  0.00    -0.415 A  
ENDROOT
BRANCH   7   8
HETATM    8  C   UNL     1     -11.681  13.084  69.186  1.00  0.00    -0.326 C  
HETATM    9  O   UNL     1     -11.933  13.625  68.113  1.00  0.00    -0.362 OA 
HETATM   10  N   UNL     1     -10.839  11.999  69.358  1.00  0.00    -0.452 N  
HETATM   11  H   UNL     1     -10.676  11.699  70.319  1.00  0.00     0.000 HD 
BRANCH  10  12
HETATM   12  C   UNL     1     -10.178  11.260  68.344  1.00  0.00    -0.195 A  
HETATM   13  C   UNL     1      -8.861  11.481  67.931  1.00  0.00    -0.152 A  
HETATM   14  C   UNL     1      -8.269  10.745  66.873  1.00  0.00    -0.130 A  
HETATM   15  C   UNL     1      -6.868  11.119  66.462  1.00  0.00    -0.126 C  
HETATM   16  C   UNL     1      -9.013   9.738  66.219  1.00  0.00    -0.180 A  
HETATM   17  C   UNL     1     -10.351   9.560  66.610  1.00  0.00    -0.280 A  
HETATM   18  C   UNL     1     -10.914  10.284  67.673  1.00  0.00    -0.356 A  
BRANCH  16  19
HETATM   19  C   UNL     1      -8.414   8.908  65.094  1.00  0.00    -0.173 C  
HETATM   20  N   UNL     1      -8.055   7.556  65.307  1.00  0.00    -0.126 N  
HETATM   21  O   UNL     1      -8.294   9.434  63.989  1.00  0.00    -0.152 OA 
HETATM   22  C   UNL     1      -7.434   6.783  64.214  1.00  0.00    -0.100 C  
HETATM   23  C   UNL     1      -8.267   5.615  63.674  1.00  0.00    -0.090 C  
HETATM   24  C   UNL     1      -8.710   4.570  64.701  1.00  0.00    -0.147 C  
HETATM   25  C   UNL     1      -9.529   5.178  65.842  1.00  0.00    -0.156 C  
HETATM   26  C   UNL     1      -8.611   5.784  66.883  1.00  0.00    -0.111 A  
HETATM   27  O   UNL     1     -10.379   4.194  66.432  1.00  0.00    -0.385 OA 
HETATM   28  H   UNL     1     -10.888   4.571  67.140  1.00  0.00     0.000 HD 
HETATM   29  C   UNL     1      -7.903   6.966  66.584  1.00  0.00    -0.107 A  
HETATM   30  C   UNL     1      -7.050   7.550  67.531  1.00  0.00    -0.085 A  
HETATM   31  C   UNL     1      -6.900   6.958  68.783  1.00  0.00    -0.066 A  
HETATM   32  C   UNL     1      -7.607   5.800  69.091  1.00  0.00    -0.089 A  
HETATM   33 CL   UNL     1      -7.424   5.075  70.639  1.00  0.00    -0.067 Cl 
HETATM   34  C   UNL     1      -8.462   5.216  68.153  1.00  0.00    -0.099 A  
ENDBRANCH  16  19
ENDBRANCH  10  12
ENDBRANCH   7   8
TORSDOF 3
ENDMDL
MODEL       12
REMARK 921   NORMALIZED FREE ENERGY PREDICTED BY IDOCK:   -6.57 KCAL/MOL
REMARK 922        TOTAL FREE ENERGY PREDICTED BY IDOCK:   -8.81 KCAL/MOL
REMARK 923 INTER-LIGAND FREE ENERGY PREDICTED BY IDOCK:   -8.23 KCAL/MOL
REMARK 924 INTRA-LIGAND FREE ENERGY PREDICTED BY IDOCK:   -0.58 KCAL/MOL
REMARK 927      BINDING AFFINITY PREDICTED BY RF-SCORE:    0.00 PKD
ROOT
HETATM    1  C   UNL     1      -9.292   4.231  69.140  1.00  0.00    -0.229 C  
HETATM    2  C   UNL     1      -9.926   4.490  70.475  1.00  0.00    -0.278 A  
HETATM    3  C   UNL     1      -9.819   3.473  71.449  1.00  0.00    -0.214 A  
HETATM    4  C   UNL     1     -10.337   3.631  72.736  1.00  0.00    -0.239 A  
HETATM    5  C   UNL     1     -10.986   4.809  73.077  1.00  0.00    -0.346 A  
HETATM    6  C   UNL     1     -11.108   5.825  72.129  1.00  0.00    -0.327 A  
HETATM    7  C   UNL     1     -10.589   5.688  70.825  1.00  0.00    -0.335 A  
ENDROOT
BRANCH   7   8
HETATM    8  C   UNL     1     -10.742   6.910  69.961  1.00  0.00    -0.243 C  
HETATM    9  O   UNL     1     -11.123   6.731  68.807  1.00  0.00    -0.227 OA 
HETATM   10  N   UNL     1     -10.384   8.130  70.507  1.00  0.00    -0.200 N  
HETATM   11  H   UNL     1     -10.150   8.132  71.499  1.00  0.00     0.000 HD 
BRANCH  10  12
HETATM   12  C   UNL     1     -10.308   9.378  69.836  1.00  0.00    -0.227 A  
HETATM   13  C   UNL     1      -9.121  10.068  69.576  1.00  0.00    -0.236 A  
HETATM   14  C   UNL     1      -9.109  11.340  68.948  1.00  0.00    -0.064 A  
HETATM   15  C   UNL     1      -7.777  12.025  68.787  1.00  0.00    -0.054 C  
HETATM   16  C   UNL     1     -10.326  11.933  68.546  1.00  0.00    -0.228 A  
HETATM   17  C   UNL     1     -11.515  11.251  68.858  1.00  0.00    -0.363 A  
HETATM   18  C   UNL     1     -11.507   9.984  69.462  1.00  0.00    -0.176 A  
BRANCH  16  19
HETATM   19  C   UNL     1     -10.363  13.285  67.850  1.00  0.00    -0.238 C  
HETATM   20  N   UNL     1     -10.375  13.368  66.438  1.00  0.00    -0.282 N  
HETATM   21  O   UNL     1     -10.426  14.293  68.551  1.00  0.00    -0.239 OA 
HETATM   22  C   UNL     1     -10.365  14.691  65.784  1.00  0.00    -0.332 C  
HETATM   23  C   UNL     1     -11.629  15.046  64.991  1.00  0.00    -0.332 C  
HETATM   24  C   UNL     1     -12.036  14.060  63.893  1.00  0.00    -0.350 C  
HETATM   25  C   UNL     1     -12.261  12.644  64.429  1.00  0.00    -0.443 C  
HETATM   26  C   UNL     1     -10.938  11.918  64.564  1.00  0.00    -0.376 A  
HETATM   27  O   UNL     1     -13.149  11.919  63.579  1.00  0.00    -0.715 OA 
HETATM   28  H   UNL     1     -13.288  11.040  63.911  1.00  0.00     0.000 HD 
HETATM   29  C   UNL     1     -10.033  12.300  65.575  1.00  0.00    -0.244 A  
HETATM   30  C   UNL     1      -8.804  11.642  65.725  1.00  0.00    -0.004 A  
HETATM   31  C   UNL     1      -8.472  10.597  64.867  1.00  0.00    -0.116 A  
HETATM   32  C   UNL     1      -9.366  10.204  63.876  1.00  0.00    -0.287 A  
HETATM   33 CL   UNL     1      -8.957   8.909  62.820  1.00  0.00    -0.036 Cl 
HETATM   34  C   UNL     1     -10.595  10.853  63.724  1.00  0.00    -0.255 A  
ENDBRANCH  16  19
ENDBRANCH  10  12
ENDBRANCH   7   8
TORSDOF 3
ENDMDL
MODEL       13
REMARK 921   NORMALIZED FREE ENERGY PREDICTED BY IDOCK:   -6.55 KCAL/MOL
REMARK 922        TOTAL FREE ENERGY PREDICTED BY IDOCK:   -8.80 KCAL/MOL
REMARK 923 INTER-LIGAND FREE ENERGY PREDICTED BY IDOCK:   -8.14 KCAL/MOL
REMARK 924 INTRA-LIGAND FREE ENERGY PREDICTED BY IDOCK:   -0.65 KCAL/MOL
REMARK 927      BINDING AFFINITY PREDICTED BY RF-SCORE:    0.00 PKD
ROOT
HETATM    1  C   UNL     1     -12.769  14.045  71.206  1.00  0.00    -0.439 C  
HETATM    2  C   UNL     1     -12.155  14.423  69.890  1.00  0.00    -0.398 A  
HETATM    3  C   UNL     1     -12.008  15.802  69.618  1.00  0.00    -0.332 A  
HETATM    4  C   UNL     1     -11.410  16.258  68.442  1.00  0.00    -0.312 A  
HETATM    5  C   UNL     1     -10.954  15.346  67.502  1.00  0.00    -0.315 A  
HETATM    6  C   UNL     1     -11.093  13.979  67.747  1.00  0.00    -0.284 A  
HETATM    7  C   UNL     1     -11.690  13.496  68.930  1.00  0.00    -0.379 A  
ENDROOT
BRANCH   7   8
HETATM    8  C   UNL     1     -11.687  11.997  69.063  1.00  0.00    -0.325 C  
HETATM    9  O   UNL     1     -12.272  11.360  68.191  1.00  0.00    -0.602 OA 
HETATM   10  N   UNL     1     -11.085  11.455  70.185  1.00  0.00    -0.454 N  
HETATM   11  H   UNL     1     -10.580  12.104  70.788  1.00  0.00     0.000 HD 
BRANCH  10  12
HETATM   12  C   UNL     1     -11.093  10.095  70.586  1.00  0.00    -0.322 A  
HETATM   13  C   UNL     1     -12.247   9.348  70.838  1.00  0.00    -0.297 A  
HETATM   14  C   UNL     1     -12.194   8.004  71.289  1.00  0.00    -0.308 A  
HETATM   15  C   UNL     1     -13.500   7.320  71.600  1.00  0.00    -0.428 C  
HETATM   16  C   UNL     1     -10.941   7.378  71.475  1.00  0.00    -0.255 A  
HETATM   17  C   UNL     1      -9.789   8.155  71.267  1.00  0.00    -0.207 A  
HETATM   18  C   UNL     1      -9.861   9.477  70.801  1.00  0.00    -0.309 A  
BRANCH  16  19
HETATM   19  C   UNL     1     -10.833   5.933  71.937  1.00  0.00    -0.254 C  
HETATM   20  N   UNL     1     -10.140   4.977  71.158  1.00  0.00    -0.215 N  
HETATM   21  O   UNL     1     -11.326   5.636  73.024  1.00  0.00    -0.280 OA 
HETATM   22  C   UNL     1     -10.087   3.571  71.603  1.00  0.00    -0.048 C  
HETATM   23  C   UNL     1      -8.695   3.051  71.984  1.00  0.00    -0.110 C  
HETATM   24  C   UNL     1      -7.612   3.171  70.908  1.00  0.00    -0.040 C  
HETATM   25  C   UNL     1      -7.407   4.613  70.440  1.00  0.00    -0.050 C  
HETATM   26  C   UNL     1      -8.450   4.983  69.404  1.00  0.00    -0.087 A  
HETATM   27  O   UNL     1      -6.092   4.791  69.915  1.00  0.00    -0.020 OA 
HETATM   28  H   UNL     1      -5.965   5.686  69.624  1.00  0.00     0.000 HD 
HETATM   29  C   UNL     1      -9.792   5.161  69.799  1.00  0.00    -0.212 A  
HETATM   30  C   UNL     1     -10.775   5.506  68.861  1.00  0.00    -0.207 A  
HETATM   31  C   UNL     1     -10.425   5.678  67.525  1.00  0.00    -0.294 A  
HETATM   32  C   UNL     1      -9.100   5.519  67.130  1.00  0.00    -0.111 A  
HETATM   33 CL   UNL     1      -8.669   5.737  65.480  1.00  0.00    -0.151 Cl 
HETATM   34  C   UNL     1      -8.114   5.178  68.060  1.00  0.00    -0.098 A  
ENDBRANCH  16  19
ENDBRANCH  10  12
ENDBRANCH   7   8
TORSDOF 3
ENDMDL
MODEL       14
REMARK 921   NORMALIZED FREE ENERGY PREDICTED BY IDOCK:   -6.46 KCAL/MOL
REMARK 922        TOTAL FREE ENERGY PREDICTED BY IDOCK:   -8.69 KCAL/MOL
REMARK 923 INTER-LIGAND FREE ENERGY PREDICTED BY IDOCK:   -7.65 KCAL/MOL
REMARK 924 INTRA-LIGAND FREE ENERGY PREDICTED BY IDOCK:   -1.04 KCAL/MOL
REMARK 927      BINDING AFFINITY PREDICTED BY RF-SCORE:    0.00 PKD
ROOT
HETATM    1  C   UNL     1     -12.604  12.510  64.804  1.00  0.00    -0.493 C  
HETATM    2  C   UNL     1     -11.622  13.588  65.159  1.00  0.00    -0.333 A  
HETATM    3  C   UNL     1     -11.796  14.848  64.545  1.00  0.00    -0.404 A  
HETATM    4  C   UNL     1     -10.963  15.929  64.839  1.00  0.00    -0.427 A  
HETATM    5  C   UNL     1      -9.927  15.773  65.747  1.00  0.00    -0.389 A  
HETATM    6  C   UNL     1      -9.732  14.536  66.363  1.00  0.00    -0.314 A  
HETATM    7  C   UNL     1     -10.565  13.432  66.084  1.00  0.00    -0.294 A  
ENDROOT
BRANCH   7   8
HETATM    8  C   UNL     1     -10.260  12.201  66.894  1.00  0.00    -0.208 C  
HETATM    9  O   UNL     1      -9.830  11.226  66.283  1.00  0.00    -0.202 OA 
HETATM   10  N   UNL     1     -10.544  12.238  68.247  1.00  0.00    -0.219 N  
HETATM   11  H   UNL     1     -10.834  13.140  68.626  1.00  0.00     0.000 HD 
BRANCH  10  12
HETATM   12  C   UNL     1     -10.477  11.159  69.165  1.00  0.00    -0.182 A  
HETATM   13  C   UNL     1      -9.293  10.550  69.590  1.00  0.00    -0.010 A  
HETATM   14  C   UNL     1      -9.289   9.437  70.469  1.00  0.00    -0.319 A  
HETATM   15  C   UNL     1      -7.957   8.814  70.800  1.00  0.00    -0.142 C  
HETATM   16  C   UNL     1     -10.512   8.929  70.959  1.00  0.00    -0.316 A  
HETATM   17  C   UNL     1     -11.697   9.518  70.486  1.00  0.00    -0.285 A  
HETATM   18  C   UNL     1     -11.681  10.631  69.631  1.00  0.00    -0.368 A  
BRANCH  16  19
HETATM   19  C   UNL     1     -10.558   7.751  71.921  1.00  0.00    -0.223 C  
HETATM   20  N   UNL     1     -10.190   6.454  71.491  1.00  0.00    -0.192 N  
HETATM   21  O   UNL     1     -10.880   7.971  73.088  1.00  0.00    -0.335 OA 
HETATM   22  C   UNL     1     -10.285   5.319  72.429  1.00  0.00    -0.195 C  
HETATM   23  C   UNL     1      -8.952   4.670  72.818  1.00  0.00    -0.127 C  
HETATM   24  C   UNL     1      -8.085   4.163  71.663  1.00  0.00    -0.086 C  
HETATM   25  C   UNL     1      -7.738   5.266  70.660  1.00  0.00    -0.084 C  
HETATM   26  C   UNL     1      -8.881   5.471  69.688  1.00  0.00    -0.120 A  
HETATM   27  O   UNL     1      -6.533   4.952  69.962  1.00  0.00    -0.032 OA 
HETATM   28  H   UNL     1      -6.318   5.637  69.340  1.00  0.00     0.000 HD 
HETATM   29  C   UNL     1     -10.078   6.069  70.134  1.00  0.00    -0.194 A  
HETATM   30  C   UNL     1     -11.149   6.274  69.254  1.00  0.00    -0.461 A  
HETATM   31  C   UNL     1     -11.032   5.884  67.922  1.00  0.00    -0.248 A  
HETATM   32  C   UNL     1      -9.850   5.307  67.470  1.00  0.00    -0.156 A  
HETATM   33 CL   UNL     1      -9.706   4.832  65.824  1.00  0.00    -0.186 Cl 
HETATM   34  C   UNL     1      -8.776   5.104  68.342  1.00  0.00    -0.104 A  
ENDBRANCH  16  19
ENDBRANCH  10  12
ENDBRANCH   7   8
TORSDOF 3
ENDMDL
MODEL       15
REMARK 921   NORMALIZED FREE ENERGY PREDICTED BY IDOCK:   -6.39 KCAL/MOL
REMARK 922        TOTAL FREE ENERGY PREDICTED BY IDOCK:   -8.61 KCAL/MOL
REMARK 923 INTER-LIGAND FREE ENERGY PREDICTED BY IDOCK:   -7.66 KCAL/MOL
REMARK 924 INTRA-LIGAND FREE ENERGY PREDICTED BY IDOCK:   -0.95 KCAL/MOL
REMARK 927      BINDING AFFINITY PREDICTED BY RF-SCORE:    0.00 PKD
ROOT
HETATM    1  C   UNL     1     -11.204  14.184  69.092  1.00  0.00    -0.307 C  
HETATM    2  C   UNL     1     -12.178  14.151  70.232  1.00  0.00    -0.416 A  
HETATM    3  C   UNL     1     -12.775  15.376  70.608  1.00  0.00    -0.490 A  
HETATM    4  C   UNL     1     -13.725  15.446  71.629  1.00  0.00    -0.606 A  
HETATM    5  C   UNL     1     -14.094  14.294  72.307  1.00  0.00    -0.621 A  
HETATM    6  C   UNL     1     -13.515  13.074  71.956  1.00  0.00    -0.584 A  
HETATM    7  C   UNL     1     -12.557  12.979  70.926  1.00  0.00    -0.364 A  
ENDROOT
BRANCH   7   8
HETATM    8  C   UNL     1     -12.095  11.578  70.630  1.00  0.00    -0.353 C  
HETATM    9  O   UNL     1     -12.189  11.194  69.467  1.00  0.00    -0.323 OA 
HETATM   10  N   UNL     1     -11.662  10.808  71.696  1.00  0.00     0.254 N  
HETATM   11  H   UNL     1     -11.575  11.284  72.594  1.00  0.00     0.000 HD 
BRANCH  10  12
HETATM   12  C   UNL     1     -11.326   9.431  71.674  1.00  0.00    -0.382 A  
HETATM   13  C   UNL     1     -10.048   8.921  71.921  1.00  0.00    -0.393 A  
HETATM   14  C   UNL     1      -9.757   7.536  71.833  1.00  0.00    -0.191 A  
HETATM   15  C   UNL     1      -8.328   7.108  72.045  1.00  0.00    -0.111 C  
HETATM   16  C   UNL     1     -10.786   6.624  71.508  1.00  0.00    -0.277 A  
HETATM   17  C   UNL     1     -12.055   7.154  71.215  1.00  0.00    -0.386 A  
HETATM   18  C   UNL     1     -12.329   8.526  71.326  1.00  0.00    -0.301 A  
BRANCH  16  19
HETATM   19  C   UNL     1     -10.528   5.128  71.423  1.00  0.00    -0.179 C  
HETATM   20  N   UNL     1      -9.821   4.580  70.328  1.00  0.00    -0.220 N  
HETATM   21  O   UNL     1     -10.913   4.422  72.354  1.00  0.00    -0.053 OA 
HETATM   22  C   UNL     1      -9.621   3.120  70.244  1.00  0.00    -0.110 C  
HETATM   23  C   UNL     1      -8.168   2.644  70.357  1.00  0.00    -0.064 C  
HETATM   24  C   UNL     1      -7.182   3.241  69.350  1.00  0.00    -0.045 C  
HETATM   25  C   UNL     1      -7.129   4.769  69.415  1.00  0.00    -0.051 C  
HETATM   26  C   UNL     1      -8.272   5.369  68.622  1.00  0.00    -0.094 A  
HETATM   27  O   UNL     1      -5.874   5.251  68.933  1.00  0.00    -0.018 OA 
HETATM   28  H   UNL     1      -5.842   6.200  68.974  1.00  0.00     0.000 HD 
HETATM   29  C   UNL     1      -9.591   5.260  69.109  1.00  0.00    -0.145 A  
HETATM   30  C   UNL     1     -10.666   5.810  68.396  1.00  0.00    -0.283 A  
HETATM   31  C   UNL     1     -10.431   6.471  67.194  1.00  0.00    -0.354 A  
HETATM   32  C   UNL     1      -9.131   6.595  66.714  1.00  0.00    -0.142 A  
HETATM   33 CL   UNL     1      -8.843   7.418  65.232  1.00  0.00     0.056 Cl 
HETATM   34  C   UNL     1      -8.055   6.054  67.422  1.00  0.00    -0.106 A  
ENDBRANCH  16  19
ENDBRANCH  10  12
ENDBRANCH   7   8
TORSDOF 3
ENDMDL
MODEL       16
REMARK 921   NORMALIZED FREE ENERGY PREDICTED BY IDOCK:   -6.37 KCAL/MOL
REMARK 922        TOTAL FREE ENERGY PREDICTED BY IDOCK:   -8.58 KCAL/MOL
REMARK 923 INTER-LIGAND FREE ENERGY PREDICTED BY IDOCK:   -7.86 KCAL/MOL
REMARK 924 INTRA-LIGAND FREE ENERGY PREDICTED BY IDOCK:   -0.72 KCAL/MOL
REMARK 927      BINDING AFFINITY PREDICTED BY RF-SCORE:    0.00 PKD
ROOT
HETATM    1  C   UNL     1     -10.876   5.515  73.268  1.00  0.00    -0.337 C  
HETATM    2  C   UNL     1     -10.274   4.756  72.122  1.00  0.00    -0.258 A  
HETATM    3  C   UNL     1      -9.917   3.409  72.355  1.00  0.00    -0.235 A  
HETATM    4  C   UNL     1      -9.389   2.604  71.344  1.00  0.00    -0.203 A  
HETATM    5  C   UNL     1      -9.194   3.131  70.076  1.00  0.00    -0.221 A  
HETATM    6  C   UNL     1      -9.534   4.460  69.823  1.00  0.00    -0.254 A  
HETATM    7  C   UNL     1     -10.073   5.290  70.828  1.00  0.00    -0.294 A  
ENDROOT
BRANCH   7   8
HETATM    8  C   UNL     1     -10.454   6.669  70.362  1.00  0.00    -0.211 C  
HETATM    9  O   UNL     1     -11.578   6.805  69.886  1.00  0.00    -0.322 OA 
HETATM   10  N   UNL     1      -9.492   7.660  70.444  1.00  0.00    -0.164 N  
HETATM   11  H   UNL     1      -8.626   7.415  70.924  1.00  0.00     0.000 HD 
BRANCH  10  12
HETATM   12  C   UNL     1      -9.579   8.980  69.932  1.00  0.00    -0.183 A  
HETATM   13  C   UNL     1     -10.775   9.642  69.642  1.00  0.00    -0.260 A  
HETATM   14  C   UNL     1     -10.801  10.944  69.081  1.00  0.00    -0.280 A  
HETATM   15  C   UNL     1     -12.146  11.530  68.739  1.00  0.00    -0.234 C  
HETATM   16  C   UNL     1      -9.587  11.618  68.821  1.00  0.00    -0.083 A  
HETATM   17  C   UNL     1      -8.391  10.923  69.071  1.00  0.00    -0.118 A  
HETATM   18  C   UNL     1      -8.385   9.642  69.645  1.00  0.00    -0.173 A  
BRANCH  16  19
HETATM   19  C   UNL     1      -9.563  13.024  68.240  1.00  0.00    -0.213 C  
HETATM   20  N   UNL     1      -9.689  13.229  66.845  1.00  0.00    -0.241 N  
HETATM   21  O   UNL     1      -9.477  13.970  69.021  1.00  0.00    -0.052 OA 
HETATM   22  C   UNL     1      -9.619  14.599  66.300  1.00  0.00    -0.308 C  
HETATM   23  C   UNL     1     -10.910  15.121  65.658  1.00  0.00    -0.367 C  
HETATM   24  C   UNL     1     -11.495  14.270  64.528  1.00  0.00    -0.363 C  
HETATM   25  C   UNL     1     -11.797  12.836  64.969  1.00  0.00    -0.382 C  
HETATM   26  C   UNL     1     -10.537  11.996  64.924  1.00  0.00    -0.334 A  
HETATM   27  O   UNL     1     -12.815  12.261  64.151  1.00  0.00    -0.678 OA 
HETATM   28  H   UNL     1     -13.002  11.370  64.424  1.00  0.00     0.000 HD 
HETATM   29  C   UNL     1      -9.518  12.216  65.874  1.00  0.00    -0.179 A  
HETATM   30  C   UNL     1      -8.344  11.450  65.856  1.00  0.00     0.040 A  
HETATM   31  C   UNL     1      -8.180  10.460  64.891  1.00  0.00    -0.145 A  
HETATM   32  C   UNL     1      -9.187  10.227  63.959  1.00  0.00    -0.271 A  
HETATM   33 CL   UNL     1      -8.985   8.999  62.772  1.00  0.00    -0.100 Cl 
HETATM   34  C   UNL     1     -10.361  10.984  63.974  1.00  0.00    -0.436 A  
ENDBRANCH  16  19
ENDBRANCH  10  12
ENDBRANCH   7   8
TORSDOF 3
ENDMDL
MODEL       17
REMARK 921   NORMALIZED FREE ENERGY PREDICTED BY IDOCK:   -6.35 KCAL/MOL
REMARK 922        TOTAL FREE ENERGY PREDICTED BY IDOCK:   -8.56 KCAL/MOL
REMARK 923 INTER-LIGAND FREE ENERGY PREDICTED BY IDOCK:   -7.61 KCAL/MOL
REMARK 924 INTRA-LIGAND FREE ENERGY PREDICTED BY IDOCK:   -0.95 KCAL/MOL
REMARK 927      BINDING AFFINITY PREDICTED BY RF-SCORE:    0.00 PKD
ROOT
HETATM    1  C   UNL     1     -11.433  14.477  68.950  1.00  0.00    -0.327 C  
HETATM    2  C   UNL     1     -12.202  14.060  70.168  1.00  0.00    -0.425 A  
HETATM    3  C   UNL     1     -12.779  15.086  70.950  1.00  0.00    -0.437 A  
HETATM    4  C   UNL     1     -13.549  14.804  72.079  1.00  0.00    -0.502 A  
HETATM    5  C   UNL     1     -13.752  13.486  72.462  1.00  0.00    -0.664 A  
HETATM    6  C   UNL     1     -13.188  12.456  71.709  1.00  0.00    -0.435 A  
HETATM    7  C   UNL     1     -12.410  12.719  70.562  1.00  0.00    -0.355 A  
ENDROOT
BRANCH   7   8
HETATM    8  C   UNL     1     -11.945  11.490  69.829  1.00  0.00    -0.346 C  
HETATM    9  O   UNL     1     -12.282  11.383  68.652  1.00  0.00    -0.532 OA 
HETATM   10  N   UNL     1     -11.232  10.547  70.547  1.00  0.00    -0.402 N  
HETATM   11  H   UNL     1     -10.969  10.804  71.499  1.00  0.00     0.000 HD 
BRANCH  10  12
HETATM   12  C   UNL     1     -10.827   9.262  70.105  1.00  0.00    -0.242 A  
HETATM   13  C   UNL     1      -9.842   9.028  69.141  1.00  0.00    -0.175 A  
HETATM   14  C   UNL     1      -9.515   7.721  68.698  1.00  0.00    -0.152 A  
HETATM   15  C   UNL     1      -8.491   7.593  67.600  1.00  0.00    -0.117 C  
HETATM   16  C   UNL     1     -10.182   6.606  69.254  1.00  0.00    -0.206 A  
HETATM   17  C   UNL     1     -11.204   6.858  70.185  1.00  0.00    -0.361 A  
HETATM   18  C   UNL     1     -11.500   8.157  70.627  1.00  0.00    -0.237 A  
BRANCH  16  19
HETATM   19  C   UNL     1      -9.851   5.184  68.826  1.00  0.00    -0.168 C  
HETATM   20  N   UNL     1      -9.166   4.309  69.702  1.00  0.00    -0.120 N  
HETATM   21  O   UNL     1     -10.234   4.810  67.719  1.00  0.00    -0.108 OA 
HETATM   22  C   UNL     1      -8.816   2.949  69.249  1.00  0.00    -0.096 C  
HETATM   23  C   UNL     1      -9.521   1.805  69.987  1.00  0.00    -0.134 C  
HETATM   24  C   UNL     1      -9.352   1.776  71.508  1.00  0.00    -0.175 C  
HETATM   25  C   UNL     1      -9.833   3.066  72.177  1.00  0.00    -0.169 C  
HETATM   26  C   UNL     1      -8.759   4.131  72.097  1.00  0.00    -0.120 A  
HETATM   27  O   UNL     1     -10.200   2.822  73.535  1.00  0.00    -0.104 OA 
HETATM   28  H   UNL     1     -10.499   3.623  73.950  1.00  0.00     0.000 HD 
HETATM   29  C   UNL     1      -8.461   4.729  70.855  1.00  0.00    -0.106 A  
HETATM   30  C   UNL     1      -7.475   5.720  70.754  1.00  0.00    -0.090 A  
HETATM   31  C   UNL     1      -6.781   6.121  71.892  1.00  0.00    -0.064 A  
HETATM   32  C   UNL     1      -7.078   5.547  73.123  1.00  0.00    -0.082 A  
HETATM   33 CL   UNL     1      -6.224   6.049  74.529  1.00  0.00    -0.068 Cl 
HETATM   34  C   UNL     1      -8.064   4.562  73.232  1.00  0.00    -0.095 A  
ENDBRANCH  16  19
ENDBRANCH  10  12
ENDBRANCH   7   8
TORSDOF 3
ENDMDL
MODEL       18
REMARK 921   NORMALIZED FREE ENERGY PREDICTED BY IDOCK:   -6.34 KCAL/MOL
REMARK 922        TOTAL FREE ENERGY PREDICTED BY IDOCK:   -8.54 KCAL/MOL
REMARK 923 INTER-LIGAND FREE ENERGY PREDICTED BY IDOCK:   -7.79 KCAL/MOL
REMARK 924 INTRA-LIGAND FREE ENERGY PREDICTED BY IDOCK:   -0.75 KCAL/MOL
REMARK 927      BINDING AFFINITY PREDICTED BY RF-SCORE:    0.00 PKD
ROOT
HETATM    1  C   UNL     1     -11.588  12.237  68.048  1.00  0.00    -0.408 C  
HETATM    2  C   UNL     1     -11.880  13.260  69.105  1.00  0.00    -0.378 A  
HETATM    3  C   UNL     1     -11.885  14.616  68.708  1.00  0.00    -0.348 A  
HETATM    4  C   UNL     1     -12.187  15.642  69.605  1.00  0.00    -0.264 A  
HETATM    5  C   UNL     1     -12.480  15.338  70.926  1.00  0.00    -0.446 A  
HETATM    6  C   UNL     1     -12.476  14.007  71.343  1.00  0.00    -0.438 A  
HETATM    7  C   UNL     1     -12.178  12.954  70.453  1.00  0.00    -0.381 A  
ENDROOT
BRANCH   7   8
HETATM    8  C   UNL     1     -12.295  11.578  71.052  1.00  0.00    -0.329 C  
HETATM    9  O   UNL     1     -13.193  11.402  71.871  1.00  0.00    -0.484 OA 
HETATM   10  N   UNL     1     -11.348  10.638  70.685  1.00  0.00    -0.409 N  
HETATM   11  H   UNL     1     -10.703  10.908  69.943  1.00  0.00     0.000 HD 
BRANCH  10  12
HETATM   12  C   UNL     1     -11.178   9.339  71.230  1.00  0.00    -0.355 A  
HETATM   13  C   UNL     1     -10.053   8.920  71.946  1.00  0.00    -0.393 A  
HETATM   14  C   UNL     1      -9.914   7.591  72.422  1.00  0.00    -0.233 A  
HETATM   15  C   UNL     1      -8.625   7.230  73.115  1.00  0.00    -0.163 C  
HETATM   16  C   UNL     1     -10.945   6.654  72.192  1.00  0.00    -0.277 A  
HETATM   17  C   UNL     1     -12.048   7.075  71.429  1.00  0.00    -0.396 A  
HETATM   18  C   UNL     1     -12.178   8.400  70.983  1.00  0.00    -0.181 A  
BRANCH  16  19
HETATM   19  C   UNL     1     -10.851   5.224  72.701  1.00  0.00    -0.253 C  
HETATM   20  N   UNL     1      -9.996   4.289  72.070  1.00  0.00    -0.174 N  
HETATM   21  O   UNL     1     -11.503   4.922  73.699  1.00  0.00    -0.251 OA 
HETATM   22  C   UNL     1      -9.954   2.895  72.553  1.00  0.00    -0.159 C  
HETATM   23  C   UNL     1      -8.623   2.449  73.170  1.00  0.00    -0.070 C  
HETATM   24  C   UNL     1      -7.384   2.604  72.285  1.00  0.00    -0.043 C  
HETATM   25  C   UNL     1      -7.169   4.046  71.821  1.00  0.00    -0.057 C  
HETATM   26  C   UNL     1      -8.041   4.347  70.619  1.00  0.00    -0.067 A  
HETATM   27  O   UNL     1      -5.794   4.278  71.516  1.00  0.00    -0.014 OA 
HETATM   28  H   UNL     1      -5.660   5.173  71.228  1.00  0.00     0.000 HD 
HETATM   29  C   UNL     1      -9.436   4.466  70.783  1.00  0.00    -0.173 A  
HETATM   30  C   UNL     1     -10.265   4.748  69.688  1.00  0.00    -0.200 A  
HETATM   31  C   UNL     1      -9.706   4.914  68.424  1.00  0.00    -0.212 A  
HETATM   32  C   UNL     1      -8.329   4.812  68.257  1.00  0.00    -0.091 A  
HETATM   33 CL   UNL     1      -7.640   5.023  66.695  1.00  0.00    -0.087 Cl 
HETATM   34  C   UNL     1      -7.497   4.535  69.345  1.00  0.00    -0.055 A  
ENDBRANCH  16  19
ENDBRANCH  10  12
ENDBRANCH   7   8
TORSDOF 3
ENDMDL
MODEL       19
REMARK 921   NORMALIZED FREE ENERGY PREDICTED BY IDOCK:   -6.30 KCAL/MOL
REMARK 922        TOTAL FREE ENERGY PREDICTED BY IDOCK:   -8.49 KCAL/MOL
REMARK 923 INTER-LIGAND FREE ENERGY PREDICTED BY IDOCK:   -7.50 KCAL/MOL
REMARK 924 INTRA-LIGAND FREE ENERGY PREDICTED BY IDOCK:   -0.99 KCAL/MOL
REMARK 927      BINDING AFFINITY PREDICTED BY RF-SCORE:    0.00 PKD
ROOT
HETATM    1  C   UNL     1     -10.730  17.258  65.364  1.00  0.00    -0.074 C  
HETATM    2  C   UNL     1     -10.121  17.896  66.578  1.00  0.00    -0.370 A  
HETATM    3  C   UNL     1     -10.690  19.110  67.023  1.00  0.00    -0.542 A  
HETATM    4  C   UNL     1     -10.225  19.763  68.166  1.00  0.00    -0.577 A  
HETATM    5  C   UNL     1      -9.170  19.224  68.886  1.00  0.00    -0.383 A  
HETATM    6  C   UNL     1      -8.588  18.029  68.462  1.00  0.00    -0.306 A  
HETATM    7  C   UNL     1      -9.045  17.350  67.313  1.00  0.00    -0.239 A  
ENDROOT
BRANCH   7   8
HETATM    8  C   UNL     1      -8.355  16.039  67.047  1.00  0.00    -0.219 C  
HETATM    9  O   UNL     1      -7.249  16.091  66.516  1.00  0.00    -0.153 OA 
HETATM   10  N   UNL     1      -9.040  14.879  67.361  1.00  0.00    -0.183 N  
HETATM   11  H   UNL     1      -9.922  14.994  67.860  1.00  0.00     0.000 HD 
BRANCH  10  12
HETATM   12  C   UNL     1      -8.650  13.549  67.064  1.00  0.00    -0.157 A  
HETATM   13  C   UNL     1      -9.424  12.637  66.339  1.00  0.00    -0.231 A  
HETATM   14  C   UNL     1      -9.005  11.300  66.118  1.00  0.00    -0.210 A  
HETATM   15  C   UNL     1      -9.954  10.385  65.388  1.00  0.00    -0.362 C  
HETATM   16  C   UNL     1      -7.759  10.865  66.620  1.00  0.00    -0.146 A  
HETATM   17  C   UNL     1      -7.014  11.776  67.389  1.00  0.00    -0.121 A  
HETATM   18  C   UNL     1      -7.435  13.101  67.581  1.00  0.00    -0.164 A  
BRANCH  16  19
HETATM   19  C   UNL     1      -7.258   9.447  66.390  1.00  0.00    -0.089 C  
HETATM   20  N   UNL     1      -7.805   8.363  67.116  1.00  0.00    -0.100 N  
HETATM   21  O   UNL     1      -6.400   9.271  65.527  1.00  0.00    -0.063 OA 
HETATM   22  C   UNL     1      -7.273   7.002  66.908  1.00  0.00    -0.077 C  
HETATM   23  C   UNL     1      -8.248   6.000  66.279  1.00  0.00    -0.118 C  
HETATM   24  C   UNL     1      -9.578   5.801  67.011  1.00  0.00    -0.145 C  
HETATM   25  C   UNL     1     -10.362   7.106  67.169  1.00  0.00    -0.289 C  
HETATM   26  C   UNL     1      -9.845   7.889  68.359  1.00  0.00    -0.185 A  
HETATM   27  O   UNL     1     -11.758   6.842  67.307  1.00  0.00    -0.610 OA 
HETATM   28  H   UNL     1     -12.244   7.652  67.405  1.00  0.00     0.000 HD 
HETATM   29  C   UNL     1      -8.577   8.503  68.293  1.00  0.00    -0.139 A  
HETATM   30  C   UNL     1      -8.078   9.236  69.378  1.00  0.00    -0.108 A  
HETATM   31  C   UNL     1      -8.841   9.362  70.536  1.00  0.00    -0.287 A  
HETATM   32  C   UNL     1     -10.099   8.772  70.603  1.00  0.00    -0.204 A  
HETATM   33 CL   UNL     1     -11.043   8.934  72.032  1.00  0.00    -0.441 Cl 
HETATM   34  C   UNL     1     -10.605   8.043  69.523  1.00  0.00    -0.216 A  
ENDBRANCH  16  19
ENDBRANCH  10  12
ENDBRANCH   7   8
TORSDOF 3
ENDMDL
MODEL       20
REMARK 921   NORMALIZED FREE ENERGY PREDICTED BY IDOCK:   -6.24 KCAL/MOL
REMARK 922        TOTAL FREE ENERGY PREDICTED BY IDOCK:   -8.43 KCAL/MOL
REMARK 923 INTER-LIGAND FREE ENERGY PREDICTED BY IDOCK:   -7.40 KCAL/MOL
REMARK 924 INTRA-LIGAND FREE ENERGY PREDICTED BY IDOCK:   -1.03 KCAL/MOL
REMARK 927      BINDING AFFINITY PREDICTED BY RF-SCORE:    0.00 PKD
ROOT
HETATM    1  C   UNL     1     -11.007  16.290  69.794  1.00  0.00    -0.354 C  
HETATM    2  C   UNL     1     -10.739  16.894  68.447  1.00  0.00    -0.368 A  
HETATM    3  C   UNL     1     -10.444  18.275  68.406  1.00  0.00    -0.292 A  
HETATM    4  C   UNL     1     -10.138  18.925  67.209  1.00  0.00    -0.414 A  
HETATM    5  C   UNL     1     -10.132  18.211  66.020  1.00  0.00    -0.272 A  
HETATM    6  C   UNL     1     -10.425  16.847  66.035  1.00  0.00    -0.297 A  
HETATM    7  C   UNL     1     -10.732  16.169  67.234  1.00  0.00    -0.277 A  
ENDROOT
BRANCH   7   8
HETATM    8  C   UNL     1     -10.947  14.688  67.076  1.00  0.00    -0.317 C  
HETATM    9  O   UNL     1     -12.045  14.326  66.663  1.00  0.00    -0.426 OA 
HETATM   10  N   UNL     1      -9.920  13.847  67.467  1.00  0.00    -0.237 N  
HETATM   11  H   UNL     1      -9.040  14.294  67.727  1.00  0.00     0.000 HD 
BRANCH  10  12
HETATM   12  C   UNL     1      -9.957  12.432  67.545  1.00  0.00    -0.196 A  
HETATM   13  C   UNL     1      -9.393  11.569  66.600  1.00  0.00    -0.201 A  
HETATM   14  C   UNL     1      -9.508  10.159  66.702  1.00  0.00    -0.211 A  
HETATM   15  C   UNL     1      -8.927   9.330  65.585  1.00  0.00    -0.243 C  
HETATM   16  C   UNL     1     -10.191   9.590  67.799  1.00  0.00    -0.265 A  
HETATM   17  C   UNL     1     -10.795  10.469  68.715  1.00  0.00    -0.269 A  
HETATM   18  C   UNL     1     -10.654  11.861  68.609  1.00  0.00    -0.259 A  
BRANCH  16  19
HETATM   19  C   UNL     1     -10.321   8.084  67.963  1.00  0.00    -0.206 C  
HETATM   20  N   UNL     1      -9.682   7.417  69.035  1.00  0.00    -0.159 N  
HETATM   21  O   UNL     1     -11.031   7.475  67.164  1.00  0.00    -0.293 OA 
HETATM   22  C   UNL     1      -9.785   5.950  69.149  1.00  0.00    -0.140 C  
HETATM   23  C   UNL     1     -10.553   5.433  70.371  1.00  0.00    -0.322 C  
HETATM   24  C   UNL     1     -10.046   5.905  71.736  1.00  0.00    -0.228 C  
HETATM   25  C   UNL     1     -10.031   7.431  71.863  1.00  0.00    -0.170 C  
HETATM   26  C   UNL     1      -8.782   8.000  71.222  1.00  0.00    -0.159 A  
HETATM   27  O   UNL     1     -10.119   7.824  73.232  1.00  0.00    -0.305 OA 
HETATM   28  H   UNL     1     -10.110   8.770  73.310  1.00  0.00     0.000 HD 
HETATM   29  C   UNL     1      -8.648   7.981  69.818  1.00  0.00    -0.131 A  
HETATM   30  C   UNL     1      -7.504   8.505  69.201  1.00  0.00    -0.088 A  
HETATM   31  C   UNL     1      -6.487   9.051  69.979  1.00  0.00    -0.042 A  
HETATM   32  C   UNL     1      -6.618   9.086  71.364  1.00  0.00    -0.081 A  
HETATM   33 CL   UNL     1      -5.364   9.766  72.324  1.00  0.00    -0.038 Cl 
HETATM   34  C   UNL     1      -7.758   8.570  71.986  1.00  0.00    -0.141 A  
ENDBRANCH  16  19
ENDBRANCH  10  12
ENDBRANCH   7   8
TORSDOF 3
ENDMDL
MODEL       21
REMARK 921   NORMALIZED FREE ENERGY PREDICTED BY IDOCK:   -6.22 KCAL/MOL
REMARK 922        TOTAL FREE ENERGY PREDICTED BY IDOCK:   -8.41 KCAL/MOL
REMARK 923 INTER-LIGAND FREE ENERGY PREDICTED BY IDOCK:   -7.30 KCAL/MOL
REMARK 924 INTRA-LIGAND FREE ENERGY PREDICTED BY IDOCK:   -1.10 KCAL/MOL
REMARK 927      BINDING AFFINITY PREDICTED BY RF-SCORE:    0.00 PKD
ROOT
HETATM    1  C   UNL     1      -6.459  17.774  69.519  1.00  0.00    -0.185 C  
HETATM    2  C   UNL     1      -7.106  18.660  68.496  1.00  0.00    -0.297 A  
HETATM    3  C   UNL     1      -6.446  19.869  68.179  1.00  0.00    -0.290 A  
HETATM    4  C   UNL     1      -6.943  20.744  67.211  1.00  0.00    -0.414 A  
HETATM    5  C   UNL     1      -8.119  20.436  66.543  1.00  0.00    -0.203 A  
HETATM    6  C   UNL     1      -8.790  19.251  66.843  1.00  0.00    -0.334 A  
HETATM    7  C   UNL     1      -8.305  18.351  67.814  1.00  0.00    -0.273 A  
ENDROOT
BRANCH   7   8
HETATM    8  C   UNL     1      -9.112  17.089  67.955  1.00  0.00    -0.232 C  
HETATM    9  O   UNL     1      -9.888  17.027  68.904  1.00  0.00    -0.263 OA 
HETATM   10  N   UNL     1      -8.875  16.073  67.045  1.00  0.00    -0.198 N  
HETATM   11  H   UNL     1      -8.251  16.294  66.270  1.00  0.00     0.000 HD 
BRANCH  10  12
HETATM   12  C   UNL     1      -9.406  14.758  67.075  1.00  0.00    -0.233 A  
HETATM   13  C   UNL     1     -10.482  14.319  66.298  1.00  0.00    -0.291 A  
HETATM   14  C   UNL     1     -11.006  13.006  66.408  1.00  0.00    -0.301 A  
HETATM   15  C   UNL     1     -12.216  12.665  65.577  1.00  0.00    -0.501 C  
HETATM   16  C   UNL     1     -10.420  12.092  67.312  1.00  0.00    -0.241 A  
HETATM   17  C   UNL     1      -9.371  12.561  68.122  1.00  0.00    -0.210 A  
HETATM   18  C   UNL     1      -8.852  13.858  67.985  1.00  0.00    -0.184 A  
BRANCH  16  19
HETATM   19  C   UNL     1     -10.933  10.666  67.450  1.00  0.00    -0.298 C  
HETATM   20  N   UNL     1     -10.222   9.586  66.876  1.00  0.00    -0.242 N  
HETATM   21  O   UNL     1     -11.954  10.482  68.110  1.00  0.00    -0.375 OA 
HETATM   22  C   UNL     1     -10.762   8.217  66.984  1.00  0.00    -0.177 C  
HETATM   23  C   UNL     1      -9.928   7.242  67.823  1.00  0.00    -0.205 C  
HETATM   24  C   UNL     1      -8.468   7.063  67.398  1.00  0.00    -0.122 C  
HETATM   25  C   UNL     1      -7.692   8.383  67.394  1.00  0.00    -0.098 C  
HETATM   26  C   UNL     1      -7.954   9.141  66.109  1.00  0.00    -0.103 A  
HETATM   27  O   UNL     1      -6.295   8.146  67.563  1.00  0.00    -0.053 OA 
HETATM   28  H   UNL     1      -5.814   8.965  67.560  1.00  0.00     0.000 HD 
HETATM   29  C   UNL     1      -9.217   9.729  65.891  1.00  0.00    -0.187 A  
HETATM   30  C   UNL     1      -9.484  10.440  64.712  1.00  0.00    -0.329 A  
HETATM   31  C   UNL     1      -8.491  10.570  63.745  1.00  0.00    -0.127 A  
HETATM   32  C   UNL     1      -7.237  10.005  63.959  1.00  0.00    -0.129 A  
HETATM   33 CL   UNL     1      -6.011  10.171  62.764  1.00  0.00    -0.121 Cl 
HETATM   34  C   UNL     1      -6.964   9.299  65.133  1.00  0.00    -0.085 A  
ENDBRANCH  16  19
ENDBRANCH  10  12
ENDBRANCH   7   8
TORSDOF 3
ENDMDL
MODEL       22
REMARK 921   NORMALIZED FREE ENERGY PREDICTED BY IDOCK:   -6.21 KCAL/MOL
REMARK 922        TOTAL FREE ENERGY PREDICTED BY IDOCK:   -8.39 KCAL/MOL
REMARK 923 INTER-LIGAND FREE ENERGY PREDICTED BY IDOCK:   -7.26 KCAL/MOL
REMARK 924 INTRA-LIGAND FREE ENERGY PREDICTED BY IDOCK:   -1.13 KCAL/MOL
REMARK 927      BINDING AFFINITY PREDICTED BY RF-SCORE:    0.00 PKD
ROOT
HETATM    1  C   UNL     1     -12.022  14.184  67.417  1.00  0.00    -0.439 C  
HETATM    2  C   UNL     1     -11.918  13.556  66.059  1.00  0.00    -0.449 A  
HETATM    3  C   UNL     1     -12.246  14.364  64.947  1.00  0.00    -0.440 A  
HETATM    4  C   UNL     1     -12.141  13.889  63.639  1.00  0.00    -0.247 A  
HETATM    5  C   UNL     1     -11.717  12.589  63.410  1.00  0.00    -0.567 A  
HETATM    6  C   UNL     1     -11.392  11.771  64.492  1.00  0.00    -0.349 A  
HETATM    7  C   UNL     1     -11.486  12.232  65.822  1.00  0.00    -0.417 A  
ENDROOT
BRANCH   7   8
HETATM    8  C   UNL     1     -11.023  11.243  66.859  1.00  0.00    -0.290 C  
HETATM    9  O   UNL     1     -11.852  10.878  67.688  1.00  0.00    -0.572 OA 
HETATM   10  N   UNL     1      -9.691  10.871  66.839  1.00  0.00    -0.178 N  
HETATM   11  H   UNL     1      -9.138  11.204  66.049  1.00  0.00     0.000 HD 
BRANCH  10  12
HETATM   12  C   UNL     1      -9.010  10.078  67.798  1.00  0.00    -0.131 A  
HETATM   13  C   UNL     1      -8.680   8.731  67.623  1.00  0.00    -0.135 A  
HETATM   14  C   UNL     1      -8.046   7.971  68.639  1.00  0.00    -0.125 A  
HETATM   15  C   UNL     1      -7.805   6.508  68.369  1.00  0.00    -0.106 C  
HETATM   16  C   UNL     1      -7.710   8.586  69.866  1.00  0.00    -0.091 A  
HETATM   17  C   UNL     1      -8.093   9.926  70.047  1.00  0.00    -0.193 A  
HETATM   18  C   UNL     1      -8.702  10.668  69.023  1.00  0.00    -0.152 A  
BRANCH  16  19
HETATM   19  C   UNL     1      -7.011   7.818  70.977  1.00  0.00    -0.049 C  
HETATM   20  N   UNL     1      -7.730   6.909  71.788  1.00  0.00    -0.094 N  
HETATM   21  O   UNL     1      -5.799   7.979  71.116  1.00  0.00    -0.034 OA 
HETATM   22  C   UNL     1      -7.040   6.209  72.889  1.00  0.00    -0.080 C  
HETATM   23  C   UNL     1      -6.917   4.689  72.731  1.00  0.00    -0.075 C  
HETATM   24  C   UNL     1      -8.227   3.923  72.528  1.00  0.00    -0.093 C  
HETATM   25  C   UNL     1      -9.009   4.410  71.306  1.00  0.00    -0.122 C  
HETATM   26  C   UNL     1      -9.809   5.648  71.654  1.00  0.00    -0.213 A  
HETATM   27  O   UNL     1      -9.864   3.379  70.812  1.00  0.00    -0.160 OA 
HETATM   28  H   UNL     1     -10.350   3.682  70.054  1.00  0.00     0.000 HD 
HETATM   29  C   UNL     1      -9.141   6.869  71.879  1.00  0.00    -0.141 A  
HETATM   30  C   UNL     1      -9.859   8.031  72.198  1.00  0.00    -0.286 A  
HETATM   31  C   UNL     1     -11.247   7.981  72.293  1.00  0.00    -0.402 A  
HETATM   32  C   UNL     1     -11.914   6.783  72.058  1.00  0.00    -0.317 A  
HETATM   33 CL   UNL     1     -13.629   6.725  72.169  1.00  0.00    -0.083 Cl 
HETATM   34  C   UNL     1     -11.205   5.622  71.735  1.00  0.00    -0.226 A  
ENDBRANCH  16  19
ENDBRANCH  10  12
ENDBRANCH   7   8
TORSDOF 3
ENDMDL
MODEL       23
REMARK 921   NORMALIZED FREE ENERGY PREDICTED BY IDOCK:   -6.20 KCAL/MOL
REMARK 922        TOTAL FREE ENERGY PREDICTED BY IDOCK:   -8.38 KCAL/MOL
REMARK 923 INTER-LIGAND FREE ENERGY PREDICTED BY IDOCK:   -7.86 KCAL/MOL
REMARK 924 INTRA-LIGAND FREE ENERGY PREDICTED BY IDOCK:   -0.52 KCAL/MOL
REMARK 927      BINDING AFFINITY PREDICTED BY RF-SCORE:    0.00 PKD
ROOT
HETATM    1  C   UNL     1     -12.099  13.648  67.886  1.00  0.00    -0.318 C  
HETATM    2  C   UNL     1     -11.889  13.187  66.474  1.00  0.00    -0.456 A  
HETATM    3  C   UNL     1     -12.287  14.067  65.442  1.00  0.00    -0.495 A  
HETATM    4  C   UNL     1     -12.096  13.752  64.095  1.00  0.00    -0.478 A  
HETATM    5  C   UNL     1     -11.512  12.543  63.746  1.00  0.00    -0.542 A  
HETATM    6  C   UNL     1     -11.115  11.657  64.748  1.00  0.00    -0.328 A  
HETATM    7  C   UNL     1     -11.294  11.956  66.115  1.00  0.00    -0.383 A  
ENDROOT
BRANCH   7   8
HETATM    8  C   UNL     1     -10.739  10.923  67.058  1.00  0.00    -0.271 C  
HETATM    9  O   UNL     1     -10.442   9.833  66.577  1.00  0.00    -0.211 OA 
HETATM   10  N   UNL     1     -10.666  11.255  68.399  1.00  0.00    -0.191 N  
HETATM   11  H   UNL     1     -10.885  12.221  68.641  1.00  0.00     0.000 HD 
BRANCH  10  12
HETATM   12  C   UNL     1     -10.319  10.397  69.474  1.00  0.00    -0.237 A  
HETATM   13  C   UNL     1     -11.230   9.868  70.394  1.00  0.00    -0.379 A  
HETATM   14  C   UNL     1     -10.818   9.058  71.482  1.00  0.00    -0.416 A  
HETATM   15  C   UNL     1     -11.877   8.606  72.455  1.00  0.00    -0.402 C  
HETATM   16  C   UNL     1      -9.450   8.746  71.645  1.00  0.00    -0.358 A  
HETATM   17  C   UNL     1      -8.540   9.324  70.743  1.00  0.00    -0.254 A  
HETATM   18  C   UNL     1      -8.968  10.108  69.659  1.00  0.00    -0.190 A  
BRANCH  16  19
HETATM   19  C   UNL     1      -8.963   7.863  72.784  1.00  0.00    -0.198 C  
HETATM   20  N   UNL     1      -8.489   6.554  72.529  1.00  0.00    -0.122 N  
HETATM   21  O   UNL     1      -8.955   8.337  73.919  1.00  0.00    -0.195 OA 
HETATM   22  C   UNL     1      -8.064   5.700  73.655  1.00  0.00    -0.112 C  
HETATM   23  C   UNL     1      -6.573   5.344  73.688  1.00  0.00    -0.073 C  
HETATM   24  C   UNL     1      -6.013   4.664  72.436  1.00  0.00    -0.016 C  
HETATM   25  C   UNL     1      -6.216   5.503  71.172  1.00  0.00    -0.034 C  
HETATM   26  C   UNL     1      -7.617   5.305  70.629  1.00  0.00    -0.076 A  
HETATM   27  O   UNL     1      -5.242   5.168  70.183  1.00  0.00    -0.003 OA 
HETATM   28  H   UNL     1      -5.368   5.689  69.399  1.00  0.00     0.000 HD 
HETATM   29  C   UNL     1      -8.717   5.846  71.326  1.00  0.00    -0.132 A  
HETATM   30  C   UNL     1     -10.023   5.681  70.844  1.00  0.00    -0.251 A  
HETATM   31  C   UNL     1     -10.239   4.976  69.663  1.00  0.00    -0.306 A  
HETATM   32  C   UNL     1      -9.157   4.451  68.962  1.00  0.00    -0.126 A  
HETATM   33 CL   UNL     1      -9.426   3.586  67.500  1.00  0.00    -0.247 Cl 
HETATM   34  C   UNL     1      -7.853   4.616  69.435  1.00  0.00    -0.062 A  
ENDBRANCH  16  19
ENDBRANCH  10  12
ENDBRANCH   7   8
TORSDOF 3
ENDMDL
MODEL       24
REMARK 921   NORMALIZED FREE ENERGY PREDICTED BY IDOCK:   -6.16 KCAL/MOL
REMARK 922        TOTAL FREE ENERGY PREDICTED BY IDOCK:   -8.33 KCAL/MOL
REMARK 923 INTER-LIGAND FREE ENERGY PREDICTED BY IDOCK:   -7.58 KCAL/MOL
REMARK 924 INTRA-LIGAND FREE ENERGY PREDICTED BY IDOCK:   -0.75 KCAL/MOL
REMARK 927      BINDING AFFINITY PREDICTED BY RF-SCORE:    0.00 PKD
ROOT
HETATM    1  C   UNL     1     -12.032   6.991  70.418  1.00  0.00    -0.256 C  
HETATM    2  C   UNL     1     -10.723   6.403  69.981  1.00  0.00    -0.316 A  
HETATM    3  C   UNL     1     -10.280   5.242  70.654  1.00  0.00    -0.327 A  
HETATM    4  C   UNL     1      -9.097   4.593  70.296  1.00  0.00    -0.164 A  
HETATM    5  C   UNL     1      -8.321   5.096  69.262  1.00  0.00    -0.087 A  
HETATM    6  C   UNL     1      -8.736   6.244  68.587  1.00  0.00    -0.120 A  
HETATM    7  C   UNL     1      -9.929   6.913  68.928  1.00  0.00    -0.158 A  
ENDROOT
BRANCH   7   8
HETATM    8  C   UNL     1     -10.261   8.086  68.047  1.00  0.00    -0.210 C  
HETATM    9  O   UNL     1     -10.591   7.838  66.890  1.00  0.00    -0.343 OA 
HETATM   10  N   UNL     1     -10.109   9.353  68.583  1.00  0.00    -0.184 N  
HETATM   11  H   UNL     1      -9.894   9.402  69.578  1.00  0.00     0.000 HD 
BRANCH  10  12
HETATM   12  C   UNL     1     -10.221  10.590  67.898  1.00  0.00    -0.183 A  
HETATM   13  C   UNL     1     -11.265  10.927  67.032  1.00  0.00    -0.211 A  
HETATM   14  C   UNL     1     -11.297  12.160  66.332  1.00  0.00    -0.411 A  
HETATM   15  C   UNL     1     -12.432  12.384  65.366  1.00  0.00    -0.181 C  
HETATM   16  C   UNL     1     -10.259  13.099  66.521  1.00  0.00    -0.277 A  
HETATM   17  C   UNL     1      -9.191  12.728  67.356  1.00  0.00    -0.193 A  
HETATM   18  C   UNL     1      -9.186  11.511  68.056  1.00  0.00    -0.175 A  
BRANCH  16  19
HETATM   19  C   UNL     1     -10.260  14.443  65.809  1.00  0.00    -0.337 C  
HETATM   20  N   UNL     1     -10.310  15.649  66.547  1.00  0.00    -0.283 N  
HETATM   21  O   UNL     1     -10.173  14.447  64.582  1.00  0.00    -0.362 OA 
HETATM   22  C   UNL     1     -10.355  16.941  65.834  1.00  0.00    -0.315 C  
HETATM   23  C   UNL     1      -9.129  17.843  66.020  1.00  0.00    -0.018 C  
HETATM   24  C   UNL     1      -8.764  18.196  67.464  1.00  0.00    -0.249 C  
HETATM   25  C   UNL     1      -8.509  16.957  68.325  1.00  0.00    -0.229 C  
HETATM   26  C   UNL     1      -9.820  16.380  68.818  1.00  0.00    -0.250 A  
HETATM   27  O   UNL     1      -7.654  17.274  69.424  1.00  0.00    -0.080 OA 
HETATM   28  H   UNL     1      -7.495  16.505  69.958  1.00  0.00     0.000 HD 
HETATM   29  C   UNL     1     -10.683  15.734  67.909  1.00  0.00    -0.302 A  
HETATM   30  C   UNL     1     -11.900  15.187  68.340  1.00  0.00    -0.293 A  
HETATM   31  C   UNL     1     -12.263  15.282  69.680  1.00  0.00    -0.304 A  
HETATM   32  C   UNL     1     -11.410  15.905  70.586  1.00  0.00    -0.397 A  
HETATM   33 CL   UNL     1     -11.858  16.015  72.243  1.00  0.00    -0.589 Cl 
HETATM   34  C   UNL     1     -10.193  16.447  70.164  1.00  0.00     0.224 A  
ENDBRANCH  16  19
ENDBRANCH  10  12
ENDBRANCH   7   8
TORSDOF 3
ENDMDL
MODEL       25
REMARK 921   NORMALIZED FREE ENERGY PREDICTED BY IDOCK:   -6.04 KCAL/MOL
REMARK 922        TOTAL FREE ENERGY PREDICTED BY IDOCK:   -8.19 KCAL/MOL
REMARK 923 INTER-LIGAND FREE ENERGY PREDICTED BY IDOCK:   -7.07 KCAL/MOL
REMARK 924 INTRA-LIGAND FREE ENERGY PREDICTED BY IDOCK:   -1.11 KCAL/MOL
REMARK 927      BINDING AFFINITY PREDICTED BY RF-SCORE:    0.00 PKD
ROOT
HETATM    1  C   UNL     1     -10.290  17.837  68.578  1.00  0.00    -0.366 C  
HETATM    2  C   UNL     1      -8.878  17.983  68.092  1.00  0.00    -0.277 A  
HETATM    3  C   UNL     1      -8.209  19.188  68.403  1.00  0.00    -0.384 A  
HETATM    4  C   UNL     1      -6.880  19.406  68.034  1.00  0.00    -0.280 A  
HETATM    5  C   UNL     1      -6.191  18.428  67.333  1.00  0.00    -0.187 A  
HETATM    6  C   UNL     1      -6.833  17.232  67.010  1.00  0.00    -0.225 A  
HETATM    7  C   UNL     1      -8.173  16.989  67.377  1.00  0.00    -0.199 A  
ENDROOT
BRANCH   7   8
HETATM    8  C   UNL     1      -8.680  15.619  67.015  1.00  0.00    -0.230 C  
HETATM    9  O   UNL     1      -9.315  15.519  65.969  1.00  0.00    -0.316 OA 
HETATM   10  N   UNL     1      -8.448  14.593  67.914  1.00  0.00    -0.150 N  
HETATM   11  H   UNL     1      -7.847  14.812  68.708  1.00  0.00     0.000 HD 
BRANCH  10  12
HETATM   12  C   UNL     1      -8.957  13.270  67.851  1.00  0.00    -0.199 A  
HETATM   13  C   UNL     1     -10.102  12.827  68.518  1.00  0.00    -0.189 A  
HETATM   14  C   UNL     1     -10.534  11.478  68.461  1.00  0.00    -0.228 A  
HETATM   15  C   UNL     1     -11.740  11.096  69.281  1.00  0.00    -0.401 C  
HETATM   16  C   UNL     1      -9.807  10.542  67.692  1.00  0.00    -0.192 A  
HETATM   17  C   UNL     1      -8.630  10.989  67.067  1.00  0.00    -0.140 A  
HETATM   18  C   UNL     1      -8.229  12.333  67.118  1.00  0.00    -0.179 A  
BRANCH  16  19
HETATM   19  C   UNL     1     -10.243   9.089  67.584  1.00  0.00    -0.242 C  
HETATM   20  N   UNL     1      -9.930   8.164  68.608  1.00  0.00    -0.184 N  
HETATM   21  O   UNL     1     -10.910   8.758  66.605  1.00  0.00    -0.079 OA 
HETATM   22  C   UNL     1     -10.325   6.750  68.460  1.00  0.00    -0.190 C  
HETATM   23  C   UNL     1     -11.370   6.247  69.463  1.00  0.00    -0.475 C  
HETATM   24  C   UNL     1     -11.020   6.412  70.944  1.00  0.00    -0.335 C  
HETATM   25  C   UNL     1     -10.741   7.868  71.323  1.00  0.00    -0.228 C  
HETATM   26  C   UNL     1      -9.318   8.242  70.964  1.00  0.00    -0.196 A  
HETATM   27  O   UNL     1     -10.983   8.082  72.713  1.00  0.00    -0.363 OA 
HETATM   28  H   UNL     1     -10.810   8.986  72.949  1.00  0.00     0.000 HD 
HETATM   29  C   UNL     1      -8.955   8.386  69.609  1.00  0.00    -0.145 A  
HETATM   30  C   UNL     1      -7.646   8.735  69.250  1.00  0.00    -0.093 A  
HETATM   31  C   UNL     1      -6.691   8.943  70.241  1.00  0.00    -0.043 A  
HETATM   32  C   UNL     1      -7.044   8.818  71.581  1.00  0.00    -0.073 A  
HETATM   33 CL   UNL     1      -5.864   9.082  72.804  1.00  0.00    -0.068 Cl 
HETATM   34  C   UNL     1      -8.349   8.474  71.946  1.00  0.00    -0.218 A  
ENDBRANCH  16  19
ENDBRANCH  10  12
ENDBRANCH   7   8
TORSDOF 3
ENDMDL
MODEL       26
REMARK 921   NORMALIZED FREE ENERGY PREDICTED BY IDOCK:   -6.00 KCAL/MOL
REMARK 922        TOTAL FREE ENERGY PREDICTED BY IDOCK:   -8.15 KCAL/MOL
REMARK 923 INTER-LIGAND FREE ENERGY PREDICTED BY IDOCK:   -7.50 KCAL/MOL
REMARK 924 INTRA-LIGAND FREE ENERGY PREDICTED BY IDOCK:   -0.65 KCAL/MOL
REMARK 927      BINDING AFFINITY PREDICTED BY RF-SCORE:    0.00 PKD
ROOT
HETATM    1  C   UNL     1     -11.613  14.906  69.501  1.00  0.00    -0.333 C  
HETATM    2  C   UNL     1     -12.186  13.824  70.369  1.00  0.00    -0.433 A  
HETATM    3  C   UNL     1     -12.905  14.229  71.516  1.00  0.00    -0.419 A  
HETATM    4  C   UNL     1     -13.513  13.303  72.366  1.00  0.00    -0.670 A  
HETATM    5  C   UNL     1     -13.409  11.947  72.095  1.00  0.00    -0.361 A  
HETATM    6  C   UNL     1     -12.700  11.524  70.970  1.00  0.00    -0.426 A  
HETATM    7  C   UNL     1     -12.081  12.442  70.096  1.00  0.00    -0.366 A  
ENDROOT
BRANCH   7   8
HETATM    8  C   UNL     1     -11.427  11.815  68.894  1.00  0.00    -0.297 C  
HETATM    9  O   UNL     1     -11.984  11.973  67.811  1.00  0.00    -0.538 OA 
HETATM   10  N   UNL     1     -10.288  11.058  69.107  1.00  0.00    -0.300 N  
HETATM   11  H   UNL     1      -9.903  11.073  70.052  1.00  0.00     0.000 HD 
BRANCH  10  12
HETATM   12  C   UNL     1      -9.598  10.265  68.155  1.00  0.00    -0.140 A  
HETATM   13  C   UNL     1      -8.208  10.223  68.014  1.00  0.00    -0.113 A  
HETATM   14  C   UNL     1      -7.575   9.451  67.007  1.00  0.00    -0.091 A  
HETATM   15  C   UNL     1      -6.074   9.541  66.900  1.00  0.00    -0.064 C  
HETATM   16  C   UNL     1      -8.358   8.675  66.124  1.00  0.00    -0.127 A  
HETATM   17  C   UNL     1      -9.755   8.765  66.245  1.00  0.00    -0.342 A  
HETATM   18  C   UNL     1     -10.364   9.519  67.260  1.00  0.00    -0.319 A  
BRANCH  16  19
HETATM   19  C   UNL     1      -7.723   7.814  65.042  1.00  0.00    -0.107 C  
HETATM   20  N   UNL     1      -7.862   6.407  65.068  1.00  0.00    -0.106 N  
HETATM   21  O   UNL     1      -7.128   8.382  64.128  1.00  0.00    -0.080 OA 
HETATM   22  C   UNL     1      -7.201   5.588  64.033  1.00  0.00    -0.051 C  
HETATM   23  C   UNL     1      -8.140   4.837  63.083  1.00  0.00    -0.091 C  
HETATM   24  C   UNL     1      -9.160   3.903  63.740  1.00  0.00    -0.126 C  
HETATM   25  C   UNL     1     -10.064   4.629  64.738  1.00  0.00     0.104 C  
HETATM   26  C   UNL     1      -9.364   4.774  66.074  1.00  0.00    -0.156 A  
HETATM   27  O   UNL     1     -11.303   3.937  64.892  1.00  0.00    -0.703 OA 
HETATM   28  H   UNL     1     -11.865   4.388  65.511  1.00  0.00     0.000 HD 
HETATM   29  C   UNL     1      -8.282   5.669  66.200  1.00  0.00    -0.110 A  
HETATM   30  C   UNL     1      -7.619   5.825  67.425  1.00  0.00    -0.096 A  
HETATM   31  C   UNL     1      -8.033   5.090  68.532  1.00  0.00    -0.086 A  
HETATM   32  C   UNL     1      -9.110   4.216  68.420  1.00  0.00    -0.132 A  
HETATM   33 CL   UNL     1      -9.624   3.313  69.791  1.00  0.00    -0.211 Cl 
HETATM   34  C   UNL     1      -9.778   4.059  67.202  1.00  0.00    -0.207 A  
ENDBRANCH  16  19
ENDBRANCH  10  12
ENDBRANCH   7   8
TORSDOF 3
ENDMDL
MODEL       27
REMARK 921   NORMALIZED FREE ENERGY PREDICTED BY IDOCK:   -5.99 KCAL/MOL
REMARK 922        TOTAL FREE ENERGY PREDICTED BY IDOCK:   -8.13 KCAL/MOL
REMARK 923 INTER-LIGAND FREE ENERGY PREDICTED BY IDOCK:   -6.95 KCAL/MOL
REMARK 924 INTRA-LIGAND FREE ENERGY PREDICTED BY IDOCK:   -1.18 KCAL/MOL
REMARK 927      BINDING AFFINITY PREDICTED BY RF-SCORE:    0.00 PKD
ROOT
HETATM    1  C   UNL     1      -6.642   8.100  70.783  1.00  0.00    -0.037 C  
HETATM    2  C   UNL     1      -7.784   7.128  70.792  1.00  0.00    -0.094 A  
HETATM    3  C   UNL     1      -7.772   6.127  71.789  1.00  0.00    -0.101 A  
HETATM    4  C   UNL     1      -8.809   5.200  71.911  1.00  0.00    -0.143 A  
HETATM    5  C   UNL     1      -9.879   5.244  71.031  1.00  0.00    -0.254 A  
HETATM    6  C   UNL     1      -9.911   6.221  70.035  1.00  0.00    -0.200 A  
HETATM    7  C   UNL     1      -8.876   7.170  69.896  1.00  0.00    -0.142 A  
ENDROOT
BRANCH   7   8
HETATM    8  C   UNL     1      -9.111   8.195  68.820  1.00  0.00    -0.144 C  
HETATM    9  O   UNL     1      -8.816   7.874  67.672  1.00  0.00    -0.128 OA 
HETATM   10  N   UNL     1      -9.578   9.438  69.210  1.00  0.00    -0.165 N  
HETATM   11  H   UNL     1      -9.843   9.537  70.190  1.00  0.00     0.000 HD 
BRANCH  10  12
HETATM   12  C   UNL     1      -9.728  10.589  68.396  1.00  0.00    -0.159 A  
HETATM   13  C   UNL     1      -8.742  11.561  68.205  1.00  0.00    -0.157 A  
HETATM   14  C   UNL     1      -8.967  12.721  67.420  1.00  0.00    -0.195 A  
HETATM   15  C   UNL     1      -7.858  13.739  67.345  1.00  0.00    -0.167 C  
HETATM   16  C   UNL     1     -10.216  12.905  66.786  1.00  0.00    -0.243 A  
HETATM   17  C   UNL     1     -11.215  11.946  67.027  1.00  0.00    -0.379 A  
HETATM   18  C   UNL     1     -10.967  10.794  67.790  1.00  0.00    -0.354 A  
BRANCH  16  19
HETATM   19  C   UNL     1     -10.497  14.122  65.918  1.00  0.00    -0.306 C  
HETATM   20  N   UNL     1     -10.719  15.390  66.505  1.00  0.00    -0.307 N  
HETATM   21  O   UNL     1     -10.481  13.976  64.697  1.00  0.00    -0.434 OA 
HETATM   22  C   UNL     1     -11.035  16.548  65.645  1.00  0.00    -0.051 C  
HETATM   23  C   UNL     1      -9.981  17.661  65.622  1.00  0.00     0.114 C  
HETATM   24  C   UNL     1      -9.604  18.261  66.979  1.00  0.00    -0.291 C  
HETATM   25  C   UNL     1      -9.083  17.210  67.962  1.00  0.00    -0.240 C  
HETATM   26  C   UNL     1     -10.240  16.491  68.624  1.00  0.00    -0.264 A  
HETATM   27  O   UNL     1      -8.238  17.813  68.943  1.00  0.00    -0.248 OA 
HETATM   28  H   UNL     1      -7.915  17.160  69.553  1.00  0.00     0.000 HD 
HETATM   29  C   UNL     1     -11.024  15.592  67.871  1.00  0.00    -0.316 A  
HETATM   30  C   UNL     1     -12.098  14.910  68.460  1.00  0.00    -0.193 A  
HETATM   31  C   UNL     1     -12.395  15.120  69.804  1.00  0.00    -0.278 A  
HETATM   32  C   UNL     1     -11.618  15.994  70.557  1.00  0.00    -0.362 A  
HETATM   33 CL   UNL     1     -11.984  16.248  72.218  1.00  0.00    -0.614 Cl 
HETATM   34  C   UNL     1     -10.543  16.674  69.977  1.00  0.00    -0.104 A  
ENDBRANCH  16  19
ENDBRANCH  10  12
ENDBRANCH   7   8
TORSDOF 3
ENDMDL
MODEL       28
REMARK 921   NORMALIZED FREE ENERGY PREDICTED BY IDOCK:   -5.93 KCAL/MOL
REMARK 922        TOTAL FREE ENERGY PREDICTED BY IDOCK:   -8.06 KCAL/MOL
REMARK 923 INTER-LIGAND FREE ENERGY PREDICTED BY IDOCK:   -6.89 KCAL/MOL
REMARK 924 INTRA-LIGAND FREE ENERGY PREDICTED BY IDOCK:   -1.17 KCAL/MOL
REMARK 927      BINDING AFFINITY PREDICTED BY RF-SCORE:    0.00 PKD
ROOT
HETATM    1  C   UNL     1     -10.768  15.935  65.159  1.00  0.00    -0.449 C  
HETATM    2  C   UNL     1     -10.293  16.758  66.321  1.00  0.00    -0.316 A  
HETATM    3  C   UNL     1     -10.415  18.161  66.212  1.00  0.00    -0.374 A  
HETATM    4  C   UNL     1     -10.042  19.014  67.252  1.00  0.00    -0.436 A  
HETATM    5  C   UNL     1      -9.525  18.484  68.425  1.00  0.00    -0.368 A  
HETATM    6  C   UNL     1      -9.390  17.101  68.553  1.00  0.00    -0.274 A  
HETATM    7  C   UNL     1      -9.765  16.221  67.517  1.00  0.00    -0.234 A  
ENDROOT
BRANCH   7   8
HETATM    8  C   UNL     1      -9.623  14.762  67.855  1.00  0.00    -0.210 C  
HETATM    9  O   UNL     1     -10.457  14.284  68.620  1.00  0.00    -0.238 OA 
HETATM   10  N   UNL     1      -8.534  14.086  67.334  1.00  0.00    -0.189 N  
HETATM   11  H   UNL     1      -7.963  14.596  66.659  1.00  0.00     0.000 HD 
BRANCH  10  12
HETATM   12  C   UNL     1      -8.124  12.762  67.635  1.00  0.00    -0.175 A  
HETATM   13  C   UNL     1      -7.223  12.421  68.648  1.00  0.00    -0.104 A  
HETATM   14  C   UNL     1      -6.808  11.083  68.870  1.00  0.00    -0.079 A  
HETATM   15  C   UNL     1      -5.775  10.841  69.939  1.00  0.00    -0.063 C  
HETATM   16  C   UNL     1      -7.330  10.046  68.064  1.00  0.00    -0.087 A  
HETATM   17  C   UNL     1      -8.196  10.409  67.019  1.00  0.00    -0.123 A  
HETATM   18  C   UNL     1      -8.611  11.736  66.827  1.00  0.00    -0.185 A  
BRANCH  16  19
HETATM   19  C   UNL     1      -6.931   8.594  68.278  1.00  0.00    -0.073 C  
HETATM   20  N   UNL     1      -7.829   7.681  68.880  1.00  0.00    -0.120 N  
HETATM   21  O   UNL     1      -5.828   8.232  67.872  1.00  0.00    -0.040 OA 
HETATM   22  C   UNL     1      -7.405   6.288  69.118  1.00  0.00    -0.089 C  
HETATM   23  C   UNL     1      -8.158   5.221  68.314  1.00  0.00    -0.094 C  
HETATM   24  C   UNL     1      -9.680   5.208  68.469  1.00  0.00    -0.205 C  
HETATM   25  C   UNL     1     -10.321   6.546  68.094  1.00  0.00    -0.187 C  
HETATM   26  C   UNL     1     -10.230   7.516  69.254  1.00  0.00    -0.201 A  
HETATM   27  O   UNL     1     -11.680   6.361  67.698  1.00  0.00    -0.528 OA 
HETATM   28  H   UNL     1     -12.078   7.191  67.465  1.00  0.00     0.000 HD 
HETATM   29  C   UNL     1      -8.980   8.062  69.610  1.00  0.00    -0.145 A  
HETATM   30  C   UNL     1      -8.869   8.965  70.677  1.00  0.00    -0.234 A  
HETATM   31  C   UNL     1     -10.005   9.329  71.394  1.00  0.00    -0.323 A  
HETATM   32  C   UNL     1     -11.245   8.805  71.040  1.00  0.00    -0.273 A  
HETATM   33 CL   UNL     1     -12.648   9.261  71.925  1.00  0.00    -0.440 Cl 
HETATM   34  C   UNL     1     -11.363   7.908  69.975  1.00  0.00    -0.034 A  
ENDBRANCH  16  19
ENDBRANCH  10  12
ENDBRANCH   7   8
TORSDOF 3
ENDMDL
MODEL       29
REMARK 921   NORMALIZED FREE ENERGY PREDICTED BY IDOCK:   -5.90 KCAL/MOL
REMARK 922        TOTAL FREE ENERGY PREDICTED BY IDOCK:   -8.03 KCAL/MOL
REMARK 923 INTER-LIGAND FREE ENERGY PREDICTED BY IDOCK:   -7.01 KCAL/MOL
REMARK 924 INTRA-LIGAND FREE ENERGY PREDICTED BY IDOCK:   -1.02 KCAL/MOL
REMARK 927      BINDING AFFINITY PREDICTED BY RF-SCORE:    0.00 PKD
ROOT
HETATM    1  C   UNL     1     -11.699  12.440  67.547  1.00  0.00    -0.425 C  
HETATM    2  C   UNL     1     -11.228  12.143  66.154  1.00  0.00    -0.386 A  
HETATM    3  C   UNL     1     -11.480  13.119  65.165  1.00  0.00    -0.327 A  
HETATM    4  C   UNL     1     -11.046  12.959  63.848  1.00  0.00    -0.454 A  
HETATM    5  C   UNL     1     -10.357  11.811  63.485  1.00  0.00    -0.490 A  
HETATM    6  C   UNL     1     -10.100  10.831  64.444  1.00  0.00    -0.419 A  
HETATM    7  C   UNL     1     -10.526  10.974  65.781  1.00  0.00    -0.290 A  
ENDROOT
BRANCH   7   8
HETATM    8  C   UNL     1     -10.097   9.859  66.695  1.00  0.00    -0.233 C  
HETATM    9  O   UNL     1      -9.238  10.124  67.532  1.00  0.00    -0.137 OA 
HETATM   10  N   UNL     1     -10.653   8.609  66.485  1.00  0.00    -0.221 N  
HETATM   11  H   UNL     1     -11.404   8.556  65.797  1.00  0.00     0.000 HD 
BRANCH  10  12
HETATM   12  C   UNL     1     -10.291   7.394  67.122  1.00  0.00    -0.307 A  
HETATM   13  C   UNL     1      -9.163   6.635  66.801  1.00  0.00    -0.168 A  
HETATM   14  C   UNL     1      -8.879   5.399  67.436  1.00  0.00    -0.105 A  
HETATM   15  C   UNL     1      -7.676   4.629  66.957  1.00  0.00    -0.091 C  
HETATM   16  C   UNL     1      -9.744   4.915  68.443  1.00  0.00    -0.212 A  
HETATM   17  C   UNL     1     -10.901   5.663  68.720  1.00  0.00    -0.210 A  
HETATM   18  C   UNL     1     -11.155   6.894  68.096  1.00  0.00    -0.165 A  
BRANCH  16  19
HETATM   19  C   UNL     1      -9.471   3.605  69.167  1.00  0.00    -0.165 C  
HETATM   20  N   UNL     1      -9.204   3.592  70.556  1.00  0.00    -0.125 N  
HETATM   21  O   UNL     1      -9.533   2.563  68.517  1.00  0.00    -0.197 OA 
HETATM   22  C   UNL     1      -8.897   2.315  71.229  1.00  0.00    -0.070 C  
HETATM   23  C   UNL     1      -9.930   1.847  72.261  1.00  0.00    -0.214 C  
HETATM   24  C   UNL     1     -10.248   2.828  73.392  1.00  0.00    -0.204 C  
HETATM   25  C   UNL     1     -10.753   4.177  72.874  1.00  0.00    -0.147 C  
HETATM   26  C   UNL     1      -9.587   5.054  72.466  1.00  0.00    -0.175 A  
HETATM   27  O   UNL     1     -11.552   4.829  73.862  1.00  0.00    -0.326 OA 
HETATM   28  H   UNL     1     -11.865   5.666  73.541  1.00  0.00     0.000 HD 
HETATM   29  C   UNL     1      -8.848   4.736  71.308  1.00  0.00    -0.127 A  
HETATM   30  C   UNL     1      -7.766   5.533  70.906  1.00  0.00    -0.092 A  
HETATM   31  C   UNL     1      -7.418   6.653  71.657  1.00  0.00    -0.088 A  
HETATM   32  C   UNL     1      -8.152   6.981  72.792  1.00  0.00    -0.107 A  
HETATM   33 CL   UNL     1      -7.723   8.368  73.715  1.00  0.00    -0.201 Cl 
HETATM   34  C   UNL     1      -9.233   6.193  73.196  1.00  0.00    -0.132 A  
ENDBRANCH  16  19
ENDBRANCH  10  12
ENDBRANCH   7   8
TORSDOF 3
ENDMDL
MODEL       30
REMARK 921   NORMALIZED FREE ENERGY PREDICTED BY IDOCK:   -5.89 KCAL/MOL
REMARK 922        TOTAL FREE ENERGY PREDICTED BY IDOCK:   -8.01 KCAL/MOL
REMARK 923 INTER-LIGAND FREE ENERGY PREDICTED BY IDOCK:   -7.15 KCAL/MOL
REMARK 924 INTRA-LIGAND FREE ENERGY PREDICTED BY IDOCK:   -0.87 KCAL/MOL
REMARK 927      BINDING AFFINITY PREDICTED BY RF-SCORE:    0.00 PKD
ROOT
HETATM    1  C   UNL     1     -10.726  16.257  65.111  1.00  0.00    -0.350 C  
HETATM    2  C   UNL     1     -10.400  17.106  66.304  1.00  0.00    -0.315 A  
HETATM    3  C   UNL     1     -10.535  18.505  66.158  1.00  0.00    -0.447 A  
HETATM    4  C   UNL     1     -10.297  19.381  67.219  1.00  0.00    -0.554 A  
HETATM    5  C   UNL     1      -9.905  18.879  68.451  1.00  0.00    -0.435 A  
HETATM    6  C   UNL     1      -9.760  17.502  68.618  1.00  0.00    -0.319 A  
HETATM    7  C   UNL     1     -10.000  16.599  67.561  1.00  0.00    -0.264 A  
ENDROOT
BRANCH   7   8
HETATM    8  C   UNL     1      -9.870  15.148  67.939  1.00  0.00    -0.216 C  
HETATM    9  O   UNL     1      -8.925  14.843  68.662  1.00  0.00    -0.172 OA 
HETATM   10  N   UNL     1     -10.782  14.260  67.395  1.00  0.00    -0.279 N  
HETATM   11  H   UNL     1     -11.553  14.668  66.866  1.00  0.00     0.000 HD 
BRANCH  10  12
HETATM   12  C   UNL     1     -10.761  12.846  67.493  1.00  0.00    -0.226 A  
HETATM   13  C   UNL     1     -11.400  12.110  68.494  1.00  0.00    -0.324 A  
HETATM   14  C   UNL     1     -11.301  10.697  68.573  1.00  0.00    -0.348 A  
HETATM   15  C   UNL     1     -11.969  10.015  69.739  1.00  0.00    -0.027 C  
HETATM   16  C   UNL     1     -10.552   9.993  67.603  1.00  0.00    -0.323 A  
HETATM   17  C   UNL     1      -9.874  10.749  66.632  1.00  0.00    -0.241 A  
HETATM   18  C   UNL     1     -10.000  12.145  66.557  1.00  0.00    -0.230 A  
BRANCH  16  19
HETATM   19  C   UNL     1     -10.434   8.477  67.634  1.00  0.00    -0.241 C  
HETATM   20  N   UNL     1      -9.555   7.841  68.542  1.00  0.00    -0.148 N  
HETATM   21  O   UNL     1     -11.155   7.826  66.880  1.00  0.00    -0.086 OA 
HETATM   22  C   UNL     1      -9.423   6.371  68.524  1.00  0.00    -0.120 C  
HETATM   23  C   UNL     1      -9.921   5.647  69.780  1.00  0.00    -0.264 C  
HETATM   24  C   UNL     1      -9.295   6.088  71.106  1.00  0.00    -0.174 C  
HETATM   25  C   UNL     1      -9.488   7.581  71.379  1.00  0.00    -0.148 C  
HETATM   26  C   UNL     1      -8.442   8.390  70.638  1.00  0.00    -0.141 A  
HETATM   27  O   UNL     1      -9.432   7.849  72.780  1.00  0.00    -0.190 OA 
HETATM   28  H   UNL     1      -9.552   8.776  72.949  1.00  0.00     0.000 HD 
HETATM   29  C   UNL     1      -8.512   8.501  69.234  1.00  0.00    -0.128 A  
HETATM   30  C   UNL     1      -7.560   9.246  68.525  1.00  0.00    -0.085 A  
HETATM   31  C   UNL     1      -6.533   9.886  69.213  1.00  0.00    -0.048 A  
HETATM   32  C   UNL     1      -6.465   9.794  70.600  1.00  0.00    -0.109 A  
HETATM   33 CL   UNL     1      -5.198  10.590  71.448  1.00  0.00    -0.092 Cl 
HETATM   34  C   UNL     1      -7.414   9.056  71.313  1.00  0.00    -0.098 A  
ENDBRANCH  16  19
ENDBRANCH  10  12
ENDBRANCH   7   8
TORSDOF 3
ENDMDL
MODEL       31
REMARK 921   NORMALIZED FREE ENERGY PREDICTED BY IDOCK:   -5.87 KCAL/MOL
REMARK 922        TOTAL FREE ENERGY PREDICTED BY IDOCK:   -7.99 KCAL/MOL
REMARK 923 INTER-LIGAND FREE ENERGY PREDICTED BY IDOCK:   -7.83 KCAL/MOL
REMARK 924 INTRA-LIGAND FREE ENERGY PREDICTED BY IDOCK:   -0.16 KCAL/MOL
REMARK 927      BINDING AFFINITY PREDICTED BY RF-SCORE:    0.00 PKD
ROOT
HETATM    1  C   UNL     1     -10.115   6.897  74.178  1.00  0.00    -0.351 C  
HETATM    2  C   UNL     1     -10.022   5.587  73.454  1.00  0.00    -0.189 A  
HETATM    3  C   UNL     1     -10.217   4.412  74.215  1.00  0.00    -0.267 A  
HETATM    4  C   UNL     1     -10.192   3.145  73.629  1.00  0.00    -0.205 A  
HETATM    5  C   UNL     1      -9.961   3.021  72.267  1.00  0.00    -0.237 A  
HETATM    6  C   UNL     1      -9.762   4.166  71.496  1.00  0.00    -0.243 A  
HETATM    7  C   UNL     1      -9.787   5.456  72.066  1.00  0.00    -0.212 A  
ENDROOT
BRANCH   7   8
HETATM    8  C   UNL     1      -9.630   6.579  71.077  1.00  0.00    -0.175 C  
HETATM    9  O   UNL     1      -8.484   6.871  70.744  1.00  0.00    -0.132 OA 
HETATM   10  N   UNL     1     -10.776   7.236  70.668  1.00  0.00    -0.231 N  
HETATM   11  H   UNL     1     -11.663   6.838  70.976  1.00  0.00     0.000 HD 
BRANCH  10  12
HETATM   12  C   UNL     1     -10.852   8.404  69.866  1.00  0.00    -0.207 A  
HETATM   13  C   UNL     1     -11.173   9.677  70.345  1.00  0.00    -0.342 A  
HETATM   14  C   UNL     1     -11.287  10.800  69.487  1.00  0.00    -0.355 A  
HETATM   15  C   UNL     1     -11.712  12.108  70.102  1.00  0.00    -0.301 C  
HETATM   16  C   UNL     1     -11.050  10.650  68.102  1.00  0.00    -0.343 A  
HETATM   17  C   UNL     1     -10.777   9.355  67.627  1.00  0.00    -0.295 A  
HETATM   18  C   UNL     1     -10.649   8.259  68.494  1.00  0.00    -0.143 A  
BRANCH  16  19
HETATM   19  C   UNL     1     -11.139  11.829  67.145  1.00  0.00    -0.296 C  
HETATM   20  N   UNL     1     -10.237  11.947  66.062  1.00  0.00    -0.222 N  
HETATM   21  O   UNL     1     -12.043  12.645  67.317  1.00  0.00    -0.448 OA 
HETATM   22  C   UNL     1     -10.313  13.123  65.173  1.00  0.00    -0.311 C  
HETATM   23  C   UNL     1     -10.723  12.830  63.724  1.00  0.00    -0.397 C  
HETATM   24  C   UNL     1      -9.860  11.814  62.971  1.00  0.00    -0.264 C  
HETATM   25  C   UNL     1      -9.804  10.456  63.674  1.00  0.00    -0.223 C  
HETATM   26  C   UNL     1      -8.772  10.480  64.783  1.00  0.00    -0.196 A  
HETATM   27  O   UNL     1      -9.514   9.417  62.739  1.00  0.00    -0.550 OA 
HETATM   28  H   UNL     1      -9.479   8.574  63.175  1.00  0.00     0.000 HD 
HETATM   29  C   UNL     1      -9.025  11.225  65.954  1.00  0.00    -0.197 A  
HETATM   30  C   UNL     1      -8.089  11.261  66.997  1.00  0.00    -0.149 A  
HETATM   31  C   UNL     1      -6.896  10.553  66.878  1.00  0.00    -0.091 A  
HETATM   32  C   UNL     1      -6.646   9.804  65.733  1.00  0.00    -0.088 A  
HETATM   33 CL   UNL     1      -5.174   8.926  65.591  1.00  0.00    -0.036 Cl 
HETATM   34  C   UNL     1      -7.577   9.761  64.691  1.00  0.00    -0.134 A  
ENDBRANCH  16  19
ENDBRANCH  10  12
ENDBRANCH   7   8
TORSDOF 3
ENDMDL
MODEL       32
REMARK 921   NORMALIZED FREE ENERGY PREDICTED BY IDOCK:   -5.82 KCAL/MOL
REMARK 922        TOTAL FREE ENERGY PREDICTED BY IDOCK:   -7.93 KCAL/MOL
REMARK 923 INTER-LIGAND FREE ENERGY PREDICTED BY IDOCK:   -9.90 KCAL/MOL
REMARK 924 INTRA-LIGAND FREE ENERGY PREDICTED BY IDOCK:    1.97 KCAL/MOL
REMARK 927      BINDING AFFINITY PREDICTED BY RF-SCORE:    0.00 PKD
ROOT
HETATM    1  C   UNL     1      -7.271  17.362  66.563  1.00  0.00    -0.305 C  
HETATM    2  C   UNL     1      -8.146  18.515  66.958  1.00  0.00    -0.254 A  
HETATM    3  C   UNL     1      -7.683  19.813  66.646  1.00  0.00    -0.302 A  
HETATM    4  C   UNL     1      -8.440  20.951  66.931  1.00  0.00     0.001 A  
HETATM    5  C   UNL     1      -9.675  20.819  67.548  1.00  0.00    -0.444 A  
HETATM    6  C   UNL     1     -10.151  19.548  67.870  1.00  0.00    -0.531 A  
HETATM    7  C   UNL     1      -9.405  18.385  67.586  1.00  0.00    -0.274 A  
ENDROOT
BRANCH   7   8
HETATM    8  C   UNL     1     -10.102  17.097  67.931  1.00  0.00    -0.308 C  
HETATM    9  O   UNL     1     -10.603  16.469  67.001  1.00  0.00    -0.310 OA 
HETATM   10  N   UNL     1     -10.182  16.750  69.268  1.00  0.00    -0.292 N  
HETATM   11  H   UNL     1      -9.660  17.334  69.921  1.00  0.00     0.000 HD 
BRANCH  10  12
HETATM   12  C   UNL     1     -10.911  15.670  69.829  1.00  0.00    -0.304 A  
HETATM   13  C   UNL     1     -11.423  15.649  71.129  1.00  0.00    -0.463 A  
HETATM   14  C   UNL     1     -12.100  14.519  71.656  1.00  0.00    -0.379 A  
HETATM   15  C   UNL     1     -12.542  14.579  73.095  1.00  0.00    -0.435 C  
HETATM   16  C   UNL     1     -12.289  13.377  70.846  1.00  0.00    -0.436 A  
HETATM   17  C   UNL     1     -11.727  13.393  69.558  1.00  0.00    -0.385 A  
HETATM   18  C   UNL     1     -11.078  14.528  69.047  1.00  0.00    -0.279 A  
BRANCH  16  19
HETATM   19  C   UNL     1     -13.027  12.150  71.359  1.00  0.00    -0.257 C  
HETATM   20  N   UNL     1     -12.573  10.849  71.036  1.00  0.00    -0.385 N  
HETATM   21  O   UNL     1     -13.997  12.324  72.095  1.00  0.00    -0.138 OA 
HETATM   22  C   UNL     1     -13.329   9.673  71.508  1.00  0.00    -0.388 C  
HETATM   23  C   UNL     1     -12.601   8.781  72.520  1.00  0.00    -0.375 C  
HETATM   24  C   UNL     1     -11.241   8.232  72.080  1.00  0.00    -0.413 C  
HETATM   25  C   UNL     1     -10.252   9.339  71.709  1.00  0.00    -0.097 C  
HETATM   26  C   UNL     1     -10.499   9.811  70.291  1.00  0.00    -0.345 A  
HETATM   27  O   UNL     1      -8.907   8.886  71.863  1.00  0.00    -0.342 OA 
HETATM   28  H   UNL     1      -8.294   9.573  71.632  1.00  0.00     0.000 HD 
HETATM   29  C   UNL     1     -11.656  10.562  69.998  1.00  0.00    -0.313 A  
HETATM   30  C   UNL     1     -11.906  11.014  68.694  1.00  0.00    -0.318 A  
HETATM   31  C   UNL     1     -11.003  10.720  67.677  1.00  0.00    -0.365 A  
HETATM   32  C   UNL     1      -9.852   9.992  67.961  1.00  0.00    -0.142 A  
HETATM   33 CL   UNL     1      -8.734   9.635  66.703  1.00  0.00    -0.141 Cl 
HETATM   34  C   UNL     1      -9.594   9.542  69.259  1.00  0.00    -0.179 A  
ENDBRANCH  16  19
ENDBRANCH  10  12
ENDBRANCH   7   8
TORSDOF 3
ENDMDL
MODEL       33
REMARK 921   NORMALIZED FREE ENERGY PREDICTED BY IDOCK:   -5.73 KCAL/MOL
REMARK 922        TOTAL FREE ENERGY PREDICTED BY IDOCK:   -7.82 KCAL/MOL
REMARK 923 INTER-LIGAND FREE ENERGY PREDICTED BY IDOCK:   -6.87 KCAL/MOL
REMARK 924 INTRA-LIGAND FREE ENERGY PREDICTED BY IDOCK:   -0.95 KCAL/MOL
REMARK 927      BINDING AFFINITY PREDICTED BY RF-SCORE:    0.00 PKD
ROOT
HETATM    1  C   UNL     1     -10.851  14.260  69.175  1.00  0.00    -0.264 C  
HETATM    2  C   UNL     1     -10.697  14.949  67.852  1.00  0.00    -0.265 A  
HETATM    3  C   UNL     1     -10.826  16.356  67.838  1.00  0.00    -0.328 A  
HETATM    4  C   UNL     1     -10.659  17.097  66.667  1.00  0.00    -0.179 A  
HETATM    5  C   UNL     1     -10.368  16.447  65.477  1.00  0.00    -0.336 A  
HETATM    6  C   UNL     1     -10.240  15.058  65.465  1.00  0.00    -0.406 A  
HETATM    7  C   UNL     1     -10.401  14.290  66.637  1.00  0.00    -0.279 A  
ENDROOT
BRANCH   7   8
HETATM    8  C   UNL     1     -10.153  12.817  66.457  1.00  0.00    -0.258 C  
HETATM    9  O   UNL     1     -11.034  12.053  66.842  1.00  0.00    -0.253 OA 
HETATM   10  N   UNL     1      -8.931  12.433  65.934  1.00  0.00    -0.420 N  
HETATM   11  H   UNL     1      -8.326  13.182  65.596  1.00  0.00     0.000 HD 
BRANCH  10  12
HETATM   12  C   UNL     1      -8.429  11.112  65.815  1.00  0.00    -0.076 A  
HETATM   13  C   UNL     1      -7.331  10.613  66.523  1.00  0.00    -0.134 A  
HETATM   14  C   UNL     1      -6.839   9.298  66.324  1.00  0.00    -0.082 A  
HETATM   15  C   UNL     1      -5.604   8.893  67.086  1.00  0.00    -0.041 C  
HETATM   16  C   UNL     1      -7.481   8.443  65.400  1.00  0.00    -0.085 A  
HETATM   17  C   UNL     1      -8.552   8.973  64.660  1.00  0.00    -0.190 A  
HETATM   18  C   UNL     1      -9.038  10.271  64.885  1.00  0.00    -0.250 A  
BRANCH  16  19
HETATM   19  C   UNL     1      -7.004   7.018  65.169  1.00  0.00    -0.052 C  
HETATM   20  N   UNL     1      -7.708   5.923  65.723  1.00  0.00    -0.093 N  
HETATM   21  O   UNL     1      -6.019   6.848  64.451  1.00  0.00    -0.035 OA 
HETATM   22  C   UNL     1      -7.201   4.551  65.523  1.00  0.00    -0.068 C  
HETATM   23  C   UNL     1      -8.093   3.633  64.679  1.00  0.00    -0.090 C  
HETATM   24  C   UNL     1      -9.535   3.460  65.164  1.00  0.00    -0.152 C  
HETATM   25  C   UNL     1     -10.283   4.791  65.271  1.00  0.00    -0.012 C  
HETATM   26  C   UNL     1      -9.946   5.481  66.577  1.00  0.00    -0.214 A  
HETATM   27  O   UNL     1     -11.691   4.588  65.157  1.00  0.00    -1.036 OA 
HETATM   28  H   UNL     1     -12.155   5.414  65.224  1.00  0.00     0.000 HD 
HETATM   29  C   UNL     1      -8.662   6.035  66.762  1.00  0.00    -0.119 A  
HETATM   30  C   UNL     1      -8.326   6.682  67.959  1.00  0.00    -0.117 A  
HETATM   31  C   UNL     1      -9.268   6.781  68.978  1.00  0.00    -0.136 A  
HETATM   32  C   UNL     1     -10.542   6.249  68.798  1.00  0.00    -0.262 A  
HETATM   33 CL   UNL     1     -11.707   6.378  70.057  1.00  0.00    -0.456 Cl 
HETATM   34  C   UNL     1     -10.885   5.607  67.606  1.00  0.00    -0.183 A  
ENDBRANCH  16  19
ENDBRANCH  10  12
ENDBRANCH   7   8
TORSDOF 3
ENDMDL
MODEL       34
REMARK 921   NORMALIZED FREE ENERGY PREDICTED BY IDOCK:   -5.72 KCAL/MOL
REMARK 922        TOTAL FREE ENERGY PREDICTED BY IDOCK:   -7.82 KCAL/MOL
REMARK 923 INTER-LIGAND FREE ENERGY PREDICTED BY IDOCK:   -6.96 KCAL/MOL
REMARK 924 INTRA-LIGAND FREE ENERGY PREDICTED BY IDOCK:   -0.86 KCAL/MOL
REMARK 927      BINDING AFFINITY PREDICTED BY RF-SCORE:    0.00 PKD
ROOT
HETATM    1  C   UNL     1     -11.827  15.536  69.110  1.00  0.00    -0.373 C  
HETATM    2  C   UNL     1     -12.385  14.731  70.246  1.00  0.00    -0.400 A  
HETATM    3  C   UNL     1     -13.077  15.435  71.257  1.00  0.00    -0.564 A  
HETATM    4  C   UNL     1     -13.671  14.776  72.335  1.00  0.00    -0.576 A  
HETATM    5  C   UNL     1     -13.577  13.396  72.435  1.00  0.00    -0.708 A  
HETATM    6  C   UNL     1     -12.895  12.680  71.451  1.00  0.00    -0.358 A  
HETATM    7  C   UNL     1     -12.291  13.325  70.351  1.00  0.00    -0.365 A  
ENDROOT
BRANCH   7   8
HETATM    8  C   UNL     1     -11.665  12.393  69.348  1.00  0.00    -0.322 C  
HETATM    9  O   UNL     1     -12.036  12.500  68.182  1.00  0.00    -0.307 OA 
HETATM   10  N   UNL     1     -10.771  11.450  69.822  1.00  0.00    -0.447 N  
HETATM   11  H   UNL     1     -10.508  11.526  70.805  1.00  0.00     0.000 HD 
BRANCH  10  12
HETATM   12  C   UNL     1     -10.180  10.388  69.090  1.00  0.00    -0.222 A  
HETATM   13  C   UNL     1      -9.089  10.529  68.229  1.00  0.00    -0.146 A  
HETATM   14  C   UNL     1      -8.572   9.441  67.480  1.00  0.00    -0.122 A  
HETATM   15  C   UNL     1      -7.441   9.725  66.526  1.00  0.00    -0.095 C  
HETATM   16  C   UNL     1      -9.155   8.161  67.613  1.00  0.00    -0.142 A  
HETATM   17  C   UNL     1     -10.282   8.044  68.444  1.00  0.00    -0.239 A  
HETATM   18  C   UNL     1     -10.767   9.128  69.193  1.00  0.00    -0.190 A  
BRANCH  16  19
HETATM   19  C   UNL     1      -8.623   6.959  66.848  1.00  0.00    -0.116 C  
HETATM   20  N   UNL     1      -8.063   5.857  67.535  1.00  0.00    -0.102 N  
HETATM   21  O   UNL     1      -8.736   6.959  65.623  1.00  0.00    -0.145 OA 
HETATM   22  C   UNL     1      -7.512   4.722  66.770  1.00  0.00    -0.086 C  
HETATM   23  C   UNL     1      -8.255   3.391  66.935  1.00  0.00    -0.092 C  
HETATM   24  C   UNL     1      -8.403   2.873  68.368  1.00  0.00    -0.085 C  
HETATM   25  C   UNL     1      -9.119   3.870  69.282  1.00  0.00    -0.132 C  
HETATM   26  C   UNL     1      -8.146   4.919  69.782  1.00  0.00    -0.069 A  
HETATM   27  O   UNL     1      -9.738   3.195  70.378  1.00  0.00    -0.153 OA 
HETATM   28  H   UNL     1     -10.182   3.814  70.945  1.00  0.00     0.000 HD 
HETATM   29  C   UNL     1      -7.650   5.890  68.888  1.00  0.00    -0.090 A  
HETATM   30  C   UNL     1      -6.752   6.874  69.325  1.00  0.00    -0.050 A  
HETATM   31  C   UNL     1      -6.345   6.895  70.656  1.00  0.00    -0.046 A  
HETATM   32  C   UNL     1      -6.841   5.948  71.547  1.00  0.00    -0.067 A  
HETATM   33 CL   UNL     1      -6.341   5.979  73.193  1.00  0.00    -0.062 Cl 
HETATM   34  C   UNL     1      -7.740   4.968  71.119  1.00  0.00    -0.091 A  
ENDBRANCH  16  19
ENDBRANCH  10  12
ENDBRANCH   7   8
TORSDOF 3
ENDMDL
MODEL       35
REMARK 921   NORMALIZED FREE ENERGY PREDICTED BY IDOCK:   -5.72 KCAL/MOL
REMARK 922        TOTAL FREE ENERGY PREDICTED BY IDOCK:   -7.82 KCAL/MOL
REMARK 923 INTER-LIGAND FREE ENERGY PREDICTED BY IDOCK:   -6.72 KCAL/MOL
REMARK 924 INTRA-LIGAND FREE ENERGY PREDICTED BY IDOCK:   -1.10 KCAL/MOL
REMARK 927      BINDING AFFINITY PREDICTED BY RF-SCORE:    0.00 PKD
ROOT
HETATM    1  C   UNL     1      -9.399  10.912  62.459  1.00  0.00    -0.308 C  
HETATM    2  C   UNL     1      -8.942   9.702  63.220  1.00  0.00    -0.251 A  
HETATM    3  C   UNL     1      -8.387   8.640  62.471  1.00  0.00    -0.195 A  
HETATM    4  C   UNL     1      -7.894   7.488  63.086  1.00  0.00    -0.133 A  
HETATM    5  C   UNL     1      -7.955   7.364  64.466  1.00  0.00    -0.122 A  
HETATM    6  C   UNL     1      -8.503   8.398  65.226  1.00  0.00    -0.189 A  
HETATM    7  C   UNL     1      -9.003   9.572  64.626  1.00  0.00    -0.266 A  
ENDROOT
BRANCH   7   8
HETATM    8  C   UNL     1      -9.487  10.613  65.599  1.00  0.00    -0.212 C  
HETATM    9  O   UNL     1     -10.572  10.410  66.137  1.00  0.00    -0.187 OA 
HETATM   10  N   UNL     1      -8.708  11.744  65.766  1.00  0.00    -0.402 N  
HETATM   11  H   UNL     1      -7.798  11.742  65.305  1.00  0.00     0.000 HD 
BRANCH  10  12
HETATM   12  C   UNL     1      -9.036  12.906  66.510  1.00  0.00    -0.132 A  
HETATM   13  C   UNL     1      -9.941  13.887  66.093  1.00  0.00    -0.322 A  
HETATM   14  C   UNL     1     -10.191  15.057  66.855  1.00  0.00    -0.258 A  
HETATM   15  C   UNL     1     -11.128  16.082  66.272  1.00  0.00     0.037 C  
HETATM   16  C   UNL     1      -9.529  15.242  68.089  1.00  0.00    -0.203 A  
HETATM   17  C   UNL     1      -8.586  14.274  68.473  1.00  0.00    -0.175 A  
HETATM   18  C   UNL     1      -8.366  13.112  67.715  1.00  0.00    -0.171 A  
BRANCH  16  19
HETATM   19  C   UNL     1      -9.780  16.470  68.952  1.00  0.00    -0.257 C  
HETATM   20  N   UNL     1      -9.297  17.740  68.556  1.00  0.00    -0.291 N  
HETATM   21  O   UNL     1     -10.450  16.330  69.973  1.00  0.00    -0.255 OA 
HETATM   22  C   UNL     1      -9.514  18.908  69.431  1.00  0.00     0.103 C  
HETATM   23  C   UNL     1     -10.431  19.998  68.863  1.00  0.00    -0.112 C  
HETATM   24  C   UNL     1     -10.026  20.582  67.507  1.00  0.00    -0.497 C  
HETATM   25  C   UNL     1      -9.916  19.515  66.416  1.00  0.00    -0.438 C  
HETATM   26  C   UNL     1      -8.574  18.817  66.495  1.00  0.00    -0.312 A  
HETATM   27  O   UNL     1     -10.108  20.092  65.125  1.00  0.00    -0.222 OA 
HETATM   28  H   UNL     1     -10.040  19.429  64.448  1.00  0.00     0.000 HD 
HETATM   29  C   UNL     1      -8.306  17.940  67.567  1.00  0.00    -0.228 A  
HETATM   30  C   UNL     1      -7.073  17.279  67.662  1.00  0.00    -0.179 A  
HETATM   31  C   UNL     1      -6.101  17.489  66.687  1.00  0.00    -0.234 A  
HETATM   32  C   UNL     1      -6.363  18.341  65.619  1.00  0.00    -0.265 A  
HETATM   33 CL   UNL     1      -5.162  18.594  64.414  1.00  0.00    -0.212 Cl 
HETATM   34  C   UNL     1      -7.591  19.000  65.516  1.00  0.00     0.167 A  
ENDBRANCH  16  19
ENDBRANCH  10  12
ENDBRANCH   7   8
TORSDOF 3
ENDMDL
MODEL       36
REMARK 921   NORMALIZED FREE ENERGY PREDICTED BY IDOCK:   -5.65 KCAL/MOL
REMARK 922        TOTAL FREE ENERGY PREDICTED BY IDOCK:   -7.73 KCAL/MOL
REMARK 923 INTER-LIGAND FREE ENERGY PREDICTED BY IDOCK:   -6.70 KCAL/MOL
REMARK 924 INTRA-LIGAND FREE ENERGY PREDICTED BY IDOCK:   -1.03 KCAL/MOL
REMARK 927      BINDING AFFINITY PREDICTED BY RF-SCORE:    0.00 PKD
ROOT
HETATM    1  C   UNL     1      -9.431   4.239  65.386  1.00  0.00    -0.177 C  
HETATM    2  C   UNL     1      -9.479   3.985  66.864  1.00  0.00    -0.220 A  
HETATM    3  C   UNL     1      -9.402   2.640  67.291  1.00  0.00    -0.137 A  
HETATM    4  C   UNL     1      -9.396   2.300  68.645  1.00  0.00    -0.238 A  
HETATM    5  C   UNL     1      -9.477   3.296  69.606  1.00  0.00    -0.209 A  
HETATM    6  C   UNL     1      -9.559   4.631  69.208  1.00  0.00    -0.251 A  
HETATM    7  C   UNL     1      -9.562   4.998  67.846  1.00  0.00    -0.176 A  
ENDROOT
BRANCH   7   8
HETATM    8  C   UNL     1      -9.578   6.482  67.600  1.00  0.00    -0.122 C  
HETATM    9  O   UNL     1     -10.430   6.909  66.825  1.00  0.00    -0.257 OA 
HETATM   10  N   UNL     1      -8.597   7.243  68.211  1.00  0.00    -0.124 N  
HETATM   11  H   UNL     1      -7.999   6.759  68.882  1.00  0.00     0.000 HD 
BRANCH  10  12
HETATM   12  C   UNL     1      -8.332   8.621  68.007  1.00  0.00    -0.123 A  
HETATM   13  C   UNL     1      -7.453   9.127  67.045  1.00  0.00    -0.091 A  
HETATM   14  C   UNL     1      -7.187  10.515  66.922  1.00  0.00    -0.106 A  
HETATM   15  C   UNL     1      -6.164  10.940  65.900  1.00  0.00    -0.089 C  
HETATM   16  C   UNL     1      -7.839  11.431  67.776  1.00  0.00    -0.117 A  
HETATM   17  C   UNL     1      -8.681  10.906  68.771  1.00  0.00    -0.158 A  
HETATM   18  C   UNL     1      -8.949   9.531  68.866  1.00  0.00    -0.141 A  
BRANCH  16  19
HETATM   19  C   UNL     1      -7.602  12.930  67.668  1.00  0.00    -0.156 C  
HETATM   20  N   UNL     1      -8.587  13.776  67.107  1.00  0.00    -0.211 N  
HETATM   21  O   UNL     1      -6.552  13.382  68.122  1.00  0.00    -0.090 OA 
HETATM   22  C   UNL     1      -8.317  15.221  66.971  1.00  0.00    -0.234 C  
HETATM   23  C   UNL     1      -9.195  16.141  67.827  1.00  0.00    -0.202 C  
HETATM   24  C   UNL     1     -10.708  15.997  67.638  1.00  0.00    -0.320 C  
HETATM   25  C   UNL     1     -11.201  14.574  67.910  1.00  0.00    -0.295 C  
HETATM   26  C   UNL     1     -10.985  13.701  66.691  1.00  0.00    -0.295 A  
HETATM   27  O   UNL     1     -12.578  14.581  68.287  1.00  0.00    -0.496 OA 
HETATM   28  H   UNL     1     -12.884  13.698  68.456  1.00  0.00     0.000 HD 
HETATM   29  C   UNL     1      -9.676  13.321  66.328  1.00  0.00    -0.268 A  
HETATM   30  C   UNL     1      -9.450  12.511  65.207  1.00  0.00     0.144 A  
HETATM   31  C   UNL     1     -10.527  12.074  64.442  1.00  0.00    -0.353 A  
HETATM   32  C   UNL     1     -11.823  12.432  64.801  1.00  0.00    -0.382 A  
HETATM   33 CL   UNL     1     -13.153  11.886  63.858  1.00  0.00    -0.316 Cl 
HETATM   34  C   UNL     1     -12.056  13.236  65.920  1.00  0.00    -0.493 A  
ENDBRANCH  16  19
ENDBRANCH  10  12
ENDBRANCH   7   8
TORSDOF 3
ENDMDL
MODEL       37
REMARK 921   NORMALIZED FREE ENERGY PREDICTED BY IDOCK:   -5.62 KCAL/MOL
REMARK 922        TOTAL FREE ENERGY PREDICTED BY IDOCK:   -7.69 KCAL/MOL
REMARK 923 INTER-LIGAND FREE ENERGY PREDICTED BY IDOCK:   -6.54 KCAL/MOL
REMARK 924 INTRA-LIGAND FREE ENERGY PREDICTED BY IDOCK:   -1.16 KCAL/MOL
REMARK 927      BINDING AFFINITY PREDICTED BY RF-SCORE:    0.00 PKD
ROOT
HETATM    1  C   UNL     1      -5.294   6.561  70.878  1.00  0.00    -0.019 C  
HETATM    2  C   UNL     1      -6.519   5.991  71.531  1.00  0.00    -0.050 A  
HETATM    3  C   UNL     1      -6.330   5.236  72.710  1.00  0.00    -0.047 A  
HETATM    4  C   UNL     1      -7.407   4.698  73.417  1.00  0.00    -0.082 A  
HETATM    5  C   UNL     1      -8.700   4.893  72.955  1.00  0.00    -0.113 A  
HETATM    6  C   UNL     1      -8.910   5.631  71.790  1.00  0.00    -0.138 A  
HETATM    7  C   UNL     1      -7.837   6.187  71.063  1.00  0.00    -0.114 A  
ENDROOT
BRANCH   7   8
HETATM    8  C   UNL     1      -8.251   7.016  69.876  1.00  0.00    -0.130 C  
HETATM    9  O   UNL     1      -8.175   6.483  68.772  1.00  0.00    -0.116 OA 
HETATM   10  N   UNL     1      -8.622   8.328  70.110  1.00  0.00    -0.126 N  
HETATM   11  H   UNL     1      -8.702   8.610  71.087  1.00  0.00     0.000 HD 
BRANCH  10  12
HETATM   12  C   UNL     1      -8.904   9.323  69.139  1.00  0.00    -0.141 A  
HETATM   13  C   UNL     1      -8.027  10.348  68.776  1.00  0.00    -0.122 A  
HETATM   14  C   UNL     1      -8.383  11.348  67.835  1.00  0.00    -0.137 A  
HETATM   15  C   UNL     1      -7.386  12.449  67.576  1.00  0.00    -0.146 C  
HETATM   16  C   UNL     1      -9.654  11.310  67.221  1.00  0.00    -0.188 A  
HETATM   17  C   UNL     1     -10.544  10.303  67.632  1.00  0.00    -0.312 A  
HETATM   18  C   UNL     1     -10.167   9.309  68.549  1.00  0.00    -0.225 A  
BRANCH  16  19
HETATM   19  C   UNL     1     -10.074  12.348  66.191  1.00  0.00    -0.248 C  
HETATM   20  N   UNL     1     -10.414  13.662  66.590  1.00  0.00    -0.270 N  
HETATM   21  O   UNL     1     -10.064  12.022  65.005  1.00  0.00    -0.260 OA 
HETATM   22  C   UNL     1     -10.861  14.640  65.579  1.00  0.00    -0.345 C  
HETATM   23  C   UNL     1      -9.927  15.835  65.357  1.00  0.00    -0.273 C  
HETATM   24  C   UNL     1      -9.590  16.668  66.597  1.00  0.00    -0.280 C  
HETATM   25  C   UNL     1      -8.947  15.834  67.708  1.00  0.00    -0.176 C  
HETATM   26  C   UNL     1     -10.013  15.111  68.506  1.00  0.00    -0.223 A  
HETATM   27  O   UNL     1      -8.151  16.657  68.560  1.00  0.00    -0.203 OA 
HETATM   28  H   UNL     1      -7.753  16.139  69.249  1.00  0.00     0.000 HD 
HETATM   29  C   UNL     1     -10.714  14.036  67.921  1.00  0.00    -0.240 A  
HETATM   30  C   UNL     1     -11.702  13.349  68.640  1.00  0.00    -0.384 A  
HETATM   31  C   UNL     1     -11.996  13.729  69.946  1.00  0.00    -0.412 A  
HETATM   32  C   UNL     1     -11.299  14.779  70.535  1.00  0.00    -0.195 A  
HETATM   33 CL   UNL     1     -11.660  15.243  72.152  1.00  0.00    -0.524 Cl 
HETATM   34  C   UNL     1     -10.310  15.466  69.826  1.00  0.00    -0.296 A  
ENDBRANCH  16  19
ENDBRANCH  10  12
ENDBRANCH   7   8
TORSDOF 3
ENDMDL
MODEL       38
REMARK 921   NORMALIZED FREE ENERGY PREDICTED BY IDOCK:   -5.60 KCAL/MOL
REMARK 922        TOTAL FREE ENERGY PREDICTED BY IDOCK:   -7.67 KCAL/MOL
REMARK 923 INTER-LIGAND FREE ENERGY PREDICTED BY IDOCK:   -6.65 KCAL/MOL
REMARK 924 INTRA-LIGAND FREE ENERGY PREDICTED BY IDOCK:   -1.02 KCAL/MOL
REMARK 927      BINDING AFFINITY PREDICTED BY RF-SCORE:    0.00 PKD
ROOT
HETATM    1  C   UNL     1      -5.460   9.210  73.342  1.00  0.00    -0.086 C  
HETATM    2  C   UNL     1      -6.125   7.871  73.211  1.00  0.00    -0.066 A  
HETATM    3  C   UNL     1      -5.554   6.794  73.924  1.00  0.00    -0.051 A  
HETATM    4  C   UNL     1      -6.120   5.518  73.904  1.00  0.00    -0.057 A  
HETATM    5  C   UNL     1      -7.266   5.285  73.159  1.00  0.00    -0.090 A  
HETATM    6  C   UNL     1      -7.845   6.333  72.442  1.00  0.00    -0.103 A  
HETATM    7  C   UNL     1      -7.293   7.630  72.452  1.00  0.00    -0.086 A  
ENDROOT
BRANCH   7   8
HETATM    8  C   UNL     1      -8.089   8.653  71.688  1.00  0.00    -0.132 C  
HETATM    9  O   UNL     1      -9.171   8.986  72.164  1.00  0.00    -0.365 OA 
HETATM   10  N   UNL     1      -7.574   9.093  70.481  1.00  0.00    -0.109 N  
HETATM   11  H   UNL     1      -6.632   8.780  70.247  1.00  0.00     0.000 HD 
BRANCH  10  12
HETATM   12  C   UNL     1      -8.215   9.932  69.533  1.00  0.00    -0.158 A  
HETATM   13  C   UNL     1      -9.463   9.673  68.959  1.00  0.00    -0.168 A  
HETATM   14  C   UNL     1     -10.032  10.522  67.976  1.00  0.00    -0.177 A  
HETATM   15  C   UNL     1     -11.347  10.105  67.371  1.00  0.00     0.132 C  
HETATM   16  C   UNL     1      -9.338  11.682  67.567  1.00  0.00    -0.168 A  
HETATM   17  C   UNL     1      -8.063  11.904  68.115  1.00  0.00    -0.155 A  
HETATM   18  C   UNL     1      -7.524  11.064  69.102  1.00  0.00    -0.121 A  
BRANCH  16  19
HETATM   19  C   UNL     1      -9.917  12.634  66.531  1.00  0.00    -0.251 C  
HETATM   20  N   UNL     1     -10.477  13.872  66.924  1.00  0.00    -0.274 N  
HETATM   21  O   UNL     1      -9.841  12.313  65.346  1.00  0.00    -0.247 OA 
HETATM   22  C   UNL     1     -11.073  14.760  65.906  1.00  0.00    -0.340 C  
HETATM   23  C   UNL     1     -10.352  16.095  65.689  1.00  0.00    -0.405 C  
HETATM   24  C   UNL     1     -10.171  16.974  66.930  1.00  0.00    -0.305 C  
HETATM   25  C   UNL     1      -9.407  16.261  68.048  1.00  0.00    -0.214 C  
HETATM   26  C   UNL     1     -10.343  15.371  68.839  1.00  0.00    -0.233 A  
HETATM   27  O   UNL     1      -8.768  17.208  68.905  1.00  0.00    -0.259 OA 
HETATM   28  H   UNL     1      -8.294  16.765  69.599  1.00  0.00     0.000 HD 
HETATM   29  C   UNL     1     -10.847  14.192  68.251  1.00  0.00    -0.247 A  
HETATM   30  C   UNL     1     -11.712  13.349  68.962  1.00  0.00    -0.368 A  
HETATM   31  C   UNL     1     -12.078  13.675  70.265  1.00  0.00    -0.427 A  
HETATM   32  C   UNL     1     -11.573  14.828  70.858  1.00  0.00    -0.266 A  
HETATM   33 CL   UNL     1     -12.021  15.227  72.470  1.00  0.00    -0.494 Cl 
HETATM   34  C   UNL     1     -10.707  15.671  70.156  1.00  0.00    -0.355 A  
ENDBRANCH  16  19
ENDBRANCH  10  12
ENDBRANCH   7   8
TORSDOF 3
ENDMDL
MODEL       39
REMARK 921   NORMALIZED FREE ENERGY PREDICTED BY IDOCK:   -5.56 KCAL/MOL
REMARK 922        TOTAL FREE ENERGY PREDICTED BY IDOCK:   -7.63 KCAL/MOL
REMARK 923 INTER-LIGAND FREE ENERGY PREDICTED BY IDOCK:   -6.88 KCAL/MOL
REMARK 924 INTRA-LIGAND FREE ENERGY PREDICTED BY IDOCK:   -0.75 KCAL/MOL
REMARK 927      BINDING AFFINITY PREDICTED BY RF-SCORE:    0.00 PKD
ROOT
HETATM    1  C   UNL     1     -12.032  14.130  69.030  1.00  0.00    -0.376 C  
HETATM    2  C   UNL     1     -11.168  15.021  68.187  1.00  0.00    -0.316 A  
HETATM    3  C   UNL     1     -11.229  16.409  68.442  1.00  0.00    -0.324 A  
HETATM    4  C   UNL     1     -10.434  17.319  67.743  1.00  0.00    -0.371 A  
HETATM    5  C   UNL     1      -9.567  16.864  66.761  1.00  0.00    -0.273 A  
HETATM    6  C   UNL     1      -9.494  15.498  66.488  1.00  0.00    -0.299 A  
HETATM    7  C   UNL     1     -10.284  14.560  67.185  1.00  0.00    -0.260 A  
ENDROOT
BRANCH   7   8
HETATM    8  C   UNL     1     -10.021  13.125  66.816  1.00  0.00    -0.250 C  
HETATM    9  O   UNL     1     -10.997  12.386  66.724  1.00  0.00    -0.245 OA 
HETATM   10  N   UNL     1      -8.702  12.733  66.671  1.00  0.00    -0.407 N  
HETATM   11  H   UNL     1      -8.001  13.472  66.711  1.00  0.00     0.000 HD 
BRANCH  10  12
HETATM   12  C   UNL     1      -8.219  11.414  66.474  1.00  0.00    -0.152 A  
HETATM   13  C   UNL     1      -8.581  10.587  65.407  1.00  0.00    -0.188 A  
HETATM   14  C   UNL     1      -8.108   9.255  65.289  1.00  0.00    -0.121 A  
HETATM   15  C   UNL     1      -8.624   8.431  64.138  1.00  0.00     0.067 C  
HETATM   16  C   UNL     1      -7.223   8.739  66.262  1.00  0.00    -0.086 A  
HETATM   17  C   UNL     1      -6.907   9.563  67.355  1.00  0.00    -0.083 A  
HETATM   18  C   UNL     1      -7.369  10.885  67.445  1.00  0.00    -0.099 A  
BRANCH  16  19
HETATM   19  C   UNL     1      -6.672   7.324  66.167  1.00  0.00    -0.053 C  
HETATM   20  N   UNL     1      -7.416   6.226  66.660  1.00  0.00    -0.088 N  
HETATM   21  O   UNL     1      -5.587   7.163  65.611  1.00  0.00    -0.030 OA 
HETATM   22  C   UNL     1      -6.842   4.868  66.598  1.00  0.00    -0.062 C  
HETATM   23  C   UNL     1      -7.570   3.885  65.674  1.00  0.00    -0.082 C  
HETATM   24  C   UNL     1      -9.061   3.677  65.949  1.00  0.00    -0.153 C  
HETATM   25  C   UNL     1      -9.858   4.981  65.884  1.00  0.00    -0.164 C  
HETATM   26  C   UNL     1      -9.741   5.734  67.194  1.00  0.00    -0.147 A  
HETATM   27  O   UNL     1     -11.227   4.721  65.574  1.00  0.00    -0.906 OA 
HETATM   28  H   UNL     1     -11.722   5.531  65.534  1.00  0.00     0.000 HD 
HETATM   29  C   UNL     1      -8.517   6.343  67.540  1.00  0.00    -0.116 A  
HETATM   30  C   UNL     1      -8.383   7.049  68.744  1.00  0.00    -0.122 A  
HETATM   31  C   UNL     1      -9.470   7.153  69.608  1.00  0.00    -0.152 A  
HETATM   32  C   UNL     1     -10.685   6.567  69.267  1.00  0.00    -0.280 A  
HETATM   33 CL   UNL     1     -12.028   6.702  70.333  1.00  0.00    -0.421 Cl 
HETATM   34  C   UNL     1     -10.826   5.866  68.066  1.00  0.00    -0.321 A  
ENDBRANCH  16  19
ENDBRANCH  10  12
ENDBRANCH   7   8
TORSDOF 3
ENDMDL
MODEL       40
REMARK 921   NORMALIZED FREE ENERGY PREDICTED BY IDOCK:   -5.53 KCAL/MOL
REMARK 922        TOTAL FREE ENERGY PREDICTED BY IDOCK:   -7.59 KCAL/MOL
REMARK 923 INTER-LIGAND FREE ENERGY PREDICTED BY IDOCK:   -6.37 KCAL/MOL
REMARK 924 INTRA-LIGAND FREE ENERGY PREDICTED BY IDOCK:   -1.21 KCAL/MOL
REMARK 927      BINDING AFFINITY PREDICTED BY RF-SCORE:    0.00 PKD
ROOT
HETATM    1  C   UNL     1     -11.108  17.269  64.973  1.00  0.00     0.307 C  
HETATM    2  C   UNL     1     -10.399  17.972  66.093  1.00  0.00    -0.368 A  
HETATM    3  C   UNL     1     -10.612  19.363  66.220  1.00  0.00    -0.569 A  
HETATM    4  C   UNL     1     -10.033  20.103  67.253  1.00  0.00    -0.583 A  
HETATM    5  C   UNL     1      -9.216  19.471  68.178  1.00  0.00    -0.411 A  
HETATM    6  C   UNL     1      -8.987  18.099  68.070  1.00  0.00    -0.289 A  
HETATM    7  C   UNL     1      -9.565  17.332  67.037  1.00  0.00    -0.262 A  
ENDROOT
BRANCH   7   8
HETATM    8  C   UNL     1      -9.274  15.858  67.118  1.00  0.00    -0.209 C  
HETATM    9  O   UNL     1      -8.355  15.433  66.423  1.00  0.00    -0.226 OA 
HETATM   10  N   UNL     1     -10.099  15.085  67.915  1.00  0.00    -0.226 N  
HETATM   11  H   UNL     1     -10.778  15.586  68.487  1.00  0.00     0.000 HD 
BRANCH  10  12
HETATM   12  C   UNL     1     -10.103  13.670  68.024  1.00  0.00    -0.250 A  
HETATM   13  C   UNL     1      -9.075  12.916  68.596  1.00  0.00     0.044 A  
HETATM   14  C   UNL     1      -9.108  11.498  68.630  1.00  0.00    -0.124 A  
HETATM   15  C   UNL     1      -7.910  10.786  69.202  1.00  0.00    -0.142 C  
HETATM   16  C   UNL     1     -10.219  10.811  68.091  1.00  0.00    -0.194 A  
HETATM   17  C   UNL     1     -11.222  11.580  67.475  1.00  0.00    -0.360 A  
HETATM   18  C   UNL     1     -11.181  12.983  67.469  1.00  0.00    -0.320 A  
BRANCH  16  19
HETATM   19  C   UNL     1     -10.309   9.293  68.123  1.00  0.00    -0.215 C  
HETATM   20  N   UNL     1      -9.553   8.507  67.222  1.00  0.00    -0.161 N  
HETATM   21  O   UNL     1     -11.022   8.775  68.981  1.00  0.00    -0.089 OA 
HETATM   22  C   UNL     1      -9.691   7.038  67.241  1.00  0.00    -0.149 C  
HETATM   23  C   UNL     1      -8.441   6.262  67.674  1.00  0.00    -0.116 C  
HETATM   24  C   UNL     1      -7.166   6.534  66.872  1.00  0.00    -0.078 C  
HETATM   25  C   UNL     1      -6.768   8.012  66.884  1.00  0.00    -0.064 C  
HETATM   26  C   UNL     1      -7.562   8.778  65.846  1.00  0.00    -0.090 A  
HETATM   27  O   UNL     1      -5.367   8.158  66.655  1.00  0.00    -0.027 OA 
HETATM   28  H   UNL     1      -5.120   9.076  66.663  1.00  0.00     0.000 HD 
HETATM   29  C   UNL     1      -8.938   9.010  66.052  1.00  0.00    -0.185 A  
HETATM   30  C   UNL     1      -9.694   9.719  65.109  1.00  0.00    -0.338 A  
HETATM   31  C   UNL     1      -9.082  10.204  63.956  1.00  0.00    -0.289 A  
HETATM   32  C   UNL     1      -7.722   9.992  63.753  1.00  0.00    -0.148 A  
HETATM   33 CL   UNL     1      -6.967  10.597  62.331  1.00  0.00    -0.150 Cl 
HETATM   34  C   UNL     1      -6.961   9.290  64.691  1.00  0.00    -0.092 A  
ENDBRANCH  16  19
ENDBRANCH  10  12
ENDBRANCH   7   8
TORSDOF 3
ENDMDL
MODEL       41
REMARK 921   NORMALIZED FREE ENERGY PREDICTED BY IDOCK:   -5.51 KCAL/MOL
REMARK 922        TOTAL FREE ENERGY PREDICTED BY IDOCK:   -7.56 KCAL/MOL
REMARK 923 INTER-LIGAND FREE ENERGY PREDICTED BY IDOCK:   -6.94 KCAL/MOL
REMARK 924 INTRA-LIGAND FREE ENERGY PREDICTED BY IDOCK:   -0.63 KCAL/MOL
REMARK 927      BINDING AFFINITY PREDICTED BY RF-SCORE:    0.00 PKD
ROOT
HETATM    1  C   UNL     1     -12.519  12.098  63.728  1.00  0.00    -0.620 C  
HETATM    2  C   UNL     1     -11.708  13.009  64.603  1.00  0.00    -0.408 A  
HETATM    3  C   UNL     1     -11.703  14.383  64.276  1.00  0.00    -0.328 A  
HETATM    4  C   UNL     1     -11.016  15.319  65.050  1.00  0.00    -0.450 A  
HETATM    5  C   UNL     1     -10.306  14.902  66.166  1.00  0.00    -0.312 A  
HETATM    6  C   UNL     1     -10.292  13.549  66.506  1.00  0.00    -0.282 A  
HETATM    7  C   UNL     1     -10.983  12.587  65.740  1.00  0.00    -0.327 A  
ENDROOT
BRANCH   7   8
HETATM    8  C   UNL     1     -10.923  11.189  66.294  1.00  0.00    -0.163 C  
HETATM    9  O   UNL     1     -11.539  10.976  67.335  1.00  0.00    -0.525 OA 
HETATM   10  N   UNL     1     -10.132  10.270  65.628  1.00  0.00    -0.281 N  
HETATM   11  H   UNL     1      -9.735  10.572  64.739  1.00  0.00     0.000 HD 
BRANCH  10  12
HETATM   12  C   UNL     1      -9.814   8.952  66.048  1.00  0.00    -0.207 A  
HETATM   13  C   UNL     1      -8.657   8.260  65.680  1.00  0.00    -0.189 A  
HETATM   14  C   UNL     1      -8.417   6.922  66.087  1.00  0.00    -0.136 A  
HETATM   15  C   UNL     1      -7.172   6.249  65.568  1.00  0.00    -0.070 C  
HETATM   16  C   UNL     1      -9.356   6.261  66.909  1.00  0.00    -0.148 A  
HETATM   17  C   UNL     1     -10.538   6.952  67.230  1.00  0.00    -0.393 A  
HETATM   18  C   UNL     1     -10.749   8.282  66.835  1.00  0.00    -0.179 A  
BRANCH  16  19
HETATM   19  C   UNL     1      -9.132   4.835  67.388  1.00  0.00    -0.117 C  
HETATM   20  N   UNL     1      -8.773   4.575  68.732  1.00  0.00    -0.092 N  
HETATM   21  O   UNL     1      -9.316   3.921  66.586  1.00  0.00    -0.160 OA 
HETATM   22  C   UNL     1      -8.517   3.187  69.163  1.00  0.00    -0.063 C  
HETATM   23  C   UNL     1      -9.510   2.619  70.185  1.00  0.00    -0.161 C  
HETATM   24  C   UNL     1      -9.675   3.416  71.481  1.00  0.00    -0.233 C  
HETATM   25  C   UNL     1     -10.113   4.861  71.229  1.00  0.00    -0.199 C  
HETATM   26  C   UNL     1      -8.916   5.719  70.877  1.00  0.00    -0.153 A  
HETATM   27  O   UNL     1     -10.792   5.388  72.370  1.00  0.00    -0.225 OA 
HETATM   28  H   UNL     1     -11.064   6.285  72.213  1.00  0.00     0.000 HD 
HETATM   29  C   UNL     1      -8.282   5.553  69.628  1.00  0.00    -0.101 A  
HETATM   30  C   UNL     1      -7.175   6.337  69.275  1.00  0.00    -0.086 A  
HETATM   31  C   UNL     1      -6.694   7.292  70.166  1.00  0.00    -0.054 A  
HETATM   32  C   UNL     1      -7.322   7.473  71.394  1.00  0.00    -0.078 A  
HETATM   33 CL   UNL     1      -6.729   8.658  72.491  1.00  0.00    -0.077 Cl 
HETATM   34  C   UNL     1      -8.429   6.698  71.750  1.00  0.00    -0.119 A  
ENDBRANCH  16  19
ENDBRANCH  10  12
ENDBRANCH   7   8
TORSDOF 3
ENDMDL
MODEL       42
REMARK 921   NORMALIZED FREE ENERGY PREDICTED BY IDOCK:   -5.50 KCAL/MOL
REMARK 922        TOTAL FREE ENERGY PREDICTED BY IDOCK:   -7.56 KCAL/MOL
REMARK 923 INTER-LIGAND FREE ENERGY PREDICTED BY IDOCK:   -6.90 KCAL/MOL
REMARK 924 INTRA-LIGAND FREE ENERGY PREDICTED BY IDOCK:   -0.66 KCAL/MOL
REMARK 927      BINDING AFFINITY PREDICTED BY RF-SCORE:    0.00 PKD
ROOT
HETATM    1  C   UNL     1     -12.220  14.354  64.251  1.00  0.00    -0.450 C  
HETATM    2  C   UNL     1     -11.087  14.985  65.006  1.00  0.00    -0.421 A  
HETATM    3  C   UNL     1     -11.033  16.397  65.027  1.00  0.00    -0.265 A  
HETATM    4  C   UNL     1     -10.045  17.083  65.736  1.00  0.00    -0.219 A  
HETATM    5  C   UNL     1      -9.078  16.373  66.432  1.00  0.00    -0.341 A  
HETATM    6  C   UNL     1      -9.109  14.978  66.422  1.00  0.00    -0.312 A  
HETATM    7  C   UNL     1     -10.101  14.265  65.716  1.00  0.00    -0.356 A  
ENDROOT
BRANCH   7   8
HETATM    8  C   UNL     1     -10.028  12.770  65.877  1.00  0.00    -0.266 C  
HETATM    9  O   UNL     1     -10.195  12.093  64.866  1.00  0.00    -0.270 OA 
HETATM   10  N   UNL     1      -9.843  12.272  67.154  1.00  0.00    -0.201 N  
HETATM   11  H   UNL     1      -9.651  12.956  67.886  1.00  0.00     0.000 HD 
BRANCH  10  12
HETATM   12  C   UNL     1      -9.890  10.913  67.557  1.00  0.00    -0.168 A  
HETATM   13  C   UNL     1      -9.271   9.861  66.875  1.00  0.00    -0.171 A  
HETATM   14  C   UNL     1      -9.397   8.512  67.295  1.00  0.00    -0.184 A  
HETATM   15  C   UNL     1      -8.750   7.452  66.440  1.00  0.00    -0.154 C  
HETATM   16  C   UNL     1     -10.150   8.206  68.450  1.00  0.00    -0.226 A  
HETATM   17  C   UNL     1     -10.807   9.266  69.097  1.00  0.00    -0.154 A  
HETATM   18  C   UNL     1     -10.655  10.598  68.679  1.00  0.00    -0.229 A  
BRANCH  16  19
HETATM   19  C   UNL     1     -10.296   6.777  68.951  1.00  0.00    -0.192 C  
HETATM   20  N   UNL     1      -9.649   6.360  70.139  1.00  0.00    -0.160 N  
HETATM   21  O   UNL     1     -11.026   6.015  68.319  1.00  0.00    -0.303 OA 
HETATM   22  C   UNL     1      -9.769   4.958  70.582  1.00  0.00    -0.201 C  
HETATM   23  C   UNL     1     -10.524   4.743  71.899  1.00  0.00    -0.201 C  
HETATM   24  C   UNL     1      -9.990   5.503  73.115  1.00  0.00    -0.191 C  
HETATM   25  C   UNL     1      -9.955   7.016  72.894  1.00  0.00    -0.187 C  
HETATM   26  C   UNL     1      -8.709   7.407  72.127  1.00  0.00    -0.134 A  
HETATM   27  O   UNL     1     -10.017   7.710  74.140  1.00  0.00    -0.347 OA 
HETATM   28  H   UNL     1      -9.996   8.649  74.003  1.00  0.00     0.000 HD 
HETATM   29  C   UNL     1      -8.596   7.071  70.762  1.00  0.00    -0.143 A  
HETATM   30  C   UNL     1      -7.455   7.424  70.028  1.00  0.00    -0.084 A  
HETATM   31  C   UNL     1      -6.421   8.116  70.651  1.00  0.00    -0.036 A  
HETATM   32  C   UNL     1      -6.530   8.464  71.993  1.00  0.00    -0.069 A  
HETATM   33 CL   UNL     1      -5.253   9.325  72.759  1.00  0.00    -0.076 Cl 
HETATM   34  C   UNL     1      -7.667   8.119  72.730  1.00  0.00    -0.184 A  
ENDBRANCH  16  19
ENDBRANCH  10  12
ENDBRANCH   7   8
TORSDOF 3
ENDMDL
MODEL       43
REMARK 921   NORMALIZED FREE ENERGY PREDICTED BY IDOCK:   -5.48 KCAL/MOL
REMARK 922        TOTAL FREE ENERGY PREDICTED BY IDOCK:   -7.53 KCAL/MOL
REMARK 923 INTER-LIGAND FREE ENERGY PREDICTED BY IDOCK:   -7.21 KCAL/MOL
REMARK 924 INTRA-LIGAND FREE ENERGY PREDICTED BY IDOCK:   -0.32 KCAL/MOL
REMARK 927      BINDING AFFINITY PREDICTED BY RF-SCORE:    0.00 PKD
ROOT
HETATM    1  C   UNL     1     -11.097  16.441  69.888  1.00  0.00    -0.313 C  
HETATM    2  C   UNL     1     -10.893  16.196  68.422  1.00  0.00    -0.318 A  
HETATM    3  C   UNL     1     -10.649  17.325  67.607  1.00  0.00    -0.350 A  
HETATM    4  C   UNL     1     -10.405  17.201  66.238  1.00  0.00    -0.315 A  
HETATM    5  C   UNL     1     -10.410  15.947  65.647  1.00  0.00    -0.413 A  
HETATM    6  C   UNL     1     -10.653  14.819  66.431  1.00  0.00    -0.300 A  
HETATM    7  C   UNL     1     -10.898  14.919  67.817  1.00  0.00    -0.286 A  
ENDROOT
BRANCH   7   8
HETATM    8  C   UNL     1     -11.063  13.598  68.519  1.00  0.00    -0.275 C  
HETATM    9  O   UNL     1     -11.174  13.628  69.741  1.00  0.00    -0.160 OA 
HETATM   10  N   UNL     1     -11.015  12.452  67.745  1.00  0.00    -0.218 N  
HETATM   11  H   UNL     1     -10.988  12.587  66.735  1.00  0.00     0.000 HD 
BRANCH  10  12
HETATM   12  C   UNL     1     -11.001  11.111  68.205  1.00  0.00    -0.226 A  
HETATM   13  C   UNL     1     -11.490  10.691  69.446  1.00  0.00    -0.356 A  
HETATM   14  C   UNL     1     -11.401   9.343  69.876  1.00  0.00    -0.121 A  
HETATM   15  C   UNL     1     -11.892   9.019  71.263  1.00  0.00    -0.379 C  
HETATM   16  C   UNL     1     -10.822   8.374  69.026  1.00  0.00    -0.015 A  
HETATM   17  C   UNL     1     -10.290   8.818  67.803  1.00  0.00    -0.297 A  
HETATM   18  C   UNL     1     -10.405  10.153  67.385  1.00  0.00    -0.289 A  
BRANCH  16  19
HETATM   19  C   UNL     1     -10.723   6.912  69.434  1.00  0.00    -0.246 C  
HETATM   20  N   UNL     1      -9.780   6.497  70.403  1.00  0.00    -0.171 N  
HETATM   21  O   UNL     1     -11.515   6.117  68.929  1.00  0.00    -0.305 OA 
HETATM   22  C   UNL     1      -9.672   5.067  70.751  1.00  0.00    -0.196 C  
HETATM   23  C   UNL     1     -10.072   4.703  72.186  1.00  0.00    -0.256 C  
HETATM   24  C   UNL     1      -9.331   5.443  73.302  1.00  0.00    -0.136 C  
HETATM   25  C   UNL     1      -9.478   6.963  73.197  1.00  0.00    -0.150 C  
HETATM   26  C   UNL     1      -8.487   7.519  72.196  1.00  0.00    -0.130 A  
HETATM   27  O   UNL     1      -9.300   7.575  74.475  1.00  0.00    -0.411 OA 
HETATM   28  H   UNL     1      -9.392   8.518  74.410  1.00  0.00     0.000 HD 
HETATM   29  C   UNL     1      -8.673   7.273  70.820  1.00  0.00    -0.146 A  
HETATM   30  C   UNL     1      -7.773   7.780  69.872  1.00  0.00    -0.095 A  
HETATM   31  C   UNL     1      -6.683   8.536  70.291  1.00  0.00    -0.039 A  
HETATM   32  C   UNL     1      -6.499   8.796  71.646  1.00  0.00    -0.075 A  
HETATM   33 CL   UNL     1      -5.154   9.736  72.161  1.00  0.00    -0.077 Cl 
HETATM   34  C   UNL     1      -7.395   8.298  72.596  1.00  0.00    -0.141 A  
ENDBRANCH  16  19
ENDBRANCH  10  12
ENDBRANCH   7   8
TORSDOF 3
ENDMDL
MODEL       44
REMARK 921   NORMALIZED FREE ENERGY PREDICTED BY IDOCK:   -5.41 KCAL/MOL
REMARK 922        TOTAL FREE ENERGY PREDICTED BY IDOCK:   -7.45 KCAL/MOL
REMARK 923 INTER-LIGAND FREE ENERGY PREDICTED BY IDOCK:   -6.74 KCAL/MOL
REMARK 924 INTRA-LIGAND FREE ENERGY PREDICTED BY IDOCK:   -0.71 KCAL/MOL
REMARK 927      BINDING AFFINITY PREDICTED BY RF-SCORE:    0.00 PKD
ROOT
HETATM    1  C   UNL     1     -10.389   6.090  72.968  1.00  0.00    -0.224 C  
HETATM    2  C   UNL     1      -9.957   5.031  71.996  1.00  0.00    -0.239 A  
HETATM    3  C   UNL     1      -9.679   3.749  72.520  1.00  0.00    -0.205 A  
HETATM    4  C   UNL     1      -9.311   2.684  71.696  1.00  0.00    -0.194 A  
HETATM    5  C   UNL     1      -9.202   2.878  70.327  1.00  0.00    -0.209 A  
HETATM    6  C   UNL     1      -9.467   4.137  69.788  1.00  0.00    -0.265 A  
HETATM    7  C   UNL     1      -9.845   5.226  70.601  1.00  0.00    -0.264 A  
ENDROOT
BRANCH   7   8
HETATM    8  C   UNL     1     -10.167   6.486  69.845  1.00  0.00    -0.184 C  
HETATM    9  O   UNL     1     -11.353   6.714  69.622  1.00  0.00    -0.335 OA 
HETATM   10  N   UNL     1      -9.106   7.258  69.405  1.00  0.00    -0.143 N  
HETATM   11  H   UNL     1      -8.178   6.979  69.725  1.00  0.00     0.000 HD 
BRANCH  10  12
HETATM   12  C   UNL     1      -9.168   8.394  68.558  1.00  0.00    -0.135 A  
HETATM   13  C   UNL     1      -8.241   9.440  68.564  1.00  0.00    -0.113 A  
HETATM   14  C   UNL     1      -8.383  10.579  67.730  1.00  0.00    -0.111 A  
HETATM   15  C   UNL     1      -7.364  11.680  67.875  1.00  0.00    -0.096 C  
HETATM   16  C   UNL     1      -9.480  10.665  66.845  1.00  0.00    -0.189 A  
HETATM   17  C   UNL     1     -10.431   9.631  66.885  1.00  0.00    -0.282 A  
HETATM   18  C   UNL     1     -10.263   8.501  67.702  1.00  0.00    -0.297 A  
BRANCH  16  19
HETATM   19  C   UNL     1      -9.664  11.856  65.917  1.00  0.00    -0.238 C  
HETATM   20  N   UNL     1     -10.133  13.094  66.417  1.00  0.00    -0.274 N  
HETATM   21  O   UNL     1      -9.350  11.722  64.735  1.00  0.00    -0.076 OA 
HETATM   22  C   UNL     1     -10.346  14.223  65.491  1.00  0.00    -0.355 C  
HETATM   23  C   UNL     1      -9.424  15.430  65.697  1.00  0.00    -0.255 C  
HETATM   24  C   UNL     1      -9.430  16.053  67.095  1.00  0.00    -0.225 C  
HETATM   25  C   UNL     1      -9.057  15.049  68.188  1.00  0.00    -0.178 C  
HETATM   26  C   UNL     1     -10.264  14.219  68.573  1.00  0.00    -0.245 A  
HETATM   27  O   UNL     1      -8.522  15.721  69.329  1.00  0.00    -0.238 OA 
HETATM   28  H   UNL     1      -8.291  15.097  70.007  1.00  0.00     0.000 HD 
HETATM   29  C   UNL     1     -10.764  13.256  67.673  1.00  0.00    -0.239 A  
HETATM   30  C   UNL     1     -11.878  12.472  68.006  1.00  0.00    -0.382 A  
HETATM   31  C   UNL     1     -12.497  12.644  69.241  1.00  0.00     0.294 A  
HETATM   32  C   UNL     1     -12.001  13.581  70.141  1.00  0.00    -0.329 A  
HETATM   33 CL   UNL     1     -12.765  13.787  71.668  1.00  0.00    -0.424 Cl 
HETATM   34  C   UNL     1     -10.889  14.363  69.816  1.00  0.00    -0.087 A  
ENDBRANCH  16  19
ENDBRANCH  10  12
ENDBRANCH   7   8
TORSDOF 3
ENDMDL
MODEL       45
REMARK 921   NORMALIZED FREE ENERGY PREDICTED BY IDOCK:   -5.38 KCAL/MOL
REMARK 922        TOTAL FREE ENERGY PREDICTED BY IDOCK:   -7.41 KCAL/MOL
REMARK 923 INTER-LIGAND FREE ENERGY PREDICTED BY IDOCK:   -6.67 KCAL/MOL
REMARK 924 INTRA-LIGAND FREE ENERGY PREDICTED BY IDOCK:   -0.74 KCAL/MOL
REMARK 927      BINDING AFFINITY PREDICTED BY RF-SCORE:    0.00 PKD
ROOT
HETATM    1  C   UNL     1      -9.052  19.078  67.106  1.00  0.00    -0.311 C  
HETATM    2  C   UNL     1      -7.683  19.522  67.528  1.00  0.00    -0.296 A  
HETATM    3  C   UNL     1      -7.311  20.850  67.218  1.00  0.00    -0.378 A  
HETATM    4  C   UNL     1      -6.076  21.374  67.604  1.00  0.00    -0.375 A  
HETATM    5  C   UNL     1      -5.176  20.580  68.298  1.00  0.00    -0.261 A  
HETATM    6  C   UNL     1      -5.520  19.264  68.611  1.00  0.00    -0.207 A  
HETATM    7  C   UNL     1      -6.764  18.715  68.236  1.00  0.00    -0.237 A  
ENDROOT
BRANCH   7   8
HETATM    8  C   UNL     1      -6.997  17.310  68.721  1.00  0.00    -0.230 C  
HETATM    9  O   UNL     1      -6.519  17.011  69.812  1.00  0.00    -0.226 OA 
HETATM   10  N   UNL     1      -7.674  16.446  67.878  1.00  0.00    -0.149 N  
HETATM   11  H   UNL     1      -8.071  16.854  67.032  1.00  0.00     0.000 HD 
BRANCH  10  12
HETATM   12  C   UNL     1      -7.875  15.054  68.063  1.00  0.00    -0.125 A  
HETATM   13  C   UNL     1      -7.044  14.056  67.546  1.00  0.00    -0.179 A  
HETATM   14  C   UNL     1      -7.324  12.676  67.718  1.00  0.00    -0.128 A  
HETATM   15  C   UNL     1      -6.400  11.689  67.052  1.00  0.00    -0.149 C  
HETATM   16  C   UNL     1      -8.465  12.280  68.451  1.00  0.00    -0.138 A  
HETATM   17  C   UNL     1      -9.318  13.292  68.923  1.00  0.00     0.240 A  
HETATM   18  C   UNL     1      -9.014  14.653  68.760  1.00  0.00    -0.173 A  
BRANCH  16  19
HETATM   19  C   UNL     1      -8.795  10.813  68.680  1.00  0.00    -0.152 C  
HETATM   20  N   UNL     1      -9.464  10.061  67.686  1.00  0.00    -0.143 N  
HETATM   21  O   UNL     1      -8.424  10.295  69.732  1.00  0.00    -0.159 OA 
HETATM   22  C   UNL     1      -9.814   8.652  67.948  1.00  0.00    -0.173 C  
HETATM   23  C   UNL     1      -9.095   7.618  67.073  1.00  0.00    -0.157 C  
HETATM   24  C   UNL     1      -9.244   7.793  65.560  1.00  0.00     0.182 C  
HETATM   25  C   UNL     1      -8.761   9.163  65.076  1.00  0.00    -0.189 C  
HETATM   26  C   UNL     1      -9.841  10.205  65.284  1.00  0.00    -0.388 A  
HETATM   27  O   UNL     1      -8.375   9.104  63.702  1.00  0.00    -0.169 OA 
HETATM   28  H   UNL     1      -8.075   9.954  63.402  1.00  0.00     0.000 HD 
HETATM   29  C   UNL     1     -10.156  10.630  66.591  1.00  0.00    -0.220 A  
HETATM   30  C   UNL     1     -11.148  11.596  66.811  1.00  0.00    -0.366 A  
HETATM   31  C   UNL     1     -11.830  12.144  65.728  1.00  0.00    -0.342 A  
HETATM   32  C   UNL     1     -11.514  11.741  64.434  1.00  0.00    -0.273 A  
HETATM   33 CL   UNL     1     -12.353  12.424  63.098  1.00  0.00    -0.466 Cl 
HETATM   34  C   UNL     1     -10.523  10.782  64.208  1.00  0.00    -0.330 A  
ENDBRANCH  16  19
ENDBRANCH  10  12
ENDBRANCH   7   8
TORSDOF 3
ENDMDL
MODEL       46
REMARK 921   NORMALIZED FREE ENERGY PREDICTED BY IDOCK:   -5.32 KCAL/MOL
REMARK 922        TOTAL FREE ENERGY PREDICTED BY IDOCK:   -7.35 KCAL/MOL
REMARK 923 INTER-LIGAND FREE ENERGY PREDICTED BY IDOCK:   -6.62 KCAL/MOL
REMARK 924 INTRA-LIGAND FREE ENERGY PREDICTED BY IDOCK:   -0.73 KCAL/MOL
REMARK 927      BINDING AFFINITY PREDICTED BY RF-SCORE:    0.00 PKD
ROOT
HETATM    1  C   UNL     1      -9.354  13.791  67.787  1.00  0.00    -0.213 C  
HETATM    2  C   UNL     1     -10.310  13.935  66.640  1.00  0.00    -0.278 A  
HETATM    3  C   UNL     1     -10.359  15.191  65.993  1.00  0.00    -0.326 A  
HETATM    4  C   UNL     1     -11.183  15.416  64.889  1.00  0.00    -0.410 A  
HETATM    5  C   UNL     1     -11.989  14.394  64.411  1.00  0.00    -0.471 A  
HETATM    6  C   UNL     1     -11.961  13.147  65.036  1.00  0.00    -0.423 A  
HETATM    7  C   UNL     1     -11.133  12.895  66.150  1.00  0.00    -0.314 A  
ENDROOT
BRANCH   7   8
HETATM    8  C   UNL     1     -11.172  11.476  66.649  1.00  0.00    -0.271 C  
HETATM    9  O   UNL     1     -11.857  11.256  67.644  1.00  0.00    -0.614 OA 
HETATM   10  N   UNL     1     -10.389  10.544  65.992  1.00  0.00    -0.237 N  
HETATM   11  H   UNL     1      -9.926  10.860  65.139  1.00  0.00     0.000 HD 
BRANCH  10  12
HETATM   12  C   UNL     1     -10.159   9.198  66.375  1.00  0.00    -0.274 A  
HETATM   13  C   UNL     1     -10.882   8.518  67.359  1.00  0.00    -0.082 A  
HETATM   14  C   UNL     1     -10.573   7.187  67.739  1.00  0.00    -0.293 A  
HETATM   15  C   UNL     1     -11.369   6.580  68.865  1.00  0.00    -0.267 C  
HETATM   16  C   UNL     1      -9.517   6.504  67.096  1.00  0.00    -0.150 A  
HETATM   17  C   UNL     1      -8.767   7.215  66.143  1.00  0.00    -0.164 A  
HETATM   18  C   UNL     1      -9.100   8.525  65.766  1.00  0.00    -0.222 A  
BRANCH  16  19
HETATM   19  C   UNL     1      -9.161   5.069  67.453  1.00  0.00    -0.119 C  
HETATM   20  N   UNL     1      -8.564   4.763  68.699  1.00  0.00    -0.092 N  
HETATM   21  O   UNL     1      -9.450   4.185  66.648  1.00  0.00    -0.164 OA 
HETATM   22  C   UNL     1      -8.187   3.370  69.006  1.00  0.00    -0.060 C  
HETATM   23  C   UNL     1      -8.964   2.712  70.153  1.00  0.00    -0.165 C  
HETATM   24  C   UNL     1      -8.928   3.442  71.498  1.00  0.00    -0.156 C  
HETATM   25  C   UNL     1      -9.454   4.876  71.402  1.00  0.00    -0.155 C  
HETATM   26  C   UNL     1      -8.369   5.802  70.893  1.00  0.00    -0.125 A  
HETATM   27  O   UNL     1      -9.941   5.320  72.669  1.00  0.00    -0.158 OA 
HETATM   28  H   UNL     1     -10.268   6.210  72.610  1.00  0.00     0.000 HD 
HETATM   29  C   UNL     1      -7.959   5.721  69.546  1.00  0.00    -0.097 A  
HETATM   30  C   UNL     1      -6.959   6.568  69.049  1.00  0.00    -0.075 A  
HETATM   31  C   UNL     1      -6.363   7.502  69.892  1.00  0.00    -0.027 A  
HETATM   32  C   UNL     1      -6.772   7.599  71.218  1.00  0.00    -0.048 A  
HETATM   33 CL   UNL     1      -6.039   8.757  72.256  1.00  0.00    -0.076 Cl 
HETATM   34  C   UNL     1      -7.772   6.760  71.719  1.00  0.00    -0.096 A  
ENDBRANCH  16  19
ENDBRANCH  10  12
ENDBRANCH   7   8
TORSDOF 3
ENDMDL
MODEL       47
REMARK 921   NORMALIZED FREE ENERGY PREDICTED BY IDOCK:   -5.31 KCAL/MOL
REMARK 922        TOTAL FREE ENERGY PREDICTED BY IDOCK:   -7.34 KCAL/MOL
REMARK 923 INTER-LIGAND FREE ENERGY PREDICTED BY IDOCK:   -6.26 KCAL/MOL
REMARK 924 INTRA-LIGAND FREE ENERGY PREDICTED BY IDOCK:   -1.08 KCAL/MOL
REMARK 927      BINDING AFFINITY PREDICTED BY RF-SCORE:    0.00 PKD
ROOT
HETATM    1  C   UNL     1     -11.856  13.904  67.579  1.00  0.00    -0.431 C  
HETATM    2  C   UNL     1     -11.903  13.485  66.140  1.00  0.00    -0.426 A  
HETATM    3  C   UNL     1     -12.364  14.438  65.204  1.00  0.00    -0.383 A  
HETATM    4  C   UNL     1     -12.407  14.163  63.836  1.00  0.00    -0.229 A  
HETATM    5  C   UNL     1     -12.000  12.922  63.370  1.00  0.00    -0.612 A  
HETATM    6  C   UNL     1     -11.546  11.962  64.276  1.00  0.00    -0.405 A  
HETATM    7  C   UNL     1     -11.490  12.220  65.661  1.00  0.00    -0.416 A  
ENDROOT
BRANCH   7   8
HETATM    8  C   UNL     1     -10.904  11.103  66.481  1.00  0.00    -0.245 C  
HETATM    9  O   UNL     1     -11.570  10.701  67.431  1.00  0.00    -0.445 OA 
HETATM   10  N   UNL     1      -9.638  10.658  66.144  1.00  0.00    -0.181 N  
HETATM   11  H   UNL     1      -9.235  11.039  65.288  1.00  0.00     0.000 HD 
BRANCH  10  12
HETATM   12  C   UNL     1      -8.839   9.729  66.859  1.00  0.00    -0.138 A  
HETATM   13  C   UNL     1      -8.908   8.341  66.708  1.00  0.00    -0.158 A  
HETATM   14  C   UNL     1      -8.122   7.457  67.489  1.00  0.00    -0.114 A  
HETATM   15  C   UNL     1      -8.334   5.978  67.294  1.00  0.00    -0.105 C  
HETATM   16  C   UNL     1      -7.219   7.979  68.441  1.00  0.00    -0.089 A  
HETATM   17  C   UNL     1      -7.195   9.373  68.618  1.00  0.00    -0.074 A  
HETATM   18  C   UNL     1      -7.966  10.234  67.821  1.00  0.00    -0.102 A  
BRANCH  16  19
HETATM   19  C   UNL     1      -6.339   7.072  69.288  1.00  0.00    -0.035 C  
HETATM   20  N   UNL     1      -6.869   6.404  70.417  1.00  0.00    -0.057 N  
HETATM   21  O   UNL     1      -5.173   6.904  68.935  1.00  0.00    -0.012 OA 
HETATM   22  C   UNL     1      -5.986   5.564  71.250  1.00  0.00    -0.032 C  
HETATM   23  C   UNL     1      -6.304   4.064  71.245  1.00  0.00    -0.015 C  
HETATM   24  C   UNL     1      -7.727   3.674  71.651  1.00  0.00    -0.060 C  
HETATM   25  C   UNL     1      -8.791   4.331  70.769  1.00  0.00    -0.093 C  
HETATM   26  C   UNL     1      -9.065   5.745  71.240  1.00  0.00    -0.151 A  
HETATM   27  O   UNL     1      -9.992   3.559  70.768  1.00  0.00    -0.115 OA 
HETATM   28  H   UNL     1     -10.653   3.967  70.221  1.00  0.00     0.000 HD 
HETATM   29  C   UNL     1      -8.091   6.746  71.042  1.00  0.00    -0.115 A  
HETATM   30  C   UNL     1      -8.321   8.062  71.465  1.00  0.00    -0.139 A  
HETATM   31  C   UNL     1      -9.523   8.388  72.086  1.00  0.00    -0.360 A  
HETATM   32  C   UNL     1     -10.494   7.410  72.272  1.00  0.00    -0.223 A  
HETATM   33 CL   UNL     1     -11.982   7.816  73.034  1.00  0.00    -0.072 Cl 
HETATM   34  C   UNL     1     -10.274   6.096  71.849  1.00  0.00    -0.231 A  
ENDBRANCH  16  19
ENDBRANCH  10  12
ENDBRANCH   7   8
TORSDOF 3
ENDMDL
MODEL       48
REMARK 921   NORMALIZED FREE ENERGY PREDICTED BY IDOCK:   -5.24 KCAL/MOL
REMARK 922        TOTAL FREE ENERGY PREDICTED BY IDOCK:   -7.25 KCAL/MOL
REMARK 923 INTER-LIGAND FREE ENERGY PREDICTED BY IDOCK:   -6.22 KCAL/MOL
REMARK 924 INTRA-LIGAND FREE ENERGY PREDICTED BY IDOCK:   -1.03 KCAL/MOL
REMARK 927      BINDING AFFINITY PREDICTED BY RF-SCORE:    0.00 PKD
ROOT
HETATM    1  C   UNL     1     -10.837  17.006  67.977  1.00  0.00    -0.330 C  
HETATM    2  C   UNL     1      -9.378  17.350  68.016  1.00  0.00    -0.276 A  
HETATM    3  C   UNL     1      -9.018  18.572  68.627  1.00  0.00    -0.323 A  
HETATM    4  C   UNL     1      -7.684  18.965  68.753  1.00  0.00    -0.366 A  
HETATM    5  C   UNL     1      -6.676  18.149  68.261  1.00  0.00    -0.212 A  
HETATM    6  C   UNL     1      -7.008  16.940  67.649  1.00  0.00    -0.156 A  
HETATM    7  C   UNL     1      -8.348  16.521  67.516  1.00  0.00    -0.179 A  
ENDROOT
BRANCH   7   8
HETATM    8  C   UNL     1      -8.517  15.157  66.902  1.00  0.00    -0.244 C  
HETATM    9  O   UNL     1      -9.141  15.096  65.845  1.00  0.00    -0.259 OA 
HETATM   10  N   UNL     1      -8.017  14.074  67.602  1.00  0.00    -0.163 N  
HETATM   11  H   UNL     1      -7.463  14.285  68.432  1.00  0.00     0.000 HD 
BRANCH  10  12
HETATM   12  C   UNL     1      -8.190  12.701  67.290  1.00  0.00    -0.184 A  
HETATM   13  C   UNL     1      -9.410  12.021  67.350  1.00  0.00    -0.178 A  
HETATM   14  C   UNL     1      -9.514  10.633  67.078  1.00  0.00    -0.187 A  
HETATM   15  C   UNL     1     -10.866   9.989  67.248  1.00  0.00    -0.284 C  
HETATM   16  C   UNL     1      -8.361   9.903  66.713  1.00  0.00    -0.125 A  
HETATM   17  C   UNL     1      -7.134  10.588  66.705  1.00  0.00    -0.118 A  
HETATM   18  C   UNL     1      -7.053  11.966  66.957  1.00  0.00    -0.116 A  
BRANCH  16  19
HETATM   19  C   UNL     1      -8.427   8.417  66.392  1.00  0.00    -0.123 C  
HETATM   20  N   UNL     1      -8.649   7.468  67.417  1.00  0.00    -0.118 N  
HETATM   21  O   UNL     1      -8.326   8.076  65.214  1.00  0.00    -0.144 OA 
HETATM   22  C   UNL     1      -8.664   6.029  67.089  1.00  0.00    -0.109 C  
HETATM   23  C   UNL     1     -10.011   5.322  67.278  1.00  0.00    -0.207 C  
HETATM   24  C   UNL     1     -10.635   5.421  68.672  1.00  0.00    -0.167 C  
HETATM   25  C   UNL     1     -10.855   6.869  69.116  1.00  0.00    -0.228 C  
HETATM   26  C   UNL     1      -9.570   7.449  69.671  1.00  0.00    -0.156 A  
HETATM   27  O   UNL     1     -11.901   6.946  70.084  1.00  0.00    -0.563 OA 
HETATM   28  H   UNL     1     -12.038   7.844  70.360  1.00  0.00     0.000 HD 
HETATM   29  C   UNL     1      -8.502   7.739  68.797  1.00  0.00    -0.129 A  
HETATM   30  C   UNL     1      -7.304   8.280  69.284  1.00  0.00    -0.076 A  
HETATM   31  C   UNL     1      -7.165   8.537  70.645  1.00  0.00    -0.052 A  
HETATM   32  C   UNL     1      -8.220   8.267  71.512  1.00  0.00    -0.132 A  
HETATM   33 CL   UNL     1      -8.049   8.591  73.193  1.00  0.00    -0.149 Cl 
HETATM   34  C   UNL     1      -9.419   7.732  71.033  1.00  0.00    -0.165 A  
ENDBRANCH  16  19
ENDBRANCH  10  12
ENDBRANCH   7   8
TORSDOF 3
ENDMDL
MODEL       49
REMARK 921   NORMALIZED FREE ENERGY PREDICTED BY IDOCK:   -5.23 KCAL/MOL
REMARK 922        TOTAL FREE ENERGY PREDICTED BY IDOCK:   -7.24 KCAL/MOL
REMARK 923 INTER-LIGAND FREE ENERGY PREDICTED BY IDOCK:   -6.22 KCAL/MOL
REMARK 924 INTRA-LIGAND FREE ENERGY PREDICTED BY IDOCK:   -1.02 KCAL/MOL
REMARK 927      BINDING AFFINITY PREDICTED BY RF-SCORE:    0.00 PKD
ROOT
HETATM    1  C   UNL     1     -10.087  13.674  68.177  1.00  0.00    -0.245 C  
HETATM    2  C   UNL     1     -10.899  13.604  66.917  1.00  0.00    -0.286 A  
HETATM    3  C   UNL     1     -11.192  14.826  66.270  1.00  0.00    -0.343 A  
HETATM    4  C   UNL     1     -11.904  14.868  65.070  1.00  0.00    -0.299 A  
HETATM    5  C   UNL     1     -12.351  13.689  64.492  1.00  0.00    -0.402 A  
HETATM    6  C   UNL     1     -12.077  12.471  65.116  1.00  0.00    -0.503 A  
HETATM    7  C   UNL     1     -11.356  12.405  66.326  1.00  0.00    -0.388 A  
ENDROOT
BRANCH   7   8
HETATM    8  C   UNL     1     -11.087  11.008  66.816  1.00  0.00    -0.172 C  
HETATM    9  O   UNL     1     -11.671  10.654  67.837  1.00  0.00    -0.506 OA 
HETATM   10  N   UNL     1     -10.159  10.253  66.121  1.00  0.00    -0.241 N  
HETATM   11  H   UNL     1      -9.805  10.655  65.252  1.00  0.00     0.000 HD 
BRANCH  10  12
HETATM   12  C   UNL     1      -9.645   8.982  66.485  1.00  0.00    -0.223 A  
HETATM   13  C   UNL     1     -10.425   7.903  66.911  1.00  0.00    -0.388 A  
HETATM   14  C   UNL     1      -9.852   6.670  67.314  1.00  0.00    -0.184 A  
HETATM   15  C   UNL     1     -10.784   5.603  67.827  1.00  0.00    -0.250 C  
HETATM   16  C   UNL     1      -8.450   6.502  67.268  1.00  0.00    -0.112 A  
HETATM   17  C   UNL     1      -7.675   7.610  66.885  1.00  0.00    -0.103 A  
HETATM   18  C   UNL     1      -8.261   8.816  66.470  1.00  0.00    -0.111 A  
BRANCH  16  19
HETATM   19  C   UNL     1      -7.791   5.191  67.669  1.00  0.00    -0.095 C  
HETATM   20  N   UNL     1      -7.687   4.824  69.032  1.00  0.00    -0.071 N  
HETATM   21  O   UNL     1      -7.395   4.446  66.774  1.00  0.00    -0.078 OA 
HETATM   22  C   UNL     1      -7.003   3.570  69.400  1.00  0.00    -0.042 C  
HETATM   23  C   UNL     1      -7.894   2.493  70.034  1.00  0.00    -0.049 C  
HETATM   24  C   UNL     1      -8.669   2.910  71.286  1.00  0.00    -0.114 C  
HETATM   25  C   UNL     1      -9.578   4.116  71.041  1.00  0.00    -0.183 C  
HETATM   26  C   UNL     1      -8.782   5.402  71.130  1.00  0.00    -0.135 A  
HETATM   27  O   UNL     1     -10.660   4.128  71.972  1.00  0.00    -0.064 OA 
HETATM   28  H   UNL     1     -11.225   4.877  71.819  1.00  0.00     0.000 HD 
HETATM   29  C   UNL     1      -7.859   5.721  70.112  1.00  0.00    -0.099 A  
HETATM   30  C   UNL     1      -7.113   6.907  70.168  1.00  0.00    -0.071 A  
HETATM   31  C   UNL     1      -7.283   7.780  71.238  1.00  0.00    -0.062 A  
HETATM   32  C   UNL     1      -8.202   7.479  72.239  1.00  0.00    -0.103 A  
HETATM   33 CL   UNL     1      -8.416   8.562  73.557  1.00  0.00    -0.158 Cl 
HETATM   34  C   UNL     1      -8.953   6.301  72.187  1.00  0.00    -0.137 A  
ENDBRANCH  16  19
ENDBRANCH  10  12
ENDBRANCH   7   8
TORSDOF 3
ENDMDL
MODEL       50
REMARK 921   NORMALIZED FREE ENERGY PREDICTED BY IDOCK:   -5.19 KCAL/MOL
REMARK 922        TOTAL FREE ENERGY PREDICTED BY IDOCK:   -7.19 KCAL/MOL
REMARK 923 INTER-LIGAND FREE ENERGY PREDICTED BY IDOCK:   -6.24 KCAL/MOL
REMARK 924 INTRA-LIGAND FREE ENERGY PREDICTED BY IDOCK:   -0.95 KCAL/MOL
REMARK 927      BINDING AFFINITY PREDICTED BY RF-SCORE:    0.00 PKD
ROOT
HETATM    1  C   UNL     1     -11.304  16.058  68.737  1.00  0.00    -0.380 C  
HETATM    2  C   UNL     1      -9.997  16.784  68.606  1.00  0.00    -0.276 A  
HETATM    3  C   UNL     1     -10.025  18.192  68.723  1.00  0.00    -0.389 A  
HETATM    4  C   UNL     1      -8.859  18.957  68.659  1.00  0.00    -0.374 A  
HETATM    5  C   UNL     1      -7.636  18.333  68.464  1.00  0.00    -0.313 A  
HETATM    6  C   UNL     1      -7.584  16.944  68.341  1.00  0.00    -0.209 A  
HETATM    7  C   UNL     1      -8.749  16.151  68.407  1.00  0.00    -0.190 A  
ENDROOT
BRANCH   7   8
HETATM    8  C   UNL     1      -8.500  14.669  68.332  1.00  0.00    -0.160 C  
HETATM    9  O   UNL     1      -7.699  14.198  69.135  1.00  0.00    -0.088 OA 
HETATM   10  N   UNL     1      -9.139  13.963  67.329  1.00  0.00    -0.217 N  
HETATM   11  H   UNL     1      -9.828  14.476  66.779  1.00  0.00     0.000 HD 
BRANCH  10  12
HETATM   12  C   UNL     1      -8.941  12.602  66.981  1.00  0.00    -0.216 A  
HETATM   13  C   UNL     1      -7.718  12.055  66.582  1.00  0.00     0.068 A  
HETATM   14  C   UNL     1      -7.590  10.696  66.194  1.00  0.00    -0.138 A  
HETATM   15  C   UNL     1      -6.240  10.234  65.709  1.00  0.00    -0.109 C  
HETATM   16  C   UNL     1      -8.720   9.849  66.228  1.00  0.00    -0.152 A  
HETATM   17  C   UNL     1      -9.952  10.424  66.584  1.00  0.00    -0.262 A  
HETATM   18  C   UNL     1     -10.056  11.766  66.984  1.00  0.00    -0.232 A  
BRANCH  16  19
HETATM   19  C   UNL     1      -8.627   8.381  65.842  1.00  0.00    -0.158 C  
HETATM   20  N   UNL     1      -8.697   7.370  66.829  1.00  0.00    -0.128 N  
HETATM   21  O   UNL     1      -8.536   8.103  64.647  1.00  0.00    -0.129 OA 
HETATM   22  C   UNL     1      -8.560   5.955  66.437  1.00  0.00    -0.127 C  
HETATM   23  C   UNL     1      -9.809   5.088  66.641  1.00  0.00    -0.215 C  
HETATM   24  C   UNL     1     -10.383   5.056  68.060  1.00  0.00    -0.096 C  
HETATM   25  C   UNL     1     -10.750   6.449  68.577  1.00  0.00    -0.288 C  
HETATM   26  C   UNL     1      -9.519   7.152  69.112  1.00  0.00    -0.147 A  
HETATM   27  O   UNL     1     -11.758   6.364  69.583  1.00  0.00    -0.592 OA 
HETATM   28  H   UNL     1     -11.986   7.229  69.904  1.00  0.00     0.000 HD 
HETATM   29  C   UNL     1      -8.527   7.600  68.215  1.00  0.00    -0.125 A  
HETATM   30  C   UNL     1      -7.381   8.257  68.683  1.00  0.00    -0.089 A  
HETATM   31  C   UNL     1      -7.218   8.471  70.049  1.00  0.00    -0.051 A  
HETATM   32  C   UNL     1      -8.199   8.045  70.939  1.00  0.00    -0.103 A  
HETATM   33 CL   UNL     1      -7.998   8.317  72.626  1.00  0.00    -0.200 Cl 
HETATM   34  C   UNL     1      -9.346   7.394  70.478  1.00  0.00    -0.157 A  
ENDBRANCH  16  19
ENDBRANCH  10  12
ENDBRANCH   7   8
TORSDOF 3
ENDMDL
MODEL       51
REMARK 921   NORMALIZED FREE ENERGY PREDICTED BY IDOCK:   -5.18 KCAL/MOL
REMARK 922        TOTAL FREE ENERGY PREDICTED BY IDOCK:   -7.19 KCAL/MOL
REMARK 923 INTER-LIGAND FREE ENERGY PREDICTED BY IDOCK:   -6.36 KCAL/MOL
REMARK 924 INTRA-LIGAND FREE ENERGY PREDICTED BY IDOCK:   -0.82 KCAL/MOL
REMARK 927      BINDING AFFINITY PREDICTED BY RF-SCORE:    0.00 PKD
ROOT
HETATM    1  C   UNL     1      -7.166  14.576  67.608  1.00  0.00    -0.206 C  
HETATM    2  C   UNL     1      -8.365  15.169  66.929  1.00  0.00    -0.267 A  
HETATM    3  C   UNL     1      -8.324  16.551  66.636  1.00  0.00    -0.297 A  
HETATM    4  C   UNL     1      -9.370  17.191  65.969  1.00  0.00    -0.156 A  
HETATM    5  C   UNL     1     -10.489  16.467  65.588  1.00  0.00    -0.364 A  
HETATM    6  C   UNL     1     -10.555  15.102  65.871  1.00  0.00    -0.347 A  
HETATM    7  C   UNL     1      -9.508  14.434  66.540  1.00  0.00    -0.309 A  
ENDROOT
BRANCH   7   8
HETATM    8  C   UNL     1      -9.711  12.951  66.694  1.00  0.00    -0.254 C  
HETATM    9  O   UNL     1     -10.452  12.582  67.601  1.00  0.00    -0.213 OA 
HETATM   10  N   UNL     1      -9.003  12.117  65.847  1.00  0.00    -0.425 N  
HETATM   11  H   UNL     1      -8.479  12.568  65.098  1.00  0.00     0.000 HD 
BRANCH  10  12
HETATM   12  C   UNL     1      -8.927  10.702  65.908  1.00  0.00    -0.175 A  
HETATM   13  C   UNL     1      -9.937   9.873  66.405  1.00  0.00    -0.309 A  
HETATM   14  C   UNL     1      -9.785   8.466  66.492  1.00  0.00    -0.330 A  
HETATM   15  C   UNL     1     -10.909   7.679  67.114  1.00  0.00    -0.258 C  
HETATM   16  C   UNL     1      -8.588   7.863  66.045  1.00  0.00    -0.166 A  
HETATM   17  C   UNL     1      -7.562   8.711  65.594  1.00  0.00    -0.086 A  
HETATM   18  C   UNL     1      -7.738  10.101  65.497  1.00  0.00    -0.145 A  
BRANCH  16  19
HETATM   19  C   UNL     1      -8.386   6.356  66.098  1.00  0.00    -0.128 C  
HETATM   20  N   UNL     1      -8.224   5.694  67.338  1.00  0.00    -0.102 N  
HETATM   21  O   UNL     1      -8.413   5.733  65.038  1.00  0.00    -0.147 OA 
HETATM   22  C   UNL     1      -7.986   4.238  67.362  1.00  0.00    -0.096 C  
HETATM   23  C   UNL     1      -9.099   3.396  67.997  1.00  0.00    -0.208 C  
HETATM   24  C   UNL     1      -9.488   3.761  69.431  1.00  0.00    -0.257 C  
HETATM   25  C   UNL     1      -9.935   5.219  69.565  1.00  0.00    -0.227 C  
HETATM   26  C   UNL     1      -8.731   6.130  69.680  1.00  0.00    -0.135 A  
HETATM   27  O   UNL     1     -10.797   5.379  70.692  1.00  0.00    -0.228 OA 
HETATM   28  H   UNL     1     -11.075   6.284  70.775  1.00  0.00     0.000 HD 
HETATM   29  C   UNL     1      -7.911   6.346  68.553  1.00  0.00    -0.105 A  
HETATM   30  C   UNL     1      -6.793   7.188  68.631  1.00  0.00    -0.076 A  
HETATM   31  C   UNL     1      -6.487   7.820  69.833  1.00  0.00    -0.034 A  
HETATM   32  C   UNL     1      -7.299   7.624  70.945  1.00  0.00    -0.066 A  
HETATM   33 CL   UNL     1      -6.923   8.411  72.427  1.00  0.00    -0.109 Cl 
HETATM   34  C   UNL     1      -8.418   6.789  70.873  1.00  0.00    -0.136 A  
ENDBRANCH  16  19
ENDBRANCH  10  12
ENDBRANCH   7   8
TORSDOF 3
ENDMDL
MODEL       52
REMARK 921   NORMALIZED FREE ENERGY PREDICTED BY IDOCK:   -5.18 KCAL/MOL
REMARK 922        TOTAL FREE ENERGY PREDICTED BY IDOCK:   -7.18 KCAL/MOL
REMARK 923 INTER-LIGAND FREE ENERGY PREDICTED BY IDOCK:   -6.10 KCAL/MOL
REMARK 924 INTRA-LIGAND FREE ENERGY PREDICTED BY IDOCK:   -1.08 KCAL/MOL
REMARK 927      BINDING AFFINITY PREDICTED BY RF-SCORE:    0.00 PKD
ROOT
HETATM    1  C   UNL     1     -10.865  15.122  67.212  1.00  0.00    -0.316 C  
HETATM    2  C   UNL     1     -11.368  14.851  68.600  1.00  0.00    -0.309 A  
HETATM    3  C   UNL     1     -11.755  15.967  69.376  1.00  0.00    -0.350 A  
HETATM    4  C   UNL     1     -12.276  15.820  70.663  1.00  0.00    -0.422 A  
HETATM    5  C   UNL     1     -12.412  14.554  71.210  1.00  0.00    -0.416 A  
HETATM    6  C   UNL     1     -12.032  13.437  70.465  1.00  0.00    -0.332 A  
HETATM    7  C   UNL     1     -11.507  13.562  69.161  1.00  0.00    -0.345 A  
ENDROOT
BRANCH   7   8
HETATM    8  C   UNL     1     -11.223  12.253  68.475  1.00  0.00    -0.271 C  
HETATM    9  O   UNL     1     -11.933  11.961  67.517  1.00  0.00    -0.586 OA 
HETATM   10  N   UNL     1     -10.230  11.452  69.011  1.00  0.00    -0.361 N  
HETATM   11  H   UNL     1      -9.678  11.857  69.768  1.00  0.00     0.000 HD 
BRANCH  10  12
HETATM   12  C   UNL     1      -9.897  10.129  68.624  1.00  0.00    -0.162 A  
HETATM   13  C   UNL     1     -10.566   8.982  69.058  1.00  0.00    -0.209 A  
HETATM   14  C   UNL     1     -10.154   7.678  68.679  1.00  0.00    -0.201 A  
HETATM   15  C   UNL     1     -10.904   6.511  69.269  1.00  0.00    -0.361 C  
HETATM   16  C   UNL     1      -9.047   7.518  67.817  1.00  0.00    -0.130 A  
HETATM   17  C   UNL     1      -8.353   8.676  67.428  1.00  0.00    -0.116 A  
HETATM   18  C   UNL     1      -8.787   9.959  67.797  1.00  0.00    -0.129 A  
BRANCH  16  19
HETATM   19  C   UNL     1      -8.581   6.142  67.366  1.00  0.00    -0.106 C  
HETATM   20  N   UNL     1      -7.935   5.267  68.271  1.00  0.00    -0.088 N  
HETATM   21  O   UNL     1      -8.823   5.801  66.209  1.00  0.00    -0.130 OA 
HETATM   22  C   UNL     1      -7.452   3.954  67.800  1.00  0.00    -0.067 C  
HETATM   23  C   UNL     1      -8.154   2.734  68.408  1.00  0.00    -0.071 C  
HETATM   24  C   UNL     1      -8.141   2.640  69.936  1.00  0.00    -0.057 C  
HETATM   25  C   UNL     1      -8.771   3.863  70.605  1.00  0.00    -0.073 C  
HETATM   26  C   UNL     1      -7.767   4.994  70.686  1.00  0.00    -0.074 A  
HETATM   27  O   UNL     1      -9.261   3.531  71.904  1.00  0.00    -0.105 OA 
HETATM   28  H   UNL     1      -9.652   4.290  72.320  1.00  0.00     0.000 HD 
HETATM   29  C   UNL     1      -7.382   5.670  69.509  1.00  0.00    -0.067 A  
HETATM   30  C   UNL     1      -6.457   6.723  69.557  1.00  0.00    -0.044 A  
HETATM   31  C   UNL     1      -5.912   7.108  70.778  1.00  0.00    -0.031 A  
HETATM   32  C   UNL     1      -6.298   6.456  71.945  1.00  0.00    -0.043 A  
HETATM   33 CL   UNL     1      -5.627   6.938  73.454  1.00  0.00    -0.046 Cl 
HETATM   34  C   UNL     1      -7.222   5.409  71.906  1.00  0.00    -0.086 A  
ENDBRANCH  16  19
ENDBRANCH  10  12
ENDBRANCH   7   8
TORSDOF 3
ENDMDL
MODEL       53
REMARK 921   NORMALIZED FREE ENERGY PREDICTED BY IDOCK:   -5.14 KCAL/MOL
REMARK 922        TOTAL FREE ENERGY PREDICTED BY IDOCK:   -7.14 KCAL/MOL
REMARK 923 INTER-LIGAND FREE ENERGY PREDICTED BY IDOCK:   -6.02 KCAL/MOL
REMARK 924 INTRA-LIGAND FREE ENERGY PREDICTED BY IDOCK:   -1.12 KCAL/MOL
REMARK 927      BINDING AFFINITY PREDICTED BY RF-SCORE:    0.00 PKD
ROOT
HETATM    1  C   UNL     1     -11.879  12.675  67.949  1.00  0.00    -0.388 C  
HETATM    2  C   UNL     1     -11.609  12.390  66.501  1.00  0.00    -0.447 A  
HETATM    3  C   UNL     1     -12.082  13.332  65.559  1.00  0.00    -0.480 A  
HETATM    4  C   UNL     1     -11.847  13.182  64.191  1.00  0.00    -0.487 A  
HETATM    5  C   UNL     1     -11.143  12.080  63.729  1.00  0.00    -0.510 A  
HETATM    6  C   UNL     1     -10.671  11.135  64.640  1.00  0.00    -0.350 A  
HETATM    7  C   UNL     1     -10.893  11.268  66.027  1.00  0.00    -0.273 A  
ENDROOT
BRANCH   7   8
HETATM    8  C   UNL     1     -10.249  10.199  66.867  1.00  0.00    -0.236 C  
HETATM    9  O   UNL     1      -9.157  10.464  67.364  1.00  0.00    -0.135 OA 
HETATM   10  N   UNL     1     -10.900   8.982  66.964  1.00  0.00    -0.277 N  
HETATM   11  H   UNL     1     -11.833   8.931  66.554  1.00  0.00     0.000 HD 
BRANCH  10  12
HETATM   12  C   UNL     1     -10.412   7.798  67.573  1.00  0.00    -0.268 A  
HETATM   13  C   UNL     1     -10.878   7.277  68.784  1.00  0.00    -0.121 A  
HETATM   14  C   UNL     1     -10.315   6.116  69.373  1.00  0.00    -0.283 A  
HETATM   15  C   UNL     1     -10.846   5.690  70.718  1.00  0.00    -0.294 C  
HETATM   16  C   UNL     1      -9.263   5.439  68.718  1.00  0.00    -0.148 A  
HETATM   17  C   UNL     1      -8.771   6.000  67.527  1.00  0.00    -0.107 A  
HETATM   18  C   UNL     1      -9.354   7.139  66.948  1.00  0.00    -0.189 A  
BRANCH  16  19
HETATM   19  C   UNL     1      -8.642   4.178  69.300  1.00  0.00    -0.078 C  
HETATM   20  N   UNL     1      -7.836   4.242  70.461  1.00  0.00    -0.052 N  
HETATM   21  O   UNL     1      -8.899   3.105  68.757  1.00  0.00    -0.093 OA 
HETATM   22  C   UNL     1      -7.208   3.013  70.982  1.00  0.00    -0.033 C  
HETATM   23  C   UNL     1      -7.705   2.547  72.355  1.00  0.00    -0.053 C  
HETATM   24  C   UNL     1      -7.597   3.564  73.494  1.00  0.00    -0.062 C  
HETATM   25  C   UNL     1      -8.349   4.863  73.194  1.00  0.00    -0.104 C  
HETATM   26  C   UNL     1      -7.502   5.772  72.326  1.00  0.00    -0.099 A  
HETATM   27  O   UNL     1      -8.717   5.523  74.404  1.00  0.00    -0.117 OA 
HETATM   28  H   UNL     1      -9.184   6.330  74.218  1.00  0.00     0.000 HD 
HETATM   29  C   UNL     1      -7.276   5.434  70.976  1.00  0.00    -0.074 A  
HETATM   30  C   UNL     1      -6.500   6.260  70.150  1.00  0.00    -0.040 A  
HETATM   31  C   UNL     1      -5.946   7.428  70.667  1.00  0.00    -0.031 A  
HETATM   32  C   UNL     1      -6.176   7.776  71.994  1.00  0.00    -0.040 A  
HETATM   33 CL   UNL     1      -5.496   9.222  72.629  1.00  0.00    -0.075 Cl 
HETATM   34  C   UNL     1      -6.953   6.959  72.821  1.00  0.00    -0.070 A  
ENDBRANCH  16  19
ENDBRANCH  10  12
ENDBRANCH   7   8
TORSDOF 3
ENDMDL
MODEL       54
REMARK 921   NORMALIZED FREE ENERGY PREDICTED BY IDOCK:   -5.10 KCAL/MOL
REMARK 922        TOTAL FREE ENERGY PREDICTED BY IDOCK:   -7.08 KCAL/MOL
REMARK 923 INTER-LIGAND FREE ENERGY PREDICTED BY IDOCK:   -6.34 KCAL/MOL
REMARK 924 INTRA-LIGAND FREE ENERGY PREDICTED BY IDOCK:   -0.75 KCAL/MOL
REMARK 927      BINDING AFFINITY PREDICTED BY RF-SCORE:    0.00 PKD
ROOT
HETATM    1  C   UNL     1      -9.698   5.948  72.773  1.00  0.00    -0.167 C  
HETATM    2  C   UNL     1      -8.239   6.294  72.822  1.00  0.00    -0.112 A  
HETATM    3  C   UNL     1      -7.460   5.668  73.821  1.00  0.00    -0.090 A  
HETATM    4  C   UNL     1      -6.086   5.889  73.926  1.00  0.00    -0.063 A  
HETATM    5  C   UNL     1      -5.457   6.752  73.040  1.00  0.00    -0.038 A  
HETATM    6  C   UNL     1      -6.206   7.385  72.048  1.00  0.00    -0.040 A  
HETATM    7  C   UNL     1      -7.595   7.173  71.921  1.00  0.00    -0.087 A  
ENDROOT
BRANCH   7   8
HETATM    8  C   UNL     1      -8.229   7.875  70.751  1.00  0.00    -0.110 C  
HETATM    9  O   UNL     1      -8.381   7.218  69.724  1.00  0.00    -0.131 OA 
HETATM   10  N   UNL     1      -8.533   9.217  70.897  1.00  0.00    -0.206 N  
HETATM   11  H   UNL     1      -8.413   9.611  71.830  1.00  0.00     0.000 HD 
BRANCH  10  12
HETATM   12  C   UNL     1      -8.993  10.104  69.891  1.00  0.00    -0.067 A  
HETATM   13  C   UNL     1     -10.316  10.187  69.450  1.00  0.00    -0.251 A  
HETATM   14  C   UNL     1     -10.710  11.057  68.401  1.00  0.00    -0.240 A  
HETATM   15  C   UNL     1     -12.149  11.008  67.957  1.00  0.00     0.229 C  
HETATM   16  C   UNL     1      -9.749  11.889  67.785  1.00  0.00    -0.189 A  
HETATM   17  C   UNL     1      -8.413  11.760  68.203  1.00  0.00    -0.158 A  
HETATM   18  C   UNL     1      -8.046  10.908  69.257  1.00  0.00    -0.062 A  
BRANCH  16  19
HETATM   19  C   UNL     1     -10.126  12.853  66.671  1.00  0.00    -0.245 C  
HETATM   20  N   UNL     1     -10.470  14.194  66.964  1.00  0.00    -0.270 N  
HETATM   21  O   UNL     1     -10.080  12.443  65.512  1.00  0.00    -0.264 OA 
HETATM   22  C   UNL     1     -10.876  15.099  65.871  1.00  0.00    -0.339 C  
HETATM   23  C   UNL     1      -9.927  16.271  65.597  1.00  0.00    -0.306 C  
HETATM   24  C   UNL     1      -9.625  17.188  66.785  1.00  0.00    -0.279 C  
HETATM   25  C   UNL     1      -9.025  16.432  67.973  1.00  0.00    -0.185 C  
HETATM   26  C   UNL     1     -10.122  15.774  68.784  1.00  0.00    -0.215 A  
HETATM   27  O   UNL     1      -8.252  17.310  68.790  1.00  0.00    -0.263 OA 
HETATM   28  H   UNL     1      -7.880  16.841  69.528  1.00  0.00     0.000 HD 
HETATM   29  C   UNL     1     -10.811  14.664  68.254  1.00  0.00    -0.245 A  
HETATM   30  C   UNL     1     -11.827  14.034  68.986  1.00  0.00    -0.391 A  
HETATM   31  C   UNL     1     -12.161  14.507  70.251  1.00  0.00    -0.391 A  
HETATM   32  C   UNL     1     -11.477  15.593  70.788  1.00  0.00    -0.379 A  
HETATM   33 CL   UNL     1     -11.887  16.173  72.354  1.00  0.00    -0.619 Cl 
HETATM   34  C   UNL     1     -10.460  16.223  70.065  1.00  0.00    -0.164 A  
ENDBRANCH  16  19
ENDBRANCH  10  12
ENDBRANCH   7   8
TORSDOF 3
ENDMDL
MODEL       55
REMARK 921   NORMALIZED FREE ENERGY PREDICTED BY IDOCK:   -5.09 KCAL/MOL
REMARK 922        TOTAL FREE ENERGY PREDICTED BY IDOCK:   -7.07 KCAL/MOL
REMARK 923 INTER-LIGAND FREE ENERGY PREDICTED BY IDOCK:   -5.95 KCAL/MOL
REMARK 924 INTRA-LIGAND FREE ENERGY PREDICTED BY IDOCK:   -1.12 KCAL/MOL
REMARK 927      BINDING AFFINITY PREDICTED BY RF-SCORE:    0.00 PKD
ROOT
HETATM    1  C   UNL     1     -10.732   6.918  66.596  1.00  0.00    -0.161 C  
HETATM    2  C   UNL     1     -10.440   6.596  68.032  1.00  0.00    -0.261 A  
HETATM    3  C   UNL     1     -10.389   5.230  68.390  1.00  0.00    -0.178 A  
HETATM    4  C   UNL     1     -10.084   4.824  69.691  1.00  0.00    -0.275 A  
HETATM    5  C   UNL     1      -9.833   5.775  70.668  1.00  0.00    -0.240 A  
HETATM    6  C   UNL     1      -9.882   7.130  70.339  1.00  0.00    -0.177 A  
HETATM    7  C   UNL     1     -10.185   7.563  69.031  1.00  0.00    -0.208 A  
ENDROOT
BRANCH   7   8
HETATM    8  C   UNL     1     -10.119   9.053  68.836  1.00  0.00    -0.196 C  
HETATM    9  O   UNL     1      -9.010   9.540  68.635  1.00  0.00    -0.130 OA 
HETATM   10  N   UNL     1     -11.298   9.768  68.961  1.00  0.00    -0.464 N  
HETATM   11  H   UNL     1     -12.152   9.220  69.061  1.00  0.00     0.000 HD 
BRANCH  10  12
HETATM   12  C   UNL     1     -11.446  11.178  68.964  1.00  0.00    -0.296 A  
HETATM   13  C   UNL     1     -11.476  11.976  67.817  1.00  0.00    -0.394 A  
HETATM   14  C   UNL     1     -11.573  13.390  67.883  1.00  0.00    -0.374 A  
HETATM   15  C   UNL     1     -11.520  14.153  66.585  1.00  0.00    -0.378 C  
HETATM   16  C   UNL     1     -11.665  14.027  69.140  1.00  0.00    -0.375 A  
HETATM   17  C   UNL     1     -11.584  13.217  70.286  1.00  0.00    -0.096 A  
HETATM   18  C   UNL     1     -11.508  11.818  70.202  1.00  0.00    -0.169 A  
BRANCH  16  19
HETATM   19  C   UNL     1     -11.793  15.538  69.261  1.00  0.00    -0.353 C  
HETATM   20  N   UNL     1     -10.713  16.382  68.910  1.00  0.00    -0.297 N  
HETATM   21  O   UNL     1     -12.872  15.999  69.627  1.00  0.00     0.059 OA 
HETATM   22  C   UNL     1     -10.843  17.842  69.077  1.00  0.00     0.471 C  
HETATM   23  C   UNL     1     -10.825  18.661  67.781  1.00  0.00    -0.313 C  
HETATM   24  C   UNL     1      -9.604  18.469  66.878  1.00  0.00    -0.314 C  
HETATM   25  C   UNL     1      -9.407  17.011  66.457  1.00  0.00    -0.269 C  
HETATM   26  C   UNL     1      -8.697  16.239  67.550  1.00  0.00    -0.192 A  
HETATM   27  O   UNL     1      -8.679  16.934  65.232  1.00  0.00     0.363 OA 
HETATM   28  H   UNL     1      -8.558  16.029  64.970  1.00  0.00     0.000 HD 
HETATM   29  C   UNL     1      -9.378  15.941  68.748  1.00  0.00    -0.220 A  
HETATM   30  C   UNL     1      -8.745  15.225  69.774  1.00  0.00     0.009 A  
HETATM   31  C   UNL     1      -7.430  14.801  69.609  1.00  0.00    -0.081 A  
HETATM   32  C   UNL     1      -6.755  15.078  68.424  1.00  0.00    -0.111 A  
HETATM   33 CL   UNL     1      -5.132  14.549  68.221  1.00  0.00    -0.107 Cl 
HETATM   34  C   UNL     1      -7.382  15.788  67.396  1.00  0.00    -0.229 A  
ENDBRANCH  16  19
ENDBRANCH  10  12
ENDBRANCH   7   8
TORSDOF 3
ENDMDL
MODEL       56
REMARK 921   NORMALIZED FREE ENERGY PREDICTED BY IDOCK:   -5.07 KCAL/MOL
REMARK 922        TOTAL FREE ENERGY PREDICTED BY IDOCK:   -7.06 KCAL/MOL
REMARK 923 INTER-LIGAND FREE ENERGY PREDICTED BY IDOCK:   -5.89 KCAL/MOL
REMARK 924 INTRA-LIGAND FREE ENERGY PREDICTED BY IDOCK:   -1.17 KCAL/MOL
REMARK 927      BINDING AFFINITY PREDICTED BY RF-SCORE:    0.00 PKD
ROOT
HETATM    1  C   UNL     1     -11.909  14.508  68.364  1.00  0.00    -0.351 C  
HETATM    2  C   UNL     1     -10.756  15.090  67.601  1.00  0.00    -0.274 A  
HETATM    3  C   UNL     1     -10.805  16.472  67.311  1.00  0.00    -0.173 A  
HETATM    4  C   UNL     1      -9.763  17.119  66.644  1.00  0.00    -0.285 A  
HETATM    5  C   UNL     1      -8.651  16.397  66.239  1.00  0.00    -0.375 A  
HETATM    6  C   UNL     1      -8.582  15.030  66.510  1.00  0.00    -0.179 A  
HETATM    7  C   UNL     1      -9.621  14.357  67.187  1.00  0.00    -0.251 A  
ENDROOT
BRANCH   7   8
HETATM    8  C   UNL     1      -9.347  12.903  67.462  1.00  0.00    -0.190 C  
HETATM    9  O   UNL     1      -8.752  12.636  68.502  1.00  0.00    -0.147 OA 
HETATM   10  N   UNL     1      -9.727  11.986  66.497  1.00  0.00    -0.211 N  
HETATM   11  H   UNL     1     -10.273  12.349  65.716  1.00  0.00     0.000 HD 
BRANCH  10  12
HETATM   12  C   UNL     1      -9.440  10.597  66.478  1.00  0.00    -0.169 A  
HETATM   13  C   UNL     1      -8.315  10.028  65.873  1.00  0.00    -0.129 A  
HETATM   14  C   UNL     1      -8.106   8.625  65.838  1.00  0.00    -0.111 A  
HETATM   15  C   UNL     1      -6.899   8.119  65.093  1.00  0.00    -0.058 C  
HETATM   16  C   UNL     1      -9.044   7.763  66.448  1.00  0.00    -0.216 A  
HETATM   17  C   UNL     1     -10.194   8.345  67.009  1.00  0.00    -0.377 A  
HETATM   18  C   UNL     1     -10.374   9.736  67.052  1.00  0.00    -0.305 A  
BRANCH  16  19
HETATM   19  C   UNL     1      -8.853   6.254  66.455  1.00  0.00    -0.143 C  
HETATM   20  N   UNL     1      -8.535   5.573  67.654  1.00  0.00    -0.103 N  
HETATM   21  O   UNL     1      -9.026   5.645  65.400  1.00  0.00    -0.148 OA 
HETATM   22  C   UNL     1      -8.309   4.115  67.628  1.00  0.00    -0.098 C  
HETATM   23  C   UNL     1      -9.337   3.273  68.394  1.00  0.00    -0.241 C  
HETATM   24  C   UNL     1      -9.528   3.623  69.872  1.00  0.00    -0.262 C  
HETATM   25  C   UNL     1      -9.940   5.082  70.083  1.00  0.00    -0.258 C  
HETATM   26  C   UNL     1      -8.721   5.982  70.047  1.00  0.00    -0.135 A  
HETATM   27  O   UNL     1     -10.643   5.234  71.316  1.00  0.00    -0.224 OA 
HETATM   28  H   UNL     1     -10.898   6.140  71.446  1.00  0.00     0.000 HD 
HETATM   29  C   UNL     1      -8.056   6.206  68.824  1.00  0.00    -0.105 A  
HETATM   30  C   UNL     1      -6.929   7.038  68.764  1.00  0.00    -0.079 A  
HETATM   31  C   UNL     1      -6.460   7.651  69.922  1.00  0.00    -0.034 A  
HETATM   32  C   UNL     1      -7.120   7.446  71.130  1.00  0.00    -0.059 A  
HETATM   33 CL   UNL     1      -6.542   8.209  72.559  1.00  0.00    -0.077 Cl 
HETATM   34  C   UNL     1      -8.246   6.622  71.197  1.00  0.00    -0.120 A  
ENDBRANCH  16  19
ENDBRANCH  10  12
ENDBRANCH   7   8
TORSDOF 3
ENDMDL
MODEL       57
REMARK 921   NORMALIZED FREE ENERGY PREDICTED BY IDOCK:   -5.01 KCAL/MOL
REMARK 922        TOTAL FREE ENERGY PREDICTED BY IDOCK:   -6.98 KCAL/MOL
REMARK 923 INTER-LIGAND FREE ENERGY PREDICTED BY IDOCK:   -5.88 KCAL/MOL
REMARK 924 INTRA-LIGAND FREE ENERGY PREDICTED BY IDOCK:   -1.09 KCAL/MOL
REMARK 927      BINDING AFFINITY PREDICTED BY RF-SCORE:    0.00 PKD
ROOT
HETATM    1  C   UNL     1     -12.264  14.105  69.418  1.00  0.00    -0.329 C  
HETATM    2  C   UNL     1     -11.384  14.352  68.228  1.00  0.00    -0.311 A  
HETATM    3  C   UNL     1     -11.310  15.677  67.744  1.00  0.00    -0.261 A  
HETATM    4  C   UNL     1     -10.489  16.020  66.668  1.00  0.00    -0.304 A  
HETATM    5  C   UNL     1      -9.730  15.043  66.042  1.00  0.00    -0.359 A  
HETATM    6  C   UNL     1      -9.791  13.727  66.500  1.00  0.00    -0.294 A  
HETATM    7  C   UNL     1     -10.610  13.359  67.588  1.00  0.00    -0.249 A  
ENDROOT
BRANCH   7   8
HETATM    8  C   UNL     1     -10.494  11.915  67.995  1.00  0.00    -0.208 C  
HETATM    9  O   UNL     1     -11.355  11.147  67.574  1.00  0.00    -0.354 OA 
HETATM   10  N   UNL     1      -9.469  11.574  68.860  1.00  0.00    -0.399 N  
HETATM   11  H   UNL     1      -8.790  12.305  69.071  1.00  0.00     0.000 HD 
BRANCH  10  12
HETATM   12  C   UNL     1      -9.261  10.317  69.485  1.00  0.00    -0.170 A  
HETATM   13  C   UNL     1     -10.145   9.724  70.389  1.00  0.00    -0.313 A  
HETATM   14  C   UNL     1      -9.859   8.489  71.025  1.00  0.00    -0.245 A  
HETATM   15  C   UNL     1     -10.851   7.980  72.039  1.00  0.00    -0.333 C  
HETATM   16  C   UNL     1      -8.655   7.812  70.730  1.00  0.00    -0.133 A  
HETATM   17  C   UNL     1      -7.752   8.444  69.857  1.00  0.00    -0.092 A  
HETATM   18  C   UNL     1      -8.061   9.657  69.222  1.00  0.00    -0.107 A  
BRANCH  16  19
HETATM   19  C   UNL     1      -8.313   6.476  71.370  1.00  0.00    -0.125 C  
HETATM   20  N   UNL     1      -8.295   5.290  70.598  1.00  0.00    -0.111 N  
HETATM   21  O   UNL     1      -8.012   6.467  72.563  1.00  0.00    -0.102 OA 
HETATM   22  C   UNL     1      -8.005   3.998  71.249  1.00  0.00    -0.071 C  
HETATM   23  C   UNL     1      -6.702   3.317  70.816  1.00  0.00    -0.032 C  
HETATM   24  C   UNL     1      -6.543   3.054  69.317  1.00  0.00    -0.033 C  
HETATM   25  C   UNL     1      -6.647   4.332  68.481  1.00  0.00    -0.046 C  
HETATM   26  C   UNL     1      -8.100   4.689  68.245  1.00  0.00    -0.084 A  
HETATM   27  O   UNL     1      -5.958   4.180  67.240  1.00  0.00    -0.022 OA 
HETATM   28  H   UNL     1      -6.023   4.973  66.722  1.00  0.00     0.000 HD 
HETATM   29  C   UNL     1      -8.883   5.167  69.317  1.00  0.00    -0.095 A  
HETATM   30  C   UNL     1     -10.229   5.509  69.125  1.00  0.00    -0.309 A  
HETATM   31  C   UNL     1     -10.801   5.377  67.863  1.00  0.00     0.042 A  
HETATM   32  C   UNL     1     -10.032   4.920  66.797  1.00  0.00    -0.224 A  
HETATM   33 CL   UNL     1     -10.740   4.764  65.238  1.00  0.00    -0.104 Cl 
HETATM   34  C   UNL     1      -8.688   4.582  66.981  1.00  0.00    -0.104 A  
ENDBRANCH  16  19
ENDBRANCH  10  12
ENDBRANCH   7   8
TORSDOF 3
ENDMDL
MODEL       58
REMARK 921   NORMALIZED FREE ENERGY PREDICTED BY IDOCK:   -4.98 KCAL/MOL
REMARK 922        TOTAL FREE ENERGY PREDICTED BY IDOCK:   -6.94 KCAL/MOL
REMARK 923 INTER-LIGAND FREE ENERGY PREDICTED BY IDOCK:   -6.44 KCAL/MOL
REMARK 924 INTRA-LIGAND FREE ENERGY PREDICTED BY IDOCK:   -0.50 KCAL/MOL
REMARK 927      BINDING AFFINITY PREDICTED BY RF-SCORE:    0.00 PKD
ROOT
HETATM    1  C   UNL     1      -5.922  16.036  69.705  1.00  0.00    -0.168 C  
HETATM    2  C   UNL     1      -6.922  17.044  69.222  1.00  0.00    -0.198 A  
HETATM    3  C   UNL     1      -6.476  18.377  69.074  1.00  0.00    -0.254 A  
HETATM    4  C   UNL     1      -7.316  19.382  68.592  1.00  0.00    -0.375 A  
HETATM    5  C   UNL     1      -8.628  19.082  68.256  1.00  0.00    -0.366 A  
HETATM    6  C   UNL     1      -9.092  17.774  68.398  1.00  0.00    -0.278 A  
HETATM    7  C   UNL     1      -8.260  16.742  68.879  1.00  0.00    -0.224 A  
ENDROOT
BRANCH   7   8
HETATM    8  C   UNL     1      -8.900  15.380  68.896  1.00  0.00    -0.211 C  
HETATM    9  O   UNL     1      -9.722  15.162  69.782  1.00  0.00    -0.187 OA 
HETATM   10  N   UNL     1      -8.472  14.460  67.956  1.00  0.00    -0.155 N  
HETATM   11  H   UNL     1      -7.833  14.805  67.240  1.00  0.00     0.000 HD 
BRANCH  10  12
HETATM   12  C   UNL     1      -8.825  13.088  67.880  1.00  0.00    -0.193 A  
HETATM   13  C   UNL     1      -8.165  12.141  67.091  1.00  0.00    -0.182 A  
HETATM   14  C   UNL     1      -8.596  10.792  67.013  1.00  0.00    -0.130 A  
HETATM   15  C   UNL     1      -7.856   9.876  66.073  1.00  0.00    -0.111 C  
HETATM   16  C   UNL     1      -9.714  10.370  67.767  1.00  0.00    -0.181 A  
HETATM   17  C   UNL     1     -10.398  11.342  68.516  1.00  0.00    -0.219 A  
HETATM   18  C   UNL     1      -9.945  12.669  68.597  1.00  0.00    -0.106 A  
BRANCH  16  19
HETATM   19  C   UNL     1     -10.201   8.929  67.732  1.00  0.00    -0.228 C  
HETATM   20  N   UNL     1      -9.929   8.050  68.807  1.00  0.00    -0.183 N  
HETATM   21  O   UNL     1     -10.871   8.569  66.766  1.00  0.00    -0.153 OA 
HETATM   22  C   UNL     1     -10.372   6.645  68.732  1.00  0.00    -0.194 C  
HETATM   23  C   UNL     1     -11.443   6.234  69.750  1.00  0.00    -0.449 C  
HETATM   24  C   UNL     1     -11.098   6.466  71.223  1.00  0.00    -0.334 C  
HETATM   25  C   UNL     1     -10.771   7.930  71.526  1.00  0.00    -0.227 C  
HETATM   26  C   UNL     1      -9.332   8.233  71.161  1.00  0.00    -0.205 A  
HETATM   27  O   UNL     1     -11.015   8.227  72.901  1.00  0.00    -0.324 OA 
HETATM   28  H   UNL     1     -10.812   9.136  73.089  1.00  0.00     0.000 HD 
HETATM   29  C   UNL     1      -8.954   8.291  69.804  1.00  0.00    -0.146 A  
HETATM   30  C   UNL     1      -7.631   8.574  69.439  1.00  0.00    -0.090 A  
HETATM   31  C   UNL     1      -6.676   8.802  70.427  1.00  0.00    -0.043 A  
HETATM   32  C   UNL     1      -7.044   8.761  71.768  1.00  0.00    -0.054 A  
HETATM   33 CL   UNL     1      -5.865   9.049  72.986  1.00  0.00    -0.074 Cl 
HETATM   34  C   UNL     1      -8.363   8.484  72.138  1.00  0.00    -0.197 A  
ENDBRANCH  16  19
ENDBRANCH  10  12
ENDBRANCH   7   8
TORSDOF 3
ENDMDL
MODEL       59
REMARK 921   NORMALIZED FREE ENERGY PREDICTED BY IDOCK:   -4.85 KCAL/MOL
REMARK 922        TOTAL FREE ENERGY PREDICTED BY IDOCK:   -6.79 KCAL/MOL
REMARK 923 INTER-LIGAND FREE ENERGY PREDICTED BY IDOCK:   -5.56 KCAL/MOL
REMARK 924 INTRA-LIGAND FREE ENERGY PREDICTED BY IDOCK:   -1.23 KCAL/MOL
REMARK 927      BINDING AFFINITY PREDICTED BY RF-SCORE:    0.00 PKD
ROOT
HETATM    1  C   UNL     1     -10.548  15.446  65.123  1.00  0.00    -0.458 C  
HETATM    2  C   UNL     1     -10.321  16.166  66.420  1.00  0.00    -0.321 A  
HETATM    3  C   UNL     1     -10.655  17.538  66.464  1.00  0.00    -0.191 A  
HETATM    4  C   UNL     1     -10.522  18.288  67.634  1.00  0.00    -0.431 A  
HETATM    5  C   UNL     1     -10.039  17.687  68.786  1.00  0.00    -0.377 A  
HETATM    6  C   UNL     1      -9.698  16.334  68.765  1.00  0.00    -0.240 A  
HETATM    7  C   UNL     1      -9.829  15.556  67.596  1.00  0.00    -0.213 A  
ENDROOT
BRANCH   7   8
HETATM    8  C   UNL     1      -9.488  14.101  67.773  1.00  0.00    -0.207 C  
HETATM    9  O   UNL     1      -8.419  13.719  67.306  1.00  0.00    -0.186 OA 
HETATM   10  N   UNL     1     -10.428  13.294  68.390  1.00  0.00    -0.249 N  
HETATM   11  H   UNL     1     -11.241  13.765  68.787  1.00  0.00     0.000 HD 
BRANCH  10  12
HETATM   12  C   UNL     1     -10.384  11.884  68.529  1.00  0.00    -0.218 A  
HETATM   13  C   UNL     1      -9.590  11.201  69.455  1.00  0.00     0.187 A  
HETATM   14  C   UNL     1      -9.546   9.785  69.513  1.00  0.00    -0.225 A  
HETATM   15  C   UNL     1      -8.596   9.157  70.500  1.00  0.00    -0.252 C  
HETATM   16  C   UNL     1     -10.341   9.023  68.628  1.00  0.00    -0.233 A  
HETATM   17  C   UNL     1     -11.097   9.720  67.670  1.00  0.00    -0.118 A  
HETATM   18  C   UNL     1     -11.144  11.123  67.640  1.00  0.00    -0.348 A  
BRANCH  16  19
HETATM   19  C   UNL     1     -10.344   7.503  68.667  1.00  0.00    -0.200 C  
HETATM   20  N   UNL     1      -9.275   6.766  68.104  1.00  0.00    -0.123 N  
HETATM   21  O   UNL     1     -11.276   6.941  69.240  1.00  0.00    -0.211 OA 
HETATM   22  C   UNL     1      -9.321   5.291  68.113  1.00  0.00    -0.118 C  
HETATM   23  C   UNL     1      -8.253   4.602  68.971  1.00  0.00    -0.081 C  
HETATM   24  C   UNL     1      -6.799   4.955  68.652  1.00  0.00    -0.051 C  
HETATM   25  C   UNL     1      -6.521   6.456  68.761  1.00  0.00    -0.046 C  
HETATM   26  C   UNL     1      -6.952   7.164  67.493  1.00  0.00    -0.079 A  
HETATM   27  O   UNL     1      -5.139   6.695  69.026  1.00  0.00    -0.011 OA 
HETATM   28  H   UNL     1      -4.966   7.627  69.094  1.00  0.00     0.000 HD 
HETATM   29  C   UNL     1      -8.325   7.304  67.205  1.00  0.00    -0.118 A  
HETATM   30  C   UNL     1      -8.750   7.958  66.040  1.00  0.00    -0.182 A  
HETATM   31  C   UNL     1      -7.808   8.478  65.157  1.00  0.00    -0.116 A  
HETATM   32  C   UNL     1      -6.452   8.357  65.442  1.00  0.00    -0.055 A  
HETATM   33 CL   UNL     1      -5.290   9.006  64.352  1.00  0.00    -0.054 Cl 
HETATM   34  C   UNL     1      -6.021   7.710  66.603  1.00  0.00    -0.040 A  
ENDBRANCH  16  19
ENDBRANCH  10  12
ENDBRANCH   7   8
TORSDOF 3
ENDMDL
MODEL       60
REMARK 921   NORMALIZED FREE ENERGY PREDICTED BY IDOCK:   -4.81 KCAL/MOL
REMARK 922        TOTAL FREE ENERGY PREDICTED BY IDOCK:   -6.74 KCAL/MOL
REMARK 923 INTER-LIGAND FREE ENERGY PREDICTED BY IDOCK:   -5.74 KCAL/MOL
REMARK 924 INTRA-LIGAND FREE ENERGY PREDICTED BY IDOCK:   -1.00 KCAL/MOL
REMARK 927      BINDING AFFINITY PREDICTED BY RF-SCORE:    0.00 PKD
ROOT
HETATM    1  C   UNL     1      -9.140   2.212  67.383  1.00  0.00    -0.176 C  
HETATM    2  C   UNL     1      -8.688   2.694  66.036  1.00  0.00    -0.128 A  
HETATM    3  C   UNL     1      -7.943   1.791  65.244  1.00  0.00    -0.074 A  
HETATM    4  C   UNL     1      -7.511   2.125  63.959  1.00  0.00    -0.059 A  
HETATM    5  C   UNL     1      -7.803   3.377  63.439  1.00  0.00    -0.068 A  
HETATM    6  C   UNL     1      -8.533   4.287  64.204  1.00  0.00    -0.111 A  
HETATM    7  C   UNL     1      -8.984   3.968  65.502  1.00  0.00    -0.131 A  
ENDROOT
BRANCH   7   8
HETATM    8  C   UNL     1      -9.820   5.037  66.152  1.00  0.00    -0.198 C  
HETATM    9  O   UNL     1     -11.035   4.968  65.990  1.00  0.00    -0.243 OA 
HETATM   10  N   UNL     1      -9.157   6.047  66.827  1.00  0.00    -0.127 N  
HETATM   11  H   UNL     1      -8.149   5.935  66.937  1.00  0.00     0.000 HD 
BRANCH  10  12
HETATM   12  C   UNL     1      -9.727   7.222  67.382  1.00  0.00    -0.150 A  
HETATM   13  C   UNL     1      -9.962   7.422  68.745  1.00  0.00    -0.171 A  
HETATM   14  C   UNL     1     -10.585   8.597  69.239  1.00  0.00    -0.204 A  
HETATM   15  C   UNL     1     -10.858   8.672  70.719  1.00  0.00    -0.272 C  
HETATM   16  C   UNL     1     -10.966   9.617  68.339  1.00  0.00    -0.161 A  
HETATM   17  C   UNL     1     -10.768   9.382  66.968  1.00  0.00    -0.207 A  
HETATM   18  C   UNL     1     -10.132   8.222  66.499  1.00  0.00    -0.303 A  
BRANCH  16  19
HETATM   19  C   UNL     1     -11.617  10.904  68.823  1.00  0.00    -0.309 C  
HETATM   20  N   UNL     1     -10.963  12.148  68.660  1.00  0.00    -0.233 N  
HETATM   21  O   UNL     1     -12.741  10.832  69.317  1.00  0.00    -0.254 OA 
HETATM   22  C   UNL     1     -11.594  13.378  69.177  1.00  0.00    -0.315 C  
HETATM   23  C   UNL     1     -12.021  14.399  68.116  1.00  0.00    -0.320 C  
HETATM   24  C   UNL     1     -10.923  14.882  67.164  1.00  0.00    -0.323 C  
HETATM   25  C   UNL     1     -10.261  13.733  66.400  1.00  0.00    -0.292 C  
HETATM   26  C   UNL     1      -9.201  13.074  67.257  1.00  0.00    -0.213 A  
HETATM   27  O   UNL     1      -9.699  14.202  65.174  1.00  0.00    -0.568 OA 
HETATM   28  H   UNL     1      -9.288  13.489  64.700  1.00  0.00     0.000 HD 
HETATM   29  C   UNL     1      -9.587  12.291  68.364  1.00  0.00    -0.183 A  
HETATM   30  C   UNL     1      -8.626  11.666  69.171  1.00  0.00     0.305 A  
HETATM   31  C   UNL     1      -7.274  11.818  68.877  1.00  0.00    -0.107 A  
HETATM   32  C   UNL     1      -6.885  12.577  67.778  1.00  0.00    -0.120 A  
HETATM   33 CL   UNL     1      -5.214  12.758  67.413  1.00  0.00    -0.061 Cl 
HETATM   34  C   UNL     1      -7.838  13.198  66.967  1.00  0.00     0.034 A  
ENDBRANCH  16  19
ENDBRANCH  10  12
ENDBRANCH   7   8
TORSDOF 3
ENDMDL
MODEL       61
REMARK 921   NORMALIZED FREE ENERGY PREDICTED BY IDOCK:   -4.79 KCAL/MOL
REMARK 922        TOTAL FREE ENERGY PREDICTED BY IDOCK:   -6.73 KCAL/MOL
REMARK 923 INTER-LIGAND FREE ENERGY PREDICTED BY IDOCK:   -5.48 KCAL/MOL
REMARK 924 INTRA-LIGAND FREE ENERGY PREDICTED BY IDOCK:   -1.25 KCAL/MOL
REMARK 927      BINDING AFFINITY PREDICTED BY RF-SCORE:    0.00 PKD
ROOT
HETATM    1  C   UNL     1     -11.979  13.383  63.938  1.00  0.00    -0.520 C  
HETATM    2  C   UNL     1     -11.288  14.513  64.641  1.00  0.00    -0.372 A  
HETATM    3  C   UNL     1     -11.544  15.820  64.168  1.00  0.00    -0.079 A  
HETATM    4  C   UNL     1     -10.984  16.944  64.779  1.00  0.00     0.079 A  
HETATM    5  C   UNL     1     -10.144  16.788  65.871  1.00  0.00    -0.324 A  
HETATM    6  C   UNL     1      -9.873  15.507  66.352  1.00  0.00    -0.298 A  
HETATM    7  C   UNL     1     -10.431  14.358  65.754  1.00  0.00    -0.329 A  
ENDROOT
BRANCH   7   8
HETATM    8  C   UNL     1     -10.093  13.066  66.448  1.00  0.00    -0.279 C  
HETATM    9  O   UNL     1     -10.832  12.718  67.365  1.00  0.00    -0.233 OA 
HETATM   10  N   UNL     1      -8.947  12.404  66.046  1.00  0.00    -0.426 N  
HETATM   11  H   UNL     1      -8.470  12.777  65.225  1.00  0.00     0.000 HD 
BRANCH  10  12
HETATM   12  C   UNL     1      -8.363  11.262  66.652  1.00  0.00    -0.163 A  
HETATM   13  C   UNL     1      -8.604   9.943  66.257  1.00  0.00    -0.137 A  
HETATM   14  C   UNL     1      -8.033   8.836  66.935  1.00  0.00    -0.098 A  
HETATM   15  C   UNL     1      -8.423   7.457  66.470  1.00  0.00    -0.128 C  
HETATM   16  C   UNL     1      -7.172   9.056  68.033  1.00  0.00    -0.080 A  
HETATM   17  C   UNL     1      -6.977  10.384  68.450  1.00  0.00    -0.069 A  
HETATM   18  C   UNL     1      -7.535  11.468  67.754  1.00  0.00    -0.101 A  
BRANCH  16  19
HETATM   19  C   UNL     1      -6.518   7.902  68.777  1.00  0.00    -0.048 C  
HETATM   20  N   UNL     1      -7.269   7.107  69.675  1.00  0.00    -0.074 N  
HETATM   21  O   UNL     1      -5.336   7.657  68.540  1.00  0.00    -0.024 OA 
HETATM   22  C   UNL     1      -6.603   6.020  70.420  1.00  0.00    -0.044 C  
HETATM   23  C   UNL     1      -7.067   4.600  70.073  1.00  0.00    -0.049 C  
HETATM   24  C   UNL     1      -8.565   4.325  70.218  1.00  0.00    -0.102 C  
HETATM   25  C   UNL     1      -9.421   5.266  69.366  1.00  0.00    -0.138 C  
HETATM   26  C   UNL     1      -9.615   6.589  70.077  1.00  0.00    -0.169 A  
HETATM   27  O   UNL     1     -10.681   4.667  69.064  1.00  0.00     0.366 OA 
HETATM   28  H   UNL     1     -11.211   5.251  68.535  1.00  0.00     0.000 HD 
HETATM   29  C   UNL     1      -8.527   7.478  70.205  1.00  0.00    -0.138 A  
HETATM   30  C   UNL     1      -8.680   8.710  70.855  1.00  0.00    -0.216 A  
HETATM   31  C   UNL     1      -9.920   9.064  71.380  1.00  0.00    -0.388 A  
HETATM   32  C   UNL     1     -11.002   8.199  71.245  1.00  0.00    -0.240 A  
HETATM   33 CL   UNL     1     -12.534   8.641  71.889  1.00  0.00    -0.382 Cl 
HETATM   34  C   UNL     1     -10.857   6.971  70.594  1.00  0.00    -0.274 A  
ENDBRANCH  16  19
ENDBRANCH  10  12
ENDBRANCH   7   8
TORSDOF 3
ENDMDL
MODEL       62
REMARK 921   NORMALIZED FREE ENERGY PREDICTED BY IDOCK:   -4.70 KCAL/MOL
REMARK 922        TOTAL FREE ENERGY PREDICTED BY IDOCK:   -6.62 KCAL/MOL
REMARK 923 INTER-LIGAND FREE ENERGY PREDICTED BY IDOCK:   -6.70 KCAL/MOL
REMARK 924 INTRA-LIGAND FREE ENERGY PREDICTED BY IDOCK:    0.08 KCAL/MOL
REMARK 927      BINDING AFFINITY PREDICTED BY RF-SCORE:    0.00 PKD
ROOT
HETATM    1  C   UNL     1      -9.472   4.359  69.597  1.00  0.00    -0.252 C  
HETATM    2  C   UNL     1     -10.016   4.487  70.990  1.00  0.00    -0.257 A  
HETATM    3  C   UNL     1     -10.130   3.302  71.750  1.00  0.00    -0.125 A  
HETATM    4  C   UNL     1     -10.584   3.318  73.070  1.00  0.00    -0.241 A  
HETATM    5  C   UNL     1     -10.947   4.520  73.659  1.00  0.00    -0.382 A  
HETATM    6  C   UNL     1     -10.847   5.703  72.926  1.00  0.00    -0.303 A  
HETATM    7  C   UNL     1     -10.387   5.710  71.593  1.00  0.00    -0.270 A  
ENDROOT
BRANCH   7   8
HETATM    8  C   UNL     1     -10.271   7.080  70.981  1.00  0.00    -0.196 C  
HETATM    9  O   UNL     1      -9.142   7.465  70.689  1.00  0.00    -0.155 OA 
HETATM   10  N   UNL     1     -11.430   7.825  70.853  1.00  0.00    -0.279 N  
HETATM   11  H   UNL     1     -12.304   7.347  71.075  1.00  0.00     0.000 HD 
BRANCH  10  12
HETATM   12  C   UNL     1     -11.536   9.179  70.446  1.00  0.00    -0.194 A  
HETATM   13  C   UNL     1     -11.984  10.221  71.262  1.00  0.00    -0.457 A  
HETATM   14  C   UNL     1     -12.121  11.550  70.784  1.00  0.00    -0.410 A  
HETATM   15  C   UNL     1     -12.686  12.577  71.731  1.00  0.00    -0.244 C  
HETATM   16  C   UNL     1     -11.775  11.851  69.448  1.00  0.00    -0.401 A  
HETATM   17  C   UNL     1     -11.373  10.786  68.624  1.00  0.00    -0.356 A  
HETATM   18  C   UNL     1     -11.225   9.481  69.120  1.00  0.00    -0.004 A  
BRANCH  16  19
HETATM   19  C   UNL     1     -11.884  13.265  68.896  1.00  0.00    -0.327 C  
HETATM   20  N   UNL     1     -10.943  13.745  67.956  1.00  0.00    -0.245 N  
HETATM   21  O   UNL     1     -12.835  13.954  69.259  1.00  0.00     0.248 OA 
HETATM   22  C   UNL     1     -11.042  15.135  67.468  1.00  0.00    -0.319 C  
HETATM   23  C   UNL     1     -11.373  15.290  65.979  1.00  0.00    -0.162 C  
HETATM   24  C   UNL     1     -10.427  14.589  65.000  1.00  0.00    -0.454 C  
HETATM   25  C   UNL     1     -10.331  13.083  65.253  1.00  0.00    -0.304 C  
HETATM   26  C   UNL     1      -9.351  12.800  66.373  1.00  0.00    -0.196 A  
HETATM   27  O   UNL     1      -9.947  12.396  64.063  1.00  0.00    -0.519 OA 
HETATM   28  H   UNL     1      -9.887  11.461  64.220  1.00  0.00     0.000 HD 
HETATM   29  C   UNL     1      -9.692  13.136  67.700  1.00  0.00    -0.213 A  
HETATM   30  C   UNL     1      -8.805  12.881  68.755  1.00  0.00     0.180 A  
HETATM   31  C   UNL     1      -7.573  12.288  68.493  1.00  0.00    -0.118 A  
HETATM   32  C   UNL     1      -7.235  11.940  67.189  1.00  0.00    -0.144 A  
HETATM   33 CL   UNL     1      -5.715  11.202  66.869  1.00  0.00    -0.076 Cl 
HETATM   34  C   UNL     1      -8.116  12.188  66.133  1.00  0.00     0.472 A  
ENDBRANCH  16  19
ENDBRANCH  10  12
ENDBRANCH   7   8
TORSDOF 3
ENDMDL
MODEL       63
REMARK 921   NORMALIZED FREE ENERGY PREDICTED BY IDOCK:   -4.64 KCAL/MOL
REMARK 922        TOTAL FREE ENERGY PREDICTED BY IDOCK:   -6.55 KCAL/MOL
REMARK 923 INTER-LIGAND FREE ENERGY PREDICTED BY IDOCK:   -5.60 KCAL/MOL
REMARK 924 INTRA-LIGAND FREE ENERGY PREDICTED BY IDOCK:   -0.95 KCAL/MOL
REMARK 927      BINDING AFFINITY PREDICTED BY RF-SCORE:    0.00 PKD
ROOT
HETATM    1  C   UNL     1      -8.868  13.950  67.891  1.00  0.00    -0.184 C  
HETATM    2  C   UNL     1     -10.073  13.937  66.998  1.00  0.00    -0.256 A  
HETATM    3  C   UNL     1     -10.319  15.096  66.228  1.00  0.00    -0.303 A  
HETATM    4  C   UNL     1     -11.389  15.170  65.334  1.00  0.00    -0.298 A  
HETATM    5  C   UNL     1     -12.248  14.090  65.197  1.00  0.00    -0.446 A  
HETATM    6  C   UNL     1     -12.028  12.937  65.951  1.00  0.00    -0.504 A  
HETATM    7  C   UNL     1     -10.951  12.838  66.856  1.00  0.00    -0.291 A  
ENDROOT
BRANCH   7   8
HETATM    8  C   UNL     1     -10.820  11.497  67.526  1.00  0.00    -0.237 C  
HETATM    9  O   UNL     1     -11.195  11.420  68.693  1.00  0.00    -0.201 OA 
HETATM   10  N   UNL     1     -10.231  10.475  66.803  1.00  0.00    -0.226 N  
HETATM   11  H   UNL     1     -10.032  10.669  65.822  1.00  0.00     0.000 HD 
BRANCH  10  12
HETATM   12  C   UNL     1      -9.876   9.187  67.278  1.00  0.00    -0.189 A  
HETATM   13  C   UNL     1     -10.736   8.331  67.972  1.00  0.00    -0.111 A  
HETATM   14  C   UNL     1     -10.310   7.074  68.471  1.00  0.00    -0.204 A  
HETATM   15  C   UNL     1     -11.301   6.268  69.270  1.00  0.00    -0.411 C  
HETATM   16  C   UNL     1      -8.981   6.647  68.249  1.00  0.00    -0.122 A  
HETATM   17  C   UNL     1      -8.114   7.538  67.594  1.00  0.00    -0.118 A  
HETATM   18  C   UNL     1      -8.559   8.770  67.090  1.00  0.00    -0.119 A  
BRANCH  16  19
HETATM   19  C   UNL     1      -8.484   5.298  68.747  1.00  0.00    -0.092 C  
HETATM   20  N   UNL     1      -8.274   4.230  67.843  1.00  0.00    -0.094 N  
HETATM   21  O   UNL     1      -8.229   5.182  69.944  1.00  0.00    -0.083 OA 
HETATM   22  C   UNL     1      -7.834   2.917  68.353  1.00  0.00    -0.054 C  
HETATM   23  C   UNL     1      -6.434   2.473  67.914  1.00  0.00    -0.032 C  
HETATM   24  C   UNL     1      -6.185   2.419  66.405  1.00  0.00    -0.024 C  
HETATM   25  C   UNL     1      -6.432   3.765  65.720  1.00  0.00    -0.033 C  
HETATM   26  C   UNL     1      -7.911   3.954  65.450  1.00  0.00    -0.089 A  
HETATM   27  O   UNL     1      -5.683   3.860  64.509  1.00  0.00    -0.013 OA 
HETATM   28  H   UNL     1      -5.836   4.695  64.084  1.00  0.00     0.000 HD 
HETATM   29  C   UNL     1      -8.791   4.189  66.527  1.00  0.00    -0.118 A  
HETATM   30  C   UNL     1     -10.163   4.371  66.304  1.00  0.00    -0.211 A  
HETATM   31  C   UNL     1     -10.664   4.322  65.006  1.00  0.00    -0.139 A  
HETATM   32  C   UNL     1      -9.800   4.105  63.937  1.00  0.00    -0.105 A  
HETATM   33 CL   UNL     1     -10.421   4.050  62.334  1.00  0.00    -0.197 Cl 
HETATM   34  C   UNL     1      -8.431   3.927  64.152  1.00  0.00    -0.093 A  
ENDBRANCH  16  19
ENDBRANCH  10  12
ENDBRANCH   7   8
TORSDOF 3
ENDMDL
MODEL       64
REMARK 921   NORMALIZED FREE ENERGY PREDICTED BY IDOCK:   -4.63 KCAL/MOL
REMARK 922        TOTAL FREE ENERGY PREDICTED BY IDOCK:   -6.54 KCAL/MOL
REMARK 923 INTER-LIGAND FREE ENERGY PREDICTED BY IDOCK:   -5.85 KCAL/MOL
REMARK 924 INTRA-LIGAND FREE ENERGY PREDICTED BY IDOCK:   -0.68 KCAL/MOL
REMARK 927      BINDING AFFINITY PREDICTED BY RF-SCORE:    0.00 PKD
ROOT
HETATM    1  C   UNL     1     -11.294  11.024  65.183  1.00  0.00     0.236 C  
HETATM    2  C   UNL     1     -10.985  12.288  65.929  1.00  0.00    -0.338 A  
HETATM    3  C   UNL     1     -10.804  13.462  65.164  1.00  0.00    -0.322 A  
HETATM    4  C   UNL     1     -10.556  14.698  65.764  1.00  0.00    -0.330 A  
HETATM    5  C   UNL     1     -10.469  14.788  67.145  1.00  0.00    -0.265 A  
HETATM    6  C   UNL     1     -10.639  13.641  67.921  1.00  0.00    -0.255 A  
HETATM    7  C   UNL     1     -10.896  12.383  67.336  1.00  0.00    -0.273 A  
ENDROOT
BRANCH   7   8
HETATM    8  C   UNL     1     -11.128  11.272  68.324  1.00  0.00    -0.240 C  
HETATM    9  O   UNL     1     -12.276  11.124  68.736  1.00  0.00    -0.555 OA 
HETATM   10  N   UNL     1     -10.027  10.545  68.740  1.00  0.00    -0.183 N  
HETATM   11  H   UNL     1      -9.148  10.737  68.260  1.00  0.00     0.000 HD 
BRANCH  10  12
HETATM   12  C   UNL     1      -9.988   9.562  69.762  1.00  0.00    -0.213 A  
HETATM   13  C   UNL     1      -8.860   9.260  70.530  1.00  0.00    -0.285 A  
HETATM   14  C   UNL     1      -8.864   8.228  71.504  1.00  0.00    -0.216 A  
HETATM   15  C   UNL     1      -7.570   7.939  72.219  1.00  0.00    -0.116 C  
HETATM   16  C   UNL     1     -10.045   7.487  71.733  1.00  0.00    -0.205 A  
HETATM   17  C   UNL     1     -11.156   7.768  70.920  1.00  0.00    -0.270 A  
HETATM   18  C   UNL     1     -11.140   8.806  69.975  1.00  0.00    -0.169 A  
BRANCH  16  19
HETATM   19  C   UNL     1     -10.104   6.386  72.781  1.00  0.00    -0.180 C  
HETATM   20  N   UNL     1      -9.509   5.126  72.536  1.00  0.00    -0.145 N  
HETATM   21  O   UNL     1     -10.644   6.641  73.856  1.00  0.00    -0.331 OA 
HETATM   22  C   UNL     1      -9.617   4.058  73.549  1.00  0.00    -0.109 C  
HETATM   23  C   UNL     1      -8.298   3.630  74.203  1.00  0.00    -0.086 C  
HETATM   24  C   UNL     1      -7.192   3.168  73.251  1.00  0.00    -0.046 C  
HETATM   25  C   UNL     1      -6.822   4.235  72.218  1.00  0.00    -0.046 C  
HETATM   26  C   UNL     1      -7.801   4.209  71.062  1.00  0.00    -0.063 A  
HETATM   27  O   UNL     1      -5.486   4.042  71.751  1.00  0.00    -0.006 OA 
HETATM   28  H   UNL     1      -5.257   4.705  71.110  1.00  0.00     0.000 HD 
HETATM   29  C   UNL     1      -9.121   4.664  71.257  1.00  0.00    -0.134 A  
HETATM   30  C   UNL     1     -10.045   4.655  70.203  1.00  0.00    -0.283 A  
HETATM   31  C   UNL     1      -9.657   4.192  68.948  1.00  0.00    -0.222 A  
HETATM   32  C   UNL     1      -8.352   3.754  68.745  1.00  0.00    -0.073 A  
HETATM   33 CL   UNL     1      -7.874   3.188  67.193  1.00  0.00    -0.078 Cl 
HETATM   34  C   UNL     1      -7.425   3.765  69.790  1.00  0.00    -0.052 A  
ENDBRANCH  16  19
ENDBRANCH  10  12
ENDBRANCH   7   8
TORSDOF 3
ENDMDL
MODEL       65
REMARK 921   NORMALIZED FREE ENERGY PREDICTED BY IDOCK:   -4.62 KCAL/MOL
REMARK 922        TOTAL FREE ENERGY PREDICTED BY IDOCK:   -6.52 KCAL/MOL
REMARK 923 INTER-LIGAND FREE ENERGY PREDICTED BY IDOCK:   -5.38 KCAL/MOL
REMARK 924 INTRA-LIGAND FREE ENERGY PREDICTED BY IDOCK:   -1.14 KCAL/MOL
REMARK 927      BINDING AFFINITY PREDICTED BY RF-SCORE:    0.00 PKD
ROOT
HETATM    1  C   UNL     1     -12.563  12.299  63.761  1.00  0.00    -0.577 C  
HETATM    2  C   UNL     1     -11.847  13.500  64.304  1.00  0.00    -0.471 A  
HETATM    3  C   UNL     1     -12.293  14.769  63.872  1.00  0.00     0.030 A  
HETATM    4  C   UNL     1     -11.722  15.950  64.350  1.00  0.00    -0.179 A  
HETATM    5  C   UNL     1     -10.681  15.890  65.264  1.00  0.00    -0.442 A  
HETATM    6  C   UNL     1     -10.220  14.648  65.701  1.00  0.00    -0.382 A  
HETATM    7  C   UNL     1     -10.785  13.443  65.236  1.00  0.00    -0.321 A  
ENDROOT
BRANCH   7   8
HETATM    8  C   UNL     1     -10.218  12.202  65.870  1.00  0.00    -0.244 C  
HETATM    9  O   UNL     1     -10.438  12.039  67.067  1.00  0.00    -0.216 OA 
HETATM   10  N   UNL     1      -9.442  11.375  65.077  1.00  0.00    -0.311 N  
HETATM   11  H   UNL     1      -9.404  11.603  64.084  1.00  0.00     0.000 HD 
BRANCH  10  12
HETATM   12  C   UNL     1      -8.695  10.244  65.496  1.00  0.00    -0.162 A  
HETATM   13  C   UNL     1      -7.344  10.273  65.853  1.00  0.00    -0.131 A  
HETATM   14  C   UNL     1      -6.633   9.100  66.213  1.00  0.00    -0.066 A  
HETATM   15  C   UNL     1      -5.161   9.239  66.506  1.00  0.00    -0.040 C  
HETATM   16  C   UNL     1      -7.302   7.856  66.237  1.00  0.00    -0.075 A  
HETATM   17  C   UNL     1      -8.647   7.833  65.828  1.00  0.00    -0.162 A  
HETATM   18  C   UNL     1      -9.340   9.008  65.494  1.00  0.00    -0.255 A  
BRANCH  16  19
HETATM   19  C   UNL     1      -6.588   6.574  66.637  1.00  0.00    -0.048 C  
HETATM   20  N   UNL     1      -6.843   5.967  67.889  1.00  0.00    -0.061 N  
HETATM   21  O   UNL     1      -5.820   6.063  65.822  1.00  0.00    -0.023 OA 
HETATM   22  C   UNL     1      -6.105   4.749  68.274  1.00  0.00    -0.031 C  
HETATM   23  C   UNL     1      -6.953   3.480  68.416  1.00  0.00    -0.050 C  
HETATM   24  C   UNL     1      -8.130   3.560  69.392  1.00  0.00    -0.064 C  
HETATM   25  C   UNL     1      -9.109   4.682  69.041  1.00  0.00    -0.118 C  
HETATM   26  C   UNL     1      -8.603   6.007  69.572  1.00  0.00    -0.119 A  
HETATM   27  O   UNL     1     -10.409   4.396  69.557  1.00  0.00     0.009 OA 
HETATM   28  H   UNL     1     -11.017   5.093  69.338  1.00  0.00     0.000 HD 
HETATM   29  C   UNL     1      -7.482   6.616  68.971  1.00  0.00    -0.095 A  
HETATM   30  C   UNL     1      -6.995   7.845  69.441  1.00  0.00    -0.059 A  
HETATM   31  C   UNL     1      -7.626   8.473  70.512  1.00  0.00    -0.074 A  
HETATM   32  C   UNL     1      -8.741   7.885  71.100  1.00  0.00    -0.136 A  
HETATM   33 CL   UNL     1      -9.522   8.666  72.419  1.00  0.00    -0.347 Cl 
HETATM   34  C   UNL     1      -9.234   6.663  70.634  1.00  0.00    -0.159 A  
ENDBRANCH  16  19
ENDBRANCH  10  12
ENDBRANCH   7   8
TORSDOF 3
ENDMDL
MODEL       66
REMARK 921   NORMALIZED FREE ENERGY PREDICTED BY IDOCK:   -4.59 KCAL/MOL
REMARK 922        TOTAL FREE ENERGY PREDICTED BY IDOCK:   -6.48 KCAL/MOL
REMARK 923 INTER-LIGAND FREE ENERGY PREDICTED BY IDOCK:   -5.39 KCAL/MOL
REMARK 924 INTRA-LIGAND FREE ENERGY PREDICTED BY IDOCK:   -1.09 KCAL/MOL
REMARK 927      BINDING AFFINITY PREDICTED BY RF-SCORE:    0.00 PKD
ROOT
HETATM    1  C   UNL     1      -9.224   2.681  67.990  1.00  0.00    -0.254 C  
HETATM    2  C   UNL     1      -7.956   3.054  68.700  1.00  0.00    -0.064 A  
HETATM    3  C   UNL     1      -7.397   2.092  69.572  1.00  0.00    -0.043 A  
HETATM    4  C   UNL     1      -6.197   2.324  70.247  1.00  0.00    -0.024 A  
HETATM    5  C   UNL     1      -5.532   3.528  70.077  1.00  0.00    -0.016 A  
HETATM    6  C   UNL     1      -6.068   4.495  69.226  1.00  0.00    -0.026 A  
HETATM    7  C   UNL     1      -7.276   4.281  68.530  1.00  0.00    -0.056 A  
ENDROOT
BRANCH   7   8
HETATM    8  C   UNL     1      -7.665   5.396  67.598  1.00  0.00    -0.092 C  
HETATM    9  O   UNL     1      -7.485   5.208  66.398  1.00  0.00    -0.084 OA 
HETATM   10  N   UNL     1      -8.135   6.569  68.163  1.00  0.00    -0.113 N  
HETATM   11  H   UNL     1      -8.296   6.555  69.171  1.00  0.00     0.000 HD 
BRANCH  10  12
HETATM   12  C   UNL     1      -8.418   7.787  67.495  1.00  0.00    -0.120 A  
HETATM   13  C   UNL     1      -7.638   8.943  67.588  1.00  0.00    -0.093 A  
HETATM   14  C   UNL     1      -7.999  10.152  66.939  1.00  0.00    -0.114 A  
HETATM   15  C   UNL     1      -7.124  11.356  67.171  1.00  0.00    -0.134 C  
HETATM   16  C   UNL     1      -9.170  10.199  66.150  1.00  0.00    -0.196 A  
HETATM   17  C   UNL     1      -9.970   9.045  66.105  1.00  0.00    -0.311 A  
HETATM   18  C   UNL     1      -9.587   7.852  66.738  1.00  0.00    -0.278 A  
BRANCH  16  19
HETATM   19  C   UNL     1      -9.587  11.465  65.417  1.00  0.00    -0.228 C  
HETATM   20  N   UNL     1     -10.198  12.534  66.115  1.00  0.00    -0.247 N  
HETATM   21  O   UNL     1      -9.336  11.547  64.216  1.00  0.00    -0.133 OA 
HETATM   22  C   UNL     1     -10.634  13.734  65.376  1.00  0.00    -0.322 C  
HETATM   23  C   UNL     1      -9.887  15.029  65.718  1.00  0.00    -0.386 C  
HETATM   24  C   UNL     1      -9.892  15.443  67.191  1.00  0.00    -0.221 C  
HETATM   25  C   UNL     1      -9.305  14.365  68.106  1.00  0.00    -0.203 C  
HETATM   26  C   UNL     1     -10.350  13.314  68.418  1.00  0.00    -0.254 A  
HETATM   27  O   UNL     1      -8.800  14.946  69.309  1.00  0.00    -0.323 OA 
HETATM   28  H   UNL     1      -8.436  14.277  69.877  1.00  0.00     0.000 HD 
HETATM   29  C   UNL     1     -10.762  12.420  67.408  1.00  0.00    -0.229 A  
HETATM   30  C   UNL     1     -11.724  11.435  67.671  1.00  0.00    -0.246 A  
HETATM   31  C   UNL     1     -12.280  11.335  68.943  1.00  0.00    -0.160 A  
HETATM   32  C   UNL     1     -11.868  12.203  69.949  1.00  0.00    -0.319 A  
HETATM   33 CL   UNL     1     -12.551  12.074  71.522  1.00  0.00    -0.341 Cl 
HETATM   34  C   UNL     1     -10.906  13.185  69.695  1.00  0.00     0.241 A  
ENDBRANCH  16  19
ENDBRANCH  10  12
ENDBRANCH   7   8
TORSDOF 3
ENDMDL
MODEL       67
REMARK 921   NORMALIZED FREE ENERGY PREDICTED BY IDOCK:   -4.46 KCAL/MOL
REMARK 922        TOTAL FREE ENERGY PREDICTED BY IDOCK:   -6.33 KCAL/MOL
REMARK 923 INTER-LIGAND FREE ENERGY PREDICTED BY IDOCK:   -5.74 KCAL/MOL
REMARK 924 INTRA-LIGAND FREE ENERGY PREDICTED BY IDOCK:   -0.60 KCAL/MOL
REMARK 927      BINDING AFFINITY PREDICTED BY RF-SCORE:    0.00 PKD
ROOT
HETATM    1  C   UNL     1     -12.431  13.211  65.959  1.00  0.00    -0.330 C  
HETATM    2  C   UNL     1     -11.223  14.051  66.251  1.00  0.00    -0.320 A  
HETATM    3  C   UNL     1     -11.374  15.453  66.164  1.00  0.00    -0.082 A  
HETATM    4  C   UNL     1     -10.324  16.324  66.458  1.00  0.00    -0.310 A  
HETATM    5  C   UNL     1      -9.091  15.814  66.835  1.00  0.00    -0.259 A  
HETATM    6  C   UNL     1      -8.916  14.432  66.923  1.00  0.00    -0.263 A  
HETATM    7  C   UNL     1      -9.965  13.534  66.636  1.00  0.00    -0.282 A  
ENDROOT
BRANCH   7   8
HETATM    8  C   UNL     1      -9.623  12.085  66.856  1.00  0.00    -0.203 C  
HETATM    9  O   UNL     1      -9.019  11.512  65.954  1.00  0.00    -0.204 OA 
HETATM   10  N   UNL     1     -10.068  11.493  68.025  1.00  0.00    -0.181 N  
HETATM   11  H   UNL     1     -10.498  12.112  68.713  1.00  0.00     0.000 HD 
BRANCH  10  12
HETATM   12  C   UNL     1      -9.991  10.120  68.371  1.00  0.00    -0.156 A  
HETATM   13  C   UNL     1     -10.815   9.490  69.309  1.00  0.00    -0.211 A  
HETATM   14  C   UNL     1     -10.657   8.124  69.655  1.00  0.00    -0.223 A  
HETATM   15  C   UNL     1     -11.552   7.569  70.733  1.00  0.00    -0.300 C  
HETATM   16  C   UNL     1      -9.653   7.354  69.025  1.00  0.00    -0.148 A  
HETATM   17  C   UNL     1      -8.801   8.012  68.122  1.00  0.00    -0.132 A  
HETATM   18  C   UNL     1      -8.985   9.360  67.777  1.00  0.00    -0.127 A  
BRANCH  16  19
HETATM   19  C   UNL     1      -9.460   5.880  69.347  1.00  0.00    -0.130 C  
HETATM   20  N   UNL     1      -8.908   5.480  70.587  1.00  0.00    -0.132 N  
HETATM   21  O   UNL     1      -9.837   5.053  68.519  1.00  0.00    -0.146 OA 
HETATM   22  C   UNL     1      -8.687   4.047  70.860  1.00  0.00    -0.077 C  
HETATM   23  C   UNL     1      -9.540   3.449  71.986  1.00  0.00    -0.214 C  
HETATM   24  C   UNL     1      -9.435   4.137  73.350  1.00  0.00    -0.127 C  
HETATM   25  C   UNL     1      -9.800   5.622  73.289  1.00  0.00    -0.168 C  
HETATM   26  C   UNL     1      -8.616   6.436  72.808  1.00  0.00    -0.125 A  
HETATM   27  O   UNL     1     -10.245   6.084  74.564  1.00  0.00    -0.295 OA 
HETATM   28  H   UNL     1     -10.472   7.006  74.526  1.00  0.00     0.000 HD 
HETATM   29  C   UNL     1      -8.208   6.344  71.462  1.00  0.00    -0.117 A  
HETATM   30  C   UNL     1      -7.118   7.089  70.991  1.00  0.00    -0.070 A  
HETATM   31  C   UNL     1      -6.430   7.931  71.860  1.00  0.00    -0.046 A  
HETATM   32  C   UNL     1      -6.836   8.038  73.187  1.00  0.00    -0.096 A  
HETATM   33 CL   UNL     1      -5.988   9.084  74.257  1.00  0.00    -0.127 Cl 
HETATM   34  C   UNL     1      -7.924   7.302  73.662  1.00  0.00    -0.133 A  
ENDBRANCH  16  19
ENDBRANCH  10  12
ENDBRANCH   7   8
TORSDOF 3
ENDMDL
MODEL       68
REMARK 921   NORMALIZED FREE ENERGY PREDICTED BY IDOCK:   -4.41 KCAL/MOL
REMARK 922        TOTAL FREE ENERGY PREDICTED BY IDOCK:   -6.28 KCAL/MOL
REMARK 923 INTER-LIGAND FREE ENERGY PREDICTED BY IDOCK:   -5.27 KCAL/MOL
REMARK 924 INTRA-LIGAND FREE ENERGY PREDICTED BY IDOCK:   -1.01 KCAL/MOL
REMARK 927      BINDING AFFINITY PREDICTED BY RF-SCORE:    0.00 PKD
ROOT
HETATM    1  C   UNL     1     -10.209  15.482  66.440  1.00  0.00    -0.300 C  
HETATM    2  C   UNL     1     -10.872  14.910  67.658  1.00  0.00    -0.286 A  
HETATM    3  C   UNL     1     -11.442  15.824  68.573  1.00  0.00    -0.381 A  
HETATM    4  C   UNL     1     -12.119  15.393  69.715  1.00  0.00    -0.373 A  
HETATM    5  C   UNL     1     -12.232  14.036  69.978  1.00  0.00    -0.414 A  
HETATM    6  C   UNL     1     -11.673  13.115  69.092  1.00  0.00    -0.376 A  
HETATM    7  C   UNL     1     -10.989  13.527  67.929  1.00  0.00    -0.275 A  
ENDROOT
BRANCH   7   8
HETATM    8  C   UNL     1     -10.519  12.401  67.049  1.00  0.00    -0.220 C  
HETATM    9  O   UNL     1     -11.090  12.261  65.971  1.00  0.00    -0.284 OA 
HETATM   10  N   UNL     1      -9.527  11.574  67.544  1.00  0.00    -0.168 N  
HETATM   11  H   UNL     1      -9.099  11.854  68.427  1.00  0.00     0.000 HD 
BRANCH  10  12
HETATM   12  C   UNL     1      -9.039  10.378  66.958  1.00  0.00    -0.139 A  
HETATM   13  C   UNL     1      -7.865  10.283  66.205  1.00  0.00    -0.118 A  
HETATM   14  C   UNL     1      -7.454   9.070  65.597  1.00  0.00    -0.086 A  
HETATM   15  C   UNL     1      -6.211   9.103  64.745  1.00  0.00    -0.066 C  
HETATM   16  C   UNL     1      -8.233   7.904  65.765  1.00  0.00    -0.130 A  
HETATM   17  C   UNL     1      -9.436   8.024  66.482  1.00  0.00    -0.278 A  
HETATM   18  C   UNL     1      -9.817   9.228  67.094  1.00  0.00    -0.251 A  
BRANCH  16  19
HETATM   19  C   UNL     1      -7.822   6.575  65.149  1.00  0.00    -0.111 C  
HETATM   20  N   UNL     1      -7.431   5.491  65.971  1.00  0.00    -0.081 N  
HETATM   21  O   UNL     1      -7.884   6.461  63.926  1.00  0.00    -0.106 OA 
HETATM   22  C   UNL     1      -6.993   4.225  65.350  1.00  0.00    -0.058 C  
HETATM   23  C   UNL     1      -7.901   3.016  65.605  1.00  0.00    -0.085 C  
HETATM   24  C   UNL     1      -8.170   2.670  67.071  1.00  0.00    -0.082 C  
HETATM   25  C   UNL     1      -8.795   3.834  67.844  1.00  0.00    -0.114 C  
HETATM   26  C   UNL     1      -7.722   4.806  68.290  1.00  0.00    -0.081 A  
HETATM   27  O   UNL     1      -9.537   3.354  68.965  1.00  0.00    -0.165 OA 
HETATM   28  H   UNL     1      -9.925   4.076  69.445  1.00  0.00     0.000 HD 
HETATM   29  C   UNL     1      -7.073   5.615  67.334  1.00  0.00    -0.074 A  
HETATM   30  C   UNL     1      -6.080   6.525  67.720  1.00  0.00    -0.030 A  
HETATM   31  C   UNL     1      -5.729   6.635  69.063  1.00  0.00    -0.017 A  
HETATM   32  C   UNL     1      -6.374   5.851  70.014  1.00  0.00    -0.028 A  
HETATM   33 CL   UNL     1      -5.943   5.993  71.673  1.00  0.00    -0.034 Cl 
HETATM   34  C   UNL     1      -7.369   4.945  69.636  1.00  0.00    -0.056 A  
ENDBRANCH  16  19
ENDBRANCH  10  12
ENDBRANCH   7   8
TORSDOF 3
ENDMDL
MODEL       69
REMARK 921   NORMALIZED FREE ENERGY PREDICTED BY IDOCK:   -4.39 KCAL/MOL
REMARK 922        TOTAL FREE ENERGY PREDICTED BY IDOCK:   -6.25 KCAL/MOL
REMARK 923 INTER-LIGAND FREE ENERGY PREDICTED BY IDOCK:   -5.78 KCAL/MOL
REMARK 924 INTRA-LIGAND FREE ENERGY PREDICTED BY IDOCK:   -0.47 KCAL/MOL
REMARK 927      BINDING AFFINITY PREDICTED BY RF-SCORE:    0.00 PKD
ROOT
HETATM    1  C   UNL     1     -10.669  11.729  64.460  1.00  0.00    -0.369 C  
HETATM    2  C   UNL     1     -10.830  12.807  65.491  1.00  0.00    -0.301 A  
HETATM    3  C   UNL     1     -10.838  14.144  65.032  1.00  0.00    -0.408 A  
HETATM    4  C   UNL     1     -11.024  15.218  65.904  1.00  0.00    -0.325 A  
HETATM    5  C   UNL     1     -11.196  14.983  67.260  1.00  0.00    -0.339 A  
HETATM    6  C   UNL     1     -11.187  13.671  67.737  1.00  0.00    -0.310 A  
HETATM    7  C   UNL     1     -11.005  12.571  66.874  1.00  0.00    -0.296 A  
ENDROOT
BRANCH   7   8
HETATM    8  C   UNL     1     -11.101  11.228  67.546  1.00  0.00    -0.286 C  
HETATM    9  O   UNL     1     -12.151  10.970  68.126  1.00  0.00    -0.610 OA 
HETATM   10  N   UNL     1      -9.981  10.416  67.514  1.00  0.00    -0.175 N  
HETATM   11  H   UNL     1      -9.204  10.735  66.936  1.00  0.00     0.000 HD 
BRANCH  10  12
HETATM   12  C   UNL     1      -9.797   9.187  68.198  1.00  0.00    -0.164 A  
HETATM   13  C   UNL     1      -8.608   8.795  68.820  1.00  0.00    -0.137 A  
HETATM   14  C   UNL     1      -8.464   7.530  69.445  1.00  0.00    -0.133 A  
HETATM   15  C   UNL     1      -7.114   7.183  70.017  1.00  0.00    -0.066 C  
HETATM   16  C   UNL     1      -9.556   6.633  69.467  1.00  0.00    -0.150 A  
HETATM   17  C   UNL     1     -10.728   7.019  68.796  1.00  0.00    -0.226 A  
HETATM   18  C   UNL     1     -10.859   8.283  68.200  1.00  0.00     0.015 A  
BRANCH  16  19
HETATM   19  C   UNL     1      -9.456   5.273  70.143  1.00  0.00    -0.160 C  
HETATM   20  N   UNL     1      -8.986   4.146  69.429  1.00  0.00    -0.095 N  
HETATM   21  O   UNL     1      -9.754   5.198  71.334  1.00  0.00    -0.155 OA 
HETATM   22  C   UNL     1      -8.940   2.829  70.092  1.00  0.00    -0.103 C  
HETATM   23  C   UNL     1      -7.539   2.244  70.307  1.00  0.00    -0.043 C  
HETATM   24  C   UNL     1      -6.672   2.092  69.055  1.00  0.00    -0.033 C  
HETATM   25  C   UNL     1      -6.466   3.418  68.318  1.00  0.00    -0.037 C  
HETATM   26  C   UNL     1      -7.658   3.718  67.433  1.00  0.00    -0.075 A  
HETATM   27  O   UNL     1      -5.263   3.386  67.549  1.00  0.00    -0.008 OA 
HETATM   28  H   UNL     1      -5.135   4.209  67.092  1.00  0.00     0.000 HD 
HETATM   29  C   UNL     1      -8.888   4.082  68.019  1.00  0.00    -0.108 A  
HETATM   30  C   UNL     1     -10.005   4.369  67.223  1.00  0.00    -0.164 A  
HETATM   31  C   UNL     1      -9.902   4.296  65.837  1.00  0.00    -0.230 A  
HETATM   32  C   UNL     1      -8.688   3.952  65.250  1.00  0.00    -0.116 A  
HETATM   33 CL   UNL     1      -8.561   3.868  63.536  1.00  0.00    -0.093 Cl 
HETATM   34  C   UNL     1      -7.569   3.669  66.038  1.00  0.00    -0.081 A  
ENDBRANCH  16  19
ENDBRANCH  10  12
ENDBRANCH   7   8
TORSDOF 3
ENDMDL
MODEL       70
REMARK 921   NORMALIZED FREE ENERGY PREDICTED BY IDOCK:   -4.37 KCAL/MOL
REMARK 922        TOTAL FREE ENERGY PREDICTED BY IDOCK:   -6.23 KCAL/MOL
REMARK 923 INTER-LIGAND FREE ENERGY PREDICTED BY IDOCK:   -5.83 KCAL/MOL
REMARK 924 INTRA-LIGAND FREE ENERGY PREDICTED BY IDOCK:   -0.40 KCAL/MOL
REMARK 927      BINDING AFFINITY PREDICTED BY RF-SCORE:    0.00 PKD
ROOT
HETATM    1  C   UNL     1     -11.403  11.849  67.985  1.00  0.00    -0.352 C  
HETATM    2  C   UNL     1     -11.643  12.361  66.596  1.00  0.00    -0.447 A  
HETATM    3  C   UNL     1     -12.450  13.513  66.463  1.00  0.00    -0.309 A  
HETATM    4  C   UNL     1     -12.700  14.094  65.218  1.00  0.00    -0.425 A  
HETATM    5  C   UNL     1     -12.158  13.530  64.073  1.00  0.00    -0.494 A  
HETATM    6  C   UNL     1     -11.361  12.390  64.180  1.00  0.00    -0.442 A  
HETATM    7  C   UNL     1     -11.092  11.789  65.427  1.00  0.00    -0.336 A  
ENDROOT
BRANCH   7   8
HETATM    8  C   UNL     1     -10.153  10.614  65.364  1.00  0.00    -0.291 C  
HETATM    9  O   UNL     1     -10.020  10.066  64.273  1.00  0.00    -0.235 OA 
HETATM   10  N   UNL     1      -9.564  10.202  66.546  1.00  0.00    -0.179 N  
HETATM   11  H   UNL     1      -9.715  10.796  67.361  1.00  0.00     0.000 HD 
BRANCH  10  12
HETATM   12  C   UNL     1      -8.771   9.042  66.747  1.00  0.00    -0.123 A  
HETATM   13  C   UNL     1      -9.064   7.780  66.223  1.00  0.00    -0.221 A  
HETATM   14  C   UNL     1      -8.263   6.643  66.501  1.00  0.00    -0.114 A  
HETATM   15  C   UNL     1      -8.716   5.318  65.944  1.00  0.00    -0.138 C  
HETATM   16  C   UNL     1      -7.116   6.777  67.315  1.00  0.00    -0.080 A  
HETATM   17  C   UNL     1      -6.862   8.041  67.876  1.00  0.00    -0.073 A  
HETATM   18  C   UNL     1      -7.654   9.159  67.573  1.00  0.00    -0.088 A  
BRANCH  16  19
HETATM   19  C   UNL     1      -6.215   5.592  67.625  1.00  0.00    -0.034 C  
HETATM   20  N   UNL     1      -6.630   4.589  68.533  1.00  0.00    -0.044 N  
HETATM   21  O   UNL     1      -5.142   5.512  67.030  1.00  0.00    -0.004 OA 
HETATM   22  C   UNL     1      -5.721   3.471  68.852  1.00  0.00    -0.022 C  
HETATM   23  C   UNL     1      -6.189   2.086  68.391  1.00  0.00    -0.025 C  
HETATM   24  C   UNL     1      -7.564   1.637  68.890  1.00  0.00    -0.042 C  
HETATM   25  C   UNL     1      -8.678   2.610  68.495  1.00  0.00    -0.091 C  
HETATM   26  C   UNL     1      -8.728   3.774  69.464  1.00  0.00    -0.127 A  
HETATM   27  O   UNL     1      -9.938   1.940  68.448  1.00  0.00    -0.123 OA 
HETATM   28  H   UNL     1     -10.630   2.544  68.203  1.00  0.00     0.000 HD 
HETATM   29  C   UNL     1      -7.698   4.737  69.448  1.00  0.00    -0.063 A  
HETATM   30  C   UNL     1      -7.722   5.826  70.331  1.00  0.00    -0.095 A  
HETATM   31  C   UNL     1      -8.773   5.961  71.233  1.00  0.00    -0.132 A  
HETATM   32  C   UNL     1      -9.800   5.022  71.245  1.00  0.00    -0.182 A  
HETATM   33 CL   UNL     1     -11.101   5.193  72.357  1.00  0.00    -0.251 Cl 
HETATM   34  C   UNL     1      -9.785   3.937  70.365  1.00  0.00    -0.245 A  
ENDBRANCH  16  19
ENDBRANCH  10  12
ENDBRANCH   7   8
TORSDOF 3
ENDMDL
MODEL       71
REMARK 921   NORMALIZED FREE ENERGY PREDICTED BY IDOCK:   -4.31 KCAL/MOL
REMARK 922        TOTAL FREE ENERGY PREDICTED BY IDOCK:   -6.16 KCAL/MOL
REMARK 923 INTER-LIGAND FREE ENERGY PREDICTED BY IDOCK:   -5.63 KCAL/MOL
REMARK 924 INTRA-LIGAND FREE ENERGY PREDICTED BY IDOCK:   -0.53 KCAL/MOL
REMARK 927      BINDING AFFINITY PREDICTED BY RF-SCORE:    0.00 PKD
ROOT
HETATM    1  C   UNL     1     -10.836  12.556  68.741  1.00  0.00    -0.276 C  
HETATM    2  C   UNL     1     -11.563  12.013  69.936  1.00  0.00    -0.315 A  
HETATM    3  C   UNL     1     -12.335  12.924  70.691  1.00  0.00    -0.385 A  
HETATM    4  C   UNL     1     -13.082  12.512  71.796  1.00  0.00    -0.450 A  
HETATM    5  C   UNL     1     -13.067  11.180  72.180  1.00  0.00    -0.288 A  
HETATM    6  C   UNL     1     -12.308  10.263  71.452  1.00  0.00    -0.502 A  
HETATM    7  C   UNL     1     -11.549  10.656  70.330  1.00  0.00    -0.441 A  
ENDROOT
BRANCH   7   8
HETATM    8  C   UNL     1     -10.854   9.526  69.620  1.00  0.00    -0.235 C  
HETATM    9  O   UNL     1     -10.938   8.412  70.131  1.00  0.00    -0.242 OA 
HETATM   10  N   UNL     1     -10.125   9.835  68.485  1.00  0.00    -0.160 N  
HETATM   11  H   UNL     1     -10.204  10.792  68.141  1.00  0.00     0.000 HD 
BRANCH  10  12
HETATM   12  C   UNL     1      -9.280   8.966  67.749  1.00  0.00    -0.141 A  
HETATM   13  C   UNL     1      -7.930   8.740  68.035  1.00  0.00    -0.106 A  
HETATM   14  C   UNL     1      -7.118   7.900  67.231  1.00  0.00    -0.083 A  
HETATM   15  C   UNL     1      -5.659   7.790  67.589  1.00  0.00    -0.036 C  
HETATM   16  C   UNL     1      -7.682   7.244  66.114  1.00  0.00    -0.101 A  
HETATM   17  C   UNL     1      -9.026   7.518  65.809  1.00  0.00    -0.077 A  
HETATM   18  C   UNL     1      -9.819   8.337  66.628  1.00  0.00    -0.337 A  
BRANCH  16  19
HETATM   19  C   UNL     1      -6.857   6.317  65.234  1.00  0.00    -0.048 C  
HETATM   20  N   UNL     1      -7.004   4.913  65.331  1.00  0.00    -0.061 N  
HETATM   21  O   UNL     1      -6.096   6.826  64.413  1.00  0.00    -0.034 OA 
HETATM   22  C   UNL     1      -6.161   4.032  64.499  1.00  0.00    -0.026 C  
HETATM   23  C   UNL     1      -6.907   3.208  63.443  1.00  0.00    -0.036 C  
HETATM   24  C   UNL     1      -8.036   2.312  63.958  1.00  0.00    -0.076 C  
HETATM   25  C   UNL     1      -9.110   3.097  64.714  1.00  0.00    -0.140 C  
HETATM   26  C   UNL     1      -8.676   3.340  66.145  1.00  0.00    -0.128 A  
HETATM   27  O   UNL     1     -10.359   2.405  64.678  1.00  0.00    -0.334 OA 
HETATM   28  H   UNL     1     -11.026   2.893  65.147  1.00  0.00     0.000 HD 
HETATM   29  C   UNL     1      -7.633   4.252  66.411  1.00  0.00    -0.089 A  
HETATM   30  C   UNL     1      -7.214   4.498  67.726  1.00  0.00    -0.065 A  
HETATM   31  C   UNL     1      -7.834   3.837  68.783  1.00  0.00    -0.055 A  
HETATM   32  C   UNL     1      -8.873   2.947  68.530  1.00  0.00    -0.118 A  
HETATM   33 CL   UNL     1      -9.641   2.136  69.837  1.00  0.00    -0.109 Cl 
HETATM   34  C   UNL     1      -9.298   2.700  67.221  1.00  0.00    -0.137 A  
ENDBRANCH  16  19
ENDBRANCH  10  12
ENDBRANCH   7   8
TORSDOF 3
ENDMDL
MODEL       72
REMARK 921   NORMALIZED FREE ENERGY PREDICTED BY IDOCK:   -4.29 KCAL/MOL
REMARK 922        TOTAL FREE ENERGY PREDICTED BY IDOCK:   -6.13 KCAL/MOL
REMARK 923 INTER-LIGAND FREE ENERGY PREDICTED BY IDOCK:   -5.38 KCAL/MOL
REMARK 924 INTRA-LIGAND FREE ENERGY PREDICTED BY IDOCK:   -0.75 KCAL/MOL
REMARK 927      BINDING AFFINITY PREDICTED BY RF-SCORE:    0.00 PKD
ROOT
HETATM    1  C   UNL     1      -7.585   4.794  74.197  1.00  0.00    -0.093 C  
HETATM    2  C   UNL     1      -8.200   3.858  73.198  1.00  0.00    -0.088 A  
HETATM    3  C   UNL     1      -8.007   2.474  73.407  1.00  0.00    -0.058 A  
HETATM    4  C   UNL     1      -8.572   1.519  72.559  1.00  0.00    -0.057 A  
HETATM    5  C   UNL     1      -9.335   1.925  71.475  1.00  0.00    -0.179 A  
HETATM    6  C   UNL     1      -9.535   3.287  71.246  1.00  0.00    -0.222 A  
HETATM    7  C   UNL     1      -8.977   4.269  72.092  1.00  0.00    -0.142 A  
ENDROOT
BRANCH   7   8
HETATM    8  C   UNL     1      -9.357   5.682  71.742  1.00  0.00    -0.145 C  
HETATM    9  O   UNL     1     -10.163   6.241  72.482  1.00  0.00    -0.180 OA 
HETATM   10  N   UNL     1      -8.824   6.221  70.585  1.00  0.00    -0.143 N  
HETATM   11  H   UNL     1      -8.115   5.663  70.108  1.00  0.00     0.000 HD 
BRANCH  10  12
HETATM   12  C   UNL     1      -9.154   7.465  69.990  1.00  0.00    -0.148 A  
HETATM   13  C   UNL     1      -9.919   7.612  68.829  1.00  0.00    -0.178 A  
HETATM   14  C   UNL     1     -10.174   8.881  68.248  1.00  0.00    -0.239 A  
HETATM   15  C   UNL     1     -10.947   8.913  66.955  1.00  0.00     0.165 C  
HETATM   16  C   UNL     1      -9.663  10.046  68.861  1.00  0.00    -0.181 A  
HETATM   17  C   UNL     1      -8.854   9.881  69.999  1.00  0.00    -0.194 A  
HETATM   18  C   UNL     1      -8.630   8.619  70.572  1.00  0.00    -0.170 A  
BRANCH  16  19
HETATM   19  C   UNL     1      -9.927  11.430  68.288  1.00  0.00    -0.198 C  
HETATM   20  N   UNL     1      -9.421  11.792  67.017  1.00  0.00    -0.182 N  
HETATM   21  O   UNL     1     -10.627  12.202  68.941  1.00  0.00    -0.212 OA 
HETATM   22  C   UNL     1      -9.652  13.154  66.499  1.00  0.00    -0.268 C  
HETATM   23  C   UNL     1     -10.542  13.247  65.255  1.00  0.00    -0.325 C  
HETATM   24  C   UNL     1     -10.094  12.429  64.041  1.00  0.00    -0.342 C  
HETATM   25  C   UNL     1      -9.964  10.937  64.354  1.00  0.00    -0.322 C  
HETATM   26  C   UNL     1      -8.631  10.652  65.014  1.00  0.00    -0.166 A  
HETATM   27  O   UNL     1     -10.115  10.158  63.167  1.00  0.00    -0.478 OA 
HETATM   28  H   UNL     1     -10.034   9.232  63.361  1.00  0.00     0.000 HD 
HETATM   29  C   UNL     1      -8.401  11.086  66.336  1.00  0.00    -0.165 A  
HETATM   30  C   UNL     1      -7.178  10.832  66.972  1.00  0.00    -0.109 A  
HETATM   31  C   UNL     1      -6.177  10.143  66.292  1.00  0.00    -0.078 A  
HETATM   32  C   UNL     1      -6.401   9.699  64.993  1.00  0.00    -0.089 A  
HETATM   33 CL   UNL     1      -5.165   8.844  64.157  1.00  0.00    -0.054 Cl 
HETATM   34  C   UNL     1      -7.620   9.945  64.355  1.00  0.00    -0.143 A  
ENDBRANCH  16  19
ENDBRANCH  10  12
ENDBRANCH   7   8
TORSDOF 3
ENDMDL
MODEL       73
REMARK 921   NORMALIZED FREE ENERGY PREDICTED BY IDOCK:   -4.28 KCAL/MOL
REMARK 922        TOTAL FREE ENERGY PREDICTED BY IDOCK:   -6.13 KCAL/MOL
REMARK 923 INTER-LIGAND FREE ENERGY PREDICTED BY IDOCK:   -5.12 KCAL/MOL
REMARK 924 INTRA-LIGAND FREE ENERGY PREDICTED BY IDOCK:   -1.01 KCAL/MOL
REMARK 927      BINDING AFFINITY PREDICTED BY RF-SCORE:    0.00 PKD
ROOT
HETATM    1  C   UNL     1      -8.071   7.105  64.515  1.00  0.00    -0.069 C  
HETATM    2  C   UNL     1      -7.938   6.612  65.926  1.00  0.00    -0.112 A  
HETATM    3  C   UNL     1      -7.692   5.232  66.107  1.00  0.00    -0.088 A  
HETATM    4  C   UNL     1      -7.510   4.680  67.377  1.00  0.00    -0.078 A  
HETATM    5  C   UNL     1      -7.583   5.493  68.498  1.00  0.00    -0.084 A  
HETATM    6  C   UNL     1      -7.830   6.857  68.344  1.00  0.00    -0.121 A  
HETATM    7  C   UNL     1      -8.012   7.437  67.071  1.00  0.00    -0.116 A  
ENDROOT
BRANCH   7   8
HETATM    8  C   UNL     1      -8.192   8.931  67.086  1.00  0.00    -0.103 C  
HETATM    9  O   UNL     1      -7.231   9.603  67.450  1.00  0.00    -0.085 OA 
HETATM   10  N   UNL     1      -9.438   9.429  66.751  1.00  0.00    -0.156 N  
HETATM   11  H   UNL     1     -10.119   8.753  66.403  1.00  0.00     0.000 HD 
BRANCH  10  12
HETATM   12  C   UNL     1      -9.872  10.776  66.839  1.00  0.00    -0.187 A  
HETATM   13  C   UNL     1     -10.641  11.296  67.884  1.00  0.00    -0.231 A  
HETATM   14  C   UNL     1     -11.092  12.641  67.892  1.00  0.00    -0.285 A  
HETATM   15  C   UNL     1     -11.978  13.072  69.032  1.00  0.00    -0.312 C  
HETATM   16  C   UNL     1     -10.744  13.502  66.828  1.00  0.00    -0.278 A  
HETATM   17  C   UNL     1     -10.013  12.954  65.760  1.00  0.00    -0.261 A  
HETATM   18  C   UNL     1      -9.558  11.626  65.778  1.00  0.00    -0.255 A  
BRANCH  16  19
HETATM   19  C   UNL     1     -11.186  14.958  66.803  1.00  0.00    -0.338 C  
HETATM   20  N   UNL     1     -10.305  15.986  67.214  1.00  0.00    -0.290 N  
HETATM   21  O   UNL     1     -12.311  15.212  66.375  1.00  0.00     0.226 OA 
HETATM   22  C   UNL     1     -10.771  17.386  67.224  1.00  0.00    -0.219 C  
HETATM   23  C   UNL     1     -10.075  18.321  66.227  1.00  0.00    -0.389 C  
HETATM   24  C   UNL     1      -8.551  18.406  66.332  1.00  0.00    -0.264 C  
HETATM   25  C   UNL     1      -7.874  17.042  66.171  1.00  0.00    -0.260 C  
HETATM   26  C   UNL     1      -7.903  16.283  67.482  1.00  0.00    -0.168 A  
HETATM   27  O   UNL     1      -6.532  17.197  65.708  1.00  0.00    -0.007 OA 
HETATM   28  H   UNL     1      -6.113  16.351  65.608  1.00  0.00     0.000 HD 
HETATM   29  C   UNL     1      -9.125  15.769  67.963  1.00  0.00    -0.187 A  
HETATM   30  C   UNL     1      -9.179  15.059  69.170  1.00  0.00    -0.183 A  
HETATM   31  C   UNL     1      -8.013  14.857  69.905  1.00  0.00     0.202 A  
HETATM   32  C   UNL     1      -6.801  15.349  69.430  1.00  0.00    -0.174 A  
HETATM   33 CL   UNL     1      -5.362  15.093  70.336  1.00  0.00    -0.124 Cl 
HETATM   34  C   UNL     1      -6.740  16.053  68.224  1.00  0.00    -0.121 A  
ENDBRANCH  16  19
ENDBRANCH  10  12
ENDBRANCH   7   8
TORSDOF 3
ENDMDL
MODEL       74
REMARK 921   NORMALIZED FREE ENERGY PREDICTED BY IDOCK:   -4.25 KCAL/MOL
REMARK 922        TOTAL FREE ENERGY PREDICTED BY IDOCK:   -6.09 KCAL/MOL
REMARK 923 INTER-LIGAND FREE ENERGY PREDICTED BY IDOCK:   -6.49 KCAL/MOL
REMARK 924 INTRA-LIGAND FREE ENERGY PREDICTED BY IDOCK:    0.40 KCAL/MOL
REMARK 927      BINDING AFFINITY PREDICTED BY RF-SCORE:    0.00 PKD
ROOT
HETATM    1  C   UNL     1      -5.368  18.591  70.684  1.00  0.00    -0.257 C  
HETATM    2  C   UNL     1      -5.973  19.277  69.495  1.00  0.00    -0.288 A  
HETATM    3  C   UNL     1      -5.599  20.621  69.266  1.00  0.00    -0.405 A  
HETATM    4  C   UNL     1      -6.071  21.336  68.164  1.00  0.00    -0.271 A  
HETATM    5  C   UNL     1      -6.940  20.728  67.270  1.00  0.00    -0.414 A  
HETATM    6  C   UNL     1      -7.327  19.404  67.479  1.00  0.00    -0.261 A  
HETATM    7  C   UNL     1      -6.858  18.662  68.582  1.00  0.00    -0.294 A  
ENDROOT
BRANCH   7   8
HETATM    8  C   UNL     1      -7.316  17.228  68.609  1.00  0.00    -0.238 C  
HETATM    9  O   UNL     1      -8.485  17.023  68.923  1.00  0.00    -0.253 OA 
HETATM   10  N   UNL     1      -6.374  16.251  68.343  1.00  0.00    -0.116 N  
HETATM   11  H   UNL     1      -5.458  16.574  68.031  1.00  0.00     0.000 HD 
BRANCH  10  12
HETATM   12  C   UNL     1      -6.543  14.847  68.456  1.00  0.00    -0.093 A  
HETATM   13  C   UNL     1      -6.157  14.087  69.564  1.00  0.00    -0.108 A  
HETATM   14  C   UNL     1      -6.302  12.677  69.601  1.00  0.00    -0.095 A  
HETATM   15  C   UNL     1      -5.782  11.953  70.816  1.00  0.00    -0.074 C  
HETATM   16  C   UNL     1      -6.874  12.004  68.498  1.00  0.00    -0.078 A  
HETATM   17  C   UNL     1      -7.212  12.773  67.371  1.00  0.00    -0.134 A  
HETATM   18  C   UNL     1      -7.079  14.171  67.361  1.00  0.00    -0.101 A  
BRANCH  16  19
HETATM   19  C   UNL     1      -7.069  10.496  68.499  1.00  0.00    -0.075 C  
HETATM   20  N   UNL     1      -8.077   9.899  67.705  1.00  0.00    -0.109 N  
HETATM   21  O   UNL     1      -6.299   9.814  69.173  1.00  0.00    -0.040 OA 
HETATM   22  C   UNL     1      -8.278   8.438  67.755  1.00  0.00    -0.126 C  
HETATM   23  C   UNL     1      -7.965   7.682  66.458  1.00  0.00    -0.106 C  
HETATM   24  C   UNL     1      -8.717   8.146  65.208  1.00  0.00    -0.093 C  
HETATM   25  C   UNL     1      -8.483   9.627  64.898  1.00  0.00    -0.151 C  
HETATM   26  C   UNL     1      -9.396  10.491  65.744  1.00  0.00    -0.229 A  
HETATM   27  O   UNL     1      -8.686   9.889  63.509  1.00  0.00    -0.176 OA 
HETATM   28  H   UNL     1      -8.541  10.808  63.317  1.00  0.00     0.000 HD 
HETATM   29  C   UNL     1      -9.159  10.607  67.129  1.00  0.00    -0.143 A  
HETATM   30  C   UNL     1      -9.986  11.403  67.934  1.00  0.00    -0.190 A  
HETATM   31  C   UNL     1     -11.052  12.090  67.361  1.00  0.00    -0.337 A  
HETATM   32  C   UNL     1     -11.284  11.993  65.992  1.00  0.00    -0.335 A  
HETATM   33 CL   UNL     1     -12.599  12.847  65.286  1.00  0.00    -0.556 Cl 
HETATM   34  C   UNL     1     -10.461  11.204  65.184  1.00  0.00    -0.341 A  
ENDBRANCH  16  19
ENDBRANCH  10  12
ENDBRANCH   7   8
TORSDOF 3
ENDMDL
MODEL       75
REMARK 921   NORMALIZED FREE ENERGY PREDICTED BY IDOCK:   -4.22 KCAL/MOL
REMARK 922        TOTAL FREE ENERGY PREDICTED BY IDOCK:   -6.06 KCAL/MOL
REMARK 923 INTER-LIGAND FREE ENERGY PREDICTED BY IDOCK:   -5.02 KCAL/MOL
REMARK 924 INTRA-LIGAND FREE ENERGY PREDICTED BY IDOCK:   -1.04 KCAL/MOL
REMARK 927      BINDING AFFINITY PREDICTED BY RF-SCORE:    0.00 PKD
ROOT
HETATM    1  C   UNL     1     -10.053  18.042  69.019  1.00  0.00    -0.301 C  
HETATM    2  C   UNL     1      -8.878  17.904  68.097  1.00  0.00    -0.265 A  
HETATM    3  C   UNL     1      -8.478  19.056  67.384  1.00  0.00    -0.300 A  
HETATM    4  C   UNL     1      -7.371  19.045  66.533  1.00  0.00    -0.248 A  
HETATM    5  C   UNL     1      -6.644  17.876  66.363  1.00  0.00    -0.267 A  
HETATM    6  C   UNL     1      -7.024  16.724  67.053  1.00  0.00    -0.242 A  
HETATM    7  C   UNL     1      -8.135  16.714  67.921  1.00  0.00    -0.177 A  
ENDROOT
BRANCH   7   8
HETATM    8  C   UNL     1      -8.354  15.410  68.640  1.00  0.00    -0.168 C  
HETATM    9  O   UNL     1      -8.136  15.397  69.848  1.00  0.00    -0.137 OA 
HETATM   10  N   UNL     1      -8.721  14.314  67.879  1.00  0.00    -0.169 N  
HETATM   11  H   UNL     1      -8.932  14.492  66.897  1.00  0.00     0.000 HD 
BRANCH  10  12
HETATM   12  C   UNL     1      -8.836  12.970  68.316  1.00  0.00    -0.172 A  
HETATM   13  C   UNL     1      -7.759  12.165  68.700  1.00  0.00    -0.089 A  
HETATM   14  C   UNL     1      -7.928  10.808  69.078  1.00  0.00    -0.137 A  
HETATM   15  C   UNL     1      -6.688  10.015  69.399  1.00  0.00    -0.060 C  
HETATM   16  C   UNL     1      -9.222  10.242  69.094  1.00  0.00    -0.203 A  
HETATM   17  C   UNL     1     -10.289  11.047  68.659  1.00  0.00    -0.209 A  
HETATM   18  C   UNL     1     -10.106  12.394  68.308  1.00  0.00    -0.227 A  
BRANCH  16  19
HETATM   19  C   UNL     1      -9.455   8.799  69.513  1.00  0.00    -0.165 C  
HETATM   20  N   UNL     1      -9.038   7.731  68.683  1.00  0.00    -0.136 N  
HETATM   21  O   UNL     1      -9.974   8.592  70.608  1.00  0.00    -0.179 OA 
HETATM   22  C   UNL     1      -9.315   6.340  69.088  1.00  0.00    -0.131 C  
HETATM   23  C   UNL     1      -8.081   5.485  69.404  1.00  0.00    -0.095 C  
HETATM   24  C   UNL     1      -7.033   5.377  68.295  1.00  0.00    -0.061 C  
HETATM   25  C   UNL     1      -6.497   6.743  67.858  1.00  0.00    -0.050 C  
HETATM   26  C   UNL     1      -7.447   7.389  66.871  1.00  0.00    -0.097 A  
HETATM   27  O   UNL     1      -5.193   6.615  67.291  1.00  0.00    -0.008 OA 
HETATM   28  H   UNL     1      -4.860   7.462  67.021  1.00  0.00     0.000 HD 
HETATM   29  C   UNL     1      -8.694   7.873  67.318  1.00  0.00    -0.131 A  
HETATM   30  C   UNL     1      -9.590   8.479  66.426  1.00  0.00    -0.314 A  
HETATM   31  C   UNL     1      -9.246   8.607  65.083  1.00  0.00     0.046 A  
HETATM   32  C   UNL     1      -8.012   8.146  64.637  1.00  0.00    -0.149 A  
HETATM   33 CL   UNL     1      -7.587   8.311  62.979  1.00  0.00    -0.116 Cl 
HETATM   34  C   UNL     1      -7.112   7.545  65.522  1.00  0.00    -0.061 A  
ENDBRANCH  16  19
ENDBRANCH  10  12
ENDBRANCH   7   8
TORSDOF 3
ENDMDL
MODEL       76
REMARK 921   NORMALIZED FREE ENERGY PREDICTED BY IDOCK:   -4.22 KCAL/MOL
REMARK 922        TOTAL FREE ENERGY PREDICTED BY IDOCK:   -6.05 KCAL/MOL
REMARK 923 INTER-LIGAND FREE ENERGY PREDICTED BY IDOCK:   -5.24 KCAL/MOL
REMARK 924 INTRA-LIGAND FREE ENERGY PREDICTED BY IDOCK:   -0.82 KCAL/MOL
REMARK 927      BINDING AFFINITY PREDICTED BY RF-SCORE:    0.00 PKD
ROOT
HETATM    1  C   UNL     1     -11.158   6.662  70.194  1.00  0.00    -0.384 C  
HETATM    2  C   UNL     1     -12.148   7.539  70.902  1.00  0.00    -0.254 A  
HETATM    3  C   UNL     1     -13.283   6.911  71.462  1.00  0.00    -0.322 A  
HETATM    4  C   UNL     1     -14.242   7.631  72.177  1.00  0.00    -0.303 A  
HETATM    5  C   UNL     1     -14.095   9.000  72.340  1.00  0.00    -0.478 A  
HETATM    6  C   UNL     1     -12.985   9.643  71.792  1.00  0.00    -0.514 A  
HETATM    7  C   UNL     1     -12.002   8.935  71.070  1.00  0.00    -0.307 A  
ENDROOT
BRANCH   7   8
HETATM    8  C   UNL     1     -10.837   9.772  70.616  1.00  0.00    -0.329 C  
HETATM    9  O   UNL     1      -9.775   9.620  71.215  1.00  0.00    -0.146 OA 
HETATM   10  N   UNL     1     -11.063  10.691  69.607  1.00  0.00    -0.264 N  
HETATM   11  H   UNL     1     -11.978  10.656  69.158  1.00  0.00     0.000 HD 
BRANCH  10  12
HETATM   12  C   UNL     1     -10.161  11.676  69.128  1.00  0.00     0.034 A  
HETATM   13  C   UNL     1      -8.967  11.399  68.456  1.00  0.00    -0.158 A  
HETATM   14  C   UNL     1      -8.076  12.424  68.047  1.00  0.00    -0.162 A  
HETATM   15  C   UNL     1      -6.782  12.005  67.398  1.00  0.00    -0.131 C  
HETATM   16  C   UNL     1      -8.401  13.775  68.300  1.00  0.00    -0.161 A  
HETATM   17  C   UNL     1      -9.579  14.037  69.020  1.00  0.00     0.081 A  
HETATM   18  C   UNL     1     -10.459  13.011  69.399  1.00  0.00     0.334 A  
BRANCH  16  19
HETATM   19  C   UNL     1      -7.488  14.910  67.862  1.00  0.00    -0.141 C  
HETATM   20  N   UNL     1      -7.961  15.922  66.994  1.00  0.00    -0.211 N  
HETATM   21  O   UNL     1      -6.346  14.942  68.320  1.00  0.00    -0.101 OA 
HETATM   22  C   UNL     1      -7.045  16.988  66.547  1.00  0.00    -0.271 C  
HETATM   23  C   UNL     1      -7.384  18.401  67.037  1.00  0.00    -0.223 C  
HETATM   24  C   UNL     1      -8.788  18.913  66.702  1.00  0.00    -0.319 C  
HETATM   25  C   UNL     1      -9.891  18.003  67.247  1.00  0.00    -0.306 C  
HETATM   26  C   UNL     1     -10.115  16.831  66.312  1.00  0.00    -0.338 A  
HETATM   27  O   UNL     1     -11.101  18.736  67.435  1.00  0.00    -0.332 OA 
HETATM   28  H   UNL     1     -11.786  18.170  67.774  1.00  0.00     0.000 HD 
HETATM   29  C   UNL     1      -9.140  15.817  66.219  1.00  0.00    -0.338 A  
HETATM   30  C   UNL     1      -9.325  14.721  65.365  1.00  0.00     0.335 A  
HETATM   31  C   UNL     1     -10.485  14.629  64.601  1.00  0.00    -0.207 A  
HETATM   32  C   UNL     1     -11.458  15.618  64.698  1.00  0.00    -0.303 A  
HETATM   33 CL   UNL     1     -12.893  15.500  63.756  1.00  0.00     0.755 Cl 
HETATM   34  C   UNL     1     -11.282  16.712  65.550  1.00  0.00     0.229 A  
ENDBRANCH  16  19
ENDBRANCH  10  12
ENDBRANCH   7   8
TORSDOF 3
ENDMDL
MODEL       77
REMARK 921   NORMALIZED FREE ENERGY PREDICTED BY IDOCK:   -4.14 KCAL/MOL
REMARK 922        TOTAL FREE ENERGY PREDICTED BY IDOCK:   -5.96 KCAL/MOL
REMARK 923 INTER-LIGAND FREE ENERGY PREDICTED BY IDOCK:   -5.44 KCAL/MOL
REMARK 924 INTRA-LIGAND FREE ENERGY PREDICTED BY IDOCK:   -0.52 KCAL/MOL
REMARK 927      BINDING AFFINITY PREDICTED BY RF-SCORE:    0.00 PKD
ROOT
HETATM    1  C   UNL     1      -9.764  18.601  69.839  1.00  0.00     0.821 C  
HETATM    2  C   UNL     1     -10.059  18.804  68.382  1.00  0.00    -0.443 A  
HETATM    3  C   UNL     1      -9.967  20.122  67.882  1.00  0.00    -0.537 A  
HETATM    4  C   UNL     1     -10.180  20.412  66.533  1.00  0.00    -0.365 A  
HETATM    5  C   UNL     1     -10.503  19.391  65.652  1.00  0.00    -0.355 A  
HETATM    6  C   UNL     1     -10.605  18.081  66.124  1.00  0.00    -0.269 A  
HETATM    7  C   UNL     1     -10.389  17.766  67.481  1.00  0.00    -0.371 A  
ENDROOT
BRANCH   7   8
HETATM    8  C   UNL     1     -10.463  16.297  67.800  1.00  0.00    -0.295 C  
HETATM    9  O   UNL     1     -10.308  15.973  68.974  1.00  0.00    -0.215 OA 
HETATM   10  N   UNL     1     -10.636  15.421  66.743  1.00  0.00    -0.305 N  
HETATM   11  H   UNL     1     -10.818  15.839  65.831  1.00  0.00     0.000 HD 
BRANCH  10  12
HETATM   12  C   UNL     1     -10.587  14.004  66.790  1.00  0.00    -0.277 A  
HETATM   13  C   UNL     1     -11.272  13.217  67.720  1.00  0.00    -0.308 A  
HETATM   14  C   UNL     1     -11.144  11.804  67.754  1.00  0.00    -0.302 A  
HETATM   15  C   UNL     1     -11.869  11.064  68.848  1.00  0.00    -0.378 C  
HETATM   16  C   UNL     1     -10.318  11.154  66.809  1.00  0.00    -0.284 A  
HETATM   17  C   UNL     1      -9.598  11.961  65.912  1.00  0.00    -0.248 A  
HETATM   18  C   UNL     1      -9.752  13.356  65.880  1.00  0.00    -0.197 A  
BRANCH  16  19
HETATM   19  C   UNL     1     -10.166   9.641  66.792  1.00  0.00    -0.239 C  
HETATM   20  N   UNL     1      -9.333   8.990  67.732  1.00  0.00    -0.139 N  
HETATM   21  O   UNL     1     -10.821   9.004  65.969  1.00  0.00     0.613 OA 
HETATM   22  C   UNL     1      -9.165   7.525  67.668  1.00  0.00    -0.127 C  
HETATM   23  C   UNL     1      -9.725   6.743  68.862  1.00  0.00    -0.137 C  
HETATM   24  C   UNL     1      -9.198   7.146  70.241  1.00  0.00    -0.156 C  
HETATM   25  C   UNL     1      -9.443   8.624  70.555  1.00  0.00    -0.178 C  
HETATM   26  C   UNL     1      -8.371   9.482  69.915  1.00  0.00    -0.180 A  
HETATM   27  O   UNL     1      -9.485   8.839  71.966  1.00  0.00    -0.281 OA 
HETATM   28  H   UNL     1      -9.637   9.756  72.160  1.00  0.00     0.000 HD 
HETATM   29  C   UNL     1      -8.353   9.645  68.514  1.00  0.00    -0.117 A  
HETATM   30  C   UNL     1      -7.375  10.437  67.898  1.00  0.00    -0.086 A  
HETATM   31  C   UNL     1      -6.410  11.072  68.674  1.00  0.00    -0.047 A  
HETATM   32  C   UNL     1      -6.430  10.928  70.058  1.00  0.00    -0.151 A  
HETATM   33 CL   UNL     1      -5.240  11.719  71.016  1.00  0.00    -0.132 Cl 
HETATM   34  C   UNL     1      -7.405  10.144  70.680  1.00  0.00     0.247 A  
ENDBRANCH  16  19
ENDBRANCH  10  12
ENDBRANCH   7   8
TORSDOF 3
ENDMDL
MODEL       78
REMARK 921   NORMALIZED FREE ENERGY PREDICTED BY IDOCK:   -4.11 KCAL/MOL
REMARK 922        TOTAL FREE ENERGY PREDICTED BY IDOCK:   -5.93 KCAL/MOL
REMARK 923 INTER-LIGAND FREE ENERGY PREDICTED BY IDOCK:   -5.17 KCAL/MOL
REMARK 924 INTRA-LIGAND FREE ENERGY PREDICTED BY IDOCK:   -0.75 KCAL/MOL
REMARK 927      BINDING AFFINITY PREDICTED BY RF-SCORE:    0.00 PKD
ROOT
HETATM    1  C   UNL     1      -7.205  13.872  68.870  1.00  0.00    -0.103 C  
HETATM    2  C   UNL     1      -8.146  13.844  67.702  1.00  0.00    -0.183 A  
HETATM    3  C   UNL     1      -8.261  15.027  66.936  1.00  0.00    -0.206 A  
HETATM    4  C   UNL     1      -9.077  15.092  65.806  1.00  0.00     0.067 A  
HETATM    5  C   UNL     1      -9.809  13.980  65.418  1.00  0.00    -0.216 A  
HETATM    6  C   UNL     1      -9.715  12.803  66.162  1.00  0.00    -0.246 A  
HETATM    7  C   UNL     1      -8.894  12.712  67.305  1.00  0.00    -0.196 A  
ENDROOT
BRANCH   7   8
HETATM    8  C   UNL     1      -8.854  11.348  67.939  1.00  0.00    -0.149 C  
HETATM    9  O   UNL     1      -8.606  10.399  67.201  1.00  0.00    -0.129 OA 
HETATM   10  N   UNL     1      -9.161  11.259  69.285  1.00  0.00    -0.388 N  
HETATM   11  H   UNL     1      -9.281  12.140  69.784  1.00  0.00     0.000 HD 
BRANCH  10  12
HETATM   12  C   UNL     1      -9.329  10.074  70.046  1.00  0.00    -0.119 A  
HETATM   13  C   UNL     1     -10.537   9.657  70.612  1.00  0.00    -0.386 A  
HETATM   14  C   UNL     1     -10.634   8.489  71.410  1.00  0.00    -0.312 A  
HETATM   15  C   UNL     1     -11.971   8.177  72.031  1.00  0.00    -0.390 C  
HETATM   16  C   UNL     1      -9.486   7.697  71.634  1.00  0.00    -0.174 A  
HETATM   17  C   UNL     1      -8.268   8.154  71.101  1.00  0.00    -0.123 A  
HETATM   18  C   UNL     1      -8.195   9.302  70.297  1.00  0.00    -0.187 A  
BRANCH  16  19
HETATM   19  C   UNL     1      -9.545   6.425  72.465  1.00  0.00    -0.152 C  
HETATM   20  N   UNL     1      -9.204   5.175  71.895  1.00  0.00    -0.137 N  
HETATM   21  O   UNL     1      -9.852   6.524  73.652  1.00  0.00    -0.174 OA 
HETATM   22  C   UNL     1      -9.312   3.948  72.708  1.00  0.00    -0.112 C  
HETATM   23  C   UNL     1      -7.987   3.238  73.011  1.00  0.00    -0.069 C  
HETATM   24  C   UNL     1      -7.140   2.842  71.799  1.00  0.00    -0.035 C  
HETATM   25  C   UNL     1      -6.782   4.040  70.916  1.00  0.00    -0.032 C  
HETATM   26  C   UNL     1      -7.929   4.368  69.983  1.00  0.00    -0.059 A  
HETATM   27  O   UNL     1      -5.589   3.782  70.176  1.00  0.00    -0.015 OA 
HETATM   28  H   UNL     1      -5.367   4.525  69.628  1.00  0.00     0.000 HD 
HETATM   29  C   UNL     1      -9.111   4.935  70.504  1.00  0.00    -0.130 A  
HETATM   30  C   UNL     1     -10.186   5.251  69.662  1.00  0.00    -0.348 A  
HETATM   31  C   UNL     1     -10.088   5.004  68.295  1.00  0.00    -0.170 A  
HETATM   32  C   UNL     1      -8.921   4.458  67.772  1.00  0.00    -0.118 A  
HETATM   33 CL   UNL     1      -8.800   4.159  66.083  1.00  0.00    -0.115 Cl 
HETATM   34  C   UNL     1      -7.843   4.145  68.605  1.00  0.00    -0.072 A  
ENDBRANCH  16  19
ENDBRANCH  10  12
ENDBRANCH   7   8
TORSDOF 3
ENDMDL
MODEL       79
REMARK 921   NORMALIZED FREE ENERGY PREDICTED BY IDOCK:   -4.10 KCAL/MOL
REMARK 922        TOTAL FREE ENERGY PREDICTED BY IDOCK:   -5.91 KCAL/MOL
REMARK 923 INTER-LIGAND FREE ENERGY PREDICTED BY IDOCK:   -5.29 KCAL/MOL
REMARK 924 INTRA-LIGAND FREE ENERGY PREDICTED BY IDOCK:   -0.62 KCAL/MOL
REMARK 927      BINDING AFFINITY PREDICTED BY RF-SCORE:    0.00 PKD
ROOT
HETATM    1  C   UNL     1     -10.598   7.225  73.254  1.00  0.00    -0.428 C  
HETATM    2  C   UNL     1     -10.166   6.223  72.224  1.00  0.00    -0.209 A  
HETATM    3  C   UNL     1     -10.692   4.916  72.335  1.00  0.00    -0.240 A  
HETATM    4  C   UNL     1     -10.387   3.921  71.404  1.00  0.00     0.125 A  
HETATM    5  C   UNL     1      -9.537   4.205  70.346  1.00  0.00    -0.266 A  
HETATM    6  C   UNL     1      -9.002   5.487  70.219  1.00  0.00    -0.155 A  
HETATM    7  C   UNL     1      -9.300   6.509  71.145  1.00  0.00    -0.167 A  
ENDROOT
BRANCH   7   8
HETATM    8  C   UNL     1      -8.699   7.848  70.812  1.00  0.00    -0.134 C  
HETATM    9  O   UNL     1      -8.180   8.469  71.736  1.00  0.00    -0.143 OA 
HETATM   10  N   UNL     1      -8.832   8.304  69.513  1.00  0.00    -0.148 N  
HETATM   11  H   UNL     1      -9.227   7.648  68.839  1.00  0.00     0.000 HD 
BRANCH  10  12
HETATM   12  C   UNL     1      -8.477   9.584  69.016  1.00  0.00    -0.128 A  
HETATM   13  C   UNL     1      -7.355   9.846  68.225  1.00  0.00    -0.079 A  
HETATM   14  C   UNL     1      -7.019  11.157  67.801  1.00  0.00    -0.078 A  
HETATM   15  C   UNL     1      -5.745  11.332  67.015  1.00  0.00    -0.090 C  
HETATM   16  C   UNL     1      -7.848  12.243  68.162  1.00  0.00    -0.148 A  
HETATM   17  C   UNL     1      -8.945  11.973  68.999  1.00  0.00     0.342 A  
HETATM   18  C   UNL     1      -9.273  10.666  69.392  1.00  0.00    -0.073 A  
BRANCH  16  19
HETATM   19  C   UNL     1      -7.542  13.664  67.713  1.00  0.00    -0.164 C  
HETATM   20  N   UNL     1      -8.487  14.403  66.964  1.00  0.00    -0.206 N  
HETATM   21  O   UNL     1      -6.471  14.160  68.059  1.00  0.00    -0.117 OA 
HETATM   22  C   UNL     1      -8.151  15.763  66.501  1.00  0.00    -0.196 C  
HETATM   23  C   UNL     1      -8.984  16.895  67.115  1.00  0.00    -0.219 C  
HETATM   24  C   UNL     1     -10.501  16.781  66.952  1.00  0.00    -0.269 C  
HETATM   25  C   UNL     1     -11.060  15.483  67.540  1.00  0.00    -0.305 C  
HETATM   26  C   UNL     1     -10.888  14.344  66.557  1.00  0.00    -0.310 A  
HETATM   27  O   UNL     1     -12.434  15.640  67.894  1.00  0.00     0.024 OA 
HETATM   28  H   UNL     1     -12.780  14.835  68.259  1.00  0.00     0.000 HD 
HETATM   29  C   UNL     1      -9.599  13.831  66.302  1.00  0.00    -0.249 A  
HETATM   30  C   UNL     1      -9.413  12.774  65.400  1.00  0.00     0.158 A  
HETATM   31  C   UNL     1     -10.512  12.222  64.747  1.00  0.00    -0.328 A  
HETATM   32  C   UNL     1     -11.788  12.713  65.003  1.00  0.00    -0.395 A  
HETATM   33 CL   UNL     1     -13.145  12.026  64.200  1.00  0.00    -0.268 Cl 
HETATM   34  C   UNL     1     -11.981  13.763  65.905  1.00  0.00    -0.433 A  
ENDBRANCH  16  19
ENDBRANCH  10  12
ENDBRANCH   7   8
TORSDOF 3
ENDMDL
MODEL       80
REMARK 921   NORMALIZED FREE ENERGY PREDICTED BY IDOCK:   -3.99 KCAL/MOL
REMARK 922        TOTAL FREE ENERGY PREDICTED BY IDOCK:   -5.79 KCAL/MOL
REMARK 923 INTER-LIGAND FREE ENERGY PREDICTED BY IDOCK:   -6.51 KCAL/MOL
REMARK 924 INTRA-LIGAND FREE ENERGY PREDICTED BY IDOCK:    0.72 KCAL/MOL
REMARK 927      BINDING AFFINITY PREDICTED BY RF-SCORE:    0.00 PKD
ROOT
HETATM    1  C   UNL     1     -13.565   8.121  72.076  1.00  0.00    -0.331 C  
HETATM    2  C   UNL     1     -12.311   7.315  71.904  1.00  0.00    -0.346 A  
HETATM    3  C   UNL     1     -12.379   5.940  72.226  1.00  0.00     0.045 A  
HETATM    4  C   UNL     1     -11.281   5.094  72.062  1.00  0.00    -0.013 A  
HETATM    5  C   UNL     1     -10.084   5.603  71.582  1.00  0.00    -0.245 A  
HETATM    6  C   UNL     1      -9.992   6.958  71.263  1.00  0.00    -0.189 A  
HETATM    7  C   UNL     1     -11.089   7.831  71.416  1.00  0.00    -0.268 A  
ENDROOT
BRANCH   7   8
HETATM    8  C   UNL     1     -10.836   9.239  70.952  1.00  0.00    -0.296 C  
HETATM    9  O   UNL     1      -9.666   9.565  70.773  1.00  0.00    -0.269 OA 
HETATM   10  N   UNL     1     -11.930  10.077  70.822  1.00  0.00    -0.313 N  
HETATM   11  H   UNL     1     -12.848   9.648  70.939  1.00  0.00     0.000 HD 
BRANCH  10  12
HETATM   12  C   UNL     1     -11.913  11.468  70.545  1.00  0.00    -0.344 A  
HETATM   13  C   UNL     1     -12.405  12.455  71.404  1.00  0.00    -0.050 A  
HETATM   14  C   UNL     1     -12.411  13.828  71.051  1.00  0.00    -0.458 A  
HETATM   15  C   UNL     1     -13.035  14.796  72.023  1.00  0.00    -0.407 C  
HETATM   16  C   UNL     1     -11.887  14.232  69.802  1.00  0.00    -0.380 A  
HETATM   17  C   UNL     1     -11.442  13.226  68.928  1.00  0.00    -0.342 A  
HETATM   18  C   UNL     1     -11.425  11.873  69.303  1.00  0.00    -0.366 A  
BRANCH  16  19
HETATM   19  C   UNL     1     -11.852  15.695  69.388  1.00  0.00    -0.375 C  
HETATM   20  N   UNL     1     -10.800  16.191  68.582  1.00  0.00    -0.292 N  
HETATM   21  O   UNL     1     -12.786  16.416  69.736  1.00  0.00     0.390 OA 
HETATM   22  C   UNL     1     -10.763  17.624  68.230  1.00  0.00    -0.280 C  
HETATM   23  C   UNL     1     -10.946  17.943  66.741  1.00  0.00     0.149 C  
HETATM   24  C   UNL     1      -9.963  17.269  65.781  1.00  0.00    -0.105 C  
HETATM   25  C   UNL     1      -9.989  15.743  65.889  1.00  0.00    -0.352 C  
HETATM   26  C   UNL     1      -9.136  15.284  67.053  1.00  0.00    -0.245 A  
HETATM   27  O   UNL     1      -9.544  15.144  64.671  1.00  0.00    -0.218 OA 
HETATM   28  H   UNL     1      -9.561  14.196  64.739  1.00  0.00     0.000 HD 
HETATM   29  C   UNL     1      -9.574  15.518  68.373  1.00  0.00    -0.199 A  
HETATM   30  C   UNL     1      -8.805  15.100  69.468  1.00  0.00    -0.125 A  
HETATM   31  C   UNL     1      -7.596  14.445  69.253  1.00  0.00    -0.029 A  
HETATM   32  C   UNL     1      -7.164  14.197  67.954  1.00  0.00    -0.158 A  
HETATM   33 CL   UNL     1      -5.672  13.382  67.690  1.00  0.00    -0.110 Cl 
HETATM   34  C   UNL     1      -7.927  14.607  66.858  1.00  0.00     0.018 A  
ENDBRANCH  16  19
ENDBRANCH  10  12
ENDBRANCH   7   8
TORSDOF 3
ENDMDL
MODEL       81
REMARK 921   NORMALIZED FREE ENERGY PREDICTED BY IDOCK:   -3.96 KCAL/MOL
REMARK 922        TOTAL FREE ENERGY PREDICTED BY IDOCK:   -5.75 KCAL/MOL
REMARK 923 INTER-LIGAND FREE ENERGY PREDICTED BY IDOCK:   -4.91 KCAL/MOL
REMARK 924 INTRA-LIGAND FREE ENERGY PREDICTED BY IDOCK:   -0.84 KCAL/MOL
REMARK 927      BINDING AFFINITY PREDICTED BY RF-SCORE:    0.00 PKD
ROOT
HETATM    1  C   UNL     1      -9.868  16.113  67.096  1.00  0.00    -0.241 C  
HETATM    2  C   UNL     1      -8.669  16.444  67.934  1.00  0.00    -0.179 A  
HETATM    3  C   UNL     1      -8.413  17.812  68.183  1.00  0.00    -0.262 A  
HETATM    4  C   UNL     1      -7.348  18.224  68.985  1.00  0.00    -0.216 A  
HETATM    5  C   UNL     1      -6.504  17.280  69.550  1.00  0.00    -0.207 A  
HETATM    6  C   UNL     1      -6.735  15.924  69.315  1.00  0.00    -0.176 A  
HETATM    7  C   UNL     1      -7.807  15.484  68.511  1.00  0.00    -0.135 A  
ENDROOT
BRANCH   7   8
HETATM    8  C   UNL     1      -7.952  13.989  68.427  1.00  0.00    -0.143 C  
HETATM    9  O   UNL     1      -9.083  13.530  68.566  1.00  0.00    -0.174 OA 
HETATM   10  N   UNL     1      -6.798  13.242  68.265  1.00  0.00    -0.092 N  
HETATM   11  H   UNL     1      -5.939  13.765  68.096  1.00  0.00     0.000 HD 
BRANCH  10  12
HETATM   12  C   UNL     1      -6.681  11.829  68.308  1.00  0.00    -0.065 A  
HETATM   13  C   UNL     1      -6.040  11.116  69.324  1.00  0.00    -0.056 A  
HETATM   14  C   UNL     1      -5.906   9.705  69.288  1.00  0.00    -0.034 A  
HETATM   15  C   UNL     1      -5.130   9.049  70.400  1.00  0.00    -0.024 C  
HETATM   16  C   UNL     1      -6.453   8.978  68.207  1.00  0.00    -0.055 A  
HETATM   17  C   UNL     1      -7.051   9.711  67.167  1.00  0.00    -0.086 A  
HETATM   18  C   UNL     1      -7.192  11.106  67.230  1.00  0.00    -0.113 A  
BRANCH  16  19
HETATM   19  C   UNL     1      -6.353   7.462  68.134  1.00  0.00    -0.048 C  
HETATM   20  N   UNL     1      -7.468   6.650  68.454  1.00  0.00    -0.093 N  
HETATM   21  O   UNL     1      -5.294   6.970  67.748  1.00  0.00    -0.014 OA 
HETATM   22  C   UNL     1      -7.335   5.181  68.419  1.00  0.00    -0.071 C  
HETATM   23  C   UNL     1      -8.168   4.467  67.348  1.00  0.00    -0.100 C  
HETATM   24  C   UNL     1      -9.675   4.732  67.376  1.00  0.00    -0.209 C  
HETATM   25  C   UNL     1     -10.013   6.219  67.248  1.00  0.00    -0.146 C  
HETATM   26  C   UNL     1      -9.886   6.905  68.593  1.00  0.00    -0.145 A  
HETATM   27  O   UNL     1     -11.325   6.394  66.715  1.00  0.00    -0.704 OA 
HETATM   28  H   UNL     1     -11.535   7.317  66.635  1.00  0.00     0.000 HD 
HETATM   29  C   UNL     1      -8.608   7.107  69.155  1.00  0.00    -0.133 A  
HETATM   30  C   UNL     1      -8.463   7.742  70.396  1.00  0.00    -0.132 A  
HETATM   31  C   UNL     1      -9.592   8.181  71.083  1.00  0.00    -0.196 A  
HETATM   32  C   UNL     1     -10.855   7.999  70.528  1.00  0.00    -0.241 A  
HETATM   33 CL   UNL     1     -12.247   8.548  71.376  1.00  0.00    -0.332 Cl 
HETATM   34  C   UNL     1     -11.006   7.370  69.289  1.00  0.00    -0.091 A  
ENDBRANCH  16  19
ENDBRANCH  10  12
ENDBRANCH   7   8
TORSDOF 3
ENDMDL
MODEL       82
REMARK 921   NORMALIZED FREE ENERGY PREDICTED BY IDOCK:   -3.95 KCAL/MOL
REMARK 922        TOTAL FREE ENERGY PREDICTED BY IDOCK:   -5.74 KCAL/MOL
REMARK 923 INTER-LIGAND FREE ENERGY PREDICTED BY IDOCK:   -5.63 KCAL/MOL
REMARK 924 INTRA-LIGAND FREE ENERGY PREDICTED BY IDOCK:   -0.11 KCAL/MOL
REMARK 927      BINDING AFFINITY PREDICTED BY RF-SCORE:    0.00 PKD
ROOT
HETATM    1  C   UNL     1     -10.930   6.064  67.990  1.00  0.00    -0.340 C  
HETATM    2  C   UNL     1     -10.291   5.762  69.313  1.00  0.00    -0.326 A  
HETATM    3  C   UNL     1     -10.249   4.408  69.715  1.00  0.00     0.070 A  
HETATM    4  C   UNL     1      -9.639   4.015  70.909  1.00  0.00    -0.253 A  
HETATM    5  C   UNL     1      -9.067   4.970  71.736  1.00  0.00    -0.160 A  
HETATM    6  C   UNL     1      -9.101   6.313  71.362  1.00  0.00    -0.143 A  
HETATM    7  C   UNL     1      -9.707   6.732  70.159  1.00  0.00    -0.175 A  
ENDROOT
BRANCH   7   8
HETATM    8  C   UNL     1      -9.585   8.205  69.878  1.00  0.00    -0.175 C  
HETATM    9  O   UNL     1     -10.584   8.893  70.070  1.00  0.00    -0.210 OA 
HETATM   10  N   UNL     1      -8.383   8.661  69.367  1.00  0.00    -0.113 N  
HETATM   11  H   UNL     1      -7.620   7.985  69.325  1.00  0.00     0.000 HD 
BRANCH  10  12
HETATM   12  C   UNL     1      -8.095   9.968  68.896  1.00  0.00    -0.111 A  
HETATM   13  C   UNL     1      -6.972  10.309  68.136  1.00  0.00    -0.074 A  
HETATM   14  C   UNL     1      -6.708  11.644  67.737  1.00  0.00    -0.072 A  
HETATM   15  C   UNL     1      -5.429  11.906  66.985  1.00  0.00    -0.119 C  
HETATM   16  C   UNL     1      -7.610  12.672  68.092  1.00  0.00    -0.132 A  
HETATM   17  C   UNL     1      -8.708  12.324  68.897  1.00  0.00     0.264 A  
HETATM   18  C   UNL     1      -8.964  10.994  69.266  1.00  0.00     0.083 A  
BRANCH  16  19
HETATM   19  C   UNL     1      -7.380  14.115  67.669  1.00  0.00    -0.176 C  
HETATM   20  N   UNL     1      -8.411  14.855  67.043  1.00  0.00    -0.219 N  
HETATM   21  O   UNL     1      -6.291  14.626  67.927  1.00  0.00    -0.135 OA 
HETATM   22  C   UNL     1      -8.151  16.239  66.601  1.00  0.00    -0.288 C  
HETATM   23  C   UNL     1      -8.944  17.327  67.334  1.00  0.00    -0.224 C  
HETATM   24  C   UNL     1     -10.468  17.180  67.316  1.00  0.00    -0.313 C  
HETATM   25  C   UNL     1     -10.937  15.849  67.906  1.00  0.00    -0.327 C  
HETATM   26  C   UNL     1     -10.838  14.749  66.869  1.00  0.00    -0.316 A  
HETATM   27  O   UNL     1     -12.273  15.958  68.398  1.00  0.00    -0.382 OA 
HETATM   28  H   UNL     1     -12.564  15.132  68.764  1.00  0.00     0.000 HD 
HETATM   29  C   UNL     1      -9.569  14.279  66.472  1.00  0.00    -0.297 A  
HETATM   30  C   UNL     1      -9.449  13.259  65.516  1.00  0.00     0.162 A  
HETATM   31  C   UNL     1     -10.594  12.703  64.953  1.00  0.00    -0.332 A  
HETATM   32  C   UNL     1     -11.850  13.152  65.351  1.00  0.00    -0.372 A  
HETATM   33 CL   UNL     1     -13.264  12.459  64.658  1.00  0.00     0.018 Cl 
HETATM   34  C   UNL     1     -11.977  14.164  66.306  1.00  0.00    -0.448 A  
ENDBRANCH  16  19
ENDBRANCH  10  12
ENDBRANCH   7   8
TORSDOF 3
ENDMDL
MODEL       83
REMARK 921   NORMALIZED FREE ENERGY PREDICTED BY IDOCK:   -3.54 KCAL/MOL
REMARK 922        TOTAL FREE ENERGY PREDICTED BY IDOCK:   -5.25 KCAL/MOL
REMARK 923 INTER-LIGAND FREE ENERGY PREDICTED BY IDOCK:   -4.26 KCAL/MOL
REMARK 924 INTRA-LIGAND FREE ENERGY PREDICTED BY IDOCK:   -0.99 KCAL/MOL
REMARK 927      BINDING AFFINITY PREDICTED BY RF-SCORE:    0.00 PKD
ROOT
HETATM    1  C   UNL     1      -8.908   3.084  68.352  1.00  0.00    -0.167 C  
HETATM    2  C   UNL     1      -9.194   3.070  69.824  1.00  0.00    -0.219 A  
HETATM    3  C   UNL     1      -9.876   1.944  70.339  1.00  0.00     0.068 A  
HETATM    4  C   UNL     1     -10.153   1.813  71.701  1.00  0.00    -0.160 A  
HETATM    5  C   UNL     1      -9.766   2.812  72.581  1.00  0.00    -0.190 A  
HETATM    6  C   UNL     1      -9.096   3.936  72.095  1.00  0.00    -0.156 A  
HETATM    7  C   UNL     1      -8.802   4.086  70.724  1.00  0.00    -0.134 A  
ENDROOT
BRANCH   7   8
HETATM    8  C   UNL     1      -8.008   5.320  70.388  1.00  0.00    -0.091 C  
HETATM    9  O   UNL     1      -6.827   5.331  70.725  1.00  0.00    -0.044 OA 
HETATM   10  N   UNL     1      -8.681   6.369  69.787  1.00  0.00    -0.137 N  
HETATM   11  H   UNL     1      -9.645   6.190  69.506  1.00  0.00     0.000 HD 
BRANCH  10  12
HETATM   12  C   UNL     1      -8.175   7.667  69.519  1.00  0.00    -0.129 A  
HETATM   13  C   UNL     1      -7.112   7.942  68.654  1.00  0.00    -0.076 A  
HETATM   14  C   UNL     1      -6.613   9.256  68.465  1.00  0.00    -0.054 A  
HETATM   15  C   UNL     1      -5.414   9.424  67.567  1.00  0.00    -0.037 C  
HETATM   16  C   UNL     1      -7.212  10.337  69.149  1.00  0.00    -0.083 A  
HETATM   17  C   UNL     1      -8.247  10.041  70.052  1.00  0.00    -0.139 A  
HETATM   18  C   UNL     1      -8.741   8.737  70.212  1.00  0.00    -0.170 A  
BRANCH  16  19
HETATM   19  C   UNL     1      -6.726  11.766  68.962  1.00  0.00    -0.102 C  
HETATM   20  N   UNL     1      -7.434  12.665  68.130  1.00  0.00    -0.111 N  
HETATM   21  O   UNL     1      -5.730  12.124  69.589  1.00  0.00    -0.080 OA 
HETATM   22  C   UNL     1      -6.920  14.034  67.929  1.00  0.00    -0.161 C  
HETATM   23  C   UNL     1      -7.796  15.159  68.491  1.00  0.00    -0.135 C  
HETATM   24  C   UNL     1      -9.243  15.200  67.996  1.00  0.00    -0.185 C  
HETATM   25  C   UNL     1      -9.998  13.899  68.280  1.00  0.00    -0.238 C  
HETATM   26  C   UNL     1      -9.683  12.866  67.217  1.00  0.00    -0.220 A  
HETATM   27  O   UNL     1     -11.404  14.137  68.350  1.00  0.00    -0.258 OA 
HETATM   28  H   UNL     1     -11.872  13.329  68.526  1.00  0.00     0.000 HD 
HETATM   29  C   UNL     1      -8.405  12.272  67.179  1.00  0.00    -0.183 A  
HETATM   30  C   UNL     1      -8.089  11.311  66.208  1.00  0.00    -0.108 A  
HETATM   31  C   UNL     1      -9.047  10.936  65.271  1.00  0.00    -0.217 A  
HETATM   32  C   UNL     1     -10.316  11.506  65.311  1.00  0.00    -0.272 A  
HETATM   33 CL   UNL     1     -11.500  11.036  64.156  1.00  0.00     0.203 Cl 
HETATM   34  C   UNL     1     -10.639  12.461  66.279  1.00  0.00    -0.277 A  
ENDBRANCH  16  19
ENDBRANCH  10  12
ENDBRANCH   7   8
TORSDOF 3
ENDMDL
MODEL       84
REMARK 921   NORMALIZED FREE ENERGY PREDICTED BY IDOCK:   -3.53 KCAL/MOL
REMARK 922        TOTAL FREE ENERGY PREDICTED BY IDOCK:   -5.24 KCAL/MOL
REMARK 923 INTER-LIGAND FREE ENERGY PREDICTED BY IDOCK:   -4.77 KCAL/MOL
REMARK 924 INTRA-LIGAND FREE ENERGY PREDICTED BY IDOCK:   -0.48 KCAL/MOL
REMARK 927      BINDING AFFINITY PREDICTED BY RF-SCORE:    0.00 PKD
ROOT
HETATM    1  C   UNL     1     -10.112   7.631  70.542  1.00  0.00    -0.189 C  
HETATM    2  C   UNL     1      -9.381   6.894  69.459  1.00  0.00    -0.147 A  
HETATM    3  C   UNL     1      -9.299   5.488  69.577  1.00  0.00    -0.167 A  
HETATM    4  C   UNL     1      -8.678   4.705  68.602  1.00  0.00    -0.115 A  
HETATM    5  C   UNL     1      -8.113   5.310  67.490  1.00  0.00    -0.100 A  
HETATM    6  C   UNL     1      -8.178   6.697  67.354  1.00  0.00    -0.121 A  
HETATM    7  C   UNL     1      -8.804   7.507  68.324  1.00  0.00    -0.125 A  
ENDROOT
BRANCH   7   8
HETATM    8  C   UNL     1      -8.849   8.971  67.980  1.00  0.00    -0.129 C  
HETATM    9  O   UNL     1      -7.825   9.621  68.177  1.00  0.00    -0.086 OA 
HETATM   10  N   UNL     1     -10.052   9.487  67.531  1.00  0.00    -0.190 N  
HETATM   11  H   UNL     1     -10.796   8.813  67.352  1.00  0.00     0.000 HD 
BRANCH  10  12
HETATM   12  C   UNL     1     -10.361  10.850  67.291  1.00  0.00    -0.216 A  
HETATM   13  C   UNL     1     -10.249  11.483  66.050  1.00  0.00    -0.283 A  
HETATM   14  C   UNL     1     -10.522  12.865  65.880  1.00  0.00    -0.294 A  
HETATM   15  C   UNL     1     -10.294  13.458  64.514  1.00  0.00    -0.394 C  
HETATM   16  C   UNL     1     -10.943  13.636  66.986  1.00  0.00    -0.298 A  
HETATM   17  C   UNL     1     -11.004  12.998  68.237  1.00  0.00    -0.285 A  
HETATM   18  C   UNL     1     -10.750  11.626  68.383  1.00  0.00    -0.248 A  
BRANCH  16  19
HETATM   19  C   UNL     1     -11.268  15.116  66.849  1.00  0.00    -0.292 C  
HETATM   20  N   UNL     1     -10.337  16.099  67.260  1.00  0.00    -0.282 N  
HETATM   21  O   UNL     1     -12.340  15.426  66.332  1.00  0.00     0.547 OA 
HETATM   22  C   UNL     1     -10.691  17.528  67.159  1.00  0.00    -0.191 C  
HETATM   23  C   UNL     1      -9.863  18.345  66.161  1.00  0.00    -0.279 C  
HETATM   24  C   UNL     1      -8.346  18.323  66.364  1.00  0.00    -0.267 C  
HETATM   25  C   UNL     1      -7.769  16.906  66.327  1.00  0.00    -0.297 C  
HETATM   26  C   UNL     1      -7.940  16.233  67.673  1.00  0.00    -0.160 A  
HETATM   27  O   UNL     1      -6.393  16.932  65.948  1.00  0.00     0.018 OA 
HETATM   28  H   UNL     1      -6.035  16.052  65.925  1.00  0.00     0.000 HD 
HETATM   29  C   UNL     1      -9.227  15.842  68.098  1.00  0.00    -0.189 A  
HETATM   30  C   UNL     1      -9.412  15.214  69.338  1.00  0.00    -0.185 A  
HETATM   31  C   UNL     1      -8.315  14.971  70.160  1.00  0.00     0.603 A  
HETATM   32  C   UNL     1      -7.041  15.341  69.741  1.00  0.00    -0.154 A  
HETATM   33 CL   UNL     1      -5.686  15.036  70.756  1.00  0.00    -0.125 Cl 
HETATM   34  C   UNL     1      -6.848  15.964  68.505  1.00  0.00    -0.124 A  
ENDBRANCH  16  19
ENDBRANCH  10  12
ENDBRANCH   7   8
TORSDOF 3
ENDMDL
MODEL       85
REMARK 921   NORMALIZED FREE ENERGY PREDICTED BY IDOCK:   -3.50 KCAL/MOL
REMARK 922        TOTAL FREE ENERGY PREDICTED BY IDOCK:   -5.21 KCAL/MOL
REMARK 923 INTER-LIGAND FREE ENERGY PREDICTED BY IDOCK:   -4.92 KCAL/MOL
REMARK 924 INTRA-LIGAND FREE ENERGY PREDICTED BY IDOCK:   -0.29 KCAL/MOL
REMARK 927      BINDING AFFINITY PREDICTED BY RF-SCORE:    0.00 PKD
ROOT
HETATM    1  C   UNL     1     -12.368  13.862  70.676  1.00  0.00    -0.451 C  
HETATM    2  C   UNL     1     -11.883  13.561  69.289  1.00  0.00    -0.392 A  
HETATM    3  C   UNL     1     -11.844  14.635  68.371  1.00  0.00    -0.330 A  
HETATM    4  C   UNL     1     -11.370  14.471  67.068  1.00  0.00    -0.359 A  
HETATM    5  C   UNL     1     -10.934  13.224  66.647  1.00  0.00    -0.297 A  
HETATM    6  C   UNL     1     -10.968  12.147  67.534  1.00  0.00    -0.304 A  
HETATM    7  C   UNL     1     -11.438  12.292  68.855  1.00  0.00    -0.355 A  
ENDROOT
BRANCH   7   8
HETATM    8  C   UNL     1     -11.332  11.048  69.695  1.00  0.00    -0.292 C  
HETATM    9  O   UNL     1     -12.031  10.995  70.703  1.00  0.00    -0.331 OA 
HETATM   10  N   UNL     1     -10.414  10.089  69.306  1.00  0.00    -0.210 N  
HETATM   11  H   UNL     1      -9.953  10.239  68.408  1.00  0.00     0.000 HD 
BRANCH  10  12
HETATM   12  C   UNL     1     -10.044   8.920  70.018  1.00  0.00    -0.192 A  
HETATM   13  C   UNL     1     -10.947   8.002  70.561  1.00  0.00    -0.247 A  
HETATM   14  C   UNL     1     -10.520   6.876  71.312  1.00  0.00    -0.228 A  
HETATM   15  C   UNL     1     -11.584   5.995  71.913  1.00  0.00    -0.312 C  
HETATM   16  C   UNL     1      -9.140   6.649  71.509  1.00  0.00    -0.142 A  
HETATM   17  C   UNL     1      -8.245   7.607  71.001  1.00  0.00    -0.107 A  
HETATM   18  C   UNL     1      -8.684   8.703  70.243  1.00  0.00    -0.151 A  
BRANCH  16  19
HETATM   19  C   UNL     1      -8.633   5.445  72.288  1.00  0.00    -0.126 C  
HETATM   20  N   UNL     1      -8.229   4.269  71.614  1.00  0.00    -0.090 N  
HETATM   21  O   UNL     1      -8.545   5.545  73.511  1.00  0.00    -0.115 OA 
HETATM   22  C   UNL     1      -7.783   3.097  72.393  1.00  0.00    -0.058 C  
HETATM   23  C   UNL     1      -6.309   2.712  72.222  1.00  0.00    -0.014 C  
HETATM   24  C   UNL     1      -5.844   2.440  70.790  1.00  0.00    -0.017 C  
HETATM   25  C   UNL     1      -6.077   3.633  69.860  1.00  0.00    -0.023 C  
HETATM   26  C   UNL     1      -7.511   3.648  69.372  1.00  0.00    -0.052 A  
HETATM   27  O   UNL     1      -5.170   3.597  68.758  1.00  0.00    -0.010 OA 
HETATM   28  H   UNL     1      -5.314   4.338  68.181  1.00  0.00     0.000 HD 
HETATM   29  C   UNL     1      -8.549   3.974  70.268  1.00  0.00    -0.069 A  
HETATM   30  C   UNL     1      -9.884   3.998  69.841  1.00  0.00    -0.185 A  
HETATM   31  C   UNL     1     -10.191   3.699  68.517  1.00  0.00     0.799 A  
HETATM   32  C   UNL     1      -9.171   3.391  67.622  1.00  0.00    -0.190 A  
HETATM   33 CL   UNL     1      -9.551   3.027  65.985  1.00  0.00    -0.003 Cl 
HETATM   34  C   UNL     1      -7.837   3.369  68.040  1.00  0.00    -0.067 A  
ENDBRANCH  16  19
ENDBRANCH  10  12
ENDBRANCH   7   8
TORSDOF 3
ENDMDL
MODEL       86
REMARK 921   NORMALIZED FREE ENERGY PREDICTED BY IDOCK:   -3.47 KCAL/MOL
REMARK 922        TOTAL FREE ENERGY PREDICTED BY IDOCK:   -5.17 KCAL/MOL
REMARK 923 INTER-LIGAND FREE ENERGY PREDICTED BY IDOCK:   -4.27 KCAL/MOL
REMARK 924 INTRA-LIGAND FREE ENERGY PREDICTED BY IDOCK:   -0.91 KCAL/MOL
REMARK 927      BINDING AFFINITY PREDICTED BY RF-SCORE:    0.00 PKD
ROOT
HETATM    1  C   UNL     1      -6.476   3.683  72.761  1.00  0.00    -0.021 C  
HETATM    2  C   UNL     1      -7.482   3.316  71.710  1.00  0.00    -0.051 A  
HETATM    3  C   UNL     1      -7.788   1.945  71.560  1.00  0.00    -0.040 A  
HETATM    4  C   UNL     1      -8.740   1.502  70.641  1.00  0.00    -0.099 A  
HETATM    5  C   UNL     1      -9.403   2.419  69.839  1.00  0.00    -0.174 A  
HETATM    6  C   UNL     1      -9.113   3.778  69.966  1.00  0.00    -0.193 A  
HETATM    7  C   UNL     1      -8.158   4.249  70.891  1.00  0.00    -0.071 A  
ENDROOT
BRANCH   7   8
HETATM    8  C   UNL     1      -8.028   5.747  70.947  1.00  0.00    -0.111 C  
HETATM    9  O   UNL     1      -8.109   6.271  72.055  1.00  0.00    -0.108 OA 
HETATM   10  N   UNL     1      -7.893   6.423  69.748  1.00  0.00    -0.112 N  
HETATM   11  H   UNL     1      -7.773   5.849  68.913  1.00  0.00     0.000 HD 
BRANCH  10  12
HETATM   12  C   UNL     1      -7.903   7.828  69.553  1.00  0.00    -0.111 A  
HETATM   13  C   UNL     1      -9.028   8.643  69.708  1.00  0.00    -0.145 A  
HETATM   14  C   UNL     1      -8.992  10.037  69.447  1.00  0.00    -0.205 A  
HETATM   15  C   UNL     1     -10.282  10.804  69.574  1.00  0.00    -0.146 C  
HETATM   16  C   UNL     1      -7.782  10.641  69.037  1.00  0.00    -0.130 A  
HETATM   17  C   UNL     1      -6.672   9.802  68.837  1.00  0.00    -0.050 A  
HETATM   18  C   UNL     1      -6.721   8.428  69.120  1.00  0.00    -0.047 A  
BRANCH  16  19
HETATM   19  C   UNL     1      -7.689  12.135  68.766  1.00  0.00    -0.034 C  
HETATM   20  N   UNL     1      -8.148  12.675  67.542  1.00  0.00    -0.166 N  
HETATM   21  O   UNL     1      -7.245  12.856  69.657  1.00  0.00     0.256 OA 
HETATM   22  C   UNL     1      -8.007  14.121  67.283  1.00  0.00    -0.150 C  
HETATM   23  C   UNL     1      -9.320  14.904  67.170  1.00  0.00    -0.227 C  
HETATM   24  C   UNL     1     -10.316  14.405  66.120  1.00  0.00    -0.305 C  
HETATM   25  C   UNL     1     -10.716  12.944  66.337  1.00  0.00    -0.270 C  
HETATM   26  C   UNL     1      -9.667  12.020  65.754  1.00  0.00    -0.254 A  
HETATM   27  O   UNL     1     -11.995  12.681  65.761  1.00  0.00    -0.423 OA 
HETATM   28  H   UNL     1     -12.243  11.774  65.896  1.00  0.00     0.000 HD 
HETATM   29  C   UNL     1      -8.409  11.908  66.382  1.00  0.00     0.005 A  
HETATM   30  C   UNL     1      -7.422  11.057  65.865  1.00  0.00     0.019 A  
HETATM   31  C   UNL     1      -7.685  10.312  64.719  1.00  0.00    -0.119 A  
HETATM   32  C   UNL     1      -8.928  10.405  64.102  1.00  0.00    -0.229 A  
HETATM   33 CL   UNL     1      -9.252   9.479  62.689  1.00  0.00    -0.225 Cl 
HETATM   34  C   UNL     1      -9.918  11.248  64.614  1.00  0.00    -0.331 A  
ENDBRANCH  16  19
ENDBRANCH  10  12
ENDBRANCH   7   8
TORSDOF 3
ENDMDL
MODEL       87
REMARK 921   NORMALIZED FREE ENERGY PREDICTED BY IDOCK:   -3.41 KCAL/MOL
REMARK 922        TOTAL FREE ENERGY PREDICTED BY IDOCK:   -5.11 KCAL/MOL
REMARK 923 INTER-LIGAND FREE ENERGY PREDICTED BY IDOCK:   -5.96 KCAL/MOL
REMARK 924 INTRA-LIGAND FREE ENERGY PREDICTED BY IDOCK:    0.86 KCAL/MOL
REMARK 927      BINDING AFFINITY PREDICTED BY RF-SCORE:    0.00 PKD
ROOT
HETATM    1  C   UNL     1      -6.524  18.230  64.839  1.00  0.00     0.391 C  
HETATM    2  C   UNL     1      -6.500  19.226  65.961  1.00  0.00    -0.229 A  
HETATM    3  C   UNL     1      -5.538  20.258  65.888  1.00  0.00    -0.198 A  
HETATM    4  C   UNL     1      -5.459  21.258  66.859  1.00  0.00    -0.332 A  
HETATM    5  C   UNL     1      -6.335  21.245  67.934  1.00  0.00    -0.283 A  
HETATM    6  C   UNL     1      -7.291  20.233  68.030  1.00  0.00    -0.285 A  
HETATM    7  C   UNL     1      -7.391  19.215  67.058  1.00  0.00    -0.225 A  
ENDROOT
BRANCH   7   8
HETATM    8  C   UNL     1      -8.526  18.251  67.279  1.00  0.00    -0.250 C  
HETATM    9  O   UNL     1      -9.610  18.547  66.784  1.00  0.00    -0.297 OA 
HETATM   10  N   UNL     1      -8.280  17.144  68.071  1.00  0.00    -0.210 N  
HETATM   11  H   UNL     1      -7.313  16.995  68.357  1.00  0.00     0.000 HD 
BRANCH  10  12
HETATM   12  C   UNL     1      -9.228  16.193  68.528  1.00  0.00    -0.210 A  
HETATM   13  C   UNL     1      -9.746  16.150  69.826  1.00  0.00     0.012 A  
HETATM   14  C   UNL     1     -10.653  15.142  70.243  1.00  0.00    -0.195 A  
HETATM   15  C   UNL     1     -11.087  15.149  71.686  1.00  0.00    -0.193 C  
HETATM   16  C   UNL     1     -11.074  14.155  69.324  1.00  0.00    -0.286 A  
HETATM   17  C   UNL     1     -10.508  14.182  68.038  1.00  0.00    -0.240 A  
HETATM   18  C   UNL     1      -9.627  15.198  67.637  1.00  0.00    -0.206 A  
BRANCH  16  19
HETATM   19  C   UNL     1     -12.061  13.068  69.719  1.00  0.00    -0.258 C  
HETATM   20  N   UNL     1     -11.746  11.702  69.523  1.00  0.00    -0.316 N  
HETATM   21  O   UNL     1     -13.115  13.410  70.252  1.00  0.00     0.129 OA 
HETATM   22  C   UNL     1     -12.737  10.666  69.872  1.00  0.00    -0.015 C  
HETATM   23  C   UNL     1     -12.343   9.738  71.027  1.00  0.00    -0.422 C  
HETATM   24  C   UNL     1     -11.019   8.987  70.869  1.00  0.00    -0.332 C  
HETATM   25  C   UNL     1      -9.830   9.930  70.665  1.00  0.00     0.031 C  
HETATM   26  C   UNL     1      -9.740  10.355  69.213  1.00  0.00    -0.231 A  
HETATM   27  O   UNL     1      -8.616   9.307  71.083  1.00  0.00    -0.281 OA 
HETATM   28  H   UNL     1      -7.878   9.892  70.956  1.00  0.00     0.000 HD 
HETATM   29  C   UNL     1     -10.703  11.240  68.685  1.00  0.00    -0.205 A  
HETATM   30  C   UNL     1     -10.641  11.652  67.347  1.00  0.00    -0.257 A  
HETATM   31  C   UNL     1      -9.616  11.186  66.528  1.00  0.00    -0.222 A  
HETATM   32  C   UNL     1      -8.654  10.325  67.045  1.00  0.00    -0.129 A  
HETATM   33 CL   UNL     1      -7.385   9.754  66.033  1.00  0.00    -0.099 Cl 
HETATM   34  C   UNL     1      -8.708   9.913  68.380  1.00  0.00    -0.120 A  
ENDBRANCH  16  19
ENDBRANCH  10  12
ENDBRANCH   7   8
TORSDOF 3
ENDMDL
MODEL       88
REMARK 921   NORMALIZED FREE ENERGY PREDICTED BY IDOCK:   -3.32 KCAL/MOL
REMARK 922        TOTAL FREE ENERGY PREDICTED BY IDOCK:   -4.99 KCAL/MOL
REMARK 923 INTER-LIGAND FREE ENERGY PREDICTED BY IDOCK:   -4.19 KCAL/MOL
REMARK 924 INTRA-LIGAND FREE ENERGY PREDICTED BY IDOCK:   -0.81 KCAL/MOL
REMARK 927      BINDING AFFINITY PREDICTED BY RF-SCORE:    0.00 PKD
ROOT
HETATM    1  C   UNL     1     -10.665  18.375  68.170  1.00  0.00    -0.208 C  
HETATM    2  C   UNL     1      -9.383  18.952  67.646  1.00  0.00    -0.331 A  
HETATM    3  C   UNL     1      -9.255  20.359  67.657  1.00  0.00    -0.413 A  
HETATM    4  C   UNL     1      -8.087  20.994  67.230  1.00  0.00    -0.053 A  
HETATM    5  C   UNL     1      -7.021  20.236  66.770  1.00  0.00    -0.293 A  
HETATM    6  C   UNL     1      -7.125  18.845  66.746  1.00  0.00    -0.222 A  
HETATM    7  C   UNL     1      -8.294  18.183  67.176  1.00  0.00    -0.244 A  
ENDROOT
BRANCH   7   8
HETATM    8  C   UNL     1      -8.204  16.681  67.154  1.00  0.00    -0.179 C  
HETATM    9  O   UNL     1      -7.986  16.153  66.067  1.00  0.00    -0.098 OA 
HETATM   10  N   UNL     1      -8.436  16.008  68.340  1.00  0.00    -0.173 N  
HETATM   11  H   UNL     1      -8.537  16.583  69.177  1.00  0.00     0.000 HD 
BRANCH  10  12
HETATM   12  C   UNL     1      -8.548  14.606  68.520  1.00  0.00    -0.170 A  
HETATM   13  C   UNL     1      -9.703  13.951  68.955  1.00  0.00     0.095 A  
HETATM   14  C   UNL     1      -9.742  12.549  69.168  1.00  0.00     0.480 A  
HETATM   15  C   UNL     1     -11.018  11.961  69.712  1.00  0.00     0.092 C  
HETATM   16  C   UNL     1      -8.589  11.771  68.916  1.00  0.00     0.110 A  
HETATM   17  C   UNL     1      -7.421  12.448  68.526  1.00  0.00    -0.112 A  
HETATM   18  C   UNL     1      -7.407  13.834  68.301  1.00  0.00    -0.118 A  
BRANCH  16  19
HETATM   19  C   UNL     1      -8.588  10.262  69.110  1.00  0.00    -0.164 C  
HETATM   20  N   UNL     1      -8.395   9.395  68.009  1.00  0.00    -0.119 N  
HETATM   21  O   UNL     1      -8.715   9.827  70.253  1.00  0.00    -0.209 OA 
HETATM   22  C   UNL     1      -8.442   7.934  68.213  1.00  0.00    -0.124 C  
HETATM   23  C   UNL     1      -7.122   7.190  67.973  1.00  0.00    -0.085 C  
HETATM   24  C   UNL     1      -6.480   7.381  66.597  1.00  0.00    -0.052 C  
HETATM   25  C   UNL     1      -6.196   8.852  66.280  1.00  0.00    -0.064 C  
HETATM   26  C   UNL     1      -7.450   9.530  65.768  1.00  0.00    -0.100 A  
HETATM   27  O   UNL     1      -5.137   8.967  65.330  1.00  0.00    -0.036 OA 
HETATM   28  H   UNL     1      -4.961   9.880  65.133  1.00  0.00     0.000 HD 
HETATM   29  C   UNL     1      -8.515   9.789  66.655  1.00  0.00    -0.124 A  
HETATM   30  C   UNL     1      -9.685  10.419  66.208  1.00  0.00    -0.256 A  
HETATM   31  C   UNL     1      -9.798  10.796  64.873  1.00  0.00    -0.350 A  
HETATM   32  C   UNL     1      -8.746  10.558  63.994  1.00  0.00    -0.169 A  
HETATM   33 CL   UNL     1      -8.886  11.030  62.346  1.00  0.00    -0.352 Cl 
HETATM   34  C   UNL     1      -7.576   9.934  64.434  1.00  0.00    -0.143 A  
ENDBRANCH  16  19
ENDBRANCH  10  12
ENDBRANCH   7   8
TORSDOF 3
ENDMDL
MODEL       89
REMARK 921   NORMALIZED FREE ENERGY PREDICTED BY IDOCK:   -3.23 KCAL/MOL
REMARK 922        TOTAL FREE ENERGY PREDICTED BY IDOCK:   -4.89 KCAL/MOL
REMARK 923 INTER-LIGAND FREE ENERGY PREDICTED BY IDOCK:   -5.30 KCAL/MOL
REMARK 924 INTRA-LIGAND FREE ENERGY PREDICTED BY IDOCK:    0.41 KCAL/MOL
REMARK 927      BINDING AFFINITY PREDICTED BY RF-SCORE:    0.00 PKD
ROOT
HETATM    1  C   UNL     1      -7.559   5.480  65.390  1.00  0.00    -0.079 C  
HETATM    2  C   UNL     1      -8.202   4.830  66.580  1.00  0.00    -0.107 A  
HETATM    3  C   UNL     1      -7.729   3.552  66.952  1.00  0.00    -0.080 A  
HETATM    4  C   UNL     1      -8.230   2.880  68.069  1.00  0.00    -0.088 A  
HETATM    5  C   UNL     1      -9.227   3.466  68.835  1.00  0.00    -0.229 A  
HETATM    6  C   UNL     1      -9.714   4.726  68.483  1.00  0.00    -0.215 A  
HETATM    7  C   UNL     1      -9.218   5.424  67.363  1.00  0.00    -0.112 A  
ENDROOT
BRANCH   7   8
HETATM    8  C   UNL     1      -9.801   6.799  67.177  1.00  0.00    -0.161 C  
HETATM    9  O   UNL     1     -11.005   6.926  67.382  1.00  0.00    -0.307 OA 
HETATM   10  N   UNL     1      -8.954   7.798  66.730  1.00  0.00    -0.133 N  
HETATM   11  H   UNL     1      -7.964   7.561  66.668  1.00  0.00     0.000 HD 
BRANCH  10  12
HETATM   12  C   UNL     1      -9.313   9.116  66.348  1.00  0.00    -0.204 A  
HETATM   13  C   UNL     1      -9.848   9.465  65.105  1.00  0.00     0.021 A  
HETATM   14  C   UNL     1     -10.139  10.809  64.759  1.00  0.00    -0.396 A  
HETATM   15  C   UNL     1     -10.641  11.077  63.363  1.00  0.00    -0.249 C  
HETATM   16  C   UNL     1      -9.908  11.839  65.698  1.00  0.00    -0.265 A  
HETATM   17  C   UNL     1      -9.325  11.481  66.925  1.00  0.00    -0.189 A  
HETATM   18  C   UNL     1      -9.062  10.143  67.258  1.00  0.00    -0.151 A  
BRANCH  16  19
HETATM   19  C   UNL     1     -10.224  13.293  65.380  1.00  0.00    -0.293 C  
HETATM   20  N   UNL     1     -10.655  14.176  66.399  1.00  0.00    -0.277 N  
HETATM   21  O   UNL     1     -10.052  13.683  64.227  1.00  0.00    -0.313 OA 
HETATM   22  C   UNL     1     -10.999  15.570  66.060  1.00  0.00    -0.251 C  
HETATM   23  C   UNL     1     -10.082  16.642  66.661  1.00  0.00    -0.305 C  
HETATM   24  C   UNL     1      -9.933  16.626  68.185  1.00  0.00    -0.259 C  
HETATM   25  C   UNL     1      -9.413  15.286  68.710  1.00  0.00    -0.212 C  
HETATM   26  C   UNL     1     -10.549  14.291  68.830  1.00  0.00    -0.255 A  
HETATM   27  O   UNL     1      -8.759  15.458  69.967  1.00  0.00    -0.269 OA 
HETATM   28  H   UNL     1      -8.436  14.626  70.293  1.00  0.00     0.000 HD 
HETATM   29  C   UNL     1     -11.134  13.758  67.663  1.00  0.00    -0.273 A  
HETATM   30  C   UNL     1     -12.184  12.833  67.745  1.00  0.00     0.011 A  
HETATM   31  C   UNL     1     -12.656  12.433  68.993  1.00  0.00     0.708 A  
HETATM   32  C   UNL     1     -12.074  12.944  70.149  1.00  0.00    -0.302 A  
HETATM   33 CL   UNL     1     -12.654  12.444  71.689  1.00  0.00    -0.265 Cl 
HETATM   34  C   UNL     1     -11.024  13.863  70.074  1.00  0.00     0.202 A  
ENDBRANCH  16  19
ENDBRANCH  10  12
ENDBRANCH   7   8
TORSDOF 3
ENDMDL
MODEL       90
REMARK 921   NORMALIZED FREE ENERGY PREDICTED BY IDOCK:   -3.16 KCAL/MOL
REMARK 922        TOTAL FREE ENERGY PREDICTED BY IDOCK:   -4.80 KCAL/MOL
REMARK 923 INTER-LIGAND FREE ENERGY PREDICTED BY IDOCK:   -3.97 KCAL/MOL
REMARK 924 INTRA-LIGAND FREE ENERGY PREDICTED BY IDOCK:   -0.83 KCAL/MOL
REMARK 927      BINDING AFFINITY PREDICTED BY RF-SCORE:    0.00 PKD
ROOT
HETATM    1  C   UNL     1      -9.569   7.942  70.808  1.00  0.00    -0.171 C  
HETATM    2  C   UNL     1      -8.082   7.883  70.618  1.00  0.00    -0.102 A  
HETATM    3  C   UNL     1      -7.363   6.975  71.428  1.00  0.00    -0.080 A  
HETATM    4  C   UNL     1      -5.983   6.813  71.301  1.00  0.00    -0.036 A  
HETATM    5  C   UNL     1      -5.284   7.563  70.367  1.00  0.00    -0.023 A  
HETATM    6  C   UNL     1      -5.972   8.469  69.559  1.00  0.00    -0.033 A  
HETATM    7  C   UNL     1      -7.367   8.646  69.667  1.00  0.00    -0.056 A  
ENDROOT
BRANCH   7   8
HETATM    8  C   UNL     1      -7.954   9.606  68.668  1.00  0.00    -0.089 C  
HETATM    9  O   UNL     1      -7.924   9.267  67.487  1.00  0.00    -0.099 OA 
HETATM   10  N   UNL     1      -8.423  10.818  69.143  1.00  0.00    -0.293 N  
HETATM   11  H   UNL     1      -8.446  10.931  70.156  1.00  0.00     0.000 HD 
BRANCH  10  12
HETATM   12  C   UNL     1      -8.876  11.920  68.373  1.00  0.00    -0.159 A  
HETATM   13  C   UNL     1      -9.978  11.889  67.514  1.00  0.00    -0.197 A  
HETATM   14  C   UNL     1     -10.354  13.008  66.728  1.00  0.00    -0.256 A  
HETATM   15  C   UNL     1     -11.513  12.836  65.780  1.00  0.00    -0.388 C  
HETATM   16  C   UNL     1      -9.615  14.208  66.820  1.00  0.00    -0.290 A  
HETATM   17  C   UNL     1      -8.480  14.210  67.650  1.00  0.00    -0.189 A  
HETATM   18  C   UNL     1      -8.135  13.099  68.436  1.00  0.00    -0.130 A  
BRANCH  16  19
HETATM   19  C   UNL     1      -9.992  15.440  66.012  1.00  0.00    -0.324 C  
HETATM   20  N   UNL     1     -10.341  16.648  66.662  1.00  0.00    -0.301 N  
HETATM   21  O   UNL     1      -9.940  15.366  64.786  1.00  0.00    -0.222 OA 
HETATM   22  C   UNL     1     -10.747  17.818  65.859  1.00  0.00    -0.116 C  
HETATM   23  C   UNL     1      -9.800  19.023  65.922  1.00  0.00    -0.131 C  
HETATM   24  C   UNL     1      -9.505  19.578  67.318  1.00  0.00    -0.422 C  
HETATM   25  C   UNL     1      -8.907  18.525  68.254  1.00  0.00    -0.310 C  
HETATM   26  C   UNL     1     -10.005  17.666  68.849  1.00  0.00    -0.324 A  
HETATM   27  O   UNL     1      -8.140  19.146  69.285  1.00  0.00    -0.195 OA 
HETATM   28  H   UNL     1      -7.769  18.493  69.867  1.00  0.00     0.000 HD 
HETATM   29  C   UNL     1     -10.688  16.743  68.030  1.00  0.00    -0.355 A  
HETATM   30  C   UNL     1     -11.705  15.934  68.556  1.00  0.00    -0.297 A  
HETATM   31  C   UNL     1     -12.045  16.040  69.902  1.00  0.00    -0.131 A  
HETATM   32  C   UNL     1     -11.365  16.938  70.719  1.00  0.00     0.588 A  
HETATM   33 CL   UNL     1     -11.783  17.063  72.383  1.00  0.00     0.126 Cl 
HETATM   34  C   UNL     1     -10.348  17.744  70.202  1.00  0.00     1.030 A  
ENDBRANCH  16  19
ENDBRANCH  10  12
ENDBRANCH   7   8
TORSDOF 3
ENDMDL
MODEL       91
REMARK 921   NORMALIZED FREE ENERGY PREDICTED BY IDOCK:   -3.14 KCAL/MOL
REMARK 922        TOTAL FREE ENERGY PREDICTED BY IDOCK:   -4.79 KCAL/MOL
REMARK 923 INTER-LIGAND FREE ENERGY PREDICTED BY IDOCK:   -4.32 KCAL/MOL
REMARK 924 INTRA-LIGAND FREE ENERGY PREDICTED BY IDOCK:   -0.47 KCAL/MOL
REMARK 927      BINDING AFFINITY PREDICTED BY RF-SCORE:    0.00 PKD
ROOT
HETATM    1  C   UNL     1     -10.386  11.216  63.638  1.00  0.00    -0.449 C  
HETATM    2  C   UNL     1      -9.280  10.240  63.911  1.00  0.00    -0.312 A  
HETATM    3  C   UNL     1      -9.064   9.223  62.953  1.00  0.00    -0.006 A  
HETATM    4  C   UNL     1      -8.034   8.291  63.092  1.00  0.00    -0.158 A  
HETATM    5  C   UNL     1      -7.201   8.345  64.199  1.00  0.00    -0.092 A  
HETATM    6  C   UNL     1      -7.398   9.337  65.161  1.00  0.00    -0.098 A  
HETATM    7  C   UNL     1      -8.429  10.291  65.038  1.00  0.00    -0.177 A  
ENDROOT
BRANCH   7   8
HETATM    8  C   UNL     1      -8.448  11.332  66.125  1.00  0.00    -0.135 C  
HETATM    9  O   UNL     1      -9.547  11.663  66.560  1.00  0.00    -0.198 OA 
HETATM   10  N   UNL     1      -7.236  11.881  66.507  1.00  0.00    -0.374 N  
HETATM   11  H   UNL     1      -6.399  11.458  66.106  1.00  0.00     0.000 HD 
BRANCH  10  12
HETATM   12  C   UNL     1      -7.032  12.968  67.395  1.00  0.00    -0.116 A  
HETATM   13  C   UNL     1      -8.054  13.744  67.949  1.00  0.00    -0.166 A  
HETATM   14  C   UNL     1      -7.788  14.854  68.790  1.00  0.00    -0.149 A  
HETATM   15  C   UNL     1      -8.965  15.664  69.269  1.00  0.00    -0.267 C  
HETATM   16  C   UNL     1      -6.452  15.188  69.106  1.00  0.00    -0.116 A  
HETATM   17  C   UNL     1      -5.433  14.430  68.504  1.00  0.00    -0.099 A  
HETATM   18  C   UNL     1      -5.716  13.323  67.689  1.00  0.00    -0.090 A  
BRANCH  16  19
HETATM   19  C   UNL     1      -6.118  16.356  70.021  1.00  0.00    -0.151 C  
HETATM   20  N   UNL     1      -6.134  17.683  69.531  1.00  0.00    -0.243 N  
HETATM   21  O   UNL     1      -5.878  16.114  71.203  1.00  0.00     0.242 OA 
HETATM   22  C   UNL     1      -5.763  18.797  70.424  1.00  0.00    -0.192 C  
HETATM   23  C   UNL     1      -6.890  19.783  70.755  1.00  0.00     0.334 C  
HETATM   24  C   UNL     1      -7.582  20.443  69.560  1.00  0.00     0.605 C  
HETATM   25  C   UNL     1      -8.188  19.422  68.595  1.00  0.00    -0.364 C  
HETATM   26  C   UNL     1      -7.124  18.887  67.659  1.00  0.00    -0.230 A  
HETATM   27  O   UNL     1      -9.263  20.002  67.856  1.00  0.00    -0.336 OA 
HETATM   28  H   UNL     1      -9.639  19.368  67.257  1.00  0.00     0.000 HD 
HETATM   29  C   UNL     1      -6.127  18.023  68.157  1.00  0.00    -0.176 A  
HETATM   30  C   UNL     1      -5.133  17.511  67.312  1.00  0.00    -0.140 A  
HETATM   31  C   UNL     1      -5.128  17.858  65.963  1.00  0.00    -0.226 A  
HETATM   32  C   UNL     1      -6.117  18.698  65.460  1.00  0.00    -0.249 A  
HETATM   33 CL   UNL     1      -6.112  19.119  63.793  1.00  0.00     0.070 Cl 
HETATM   34  C   UNL     1      -7.113  19.208  66.297  1.00  0.00    -0.258 A  
ENDBRANCH  16  19
ENDBRANCH  10  12
ENDBRANCH   7   8
TORSDOF 3
ENDMDL
MODEL       92
REMARK 921   NORMALIZED FREE ENERGY PREDICTED BY IDOCK:   -3.14 KCAL/MOL
REMARK 922        TOTAL FREE ENERGY PREDICTED BY IDOCK:   -4.79 KCAL/MOL
REMARK 923 INTER-LIGAND FREE ENERGY PREDICTED BY IDOCK:   -4.21 KCAL/MOL
REMARK 924 INTRA-LIGAND FREE ENERGY PREDICTED BY IDOCK:   -0.57 KCAL/MOL
REMARK 927      BINDING AFFINITY PREDICTED BY RF-SCORE:    0.00 PKD
ROOT
HETATM    1  C   UNL     1     -10.042   4.473  67.748  1.00  0.00    -0.060 C  
HETATM    2  C   UNL     1      -9.011   4.489  66.659  1.00  0.00    -0.114 A  
HETATM    3  C   UNL     1      -8.744   3.266  66.004  1.00  0.00    -0.127 A  
HETATM    4  C   UNL     1      -7.833   3.182  64.950  1.00  0.00    -0.082 A  
HETATM    5  C   UNL     1      -7.157   4.318  64.531  1.00  0.00    -0.051 A  
HETATM    6  C   UNL     1      -7.401   5.536  65.166  1.00  0.00    -0.068 A  
HETATM    7  C   UNL     1      -8.320   5.645  66.230  1.00  0.00    -0.114 A  
ENDROOT
BRANCH   7   8
HETATM    8  C   UNL     1      -8.515   7.046  66.746  1.00  0.00    -0.118 C  
HETATM    9  O   UNL     1      -7.502   7.706  66.958  1.00  0.00    -0.091 OA 
HETATM   10  N   UNL     1      -9.810   7.459  67.001  1.00  0.00    -0.191 N  
HETATM   11  H   UNL     1     -10.555   6.825  66.711  1.00  0.00     0.000 HD 
BRANCH  10  12
HETATM   12  C   UNL     1     -10.215   8.669  67.621  1.00  0.00    -0.239 A  
HETATM   13  C   UNL     1     -10.485   8.810  68.985  1.00  0.00    -0.220 A  
HETATM   14  C   UNL     1     -10.939  10.033  69.542  1.00  0.00    -0.289 A  
HETATM   15  C   UNL     1     -11.271  10.049  71.011  1.00  0.00    -0.387 C  
HETATM   16  C   UNL     1     -11.108  11.161  68.708  1.00  0.00    -0.291 A  
HETATM   17  C   UNL     1     -10.881  10.992  67.332  1.00  0.00    -0.327 A  
HETATM   18  C   UNL     1     -10.413   9.780  66.801  1.00  0.00    -0.259 A  
BRANCH  16  19
HETATM   19  C   UNL     1     -11.572  12.499  69.263  1.00  0.00    -0.319 C  
HETATM   20  N   UNL     1     -10.798  13.668  69.067  1.00  0.00    -0.235 N  
HETATM   21  O   UNL     1     -12.656  12.540  69.844  1.00  0.00     0.019 OA 
HETATM   22  C   UNL     1     -11.246  14.947  69.653  1.00  0.00    -0.275 C  
HETATM   23  C   UNL     1     -11.637  16.034  68.645  1.00  0.00    -0.343 C  
HETATM   24  C   UNL     1     -10.570  16.416  67.616  1.00  0.00    -0.313 C  
HETATM   25  C   UNL     1     -10.102  15.221  66.783  1.00  0.00    -0.258 C  
HETATM   26  C   UNL     1      -9.058  14.428  67.542  1.00  0.00    -0.195 A  
HETATM   27  O   UNL     1      -9.587  15.655  65.524  1.00  0.00    -0.307 OA 
HETATM   28  H   UNL     1      -9.297  14.912  65.007  1.00  0.00     0.000 HD 
HETATM   29  C   UNL     1      -9.442  13.665  68.665  1.00  0.00    -0.076 A  
HETATM   30  C   UNL     1      -8.497  12.919  69.382  1.00  0.00     1.146 A  
HETATM   31  C   UNL     1      -7.163  12.928  68.984  1.00  0.00     0.017 A  
HETATM   32  C   UNL     1      -6.779  13.666  67.869  1.00  0.00    -0.153 A  
HETATM   33 CL   UNL     1      -5.131  13.672  67.374  1.00  0.00     0.172 Cl 
HETATM   34  C   UNL     1      -7.717  14.409  67.146  1.00  0.00    -0.065 A  
ENDBRANCH  16  19
ENDBRANCH  10  12
ENDBRANCH   7   8
TORSDOF 3
ENDMDL
MODEL       93
REMARK 921   NORMALIZED FREE ENERGY PREDICTED BY IDOCK:   -3.05 KCAL/MOL
REMARK 922        TOTAL FREE ENERGY PREDICTED BY IDOCK:   -4.67 KCAL/MOL
REMARK 923 INTER-LIGAND FREE ENERGY PREDICTED BY IDOCK:   -4.92 KCAL/MOL
REMARK 924 INTRA-LIGAND FREE ENERGY PREDICTED BY IDOCK:    0.25 KCAL/MOL
REMARK 927      BINDING AFFINITY PREDICTED BY RF-SCORE:    0.00 PKD
ROOT
HETATM    1  C   UNL     1      -8.617  16.235  66.634  1.00  0.00    -0.302 C  
HETATM    2  C   UNL     1      -9.657  15.789  67.619  1.00  0.00    -0.220 A  
HETATM    3  C   UNL     1     -10.426  16.795  68.246  1.00  0.00    -0.341 A  
HETATM    4  C   UNL     1     -11.447  16.483  69.146  1.00  0.00    -0.084 A  
HETATM    5  C   UNL     1     -11.717  15.157  69.450  1.00  0.00    -0.355 A  
HETATM    6  C   UNL     1     -10.967  14.147  68.846  1.00  0.00    -0.280 A  
HETATM    7  C   UNL     1      -9.934  14.439  67.931  1.00  0.00    -0.228 A  
ENDROOT
BRANCH   7   8
HETATM    8  C   UNL     1      -9.282  13.228  67.320  1.00  0.00    -0.222 C  
HETATM    9  O   UNL     1      -9.567  12.972  66.153  1.00  0.00    -0.260 OA 
HETATM   10  N   UNL     1      -8.466  12.461  68.132  1.00  0.00    -0.174 N  
HETATM   11  H   UNL     1      -8.268  12.835  69.061  1.00  0.00     0.000 HD 
BRANCH  10  12
HETATM   12  C   UNL     1      -7.874  11.212  67.815  1.00  0.00    -0.114 A  
HETATM   13  C   UNL     1      -6.915  10.566  68.600  1.00  0.00    -0.067 A  
HETATM   14  C   UNL     1      -6.317   9.342  68.205  1.00  0.00    -0.054 A  
HETATM   15  C   UNL     1      -5.240   8.774  69.093  1.00  0.00    -0.036 C  
HETATM   16  C   UNL     1      -6.707   8.731  66.993  1.00  0.00    -0.066 A  
HETATM   17  C   UNL     1      -7.635   9.416  66.190  1.00  0.00    -0.096 A  
HETATM   18  C   UNL     1      -8.232  10.617  66.606  1.00  0.00    -0.134 A  
BRANCH  16  19
HETATM   19  C   UNL     1      -6.110   7.408  66.538  1.00  0.00    -0.040 C  
HETATM   20  N   UNL     1      -6.682   6.181  66.948  1.00  0.00    -0.059 N  
HETATM   21  O   UNL     1      -5.149   7.442  65.772  1.00  0.00    -0.023 OA 
HETATM   22  C   UNL     1      -6.059   4.909  66.531  1.00  0.00    -0.031 C  
HETATM   23  C   UNL     1      -6.901   4.038  65.591  1.00  0.00    -0.057 C  
HETATM   24  C   UNL     1      -8.295   3.655  66.093  1.00  0.00    -0.102 C  
HETATM   25  C   UNL     1      -9.158   4.876  66.419  1.00  0.00    -0.127 C  
HETATM   26  C   UNL     1      -8.826   5.401  67.800  1.00  0.00    -0.105 A  
HETATM   27  O   UNL     1     -10.545   4.552  66.323  1.00  0.00    -0.391 OA 
HETATM   28  H   UNL     1     -11.081   5.310  66.525  1.00  0.00     0.000 HD 
HETATM   29  C   UNL     1      -7.593   6.047  68.022  1.00  0.00    -0.093 A  
HETATM   30  C   UNL     1      -7.263   6.546  69.291  1.00  0.00    -0.090 A  
HETATM   31  C   UNL     1      -8.162   6.404  70.344  1.00  0.00    -0.121 A  
HETATM   32  C   UNL     1      -9.387   5.780  70.129  1.00  0.00    -0.155 A  
HETATM   33 CL   UNL     1     -10.498   5.611  71.431  1.00  0.00    -0.289 Cl 
HETATM   34  C   UNL     1      -9.724   5.285  68.867  1.00  0.00    -0.207 A  
ENDBRANCH  16  19
ENDBRANCH  10  12
ENDBRANCH   7   8
TORSDOF 3
ENDMDL
MODEL       94
REMARK 921   NORMALIZED FREE ENERGY PREDICTED BY IDOCK:   -3.03 KCAL/MOL
REMARK 922        TOTAL FREE ENERGY PREDICTED BY IDOCK:   -4.65 KCAL/MOL
REMARK 923 INTER-LIGAND FREE ENERGY PREDICTED BY IDOCK:   -4.09 KCAL/MOL
REMARK 924 INTRA-LIGAND FREE ENERGY PREDICTED BY IDOCK:   -0.56 KCAL/MOL
REMARK 927      BINDING AFFINITY PREDICTED BY RF-SCORE:    0.00 PKD
ROOT
HETATM    1  C   UNL     1     -10.570   8.681  69.583  1.00  0.00    -0.219 C  
HETATM    2  C   UNL     1     -11.488   9.620  70.309  1.00  0.00    -0.288 A  
HETATM    3  C   UNL     1     -12.319   9.067  71.309  1.00  0.00    -0.361 A  
HETATM    4  C   UNL     1     -13.178   9.861  72.071  1.00  0.00    -0.555 A  
HETATM    5  C   UNL     1     -13.236  11.228  71.844  1.00  0.00    -0.491 A  
HETATM    6  C   UNL     1     -12.428  11.796  70.858  1.00  0.00    -0.416 A  
HETATM    7  C   UNL     1     -11.549  11.013  70.080  1.00  0.00    -0.427 A  
ENDROOT
BRANCH   7   8
HETATM    8  C   UNL     1     -10.699  11.800  69.119  1.00  0.00    -0.124 C  
HETATM    9  O   UNL     1     -10.014  11.157  68.328  1.00  0.00    -0.174 OA 
HETATM   10  N   UNL     1     -10.704  13.178  69.240  1.00  0.00    -0.440 N  
HETATM   11  H   UNL     1     -11.375  13.574  69.898  1.00  0.00     0.000 HD 
BRANCH  10  12
HETATM   12  C   UNL     1      -9.877  14.100  68.548  1.00  0.00    -0.230 A  
HETATM   13  C   UNL     1     -10.098  14.537  67.239  1.00  0.00    -0.247 A  
HETATM   14  C   UNL     1      -9.207  15.420  66.577  1.00  0.00    -0.323 A  
HETATM   15  C   UNL     1      -9.504  15.764  65.141  1.00  0.00     0.516 C  
HETATM   16  C   UNL     1      -8.065  15.900  67.257  1.00  0.00    -0.213 A  
HETATM   17  C   UNL     1      -7.829  15.415  68.554  1.00  0.00    -0.134 A  
HETATM   18  C   UNL     1      -8.732  14.556  69.200  1.00  0.00     0.032 A  
BRANCH  16  19
HETATM   19  C   UNL     1      -7.092  16.866  66.597  1.00  0.00    -0.254 C  
HETATM   20  N   UNL     1      -7.131  18.247  66.900  1.00  0.00    -0.191 N  
HETATM   21  O   UNL     1      -6.249  16.402  65.831  1.00  0.00     0.682 OA 
HETATM   22  C   UNL     1      -6.207  19.171  66.214  1.00  0.00    -0.174 C  
HETATM   23  C   UNL     1      -5.161  19.847  67.110  1.00  0.00    -0.156 C  
HETATM   24  C   UNL     1      -5.704  20.636  68.304  1.00  0.00    -0.328 C  
HETATM   25  C   UNL     1      -6.563  19.777  69.235  1.00  0.00    -0.352 C  
HETATM   26  C   UNL     1      -7.973  19.663  68.693  1.00  0.00    -0.335 A  
HETATM   27  O   UNL     1      -6.573  20.321  70.555  1.00  0.00    -0.389 OA 
HETATM   28  H   UNL     1      -7.106  19.787  71.133  1.00  0.00     0.000 HD 
HETATM   29  C   UNL     1      -8.216  18.891  67.539  1.00  0.00    -0.268 A  
HETATM   30  C   UNL     1      -9.512  18.766  67.019  1.00  0.00    -0.322 A  
HETATM   31  C   UNL     1     -10.574  19.410  67.650  1.00  0.00    -0.575 A  
HETATM   32  C   UNL     1     -10.344  20.162  68.798  1.00  0.00    -0.121 A  
HETATM   33 CL   UNL     1     -11.658  20.951  69.578  1.00  0.00     2.200 Cl 
HETATM   34  C   UNL     1      -9.055  20.287  69.323  1.00  0.00     0.585 A  
ENDBRANCH  16  19
ENDBRANCH  10  12
ENDBRANCH   7   8
TORSDOF 3
ENDMDL
MODEL       95
REMARK 921   NORMALIZED FREE ENERGY PREDICTED BY IDOCK:   -2.19 KCAL/MOL
REMARK 922        TOTAL FREE ENERGY PREDICTED BY IDOCK:   -3.67 KCAL/MOL
REMARK 923 INTER-LIGAND FREE ENERGY PREDICTED BY IDOCK:   -3.46 KCAL/MOL
REMARK 924 INTRA-LIGAND FREE ENERGY PREDICTED BY IDOCK:   -0.21 KCAL/MOL
REMARK 927      BINDING AFFINITY PREDICTED BY RF-SCORE:    0.00 PKD
ROOT
HETATM    1  C   UNL     1      -8.996   8.613  64.424  1.00  0.00     0.222 C  
HETATM    2  C   UNL     1      -8.476   8.081  65.727  1.00  0.00    -0.159 A  
HETATM    3  C   UNL     1      -8.045   6.735  65.749  1.00  0.00    -0.123 A  
HETATM    4  C   UNL     1      -7.506   6.157  66.899  1.00  0.00    -0.087 A  
HETATM    5  C   UNL     1      -7.396   6.906  68.061  1.00  0.00    -0.097 A  
HETATM    6  C   UNL     1      -7.820   8.235  68.064  1.00  0.00    -0.118 A  
HETATM    7  C   UNL     1      -8.363   8.842  66.912  1.00  0.00    -0.108 A  
ENDROOT
BRANCH   7   8
HETATM    8  C   UNL     1      -8.696  10.300  67.073  1.00  0.00    -0.129 C  
HETATM    9  O   UNL     1      -9.041  10.673  68.192  1.00  0.00    -0.140 OA 
HETATM   10  N   UNL     1      -8.651  11.096  65.942  1.00  0.00    -0.255 N  
HETATM   11  H   UNL     1      -8.281  10.662  65.096  1.00  0.00     0.000 HD 
BRANCH  10  12
HETATM   12  C   UNL     1      -9.062  12.449  65.831  1.00  0.00     0.099 A  
HETATM   13  C   UNL     1      -8.331  13.543  66.302  1.00  0.00     0.879 A  
HETATM   14  C   UNL     1      -8.817  14.872  66.211  1.00  0.00    -0.108 A  
HETATM   15  C   UNL     1      -7.977  15.965  66.820  1.00  0.00    -0.287 C  
HETATM   16  C   UNL     1     -10.071  15.118  65.609  1.00  0.00    -0.392 A  
HETATM   17  C   UNL     1     -10.818  14.006  65.185  1.00  0.00    -0.376 A  
HETATM   18  C   UNL     1     -10.312  12.699  65.264  1.00  0.00    -0.309 A  
BRANCH  16  19
HETATM   19  C   UNL     1     -10.625  16.528  65.470  1.00  0.00    -0.295 C  
HETATM   20  N   UNL     1     -10.895  17.312  66.616  1.00  0.00    -0.050 N  
HETATM   21  O   UNL     1     -10.787  16.975  64.335  1.00  0.00    -0.738 OA 
HETATM   22  C   UNL     1     -11.474  18.661  66.458  1.00  0.00     1.311 C  
HETATM   23  C   UNL     1     -10.573  19.822  66.891  1.00  0.00    -0.588 C  
HETATM   24  C   UNL     1     -10.056  19.775  68.332  1.00  0.00    -0.568 C  
HETATM   25  C   UNL     1      -9.268  18.498  68.631  1.00  0.00    -0.310 C  
HETATM   26  C   UNL     1     -10.215  17.360  68.954  1.00  0.00    -0.352 A  
HETATM   27  O   UNL     1      -8.352  18.711  69.706  1.00  0.00     0.625 OA 
HETATM   28  H   UNL     1      -7.863  17.918  69.892  1.00  0.00     0.000 HD 
HETATM   29  C   UNL     1     -10.999  16.794  67.928  1.00  0.00    -0.260 A  
HETATM   30  C   UNL     1     -11.880  15.737  68.198  1.00  0.00    -0.054 A  
HETATM   31  C   UNL     1     -11.982  15.238  69.494  1.00  0.00    -0.356 A  
HETATM   32  C   UNL     1     -11.201  15.781  70.509  1.00  0.00    -0.374 A  
HETATM   33 CL   UNL     1     -11.324  15.159  72.108  1.00  0.00    -0.444 Cl 
HETATM   34  C   UNL     1     -10.317  16.832  70.245  1.00  0.00     0.483 A  
ENDBRANCH  16  19
ENDBRANCH  10  12
ENDBRANCH   7   8
TORSDOF 3
ENDMDL
MODEL       96
REMARK 921   NORMALIZED FREE ENERGY PREDICTED BY IDOCK:   -1.91 KCAL/MOL
REMARK 922        TOTAL FREE ENERGY PREDICTED BY IDOCK:   -3.34 KCAL/MOL
REMARK 923 INTER-LIGAND FREE ENERGY PREDICTED BY IDOCK:   -3.02 KCAL/MOL
REMARK 924 INTRA-LIGAND FREE ENERGY PREDICTED BY IDOCK:   -0.32 KCAL/MOL
REMARK 927      BINDING AFFINITY PREDICTED BY RF-SCORE:    0.00 PKD
ROOT
HETATM    1  C   UNL     1     -10.616   9.742  68.905  1.00  0.00    -0.240 C  
HETATM    2  C   UNL     1      -9.351   9.564  69.691  1.00  0.00    -0.213 A  
HETATM    3  C   UNL     1      -9.322   8.518  70.641  1.00  0.00    -0.202 A  
HETATM    4  C   UNL     1      -8.180   8.242  71.394  1.00  0.00    -0.158 A  
HETATM    5  C   UNL     1      -7.039   9.012  71.224  1.00  0.00    -0.093 A  
HETATM    6  C   UNL     1      -7.045  10.053  70.295  1.00  0.00    -0.156 A  
HETATM    7  C   UNL     1      -8.187  10.347  69.520  1.00  0.00    -0.137 A  
ENDROOT
BRANCH   7   8
HETATM    8  C   UNL     1      -7.992  11.451  68.516  1.00  0.00    -0.143 C  
HETATM    9  O   UNL     1      -7.760  11.114  67.358  1.00  0.00    -0.111 OA 
HETATM   10  N   UNL     1      -8.025  12.753  68.981  1.00  0.00    -0.318 N  
HETATM   11  H   UNL     1      -8.296  12.881  69.956  1.00  0.00     0.000 HD 
BRANCH  10  12
HETATM   12  C   UNL     1      -7.723  13.930  68.250  1.00  0.00    -0.136 A  
HETATM   13  C   UNL     1      -8.601  14.562  67.365  1.00  0.00    -0.213 A  
HETATM   14  C   UNL     1      -8.226  15.709  66.619  1.00  0.00    -0.284 A  
HETATM   15  C   UNL     1      -9.228  16.261  65.638  1.00  0.00     0.012 C  
HETATM   16  C   UNL     1      -6.934  16.256  66.779  1.00  0.00    -0.165 A  
HETATM   17  C   UNL     1      -6.045  15.582  67.634  1.00  0.00    -0.158 A  
HETATM   18  C   UNL     1      -6.440  14.460  68.380  1.00  0.00    -0.102 A  
BRANCH  16  19
HETATM   19  C   UNL     1      -6.493  17.496  66.017  1.00  0.00    -0.192 C  
HETATM   20  N   UNL     1      -6.758  18.788  66.529  1.00  0.00    -0.193 N  
HETATM   21  O   UNL     1      -5.864  17.339  64.972  1.00  0.00     0.686 OA 
HETATM   22  C   UNL     1      -6.361  19.978  65.751  1.00  0.00    -0.212 C  
HETATM   23  C   UNL     1      -5.272  20.851  66.387  1.00  0.00    -0.225 C  
HETATM   24  C   UNL     1      -5.564  21.373  67.796  1.00  0.00    -0.362 C  
HETATM   25  C   UNL     1      -5.836  20.247  68.796  1.00  0.00    -0.295 C  
HETATM   26  C   UNL     1      -7.275  19.787  68.690  1.00  0.00    -0.358 A  
HETATM   27  O   UNL     1      -5.540  20.672  70.126  1.00  0.00    -0.351 OA 
HETATM   28  H   UNL     1      -5.709  19.972  70.747  1.00  0.00     0.000 HD 
HETATM   29  C   UNL     1      -7.693  19.061  67.555  1.00  0.00    -0.240 A  
HETATM   30  C   UNL     1      -9.018  18.620  67.434  1.00  0.00    -0.284 A  
HETATM   31  C   UNL     1      -9.934  18.899  68.445  1.00  0.00    -0.447 A  
HETATM   32  C   UNL     1      -9.526  19.602  69.574  1.00  0.00     0.119 A  
HETATM   33 CL   UNL     1     -10.658  19.940  70.824  1.00  0.00     1.529 Cl 
HETATM   34  C   UNL     1      -8.205  20.040  69.703  1.00  0.00     0.619 A  
ENDBRANCH  16  19
ENDBRANCH  10  12
ENDBRANCH   7   8
TORSDOF 3
ENDMDL
MODEL       97
REMARK 921   NORMALIZED FREE ENERGY PREDICTED BY IDOCK:   -0.54 KCAL/MOL
REMARK 922        TOTAL FREE ENERGY PREDICTED BY IDOCK:   -1.73 KCAL/MOL
REMARK 923 INTER-LIGAND FREE ENERGY PREDICTED BY IDOCK:   -1.09 KCAL/MOL
REMARK 924 INTRA-LIGAND FREE ENERGY PREDICTED BY IDOCK:   -0.64 KCAL/MOL
REMARK 927      BINDING AFFINITY PREDICTED BY RF-SCORE:    0.00 PKD
ROOT
HETATM    1  C   UNL     1      -7.876   7.906  68.135  1.00  0.00    -0.127 C  
HETATM    2  C   UNL     1      -6.904   7.699  67.010  1.00  0.00    -0.068 A  
HETATM    3  C   UNL     1      -6.548   6.367  66.701  1.00  0.00    -0.048 A  
HETATM    4  C   UNL     1      -5.685   6.064  65.646  1.00  0.00    -0.024 A  
HETATM    5  C   UNL     1      -5.147   7.087  64.881  1.00  0.00    -0.027 A  
HETATM    6  C   UNL     1      -5.480   8.411  65.170  1.00  0.00    -0.039 A  
HETATM    7  C   UNL     1      -6.354   8.740  66.228  1.00  0.00    -0.061 A  
ENDROOT
BRANCH   7   8
HETATM    8  C   UNL     1      -6.662  10.208  66.349  1.00  0.00    -0.092 C  
HETATM    9  O   UNL     1      -7.176  10.750  65.374  1.00  0.00    -0.061 OA 
HETATM   10  N   UNL     1      -6.289  10.846  67.518  1.00  0.00    -0.056 N  
HETATM   11  H   UNL     1      -5.934  10.252  68.267  1.00  0.00     0.000 HD 
BRANCH  10  12
HETATM   12  C   UNL     1      -6.346  12.238  67.788  1.00  0.00    -0.101 A  
HETATM   13  C   UNL     1      -7.252  12.839  68.666  1.00  0.00    -0.104 A  
HETATM   14  C   UNL     1      -7.299  14.244  68.857  1.00  0.00    -0.126 A  
HETATM   15  C   UNL     1      -8.367  14.788  69.770  1.00  0.00     0.258 C  
HETATM   16  C   UNL     1      -6.393  15.075  68.161  1.00  0.00    -0.140 A  
HETATM   17  C   UNL     1      -5.521  14.462  67.245  1.00  0.00     0.614 A  
HETATM   18  C   UNL     1      -5.475  13.069  67.084  1.00  0.00     0.306 A  
BRANCH  16  19
HETATM   19  C   UNL     1      -6.391  16.585  68.349  1.00  0.00    -0.129 C  
HETATM   20  N   UNL     1      -7.520  17.358  67.987  1.00  0.00    -0.195 N  
HETATM   21  O   UNL     1      -5.400  17.101  68.863  1.00  0.00    -0.141 OA 
HETATM   22  C   UNL     1      -7.478  18.825  68.136  1.00  0.00    -0.266 C  
HETATM   23  C   UNL     1      -8.442  19.411  69.175  1.00  0.00    -0.148 C  
HETATM   24  C   UNL     1      -9.922  19.070  68.991  1.00  0.00    -0.390 C  
HETATM   25  C   UNL     1     -10.181  17.561  68.984  1.00  0.00    -0.314 C  
HETATM   26  C   UNL     1      -9.897  16.986  67.611  1.00  0.00    -0.257 A  
HETATM   27  O   UNL     1     -11.522  17.278  69.381  1.00  0.00     0.123 OA 
HETATM   28  H   UNL     1     -11.682  16.341  69.376  1.00  0.00     0.000 HD 
HETATM   29  C   UNL     1      -8.566  16.896  67.155  1.00  0.00    -0.197 A  
HETATM   30  C   UNL     1      -8.276  16.364  65.890  1.00  0.00     0.179 A  
HETATM   31  C   UNL     1      -9.312  15.919  65.074  1.00  0.00     1.227 A  
HETATM   32  C   UNL     1     -10.627  15.992  65.523  1.00  0.00    -0.398 A  
HETATM   33 CL   UNL     1     -11.905  15.436  64.515  1.00  0.00    -0.332 Cl 
HETATM   34  C   UNL     1     -10.923  16.516  66.784  1.00  0.00     0.046 A  
ENDBRANCH  16  19
ENDBRANCH  10  12
ENDBRANCH   7   8
TORSDOF 3
ENDMDL
MODEL       98
REMARK 921   NORMALIZED FREE ENERGY PREDICTED BY IDOCK:   -0.47 KCAL/MOL
REMARK 922        TOTAL FREE ENERGY PREDICTED BY IDOCK:   -1.65 KCAL/MOL
REMARK 923 INTER-LIGAND FREE ENERGY PREDICTED BY IDOCK:   -4.29 KCAL/MOL
REMARK 924 INTRA-LIGAND FREE ENERGY PREDICTED BY IDOCK:    2.64 KCAL/MOL
REMARK 927      BINDING AFFINITY PREDICTED BY RF-SCORE:    0.00 PKD
ROOT
HETATM    1  C   UNL     1     -10.236  10.012  65.530  1.00  0.00    -0.248 C  
HETATM    2  C   UNL     1     -10.149   8.833  66.455  1.00  0.00    -0.313 A  
HETATM    3  C   UNL     1     -10.006   7.558  65.864  1.00  0.00     0.563 A  
HETATM    4  C   UNL     1      -9.874   6.402  66.636  1.00  0.00    -0.203 A  
HETATM    5  C   UNL     1      -9.894   6.492  68.020  1.00  0.00    -0.129 A  
HETATM    6  C   UNL     1     -10.039   7.740  68.626  1.00  0.00    -0.211 A  
HETATM    7  C   UNL     1     -10.169   8.921  67.865  1.00  0.00    -0.274 A  
ENDROOT
BRANCH   7   8
HETATM    8  C   UNL     1     -10.239  10.184  68.681  1.00  0.00    -0.176 C  
HETATM    9  O   UNL     1     -10.474  10.060  69.880  1.00  0.00    -0.240 OA 
HETATM   10  N   UNL     1     -10.098  11.387  68.012  1.00  0.00    -0.175 N  
HETATM   11  H   UNL     1      -9.839  11.332  67.027  1.00  0.00     0.000 HD 
BRANCH  10  12
HETATM   12  C   UNL     1     -10.273  12.689  68.548  1.00  0.00    -0.201 A  
HETATM   13  C   UNL     1     -11.266  13.042  69.465  1.00  0.00    -0.146 A  
HETATM   14  C   UNL     1     -11.428  14.374  69.926  1.00  0.00    -0.314 A  
HETATM   15  C   UNL     1     -12.580  14.655  70.856  1.00  0.00    -0.410 C  
HETATM   16  C   UNL     1     -10.552  15.384  69.470  1.00  0.00    -0.270 A  
HETATM   17  C   UNL     1      -9.590  15.025  68.511  1.00  0.00    -0.210 A  
HETATM   18  C   UNL     1      -9.431  13.698  68.081  1.00  0.00    -0.217 A  
BRANCH  16  19
HETATM   19  C   UNL     1     -10.673  16.821  69.952  1.00  0.00    -0.119 C  
HETATM   20  N   UNL     1      -9.917  17.851  69.344  1.00  0.00    -0.075 N  
HETATM   21  O   UNL     1     -11.476  17.063  70.852  1.00  0.00     0.308 OA 
HETATM   22  C   UNL     1     -10.016  19.231  69.858  1.00  0.00     0.498 C  
HETATM   23  C   UNL     1     -10.638  20.251  68.897  1.00  0.00     0.172 C  
HETATM   24  C   UNL     1      -9.970  20.382  67.526  1.00  0.00    -0.537 C  
HETATM   25  C   UNL     1      -9.930  19.056  66.763  1.00  0.00    -0.360 C  
HETATM   26  C   UNL     1      -8.761  18.214  67.231  1.00  0.00    -0.244 A  
HETATM   27  O   UNL     1      -9.853  19.286  65.356  1.00  0.00    -0.146 OA 
HETATM   28  H   UNL     1      -9.829  18.463  64.882  1.00  0.00     0.000 HD 
HETATM   29  C   UNL     1      -8.793  17.629  68.514  1.00  0.00    -0.285 A  
HETATM   30  C   UNL     1      -7.726  16.842  68.970  1.00  0.00    -0.199 A  
HETATM   31  C   UNL     1      -6.621  16.635  68.149  1.00  0.00    -0.148 A  
HETATM   32  C   UNL     1      -6.588  17.197  66.877  1.00  0.00    -0.205 A  
HETATM   33 CL   UNL     1      -5.225  16.934  65.862  1.00  0.00     0.522 Cl 
HETATM   34  C   UNL     1      -7.651  17.978  66.414  1.00  0.00    -0.297 A  
ENDBRANCH  16  19
ENDBRANCH  10  12
ENDBRANCH   7   8
TORSDOF 3
ENDMDL
MODEL       99
REMARK 921   NORMALIZED FREE ENERGY PREDICTED BY IDOCK:   -0.17 KCAL/MOL
REMARK 922        TOTAL FREE ENERGY PREDICTED BY IDOCK:   -1.29 KCAL/MOL
REMARK 923 INTER-LIGAND FREE ENERGY PREDICTED BY IDOCK:   -1.23 KCAL/MOL
REMARK 924 INTRA-LIGAND FREE ENERGY PREDICTED BY IDOCK:   -0.06 KCAL/MOL
REMARK 927      BINDING AFFINITY PREDICTED BY RF-SCORE:    0.00 PKD
ROOT
HETATM    1  C   UNL     1      -8.636   4.439  67.326  1.00  0.00    -0.104 C  
HETATM    2  C   UNL     1      -7.897   4.898  68.549  1.00  0.00    -0.081 A  
HETATM    3  C   UNL     1      -6.966   3.998  69.116  1.00  0.00    -0.046 A  
HETATM    4  C   UNL     1      -6.197   4.343  70.229  1.00  0.00    -0.022 A  
HETATM    5  C   UNL     1      -6.347   5.594  70.809  1.00  0.00    -0.031 A  
HETATM    6  C   UNL     1      -7.264   6.497  70.270  1.00  0.00    -0.080 A  
HETATM    7  C   UNL     1      -8.048   6.171  69.143  1.00  0.00    -0.109 A  
ENDROOT
BRANCH   7   8
HETATM    8  C   UNL     1      -8.926   7.289  68.650  1.00  0.00    -0.128 C  
HETATM    9  O   UNL     1      -9.648   7.046  67.686  1.00  0.00    -0.129 OA 
HETATM   10  N   UNL     1      -8.809   8.518  69.274  1.00  0.00    -0.141 N  
HETATM   11  H   UNL     1      -8.218   8.552  70.105  1.00  0.00     0.000 HD 
BRANCH  10  12
HETATM   12  C   UNL     1      -9.421   9.737  68.884  1.00  0.00    -0.161 A  
HETATM   13  C   UNL     1     -10.256  10.503  69.703  1.00  0.00    -0.207 A  
HETATM   14  C   UNL     1     -10.885  11.688  69.242  1.00  0.00    -0.203 A  
HETATM   15  C   UNL     1     -11.823  12.392  70.186  1.00  0.00    -0.341 C  
HETATM   16  C   UNL     1     -10.654  12.134  67.921  1.00  0.00    -0.230 A  
HETATM   17  C   UNL     1      -9.852  11.328  67.094  1.00  0.00    -0.213 A  
HETATM   18  C   UNL     1      -9.222  10.169  67.574  1.00  0.00    -0.150 A  
BRANCH  16  19
HETATM   19  C   UNL     1     -11.288  13.409  67.388  1.00  0.00    -0.309 C  
HETATM   20  N   UNL     1     -10.595  14.641  67.454  1.00  0.00    -0.262 N  
HETATM   21  O   UNL     1     -12.397  13.326  66.862  1.00  0.00    -0.311 OA 
HETATM   22  C   UNL     1     -11.249  15.873  66.972  1.00  0.00    -0.024 C  
HETATM   23  C   UNL     1     -10.606  16.524  65.741  1.00  0.00    -0.307 C  
HETATM   24  C   UNL     1      -9.122  16.879  65.862  1.00  0.00    -0.091 C  
HETATM   25  C   UNL     1      -8.253  15.664  66.196  1.00  0.00     0.286 C  
HETATM   26  C   UNL     1      -8.288  15.387  67.685  1.00  0.00    -0.174 A  
HETATM   27  O   UNL     1      -6.911  15.868  65.754  1.00  0.00     1.233 OA 
HETATM   28  H   UNL     1      -6.372  15.114  65.962  1.00  0.00     0.000 HD 
HETATM   29  C   UNL     1      -9.464  14.875  68.271  1.00  0.00    -0.210 A  
HETATM   30  C   UNL     1      -9.522  14.605  69.646  1.00  0.00     0.275 A  
HETATM   31  C   UNL     1      -8.407  14.845  70.444  1.00  0.00     1.159 A  
HETATM   32  C   UNL     1      -7.238  15.337  69.871  1.00  0.00    -0.080 A  
HETATM   33 CL   UNL     1      -5.860  15.627  70.858  1.00  0.00     0.083 Cl 
HETATM   34  C   UNL     1      -7.173  15.603  68.501  1.00  0.00    -0.120 A  
ENDBRANCH  16  19
ENDBRANCH  10  12
ENDBRANCH   7   8
TORSDOF 3
ENDMDL
MODEL      100
REMARK 921   NORMALIZED FREE ENERGY PREDICTED BY IDOCK:    0.43 KCAL/MOL
REMARK 922        TOTAL FREE ENERGY PREDICTED BY IDOCK:   -0.59 KCAL/MOL
REMARK 923 INTER-LIGAND FREE ENERGY PREDICTED BY IDOCK:   -1.12 KCAL/MOL
REMARK 924 INTRA-LIGAND FREE ENERGY PREDICTED BY IDOCK:    0.53 KCAL/MOL
REMARK 927      BINDING AFFINITY PREDICTED BY RF-SCORE:    0.00 PKD
ROOT
HETATM    1  C   UNL     1      -9.607  15.157  70.253  1.00  0.00     0.406 C  
HETATM    2  C   UNL     1     -10.442  14.956  69.023  1.00  0.00    -0.247 A  
HETATM    3  C   UNL     1     -10.848  16.114  68.322  1.00  0.00    -0.326 A  
HETATM    4  C   UNL     1     -11.591  16.035  67.143  1.00  0.00     0.377 A  
HETATM    5  C   UNL     1     -11.958  14.795  66.642  1.00  0.00    -0.199 A  
HETATM    6  C   UNL     1     -11.573  13.638  67.320  1.00  0.00    -0.387 A  
HETATM    7  C   UNL     1     -10.818  13.694  68.510  1.00  0.00    -0.275 A  
ENDROOT
BRANCH   7   8
HETATM    8  C   UNL     1     -10.426  12.351  69.065  1.00  0.00     0.001 C  
HETATM    9  O   UNL     1      -9.953  12.334  70.198  1.00  0.00     2.103 OA 
HETATM   10  N   UNL     1     -10.568  11.251  68.238  1.00  0.00    -0.187 N  
HETATM   11  H   UNL     1     -11.039  11.410  67.347  1.00  0.00     0.000 HD 
BRANCH  10  12
HETATM   12  C   UNL     1     -10.130   9.927  68.495  1.00  0.00    -0.168 A  
HETATM   13  C   UNL     1      -8.810   9.487  68.360  1.00  0.00    -0.124 A  
HETATM   14  C   UNL     1      -8.438   8.136  68.579  1.00  0.00    -0.127 A  
HETATM   15  C   UNL     1      -7.001   7.758  68.330  1.00  0.00    -0.072 C  
HETATM   16  C   UNL     1      -9.418   7.195  68.968  1.00  0.00    -0.143 A  
HETATM   17  C   UNL     1     -10.749   7.640  69.052  1.00  0.00    -0.134 A  
HETATM   18  C   UNL     1     -11.095   8.985  68.851  1.00  0.00     0.125 A  
BRANCH  16  19
HETATM   19  C   UNL     1      -9.064   5.740  69.235  1.00  0.00    -0.118 C  
HETATM   20  N   UNL     1      -8.536   5.345  70.486  1.00  0.00    -0.120 N  
HETATM   21  O   UNL     1      -9.293   4.918  68.349  1.00  0.00    -0.118 OA 
HETATM   22  C   UNL     1      -8.159   3.935  70.708  1.00  0.00    -0.062 C  
HETATM   23  C   UNL     1      -8.992   3.184  71.752  1.00  0.00    -0.145 C  
HETATM   24  C   UNL     1      -9.046   3.807  73.149  1.00  0.00    -0.114 C  
HETATM   25  C   UNL     1      -9.586   5.239  73.133  1.00  0.00    -0.145 C  
HETATM   26  C   UNL     1      -8.485   6.212  72.762  1.00  0.00    -0.123 A  
HETATM   27  O   UNL     1     -10.152   5.579  74.399  1.00  0.00    -0.215 OA 
HETATM   28  H   UNL     1     -10.487   6.468  74.388  1.00  0.00     0.000 HD 
HETATM   29  C   UNL     1      -7.995   6.239  71.440  1.00  0.00    -0.109 A  
HETATM   30  C   UNL     1      -6.980   7.132  71.069  1.00  0.00    -0.061 A  
HETATM   31  C   UNL     1      -6.448   8.004  72.015  1.00  0.00    -0.055 A  
HETATM   32  C   UNL     1      -6.936   7.993  73.318  1.00  0.00    -0.103 A  
HETATM   33 CL   UNL     1      -6.281   9.075  74.484  1.00  0.00    -0.126 Cl 
HETATM   34  C   UNL     1      -7.951   7.109  73.693  1.00  0.00    -0.130 A  
ENDBRANCH  16  19
ENDBRANCH  10  12
ENDBRANCH   7   8
TORSDOF 3
ENDMDL
MODEL      101
REMARK 921   NORMALIZED FREE ENERGY PREDICTED BY IDOCK:    1.56 KCAL/MOL
REMARK 922        TOTAL FREE ENERGY PREDICTED BY IDOCK:    0.75 KCAL/MOL
REMARK 923 INTER-LIGAND FREE ENERGY PREDICTED BY IDOCK:    1.62 KCAL/MOL
REMARK 924 INTRA-LIGAND FREE ENERGY PREDICTED BY IDOCK:   -0.87 KCAL/MOL
REMARK 927      BINDING AFFINITY PREDICTED BY RF-SCORE:    0.00 PKD
ROOT
HETATM    1  C   UNL     1     -10.513   8.717  67.486  1.00  0.00    -0.335 C  
HETATM    2  C   UNL     1     -10.718   8.523  68.960  1.00  0.00    -0.113 A  
HETATM    3  C   UNL     1     -11.002   7.213  69.406  1.00  0.00    -0.189 A  
HETATM    4  C   UNL     1     -11.168   6.919  70.761  1.00  0.00    -0.338 A  
HETATM    5  C   UNL     1     -11.064   7.931  71.703  1.00  0.00    -0.285 A  
HETATM    6  C   UNL     1     -10.789   9.233  71.286  1.00  0.00    -0.417 A  
HETATM    7  C   UNL     1     -10.613   9.552  69.923  1.00  0.00    -0.269 A  
ENDROOT
BRANCH   7   8
HETATM    8  C   UNL     1     -10.247  10.988  69.660  1.00  0.00     0.112 C  
HETATM    9  O   UNL     1     -11.154  11.738  69.309  1.00  0.00    -0.242 OA 
HETATM   10  N   UNL     1      -8.913  11.339  69.772  1.00  0.00     0.314 N  
HETATM   11  H   UNL     1      -8.285  10.625  70.140  1.00  0.00     0.000 HD 
BRANCH  10  12
HETATM   12  C   UNL     1      -8.326  12.585  69.432  1.00  0.00     1.099 A  
HETATM   13  C   UNL     1      -7.421  12.776  68.384  1.00  0.00    -0.124 A  
HETATM   14  C   UNL     1      -6.824  14.035  68.122  1.00  0.00    -0.122 A  
HETATM   15  C   UNL     1      -5.805  14.107  67.014  1.00  0.00     1.240 C  
HETATM   16  C   UNL     1      -7.159  15.149  68.925  1.00  0.00    -0.125 A  
HETATM   17  C   UNL     1      -8.031  14.932  70.005  1.00  0.00     0.351 A  
HETATM   18  C   UNL     1      -8.628  13.683  70.237  1.00  0.00     3.346 A  
BRANCH  16  19
HETATM   19  C   UNL     1      -6.560  16.524  68.670  1.00  0.00    -0.145 C  
HETATM   20  N   UNL     1      -7.257  17.481  67.895  1.00  0.00    -0.187 N  
HETATM   21  O   UNL     1      -5.480  16.789  69.194  1.00  0.00    -0.134 OA 
HETATM   22  C   UNL     1      -6.637  18.792  67.624  1.00  0.00    -0.207 C  
HETATM   23  C   UNL     1      -7.346  20.000  68.249  1.00  0.00    -0.295 C  
HETATM   24  C   UNL     1      -8.824  20.175  67.892  1.00  0.00    -0.294 C  
HETATM   25  C   UNL     1      -9.667  18.953  68.267  1.00  0.00    -0.361 C  
HETATM   26  C   UNL     1      -9.554  17.888  67.196  1.00  0.00    -0.280 A  
HETATM   27  O   UNL     1     -11.031  19.325  68.467  1.00  0.00    -0.176 OA 
HETATM   28  H   UNL     1     -11.554  18.567  68.699  1.00  0.00     0.000 HD 
HETATM   29  C   UNL     1      -8.347  17.175  67.046  1.00  0.00    -0.207 A  
HETATM   30  C   UNL     1      -8.217  16.182  66.066  1.00  0.00     0.066 A  
HETATM   31  C   UNL     1      -9.292  15.893  65.230  1.00  0.00     0.473 A  
HETATM   32  C   UNL     1     -10.492  16.582  65.380  1.00  0.00    -0.269 A  
HETATM   33 CL   UNL     1     -11.820  16.219  64.350  1.00  0.00    -0.070 Cl 
HETATM   34  C   UNL     1     -10.629  17.570  66.359  1.00  0.00    -0.195 A  
ENDBRANCH  16  19
ENDBRANCH  10  12
ENDBRANCH   7   8
TORSDOF 3
ENDMDL
MODEL      102
REMARK 921   NORMALIZED FREE ENERGY PREDICTED BY IDOCK:    2.34 KCAL/MOL
REMARK 922        TOTAL FREE ENERGY PREDICTED BY IDOCK:    1.66 KCAL/MOL
REMARK 923 INTER-LIGAND FREE ENERGY PREDICTED BY IDOCK:    2.33 KCAL/MOL
REMARK 924 INTRA-LIGAND FREE ENERGY PREDICTED BY IDOCK:   -0.68 KCAL/MOL
REMARK 927      BINDING AFFINITY PREDICTED BY RF-SCORE:    0.00 PKD
ROOT
HETATM    1  C   UNL     1      -9.421   8.171  73.469  1.00  0.00    -0.143 C  
HETATM    2  C   UNL     1      -9.985   7.348  72.348  1.00  0.00    -0.221 A  
HETATM    3  C   UNL     1     -10.597   6.121  72.692  1.00  0.00    -0.246 A  
HETATM    4  C   UNL     1     -11.189   5.302  71.730  1.00  0.00     0.000 A  
HETATM    5  C   UNL     1     -11.174   5.682  70.397  1.00  0.00    -0.086 A  
HETATM    6  C   UNL     1     -10.571   6.887  70.033  1.00  0.00    -0.254 A  
HETATM    7  C   UNL     1      -9.971   7.733  70.989  1.00  0.00    -0.191 A  
ENDROOT
BRANCH   7   8
HETATM    8  C   UNL     1      -9.438   9.025  70.431  1.00  0.00    -0.210 C  
HETATM    9  O   UNL     1      -8.430   9.486  70.961  1.00  0.00    -0.284 OA 
HETATM   10  N   UNL     1     -10.155   9.626  69.412  1.00  0.00    -0.190 N  
HETATM   11  H   UNL     1     -10.934   9.092  69.028  1.00  0.00     0.000 HD 
BRANCH  10  12
HETATM   12  C   UNL     1      -9.923  10.905  68.843  1.00  0.00    -0.196 A  
HETATM   13  C   UNL     1     -10.683  12.046  69.118  1.00  0.00    -0.121 A  
HETATM   14  C   UNL     1     -10.439  13.288  68.479  1.00  0.00    -0.259 A  
HETATM   15  C   UNL     1     -11.368  14.430  68.796  1.00  0.00    -0.299 C  
HETATM   16  C   UNL     1      -9.383  13.399  67.546  1.00  0.00    -0.218 A  
HETATM   17  C   UNL     1      -8.659  12.233  67.242  1.00  0.00    -0.183 A  
HETATM   18  C   UNL     1      -8.902  11.017  67.900  1.00  0.00    -0.134 A  
BRANCH  16  19
HETATM   19  C   UNL     1      -9.069  14.715  66.851  1.00  0.00    -0.252 C  
HETATM   20  N   UNL     1      -9.768  15.096  65.681  1.00  0.00    -0.340 N  
HETATM   21  O   UNL     1      -8.226  15.450  67.361  1.00  0.00    -0.155 OA 
HETATM   22  C   UNL     1      -9.416  16.356  64.998  1.00  0.00     1.451 C  
HETATM   23  C   UNL     1     -10.503  17.438  65.004  1.00  0.00     0.526 C  
HETATM   24  C   UNL     1     -11.861  17.034  64.424  1.00  0.00     1.781 C  
HETATM   25  C   UNL     1     -12.468  15.824  65.138  1.00  0.00     1.058 C  
HETATM   26  C   UNL     1     -11.876  14.541  64.594  1.00  0.00    -0.462 A  
HETATM   27  O   UNL     1     -13.889  15.820  65.002  1.00  0.00     1.915 OA 
HETATM   28  H   UNL     1     -14.267  15.070  65.445  1.00  0.00     0.000 HD 
HETATM   29  C   UNL     1     -10.537  14.211  64.890  1.00  0.00    -0.430 A  
HETATM   30  C   UNL     1      -9.966  13.027  64.402  1.00  0.00    -0.131 A  
HETATM   31  C   UNL     1     -10.727  12.165  63.618  1.00  0.00    -0.518 A  
HETATM   32  C   UNL     1     -12.053  12.476  63.334  1.00  0.00    -0.529 A  
HETATM   33 CL   UNL     1     -12.993  11.407  62.369  1.00  0.00     1.758 Cl 
HETATM   34  C   UNL     1     -12.630  13.653  63.820  1.00  0.00    -0.106 A  
ENDBRANCH  16  19
ENDBRANCH  10  12
ENDBRANCH   7   8
TORSDOF 3
ENDMDL
MODEL      103
REMARK 921   NORMALIZED FREE ENERGY PREDICTED BY IDOCK:    3.21 KCAL/MOL
REMARK 922        TOTAL FREE ENERGY PREDICTED BY IDOCK:    2.68 KCAL/MOL
REMARK 923 INTER-LIGAND FREE ENERGY PREDICTED BY IDOCK:    1.06 KCAL/MOL
REMARK 924 INTRA-LIGAND FREE ENERGY PREDICTED BY IDOCK:    1.62 KCAL/MOL
REMARK 927      BINDING AFFINITY PREDICTED BY RF-SCORE:    0.00 PKD
ROOT
HETATM    1  C   UNL     1      -9.523   9.418  66.881  1.00  0.00    -0.204 C  
HETATM    2  C   UNL     1      -9.468  10.142  65.568  1.00  0.00    -0.286 A  
HETATM    3  C   UNL     1      -9.754   9.393  64.404  1.00  0.00     0.474 A  
HETATM    4  C   UNL     1      -9.771   9.981  63.138  1.00  0.00     0.053 A  
HETATM    5  C   UNL     1      -9.490  11.332  63.003  1.00  0.00    -0.385 A  
HETATM    6  C   UNL     1      -9.200  12.091  64.138  1.00  0.00     0.384 A  
HETATM    7  C   UNL     1      -9.182  11.519  65.426  1.00  0.00    -0.123 A  
ENDROOT
BRANCH   7   8
HETATM    8  C   UNL     1      -8.927  12.498  66.540  1.00  0.00    -0.132 C  
HETATM    9  O   UNL     1      -9.901  12.872  67.187  1.00  0.00    -0.217 OA 
HETATM   10  N   UNL     1      -7.630  12.949  66.711  1.00  0.00    -0.331 N  
HETATM   11  H   UNL     1      -6.913  12.497  66.144  1.00  0.00     0.000 HD 
BRANCH  10  12
HETATM   12  C   UNL     1      -7.189  13.971  67.591  1.00  0.00    -0.176 A  
HETATM   13  C   UNL     1      -6.812  13.766  68.921  1.00  0.00    -0.110 A  
HETATM   14  C   UNL     1      -6.430  14.835  69.771  1.00  0.00    -0.160 A  
HETATM   15  C   UNL     1      -6.117  14.506  71.208  1.00  0.00     0.033 C  
HETATM   16  C   UNL     1      -6.404  16.154  69.266  1.00  0.00    -0.174 A  
HETATM   17  C   UNL     1      -6.832  16.353  67.942  1.00  0.00    -0.152 A  
HETATM   18  C   UNL     1      -7.187  15.280  67.110  1.00  0.00    -0.139 A  
BRANCH  16  19
HETATM   19  C   UNL     1      -5.980  17.331  70.133  1.00  0.00    -0.116 C  
HETATM   20  N   UNL     1      -6.582  18.601  69.967  1.00  0.00     0.040 N  
HETATM   21  O   UNL     1      -5.137  17.131  71.005  1.00  0.00    -0.275 OA 
HETATM   22  C   UNL     1      -6.124  19.738  70.789  1.00  0.00    -0.189 C  
HETATM   23  C   UNL     1      -7.155  20.296  71.778  1.00  0.00     0.997 C  
HETATM   24  C   UNL     1      -8.490  20.746  71.179  1.00  0.00     2.736 C  
HETATM   25  C   UNL     1      -9.202  19.624  70.420  1.00  0.00     1.399 C  
HETATM   26  C   UNL     1      -8.639  19.497  69.020  1.00  0.00    -0.215 A  
HETATM   27  O   UNL     1     -10.609  19.858  70.378  1.00  0.00    -0.316 OA 
HETATM   28  H   UNL     1     -11.051  19.162  69.907  1.00  0.00     0.000 HD 
HETATM   29  C   UNL     1      -7.340  18.980  68.835  1.00  0.00    -0.325 A  
HETATM   30  C   UNL     1      -6.797  18.848  67.549  1.00  0.00    -0.211 A  
HETATM   31  C   UNL     1      -7.547  19.231  66.440  1.00  0.00    -0.278 A  
HETATM   32  C   UNL     1      -8.834  19.729  66.613  1.00  0.00    -0.359 A  
HETATM   33 CL   UNL     1      -9.761  20.196  65.242  1.00  0.00     0.262 Cl 
HETATM   34  C   UNL     1      -9.383  19.859  67.892  1.00  0.00    -0.448 A  
ENDBRANCH  16  19
ENDBRANCH  10  12
ENDBRANCH   7   8
TORSDOF 3
ENDMDL
MODEL      104
REMARK 921   NORMALIZED FREE ENERGY PREDICTED BY IDOCK:    3.35 KCAL/MOL
REMARK 922        TOTAL FREE ENERGY PREDICTED BY IDOCK:    2.85 KCAL/MOL
REMARK 923 INTER-LIGAND FREE ENERGY PREDICTED BY IDOCK:    1.36 KCAL/MOL
REMARK 924 INTRA-LIGAND FREE ENERGY PREDICTED BY IDOCK:    1.49 KCAL/MOL
REMARK 927      BINDING AFFINITY PREDICTED BY RF-SCORE:    0.00 PKD
ROOT
HETATM    1  C   UNL     1      -9.328  14.586  69.991  1.00  0.00     0.880 C  
HETATM    2  C   UNL     1     -10.350  14.588  68.893  1.00  0.00    -0.237 A  
HETATM    3  C   UNL     1     -10.629  15.826  68.272  1.00  0.00    -0.271 A  
HETATM    4  C   UNL     1     -11.532  15.928  67.213  1.00  0.00     0.099 A  
HETATM    5  C   UNL     1     -12.189  14.796  66.756  1.00  0.00     0.000 A  
HETATM    6  C   UNL     1     -11.934  13.563  67.357  1.00  0.00    -0.398 A  
HETATM    7  C   UNL     1     -11.022  13.436  68.426  1.00  0.00    -0.291 A  
ENDROOT
BRANCH   7   8
HETATM    8  C   UNL     1     -10.812  12.024  68.902  1.00  0.00    -0.211 C  
HETATM    9  O   UNL     1     -10.191  11.877  69.951  1.00  0.00     0.812 OA 
HETATM   10  N   UNL     1     -11.275  11.000  68.094  1.00  0.00    -0.277 N  
HETATM   11  H   UNL     1     -11.832  11.276  67.285  1.00  0.00     0.000 HD 
BRANCH  10  12
HETATM   12  C   UNL     1     -11.059   9.609  68.269  1.00  0.00    -0.046 A  
HETATM   13  C   UNL     1     -11.322   8.637  67.299  1.00  0.00     1.189 A  
HETATM   14  C   UNL     1     -11.137   7.253  67.548  1.00  0.00    -0.110 A  
HETATM   15  C   UNL     1     -11.525   6.290  66.456  1.00  0.00     0.702 C  
HETATM   16  C   UNL     1     -10.652   6.827  68.805  1.00  0.00    -0.258 A  
HETATM   17  C   UNL     1     -10.440   7.810  69.787  1.00  0.00    -0.233 A  
HETATM   18  C   UNL     1     -10.609   9.177  69.515  1.00  0.00    -0.233 A  
BRANCH  16  19
HETATM   19  C   UNL     1     -10.418   5.356  69.112  1.00  0.00    -0.207 C  
HETATM   20  N   UNL     1      -9.247   4.703  68.659  1.00  0.00    -0.117 N  
HETATM   21  O   UNL     1     -11.253   4.769  69.799  1.00  0.00     1.371 OA 
HETATM   22  C   UNL     1      -9.062   3.264  68.931  1.00  0.00    -0.146 C  
HETATM   23  C   UNL     1      -7.902   2.912  69.868  1.00  0.00    -0.049 C  
HETATM   24  C   UNL     1      -6.519   3.421  69.452  1.00  0.00    -0.033 C  
HETATM   25  C   UNL     1      -6.479   4.942  69.287  1.00  0.00    -0.036 C  
HETATM   26  C   UNL     1      -7.013   5.338  67.926  1.00  0.00    -0.065 A  
HETATM   27  O   UNL     1      -5.151   5.434  69.469  1.00  0.00    -0.003 OA 
HETATM   28  H   UNL     1      -5.126   6.378  69.367  1.00  0.00     0.000 HD 
HETATM   29  C   UNL     1      -8.391   5.211  67.654  1.00  0.00    -0.105 A  
HETATM   30  C   UNL     1      -8.912   5.574  66.404  1.00  0.00    -0.131 A  
HETATM   31  C   UNL     1      -8.061   6.066  65.418  1.00  0.00    -0.132 A  
HETATM   32  C   UNL     1      -6.703   6.207  65.683  1.00  0.00    -0.048 A  
HETATM   33 CL   UNL     1      -5.655   6.821  64.466  1.00  0.00    -0.030 Cl 
HETATM   34  C   UNL     1      -6.178   5.852  66.929  1.00  0.00    -0.030 A  
ENDBRANCH  16  19
ENDBRANCH  10  12
ENDBRANCH   7   8
TORSDOF 3
ENDMDL
MODEL      105
REMARK 921   NORMALIZED FREE ENERGY PREDICTED BY IDOCK:    5.06 KCAL/MOL
REMARK 922        TOTAL FREE ENERGY PREDICTED BY IDOCK:    4.85 KCAL/MOL
REMARK 923 INTER-LIGAND FREE ENERGY PREDICTED BY IDOCK:    2.82 KCAL/MOL
REMARK 924 INTRA-LIGAND FREE ENERGY PREDICTED BY IDOCK:    2.03 KCAL/MOL
REMARK 927      BINDING AFFINITY PREDICTED BY RF-SCORE:    0.00 PKD
ROOT
HETATM    1  C   UNL     1     -11.089   4.211  65.352  1.00  0.00     0.527 C  
HETATM    2  C   UNL     1      -9.676   3.717  65.255  1.00  0.00    -0.144 A  
HETATM    3  C   UNL     1      -9.488   2.330  65.058  1.00  0.00    -0.013 A  
HETATM    4  C   UNL     1      -8.216   1.775  64.913  1.00  0.00    -0.079 A  
HETATM    5  C   UNL     1      -7.097   2.592  64.973  1.00  0.00    -0.057 A  
HETATM    6  C   UNL     1      -7.257   3.963  65.173  1.00  0.00    -0.067 A  
HETATM    7  C   UNL     1      -8.533   4.546  65.317  1.00  0.00    -0.124 A  
ENDROOT
BRANCH   7   8
HETATM    8  C   UNL     1      -8.523   6.045  65.447  1.00  0.00    -0.145 C  
HETATM    9  O   UNL     1      -7.513   6.556  65.923  1.00  0.00    -0.078 OA 
HETATM   10  N   UNL     1      -9.670   6.727  65.083  1.00  0.00     0.730 N  
HETATM   11  H   UNL     1     -10.405   6.176  64.640  1.00  0.00     0.000 HD 
BRANCH  10  12
HETATM   12  C   UNL     1      -9.936   8.110  65.258  1.00  0.00     1.705 A  
HETATM   13  C   UNL     1     -10.135   9.018  64.215  1.00  0.00     2.618 A  
HETATM   14  C   UNL     1     -10.343  10.402  64.448  1.00  0.00    -0.111 A  
HETATM   15  C   UNL     1     -10.471  11.300  63.246  1.00  0.00    -0.370 C  
HETATM   16  C   UNL     1     -10.376  10.890  65.773  1.00  0.00    -0.303 A  
HETATM   17  C   UNL     1     -10.125   9.975  66.810  1.00  0.00    -0.286 A  
HETATM   18  C   UNL     1      -9.940   8.606  66.561  1.00  0.00    -0.353 A  
BRANCH  16  19
HETATM   19  C   UNL     1     -10.617  12.362  66.075  1.00  0.00    -0.256 C  
HETATM   20  N   UNL     1      -9.873  13.024  67.079  1.00  0.00    -0.233 N  
HETATM   21  O   UNL     1     -11.444  12.963  65.390  1.00  0.00    -0.306 OA 
HETATM   22  C   UNL     1     -10.155  14.439  67.385  1.00  0.00    -0.243 C  
HETATM   23  C   UNL     1      -9.026  15.424  67.059  1.00  0.00    -0.253 C  
HETATM   24  C   UNL     1      -7.671  15.137  67.709  1.00  0.00    -0.164 C  
HETATM   25  C   UNL     1      -7.132  13.749  67.357  1.00  0.00    -0.073 C  
HETATM   26  C   UNL     1      -7.761  12.699  68.249  1.00  0.00    -0.135 A  
HETATM   27  O   UNL     1      -5.709  13.718  67.469  1.00  0.00    -0.334 OA 
HETATM   28  H   UNL     1      -5.375  12.856  67.250  1.00  0.00     0.000 HD 
HETATM   29  C   UNL     1      -9.120  12.361  68.077  1.00  0.00    -0.195 A  
HETATM   30  C   UNL     1      -9.725  11.390  68.886  1.00  0.00    -0.105 A  
HETATM   31  C   UNL     1      -8.979  10.749  69.871  1.00  0.00     0.619 A  
HETATM   32  C   UNL     1      -7.634  11.065  70.037  1.00  0.00     0.604 A  
HETATM   33 CL   UNL     1      -6.712  10.268  71.250  1.00  0.00     0.473 Cl 
HETATM   34  C   UNL     1      -7.023  12.030  69.231  1.00  0.00    -0.028 A  
ENDBRANCH  16  19
ENDBRANCH  10  12
ENDBRANCH   7   8
TORSDOF 3
ENDMDL
MODEL      106
REMARK 921   NORMALIZED FREE ENERGY PREDICTED BY IDOCK:    6.36 KCAL/MOL
REMARK 922        TOTAL FREE ENERGY PREDICTED BY IDOCK:    6.38 KCAL/MOL
REMARK 923 INTER-LIGAND FREE ENERGY PREDICTED BY IDOCK:    5.64 KCAL/MOL
REMARK 924 INTRA-LIGAND FREE ENERGY PREDICTED BY IDOCK:    0.74 KCAL/MOL
REMARK 927      BINDING AFFINITY PREDICTED BY RF-SCORE:    0.00 PKD
ROOT
HETATM    1  C   UNL     1      -9.353  17.699  66.325  1.00  0.00    -0.217 C  
HETATM    2  C   UNL     1      -9.623  18.014  67.766  1.00  0.00    -0.278 A  
HETATM    3  C   UNL     1      -9.736  19.377  68.120  1.00  0.00    -0.470 A  
HETATM    4  C   UNL     1     -10.028  19.774  69.426  1.00  0.00    -0.224 A  
HETATM    5  C   UNL     1     -10.203  18.818  70.415  1.00  0.00     1.581 A  
HETATM    6  C   UNL     1     -10.092  17.465  70.090  1.00  0.00     0.961 A  
HETATM    7  C   UNL     1      -9.802  17.041  68.776  1.00  0.00    -0.278 A  
ENDROOT
BRANCH   7   8
HETATM    8  C   UNL     1      -9.795  15.548  68.590  1.00  0.00    -0.207 C  
HETATM    9  O   UNL     1     -10.876  15.010  68.366  1.00  0.00    -0.243 OA 
HETATM   10  N   UNL     1      -8.588  14.889  68.748  1.00  0.00    -0.171 N  
HETATM   11  H   UNL     1      -7.762  15.475  68.865  1.00  0.00     0.000 HD 
BRANCH  10  12
HETATM   12  C   UNL     1      -8.376  13.487  68.764  1.00  0.00     0.067 A  
HETATM   13  C   UNL     1      -8.424  12.689  69.911  1.00  0.00     2.780 A  
HETATM   14  C   UNL     1      -8.150  11.298  69.876  1.00  0.00     1.095 A  
HETATM   15  C   UNL     1      -8.157  10.553  71.185  1.00  0.00     3.182 C  
HETATM   16  C   UNL     1      -7.838  10.678  68.645  1.00  0.00    -0.121 A  
HETATM   17  C   UNL     1      -7.744  11.499  67.509  1.00  0.00    -0.132 A  
HETATM   18  C   UNL     1      -8.039  12.871  67.559  1.00  0.00    -0.181 A  
BRANCH  16  19
HETATM   19  C   UNL     1      -7.558   9.186  68.554  1.00  0.00    -0.085 C  
HETATM   20  N   UNL     1      -7.612   8.517  67.308  1.00  0.00    -0.096 N  
HETATM   21  O   UNL     1      -7.241   8.593  69.584  1.00  0.00    -0.051 OA 
HETATM   22  C   UNL     1      -7.381   7.061  67.249  1.00  0.00    -0.091 C  
HETATM   23  C   UNL     1      -6.120   6.622  66.495  1.00  0.00    -0.033 C  
HETATM   24  C   UNL     1      -5.997   7.105  65.047  1.00  0.00    -0.037 C  
HETATM   25  C   UNL     1      -6.046   8.630  64.931  1.00  0.00    -0.060 C  
HETATM   26  C   UNL     1      -7.482   9.113  64.950  1.00  0.00    -0.105 A  
HETATM   27  O   UNL     1      -5.384   9.066  63.744  1.00  0.00    -0.060 OA 
HETATM   28  H   UNL     1      -5.414  10.013  63.672  1.00  0.00     0.000 HD 
HETATM   29  C   UNL     1      -8.224   9.047  66.147  1.00  0.00    -0.115 A  
HETATM   30  C   UNL     1      -9.553   9.491  66.193  1.00  0.00    -0.302 A  
HETATM   31  C   UNL     1     -10.149  10.004  65.044  1.00  0.00    -0.228 A  
HETATM   32  C   UNL     1      -9.419  10.086  63.863  1.00  0.00    -0.220 A  
HETATM   33 CL   UNL     1     -10.156  10.726  62.446  1.00  0.00     0.128 Cl 
HETATM   34  C   UNL     1      -8.093   9.649  63.811  1.00  0.00    -0.148 A  
ENDBRANCH  16  19
ENDBRANCH  10  12
ENDBRANCH   7   8
TORSDOF 3
ENDMDL
MODEL      107
REMARK 921   NORMALIZED FREE ENERGY PREDICTED BY IDOCK:    7.25 KCAL/MOL
REMARK 922        TOTAL FREE ENERGY PREDICTED BY IDOCK:    7.43 KCAL/MOL
REMARK 923 INTER-LIGAND FREE ENERGY PREDICTED BY IDOCK:    7.76 KCAL/MOL
REMARK 924 INTRA-LIGAND FREE ENERGY PREDICTED BY IDOCK:   -0.33 KCAL/MOL
REMARK 927      BINDING AFFINITY PREDICTED BY RF-SCORE:    0.00 PKD
ROOT
HETATM    1  C   UNL     1      -5.166  10.846  65.254  1.00  0.00    -0.109 C  
HETATM    2  C   UNL     1      -5.869  10.087  66.340  1.00  0.00    -0.060 A  
HETATM    3  C   UNL     1      -5.502   8.735  66.525  1.00  0.00    -0.035 A  
HETATM    4  C   UNL     1      -6.066   7.953  67.535  1.00  0.00    -0.050 A  
HETATM    5  C   UNL     1      -7.020   8.501  68.379  1.00  0.00    -0.066 A  
HETATM    6  C   UNL     1      -7.401   9.833  68.213  1.00  0.00    -0.079 A  
HETATM    7  C   UNL     1      -6.842  10.642  67.202  1.00  0.00    -0.083 A  
ENDROOT
BRANCH   7   8
HETATM    8  C   UNL     1      -7.311  12.072  67.217  1.00  0.00    -0.151 C  
HETATM    9  O   UNL     1      -6.841  12.803  68.084  1.00  0.00    -0.074 OA 
HETATM   10  N   UNL     1      -8.280  12.437  66.298  1.00  0.00    -0.299 N  
HETATM   11  H   UNL     1      -8.525  11.739  65.595  1.00  0.00     0.000 HD 
BRANCH  10  12
HETATM   12  C   UNL     1      -8.968  13.675  66.227  1.00  0.00     0.134 A  
HETATM   13  C   UNL     1     -10.356  13.808  66.129  1.00  0.00    -0.301 A  
HETATM   14  C   UNL     1     -10.986  15.073  66.008  1.00  0.00    -0.334 A  
HETATM   15  C   UNL     1     -12.483  15.092  65.833  1.00  0.00     0.407 C  
HETATM   16  C   UNL     1     -10.202  16.248  66.006  1.00  0.00    -0.376 A  
HETATM   17  C   UNL     1      -8.806  16.098  66.055  1.00  0.00    -0.313 A  
HETATM   18  C   UNL     1      -8.200  14.839  66.195  1.00  0.00     1.010 A  
BRANCH  16  19
HETATM   19  C   UNL     1     -10.834  17.627  65.899  1.00  0.00     0.027 C  
HETATM   20  N   UNL     1     -11.223  18.334  67.061  1.00  0.00     0.251 N  
HETATM   21  O   UNL     1     -10.953  18.123  64.779  1.00  0.00    -0.634 OA 
HETATM   22  C   UNL     1     -11.875  19.651  66.932  1.00  0.00     1.770 C  
HETATM   23  C   UNL     1     -11.076  20.841  67.478  1.00  0.00     1.785 C  
HETATM   24  C   UNL     1     -10.647  20.749  68.945  1.00  0.00     0.553 C  
HETATM   25  C   UNL     1      -9.801  19.508  69.233  1.00  0.00    -0.278 C  
HETATM   26  C   UNL     1     -10.692  18.300  69.438  1.00  0.00     0.853 A  
HETATM   27  O   UNL     1      -8.968  19.719  70.373  1.00  0.00     0.921 OA 
HETATM   28  H   UNL     1      -8.443  18.948  70.552  1.00  0.00     0.000 HD 
HETATM   29  C   UNL     1     -11.375  17.742  68.338  1.00  0.00     0.797 A  
HETATM   30  C   UNL     1     -12.203  16.623  68.500  1.00  0.00     1.234 A  
HETATM   31  C   UNL     1     -12.353  16.052  69.760  1.00  0.00     0.089 A  
HETATM   32  C   UNL     1     -11.671  16.587  70.849  1.00  0.00     0.124 A  
HETATM   33 CL   UNL     1     -11.853  15.876  72.404  1.00  0.00    -0.578 Cl 
HETATM   34  C   UNL     1     -10.840  17.700  70.693  1.00  0.00     1.623 A  
ENDBRANCH  16  19
ENDBRANCH  10  12
ENDBRANCH   7   8
TORSDOF 3
ENDMDL
MODEL      108
REMARK 921   NORMALIZED FREE ENERGY PREDICTED BY IDOCK:    7.45 KCAL/MOL
REMARK 922        TOTAL FREE ENERGY PREDICTED BY IDOCK:    7.67 KCAL/MOL
REMARK 923 INTER-LIGAND FREE ENERGY PREDICTED BY IDOCK:   -0.42 KCAL/MOL
REMARK 924 INTRA-LIGAND FREE ENERGY PREDICTED BY IDOCK:    8.09 KCAL/MOL
REMARK 927      BINDING AFFINITY PREDICTED BY RF-SCORE:    0.00 PKD
ROOT
HETATM    1  C   UNL     1      -6.425  16.055  67.273  1.00  0.00    -0.200 C  
HETATM    2  C   UNL     1      -5.987  16.335  68.680  1.00  0.00    -0.109 A  
HETATM    3  C   UNL     1      -5.898  17.690  69.072  1.00  0.00    -0.193 A  
HETATM    4  C   UNL     1      -5.541  18.056  70.371  1.00  0.00    -0.221 A  
HETATM    5  C   UNL     1      -5.252  17.076  71.308  1.00  0.00    -0.013 A  
HETATM    6  C   UNL     1      -5.328  15.732  70.943  1.00  0.00    -0.098 A  
HETATM    7  C   UNL     1      -5.692  15.339  69.638  1.00  0.00    -0.113 A  
ENDROOT
BRANCH   7   8
HETATM    8  C   UNL     1      -5.798  13.850  69.442  1.00  0.00    -0.093 C  
HETATM    9  O   UNL     1      -6.020  13.454  68.301  1.00  0.00    -0.075 OA 
HETATM   10  N   UNL     1      -5.702  13.048  70.565  1.00  0.00    -0.173 N  
HETATM   11  H   UNL     1      -5.448  13.514  71.436  1.00  0.00     0.000 HD 
BRANCH  10  12
HETATM   12  C   UNL     1      -5.918  11.648  70.637  1.00  0.00    -0.005 A  
HETATM   13  C   UNL     1      -6.778  11.022  71.543  1.00  0.00     2.605 A  
HETATM   14  C   UNL     1      -6.914   9.612  71.605  1.00  0.00     0.517 A  
HETATM   15  C   UNL     1      -7.813   9.044  72.672  1.00  0.00     0.525 C  
HETATM   16  C   UNL     1      -6.179   8.799  70.713  1.00  0.00    -0.039 A  
HETATM   17  C   UNL     1      -5.281   9.437  69.841  1.00  0.00    -0.033 A  
HETATM   18  C   UNL     1      -5.175  10.836  69.780  1.00  0.00    -0.039 A  
BRANCH  16  19
HETATM   19  C   UNL     1      -6.307   7.283  70.727  1.00  0.00    -0.039 C  
HETATM   20  N   UNL     1      -7.580   6.667  70.673  1.00  0.00    -0.093 N  
HETATM   21  O   UNL     1      -5.274   6.616  70.741  1.00  0.00    -0.018 OA 
HETATM   22  C   UNL     1      -7.683   5.196  70.733  1.00  0.00    -0.080 C  
HETATM   23  C   UNL     1      -8.216   4.519  69.465  1.00  0.00    -0.067 C  
HETATM   24  C   UNL     1      -9.584   4.995  68.970  1.00  0.00    -0.214 C  
HETATM   25  C   UNL     1      -9.615   6.499  68.687  1.00  0.00    -0.125 C  
HETATM   26  C   UNL     1      -9.833   7.271  69.972  1.00  0.00    -0.175 A  
HETATM   27  O   UNL     1     -10.631   6.812  67.733  1.00  0.00    -0.195 OA 
HETATM   28  H   UNL     1     -10.650   7.745  67.558  1.00  0.00     0.000 HD 
HETATM   29  C   UNL     1      -8.799   7.337  70.929  1.00  0.00    -0.149 A  
HETATM   30  C   UNL     1      -8.973   8.048  72.125  1.00  0.00    -0.221 A  
HETATM   31  C   UNL     1     -10.179   8.699  72.372  1.00  0.00    -0.319 A  
HETATM   32  C   UNL     1     -11.199   8.650  71.426  1.00  0.00    -0.277 A  
HETATM   33 CL   UNL     1     -12.685   9.459  71.731  1.00  0.00    -0.439 Cl 
HETATM   34  C   UNL     1     -11.030   7.947  70.230  1.00  0.00    -0.249 A  
ENDBRANCH  16  19
ENDBRANCH  10  12
ENDBRANCH   7   8
TORSDOF 3
ENDMDL
MODEL      109
REMARK 921   NORMALIZED FREE ENERGY PREDICTED BY IDOCK:    7.99 KCAL/MOL
REMARK 922        TOTAL FREE ENERGY PREDICTED BY IDOCK:    8.30 KCAL/MOL
REMARK 923 INTER-LIGAND FREE ENERGY PREDICTED BY IDOCK:    8.60 KCAL/MOL
REMARK 924 INTRA-LIGAND FREE ENERGY PREDICTED BY IDOCK:   -0.30 KCAL/MOL
REMARK 927      BINDING AFFINITY PREDICTED BY RF-SCORE:    0.00 PKD
ROOT
HETATM    1  C   UNL     1     -12.609  16.813  73.684  1.00  0.00    -0.052 C  
HETATM    2  C   UNL     1     -11.828  16.980  72.414  1.00  0.00     0.544 A  
HETATM    3  C   UNL     1     -11.495  18.298  72.029  1.00  0.00     4.053 A  
HETATM    4  C   UNL     1     -10.735  18.559  70.887  1.00  0.00     2.667 A  
HETATM    5  C   UNL     1     -10.298  17.508  70.096  1.00  0.00     0.837 A  
HETATM    6  C   UNL     1     -10.618  16.198  70.453  1.00  0.00    -0.058 A  
HETATM    7  C   UNL     1     -11.381  15.911  71.604  1.00  0.00    -0.356 A  
ENDROOT
BRANCH   7   8
HETATM    8  C   UNL     1     -11.566  14.443  71.880  1.00  0.00     0.416 C  
HETATM    9  O   UNL     1     -11.175  14.027  72.967  1.00  0.00     2.084 OA 
HETATM   10  N   UNL     1     -12.101  13.665  70.869  1.00  0.00    -0.473 N  
HETATM   11  H   UNL     1     -12.442  14.160  70.045  1.00  0.00     0.000 HD 
BRANCH  10  12
HETATM   12  C   UNL     1     -12.226  12.252  70.853  1.00  0.00    -0.197 A  
HETATM   13  C   UNL     1     -12.716  11.486  71.915  1.00  0.00    -0.250 A  
HETATM   14  C   UNL     1     -12.769  10.070  71.863  1.00  0.00    -0.493 A  
HETATM   15  C   UNL     1     -13.245   9.344  73.095  1.00  0.00     0.925 C  
HETATM   16  C   UNL     1     -12.336   9.396  70.700  1.00  0.00    -0.094 A  
HETATM   17  C   UNL     1     -11.800  10.174  69.659  1.00  0.00    -0.114 A  
HETATM   18  C   UNL     1     -11.774  11.576  69.720  1.00  0.00    -0.426 A  
BRANCH  16  19
HETATM   19  C   UNL     1     -12.394   7.880  70.589  1.00  0.00     0.137 C  
HETATM   20  N   UNL     1     -11.246   7.094  70.851  1.00  0.00    -0.266 N  
HETATM   21  O   UNL     1     -13.474   7.362  70.310  1.00  0.00     0.821 OA 
HETATM   22  C   UNL     1     -11.314   5.628  70.694  1.00  0.00     0.121 C  
HETATM   23  C   UNL     1     -11.148   4.817  71.984  1.00  0.00     0.141 C  
HETATM   24  C   UNL     1      -9.870   5.075  72.786  1.00  0.00    -0.191 C  
HETATM   25  C   UNL     1      -9.717   6.543  73.190  1.00  0.00    -0.158 C  
HETATM   26  C   UNL     1      -9.138   7.347  72.044  1.00  0.00    -0.149 A  
HETATM   27  O   UNL     1      -8.897   6.662  74.353  1.00  0.00    -0.148 OA 
HETATM   28  H   UNL     1      -8.802   7.574  74.604  1.00  0.00     0.000 HD 
HETATM   29  C   UNL     1      -9.928   7.605  70.905  1.00  0.00    -0.180 A  
HETATM   30  C   UNL     1      -9.418   8.349  69.832  1.00  0.00    -0.166 A  
HETATM   31  C   UNL     1      -8.118   8.842  69.890  1.00  0.00    -0.109 A  
HETATM   32  C   UNL     1      -7.336   8.604  71.016  1.00  0.00    -0.083 A  
HETATM   33 CL   UNL     1      -5.732   9.218  71.088  1.00  0.00    -0.054 Cl 
HETATM   34  C   UNL     1      -7.840   7.866  72.091  1.00  0.00    -0.129 A  
ENDBRANCH  16  19
ENDBRANCH  10  12
ENDBRANCH   7   8
TORSDOF 3
ENDMDL
MODEL      110
REMARK 921   NORMALIZED FREE ENERGY PREDICTED BY IDOCK:    9.75 KCAL/MOL
REMARK 922        TOTAL FREE ENERGY PREDICTED BY IDOCK:   10.37 KCAL/MOL
REMARK 923 INTER-LIGAND FREE ENERGY PREDICTED BY IDOCK:    6.21 KCAL/MOL
REMARK 924 INTRA-LIGAND FREE ENERGY PREDICTED BY IDOCK:    4.16 KCAL/MOL
REMARK 927      BINDING AFFINITY PREDICTED BY RF-SCORE:    0.00 PKD
ROOT
HETATM    1  C   UNL     1      -9.672   9.534  71.471  1.00  0.00     0.240 C  
HETATM    2  C   UNL     1     -10.226   9.019  70.176  1.00  0.00    -0.224 A  
HETATM    3  C   UNL     1     -11.209   8.006  70.250  1.00  0.00    -0.192 A  
HETATM    4  C   UNL     1     -11.818   7.488  69.106  1.00  0.00     1.103 A  
HETATM    5  C   UNL     1     -11.451   7.964  67.856  1.00  0.00     1.141 A  
HETATM    6  C   UNL     1     -10.479   8.960  67.757  1.00  0.00    -0.300 A  
HETATM    7  C   UNL     1      -9.854   9.501  68.900  1.00  0.00    -0.179 A  
ENDROOT
BRANCH   7   8
HETATM    8  C   UNL     1      -8.889  10.618  68.614  1.00  0.00    -0.151 C  
HETATM    9  O   UNL     1      -7.784  10.549  69.145  1.00  0.00    -0.109 OA 
HETATM   10  N   UNL     1      -9.337  11.666  67.829  1.00  0.00    -0.173 N  
HETATM   11  H   UNL     1     -10.256  11.553  67.401  1.00  0.00     0.000 HD 
BRANCH  10  12
HETATM   12  C   UNL     1      -8.657  12.881  67.555  1.00  0.00    -0.188 A  
HETATM   13  C   UNL     1      -9.079  13.834  66.624  1.00  0.00    -0.196 A  
HETATM   14  C   UNL     1      -8.330  15.007  66.353  1.00  0.00     0.154 A  
HETATM   15  C   UNL     1      -8.841  15.928  65.275  1.00  0.00     1.561 C  
HETATM   16  C   UNL     1      -7.126  15.246  67.053  1.00  0.00     0.067 A  
HETATM   17  C   UNL     1      -6.689  14.257  67.950  1.00  0.00    -0.177 A  
HETATM   18  C   UNL     1      -7.454  13.111  68.220  1.00  0.00    -0.129 A  
BRANCH  16  19
HETATM   19  C   UNL     1      -6.300  16.500  66.812  1.00  0.00    -0.056 C  
HETATM   20  N   UNL     1      -6.814  17.777  67.140  1.00  0.00    -0.167 N  
HETATM   21  O   UNL     1      -5.161  16.364  66.367  1.00  0.00    -0.228 OA 
HETATM   22  C   UNL     1      -6.012  18.983  66.856  1.00  0.00    -0.162 C  
HETATM   23  C   UNL     1      -5.541  19.768  68.085  1.00  0.00    -0.226 C  
HETATM   24  C   UNL     1      -6.636  20.234  69.049  1.00  0.00    -0.281 C  
HETATM   25  C   UNL     1      -7.476  19.074  69.588  1.00  0.00     0.201 C  
HETATM   26  C   UNL     1      -8.547  18.691  68.587  1.00  0.00    -0.338 A  
HETATM   27  O   UNL     1      -8.061  19.417  70.844  1.00  0.00     1.981 OA 
HETATM   28  H   UNL     1      -8.583  18.697  71.179  1.00  0.00     0.000 HD 
HETATM   29  C   UNL     1      -8.181  18.043  67.389  1.00  0.00    -0.224 A  
HETATM   30  C   UNL     1      -9.152  17.674  66.448  1.00  0.00    -0.257 A  
HETATM   31  C   UNL     1     -10.494  17.947  66.697  1.00  0.00    -0.318 A  
HETATM   32  C   UNL     1     -10.865  18.572  67.884  1.00  0.00    -0.200 A  
HETATM   33 CL   UNL     1     -12.524  18.903  68.193  1.00  0.00     4.696 Cl 
HETATM   34  C   UNL     1      -9.902  18.939  68.828  1.00  0.00    -0.461 A  
ENDBRANCH  16  19
ENDBRANCH  10  12
ENDBRANCH   7   8
TORSDOF 3
ENDMDL
MODEL      111
REMARK 921   NORMALIZED FREE ENERGY PREDICTED BY IDOCK:   11.64 KCAL/MOL
REMARK 922        TOTAL FREE ENERGY PREDICTED BY IDOCK:   12.59 KCAL/MOL
REMARK 923 INTER-LIGAND FREE ENERGY PREDICTED BY IDOCK:   13.02 KCAL/MOL
REMARK 924 INTRA-LIGAND FREE ENERGY PREDICTED BY IDOCK:   -0.43 KCAL/MOL
REMARK 927      BINDING AFFINITY PREDICTED BY RF-SCORE:    0.00 PKD
ROOT
HETATM    1  C   UNL     1      -9.611   4.249  70.438  1.00  0.00    -0.265 C  
HETATM    2  C   UNL     1      -8.142   4.085  70.183  1.00  0.00    -0.062 A  
HETATM    3  C   UNL     1      -7.506   2.965  70.767  1.00  0.00    -0.036 A  
HETATM    4  C   UNL     1      -6.152   2.698  70.557  1.00  0.00    -0.019 A  
HETATM    5  C   UNL     1      -5.396   3.551  69.767  1.00  0.00    -0.011 A  
HETATM    6  C   UNL     1      -6.001   4.665  69.184  1.00  0.00    -0.022 A  
HETATM    7  C   UNL     1      -7.368   4.952  69.379  1.00  0.00    -0.056 A  
ENDROOT
BRANCH   7   8
HETATM    8  C   UNL     1      -7.870   6.148  68.615  1.00  0.00    -0.101 C  
HETATM    9  O   UNL     1      -7.041   6.783  67.969  1.00  0.00    -0.080 OA 
HETATM   10  N   UNL     1      -9.207   6.477  68.749  1.00  0.00    -0.132 N  
HETATM   11  H   UNL     1      -9.789   5.817  69.265  1.00  0.00     0.000 HD 
BRANCH  10  12
HETATM   12  C   UNL     1      -9.856   7.634  68.246  1.00  0.00    -0.166 A  
HETATM   13  C   UNL     1      -9.945   7.969  66.892  1.00  0.00    -0.338 A  
HETATM   14  C   UNL     1     -10.561   9.167  66.449  1.00  0.00    -0.002 A  
HETATM   15  C   UNL     1     -10.532   9.462  64.972  1.00  0.00     1.653 C  
HETATM   16  C   UNL     1     -11.129  10.052  67.393  1.00  0.00    -0.157 A  
HETATM   17  C   UNL     1     -10.989   9.727  68.754  1.00  0.00    -0.185 A  
HETATM   18  C   UNL     1     -10.394   8.527  69.172  1.00  0.00    -0.227 A  
BRANCH  16  19
HETATM   19  C   UNL     1     -11.819  11.338  66.966  1.00  0.00     0.414 C  
HETATM   20  N   UNL     1     -11.066  12.504  66.694  1.00  0.00    -0.270 N  
HETATM   21  O   UNL     1     -13.040  11.318  66.822  1.00  0.00     4.628 OA 
HETATM   22  C   UNL     1     -11.760  13.753  66.324  1.00  0.00    -0.376 C  
HETATM   23  C   UNL     1     -11.504  14.254  64.898  1.00  0.00    -0.378 C  
HETATM   24  C   UNL     1     -10.040  14.482  64.515  1.00  0.00     0.396 C  
HETATM   25  C   UNL     1      -9.187  13.221  64.676  1.00  0.00     1.451 C  
HETATM   26  C   UNL     1      -8.763  13.055  66.121  1.00  0.00     0.432 A  
HETATM   27  O   UNL     1      -8.047  13.272  63.819  1.00  0.00     6.088 OA 
HETATM   28  H   UNL     1      -7.517  12.489  63.919  1.00  0.00     0.000 HD 
HETATM   29  C   UNL     1      -9.721  12.692  67.091  1.00  0.00    -0.211 A  
HETATM   30  C   UNL     1      -9.354  12.528  68.434  1.00  0.00    -0.149 A  
HETATM   31  C   UNL     1      -8.030  12.722  68.816  1.00  0.00     0.069 A  
HETATM   32  C   UNL     1      -7.076  13.065  67.863  1.00  0.00    -0.128 A  
HETATM   33 CL   UNL     1      -5.440  13.300  68.337  1.00  0.00    -0.079 Cl 
HETATM   34  C   UNL     1      -7.434  13.227  66.522  1.00  0.00     1.337 A  
ENDBRANCH  16  19
ENDBRANCH  10  12
ENDBRANCH   7   8
TORSDOF 3
ENDMDL
MODEL      112
REMARK 921   NORMALIZED FREE ENERGY PREDICTED BY IDOCK:   15.00 KCAL/MOL
REMARK 922        TOTAL FREE ENERGY PREDICTED BY IDOCK:   16.53 KCAL/MOL
REMARK 923 INTER-LIGAND FREE ENERGY PREDICTED BY IDOCK:   16.60 KCAL/MOL
REMARK 924 INTRA-LIGAND FREE ENERGY PREDICTED BY IDOCK:   -0.06 KCAL/MOL
REMARK 927      BINDING AFFINITY PREDICTED BY RF-SCORE:    0.00 PKD
ROOT
HETATM    1  C   UNL     1      -9.247   6.918  69.211  1.00  0.00    -0.139 C  
HETATM    2  C   UNL     1     -10.277   7.164  70.274  1.00  0.00    -0.207 A  
HETATM    3  C   UNL     1     -11.177   6.112  70.555  1.00  0.00    -0.403 A  
HETATM    4  C   UNL     1     -12.146   6.223  71.555  1.00  0.00    -0.185 A  
HETATM    5  C   UNL     1     -12.246   7.395  72.290  1.00  0.00    -0.206 A  
HETATM    6  C   UNL     1     -11.370   8.449  72.026  1.00  0.00    -0.411 A  
HETATM    7  C   UNL     1     -10.381   8.356  71.024  1.00  0.00    -0.244 A  
ENDROOT
BRANCH   7   8
HETATM    8  C   UNL     1      -9.477   9.555  70.928  1.00  0.00    -0.116 C  
HETATM    9  O   UNL     1      -8.870   9.877  71.945  1.00  0.00     1.287 OA 
HETATM   10  N   UNL     1      -9.447  10.239  69.725  1.00  0.00    -0.393 N  
HETATM   11  H   UNL     1      -9.952   9.814  68.948  1.00  0.00     0.000 HD 
BRANCH  10  12
HETATM   12  C   UNL     1      -8.789  11.466  69.456  1.00  0.00     0.776 A  
HETATM   13  C   UNL     1      -8.174  12.266  70.424  1.00  0.00     4.818 A  
HETATM   14  C   UNL     1      -7.576  13.512  70.104  1.00  0.00     1.625 A  
HETATM   15  C   UNL     1      -7.010  14.326  71.239  1.00  0.00     1.543 C  
HETATM   16  C   UNL     1      -7.575  13.965  68.766  1.00  0.00    -0.108 A  
HETATM   17  C   UNL     1      -8.239  13.175  67.812  1.00  0.00    -0.168 A  
HETATM   18  C   UNL     1      -8.808  11.935  68.143  1.00  0.00    -0.178 A  
BRANCH  16  19
HETATM   19  C   UNL     1      -6.928  15.284  68.371  1.00  0.00    -0.111 C  
HETATM   20  N   UNL     1      -7.706  16.459  68.247  1.00  0.00    -0.156 N  
HETATM   21  O   UNL     1      -5.709  15.303  68.209  1.00  0.00    -0.103 OA 
HETATM   22  C   UNL     1      -7.065  17.718  67.820  1.00  0.00    -0.195 C  
HETATM   23  C   UNL     1      -7.039  18.836  68.868  1.00  0.00    -0.333 C  
HETATM   24  C   UNL     1      -8.395  19.253  69.444  1.00  0.00     0.079 C  
HETATM   25  C   UNL     1      -9.142  18.086  70.093  1.00  0.00     2.359 C  
HETATM   26  C   UNL     1      -9.862  17.271  69.038  1.00  0.00    -0.237 A  
HETATM   27  O   UNL     1     -10.061  18.561  71.077  1.00  0.00     1.921 OA 
HETATM   28  H   UNL     1     -10.525  17.836  71.480  1.00  0.00     0.000 HD 
HETATM   29  C   UNL     1      -9.117  16.472  68.146  1.00  0.00    -0.207 A  
HETATM   30  C   UNL     1      -9.759  15.705  67.164  1.00  0.00    -0.226 A  
HETATM   31  C   UNL     1     -11.147  15.729  67.067  1.00  0.00    -0.152 A  
HETATM   32  C   UNL     1     -11.890  16.503  67.952  1.00  0.00     0.590 A  
HETATM   33 CL   UNL     1     -13.606  16.527  67.834  1.00  0.00     5.717 Cl 
HETATM   34  C   UNL     1     -11.257  17.267  68.937  1.00  0.00     0.360 A  
ENDBRANCH  16  19
ENDBRANCH  10  12
ENDBRANCH   7   8
TORSDOF 3
ENDMDL
MODEL      113
REMARK 921   NORMALIZED FREE ENERGY PREDICTED BY IDOCK:   17.10 KCAL/MOL
REMARK 922        TOTAL FREE ENERGY PREDICTED BY IDOCK:   19.01 KCAL/MOL
REMARK 923 INTER-LIGAND FREE ENERGY PREDICTED BY IDOCK:   17.02 KCAL/MOL
REMARK 924 INTRA-LIGAND FREE ENERGY PREDICTED BY IDOCK:    1.99 KCAL/MOL
REMARK 927      BINDING AFFINITY PREDICTED BY RF-SCORE:    0.00 PKD
ROOT
HETATM    1  C   UNL     1     -12.732  17.102  73.770  1.00  0.00     0.849 C  
HETATM    2  C   UNL     1     -11.792  17.556  72.692  1.00  0.00     1.743 A  
HETATM    3  C   UNL     1     -11.538  18.943  72.598  1.00  0.00     6.059 A  
HETATM    4  C   UNL     1     -10.647  19.463  71.658  1.00  0.00     3.534 A  
HETATM    5  C   UNL     1      -9.995  18.610  70.780  1.00  0.00     2.574 A  
HETATM    6  C   UNL     1     -10.234  17.237  70.852  1.00  0.00     2.435 A  
HETATM    7  C   UNL     1     -11.127  16.689  71.796  1.00  0.00     0.677 A  
ENDROOT
BRANCH   7   8
HETATM    8  C   UNL     1     -11.204  15.186  71.783  1.00  0.00    -0.223 C  
HETATM    9  O   UNL     1     -10.921  14.605  72.826  1.00  0.00     0.800 OA 
HETATM   10  N   UNL     1     -11.525  14.573  70.585  1.00  0.00    -0.476 N  
HETATM   11  H   UNL     1     -11.802  15.187  69.819  1.00  0.00     0.000 HD 
BRANCH  10  12
HETATM   12  C   UNL     1     -11.511  13.182  70.306  1.00  0.00     0.154 A  
HETATM   13  C   UNL     1     -12.480  12.275  70.742  1.00  0.00    -0.356 A  
HETATM   14  C   UNL     1     -12.387  10.885  70.478  1.00  0.00    -0.463 A  
HETATM   15  C   UNL     1     -13.450   9.990  71.063  1.00  0.00    -0.253 C  
HETATM   16  C   UNL     1     -11.296  10.386  69.732  1.00  0.00    -0.353 A  
HETATM   17  C   UNL     1     -10.303  11.301  69.342  1.00  0.00    -0.037 A  
HETATM   18  C   UNL     1     -10.423  12.677  69.595  1.00  0.00     0.729 A  
BRANCH  16  19
HETATM   19  C   UNL     1     -11.163   8.906  69.405  1.00  0.00     0.159 C  
HETATM   20  N   UNL     1      -9.936   8.379  68.937  1.00  0.00    -0.182 N  
HETATM   21  O   UNL     1     -12.137   8.182  69.603  1.00  0.00     0.857 OA 
HETATM   22  C   UNL     1      -9.843   6.949  68.584  1.00  0.00    -0.145 C  
HETATM   23  C   UNL     1      -8.917   6.108  69.470  1.00  0.00    -0.133 C  
HETATM   24  C   UNL     1      -7.468   6.588  69.579  1.00  0.00    -0.093 C  
HETATM   25  C   UNL     1      -7.362   8.022  70.103  1.00  0.00    -0.061 C  
HETATM   26  C   UNL     1      -7.585   9.011  68.977  1.00  0.00    -0.078 A  
HETATM   27  O   UNL     1      -6.094   8.241  70.721  1.00  0.00    -0.032 OA 
HETATM   28  H   UNL     1      -6.028   9.131  71.046  1.00  0.00     0.000 HD 
HETATM   29  C   UNL     1      -8.875   9.165  68.430  1.00  0.00    -0.129 A  
HETATM   30  C   UNL     1      -9.109  10.076  67.390  1.00  0.00    -0.146 A  
HETATM   31  C   UNL     1      -8.057  10.839  66.891  1.00  0.00    -0.132 A  
HETATM   32  C   UNL     1      -6.784  10.704  67.436  1.00  0.00    -0.075 A  
HETATM   33 CL   UNL     1      -5.488  11.653  66.822  1.00  0.00    -0.129 Cl 
HETATM   34  C   UNL     1      -6.545   9.801  68.476  1.00  0.00    -0.051 A  
ENDBRANCH  16  19
ENDBRANCH  10  12
ENDBRANCH   7   8
TORSDOF 3
ENDMDL
MODEL      114
REMARK 921   NORMALIZED FREE ENERGY PREDICTED BY IDOCK:   19.65 KCAL/MOL
REMARK 922        TOTAL FREE ENERGY PREDICTED BY IDOCK:   22.01 KCAL/MOL
REMARK 923 INTER-LIGAND FREE ENERGY PREDICTED BY IDOCK:    7.52 KCAL/MOL
REMARK 924 INTRA-LIGAND FREE ENERGY PREDICTED BY IDOCK:   14.49 KCAL/MOL
REMARK 927      BINDING AFFINITY PREDICTED BY RF-SCORE:    0.00 PKD
ROOT
HETATM    1  C   UNL     1      -8.635  14.569  70.753  1.00  0.00     2.808 C  
HETATM    2  C   UNL     1      -9.400  15.189  69.621  1.00  0.00    -0.091 A  
HETATM    3  C   UNL     1      -9.256  16.582  69.432  1.00  0.00    -0.013 A  
HETATM    4  C   UNL     1      -9.891  17.249  68.382  1.00  0.00    -0.309 A  
HETATM    5  C   UNL     1     -10.696  16.541  67.503  1.00  0.00    -0.283 A  
HETATM    6  C   UNL     1     -10.856  15.166  67.673  1.00  0.00    -0.295 A  
HETATM    7  C   UNL     1     -10.221  14.471  68.723  1.00  0.00    -0.244 A  
ENDROOT
BRANCH   7   8
HETATM    8  C   UNL     1     -10.443  12.983  68.711  1.00  0.00    -0.164 C  
HETATM    9  O   UNL     1     -10.415  12.407  69.795  1.00  0.00     0.534 OA 
HETATM   10  N   UNL     1     -10.598  12.369  67.480  1.00  0.00    -0.216 N  
HETATM   11  H   UNL     1     -10.667  12.985  66.671  1.00  0.00     0.000 HD 
BRANCH  10  12
HETATM   12  C   UNL     1     -10.670  10.976  67.223  1.00  0.00    -0.265 A  
HETATM   13  C   UNL     1      -9.958  10.316  66.218  1.00  0.00    -0.295 A  
HETATM   14  C   UNL     1     -10.111   8.927  65.972  1.00  0.00    -0.098 A  
HETATM   15  C   UNL     1      -9.349   8.337  64.813  1.00  0.00     0.899 C  
HETATM   16  C   UNL     1     -10.991   8.167  66.773  1.00  0.00     0.421 A  
HETATM   17  C   UNL     1     -11.738   8.852  67.747  1.00  0.00     2.341 A  
HETATM   18  C   UNL     1     -11.559  10.223  67.990  1.00  0.00     0.105 A  
BRANCH  16  19
HETATM   19  C   UNL     1     -11.173   6.672  66.561  1.00  0.00     0.494 C  
HETATM   20  N   UNL     1     -10.102   5.876  66.092  1.00  0.00    -0.031 N  
HETATM   21  O   UNL     1     -12.260   6.175  66.851  1.00  0.00     2.165 OA 
HETATM   22  C   UNL     1     -10.313   4.435  65.851  1.00  0.00    -0.204 C  
HETATM   23  C   UNL     1      -9.528   3.489  66.767  1.00  0.00    -0.190 C  
HETATM   24  C   UNL     1      -8.008   3.673  66.784  1.00  0.00    -0.091 C  
HETATM   25  C   UNL     1      -7.592   5.089  67.187  1.00  0.00    -0.088 C  
HETATM   26  C   UNL     1      -7.672   6.020  65.995  1.00  0.00    -0.095 A  
HETATM   27  O   UNL     1      -6.275   5.090  67.739  1.00  0.00    -0.035 OA 
HETATM   28  H   UNL     1      -6.017   5.969  67.989  1.00  0.00     0.000 HD 
HETATM   29  C   UNL     1      -8.933   6.392  65.484  1.00  0.00     0.058 A  
HETATM   30  C   UNL     1      -9.035   7.256  64.385  1.00  0.00     0.966 A  
HETATM   31  C   UNL     1      -7.880   7.754  63.788  1.00  0.00    -0.132 A  
HETATM   32  C   UNL     1      -6.632   7.403  64.295  1.00  0.00    -0.047 A  
HETATM   33 CL   UNL     1      -5.207   8.024  63.560  1.00  0.00    -0.048 Cl 
HETATM   34  C   UNL     1      -6.524   6.546  65.394  1.00  0.00    -0.039 A  
ENDBRANCH  16  19
ENDBRANCH  10  12
ENDBRANCH   7   8
TORSDOF 3
ENDMDL
MODEL      115
REMARK 921   NORMALIZED FREE ENERGY PREDICTED BY IDOCK:   21.64 KCAL/MOL
REMARK 922        TOTAL FREE ENERGY PREDICTED BY IDOCK:   24.34 KCAL/MOL
REMARK 923 INTER-LIGAND FREE ENERGY PREDICTED BY IDOCK:   24.45 KCAL/MOL
REMARK 924 INTRA-LIGAND FREE ENERGY PREDICTED BY IDOCK:   -0.11 KCAL/MOL
REMARK 927      BINDING AFFINITY PREDICTED BY RF-SCORE:    0.00 PKD
ROOT
HETATM    1  C   UNL     1     -10.371   3.880  69.549  1.00  0.00     0.957 C  
HETATM    2  C   UNL     1      -9.407   4.081  68.417  1.00  0.00    -0.218 A  
HETATM    3  C   UNL     1      -8.497   3.033  68.151  1.00  0.00    -0.102 A  
HETATM    4  C   UNL     1      -7.587   3.102  67.095  1.00  0.00    -0.074 A  
HETATM    5  C   UNL     1      -7.557   4.226  66.284  1.00  0.00    -0.089 A  
HETATM    6  C   UNL     1      -8.443   5.275  66.530  1.00  0.00    -0.112 A  
HETATM    7  C   UNL     1      -9.373   5.225  67.589  1.00  0.00    -0.128 A  
ENDROOT
BRANCH   7   8
HETATM    8  C   UNL     1     -10.301   6.408  67.661  1.00  0.00    -0.197 C  
HETATM    9  O   UNL     1     -10.970   6.651  66.661  1.00  0.00    -0.274 OA 
HETATM   10  N   UNL     1     -10.283   7.166  68.818  1.00  0.00    -0.174 N  
HETATM   11  H   UNL     1      -9.726   6.802  69.591  1.00  0.00     0.000 HD 
BRANCH  10  12
HETATM   12  C   UNL     1     -10.956   8.393  69.047  1.00  0.00     0.120 A  
HETATM   13  C   UNL     1     -11.820   9.007  68.135  1.00  0.00     2.347 A  
HETATM   14  C   UNL     1     -12.425  10.263  68.396  1.00  0.00     2.190 A  
HETATM   15  C   UNL     1     -13.278  10.865  67.310  1.00  0.00     9.354 C  
HETATM   16  C   UNL     1     -12.174  10.919  69.621  1.00  0.00    -0.354 A  
HETATM   17  C   UNL     1     -11.265  10.316  70.507  1.00  0.00    -0.408 A  
HETATM   18  C   UNL     1     -10.692   9.062  70.241  1.00  0.00    -0.262 A  
BRANCH  16  19
HETATM   19  C   UNL     1     -12.816  12.257  69.955  1.00  0.00     0.534 C  
HETATM   20  N   UNL     1     -12.129  13.469  69.704  1.00  0.00    -0.321 N  
HETATM   21  O   UNL     1     -13.960  12.252  70.405  1.00  0.00     2.644 OA 
HETATM   22  C   UNL     1     -12.753  14.753  70.077  1.00  0.00    -0.157 C  
HETATM   23  C   UNL     1     -13.115  15.677  68.908  1.00  0.00     1.829 C  
HETATM   24  C   UNL     1     -11.970  16.048  67.962  1.00  0.00     0.333 C  
HETATM   25  C   UNL     1     -11.303  14.821  67.336  1.00  0.00    -0.351 C  
HETATM   26  C   UNL     1     -10.292  14.226  68.295  1.00  0.00    -0.242 A  
HETATM   27  O   UNL     1     -10.681  15.162  66.097  1.00  0.00    -0.310 OA 
HETATM   28  H   UNL     1     -10.267  14.400  65.709  1.00  0.00     0.000 HD 
HETATM   29  C   UNL     1     -10.740  13.558  69.454  1.00  0.00     0.095 A  
HETATM   30  C   UNL     1      -9.825  12.995  70.355  1.00  0.00     4.347 A  
HETATM   31  C   UNL     1      -8.460  13.094  70.106  1.00  0.00     3.602 A  
HETATM   32  C   UNL     1      -8.010  13.739  68.957  1.00  0.00     0.136 A  
HETATM   33 CL   UNL     1      -6.323  13.855  68.648  1.00  0.00    -0.084 Cl 
HETATM   34  C   UNL     1      -8.916  14.298  68.052  1.00  0.00    -0.183 A  
ENDBRANCH  16  19
ENDBRANCH  10  12
ENDBRANCH   7   8
TORSDOF 3
ENDMDL
MODEL      116
REMARK 921   NORMALIZED FREE ENERGY PREDICTED BY IDOCK:   23.45 KCAL/MOL
REMARK 922        TOTAL FREE ENERGY PREDICTED BY IDOCK:   26.46 KCAL/MOL
REMARK 923 INTER-LIGAND FREE ENERGY PREDICTED BY IDOCK:   16.88 KCAL/MOL
REMARK 924 INTRA-LIGAND FREE ENERGY PREDICTED BY IDOCK:    9.59 KCAL/MOL
REMARK 927      BINDING AFFINITY PREDICTED BY RF-SCORE:    0.00 PKD
ROOT
HETATM    1  C   UNL     1      -8.101   3.997  65.832  1.00  0.00    -0.101 C  
HETATM    2  C   UNL     1      -7.201   3.894  67.028  1.00  0.00    -0.064 A  
HETATM    3  C   UNL     1      -7.152   2.649  67.694  1.00  0.00    -0.049 A  
HETATM    4  C   UNL     1      -6.316   2.436  68.791  1.00  0.00    -0.029 A  
HETATM    5  C   UNL     1      -5.514   3.467  69.257  1.00  0.00    -0.016 A  
HETATM    6  C   UNL     1      -5.549   4.707  68.618  1.00  0.00    -0.016 A  
HETATM    7  C   UNL     1      -6.383   4.943  67.505  1.00  0.00    -0.040 A  
ENDROOT
BRANCH   7   8
HETATM    8  C   UNL     1      -6.236   6.311  66.894  1.00  0.00    -0.039 C  
HETATM    9  O   UNL     1      -5.374   6.445  66.030  1.00  0.00    -0.013 OA 
HETATM   10  N   UNL     1      -7.035   7.324  67.393  1.00  0.00    -0.076 N  
HETATM   11  H   UNL     1      -7.753   7.048  68.063  1.00  0.00     0.000 HD 
BRANCH  10  12
HETATM   12  C   UNL     1      -6.964   8.704  67.075  1.00  0.00    -0.074 A  
HETATM   13  C   UNL     1      -7.396   9.736  67.913  1.00  0.00    -0.085 A  
HETATM   14  C   UNL     1      -7.350  11.098  67.520  1.00  0.00    -0.102 A  
HETATM   15  C   UNL     1      -7.912  12.119  68.475  1.00  0.00    -0.119 C  
HETATM   16  C   UNL     1      -6.834  11.442  66.251  1.00  0.00     0.068 A  
HETATM   17  C   UNL     1      -6.450  10.393  65.399  1.00  0.00    -0.115 A  
HETATM   18  C   UNL     1      -6.484   9.052  65.813  1.00  0.00    -0.064 A  
BRANCH  16  19
HETATM   19  C   UNL     1      -6.745  12.890  65.793  1.00  0.00     5.012 C  
HETATM   20  N   UNL     1      -7.510  13.896  66.429  1.00  0.00     1.712 N  
HETATM   21  O   UNL     1      -5.958  13.162  64.887  1.00  0.00     9.101 OA 
HETATM   22  C   UNL     1      -7.441  15.286  65.939  1.00  0.00     3.413 C  
HETATM   23  C   UNL     1      -6.823  16.299  66.910  1.00  0.00    -0.195 C  
HETATM   24  C   UNL     1      -7.475  16.394  68.292  1.00  0.00    -0.161 C  
HETATM   25  C   UNL     1      -7.482  15.054  69.032  1.00  0.00    -0.156 C  
HETATM   26  C   UNL     1      -8.643  14.201  68.564  1.00  0.00    -0.163 A  
HETATM   27  O   UNL     1      -7.543  15.258  70.443  1.00  0.00     0.038 OA 
HETATM   28  H   UNL     1      -7.547  14.427  70.902  1.00  0.00     0.000 HD 
HETATM   29  C   UNL     1      -8.618  13.639  67.271  1.00  0.00    -0.214 A  
HETATM   30  C   UNL     1      -9.677  12.842  66.815  1.00  0.00    -0.246 A  
HETATM   31  C   UNL     1     -10.767  12.601  67.646  1.00  0.00    -0.239 A  
HETATM   32  C   UNL     1     -10.793  13.140  68.929  1.00  0.00    -0.204 A  
HETATM   33 CL   UNL     1     -12.138  12.836  69.957  1.00  0.00    -0.388 Cl 
HETATM   34  C   UNL     1      -9.738  13.931  69.391  1.00  0.00     0.502 A  
ENDBRANCH  16  19
ENDBRANCH  10  12
ENDBRANCH   7   8
TORSDOF 3
ENDMDL
MODEL      117
REMARK 921   NORMALIZED FREE ENERGY PREDICTED BY IDOCK:   25.03 KCAL/MOL
REMARK 922        TOTAL FREE ENERGY PREDICTED BY IDOCK:   28.33 KCAL/MOL
REMARK 923 INTER-LIGAND FREE ENERGY PREDICTED BY IDOCK:   11.46 KCAL/MOL
REMARK 924 INTRA-LIGAND FREE ENERGY PREDICTED BY IDOCK:   16.87 KCAL/MOL
REMARK 927      BINDING AFFINITY PREDICTED BY RF-SCORE:    0.00 PKD
ROOT
HETATM    1  C   UNL     1     -12.383  16.419  65.189  1.00  0.00     2.156 C  
HETATM    2  C   UNL     1     -12.094  17.069  66.510  1.00  0.00     3.106 A  
HETATM    3  C   UNL     1     -12.250  18.471  66.588  1.00  0.00     4.480 A  
HETATM    4  C   UNL     1     -12.047  19.167  67.781  1.00  0.00     3.038 A  
HETATM    5  C   UNL     1     -11.671  18.478  68.925  1.00  0.00     3.714 A  
HETATM    6  C   UNL     1     -11.506  17.093  68.871  1.00  0.00     0.624 A  
HETATM    7  C   UNL     1     -11.710  16.370  67.677  1.00  0.00     0.441 A  
ENDROOT
BRANCH   7   8
HETATM    8  C   UNL     1     -11.564  14.879  67.819  1.00  0.00    -0.339 C  
HETATM    9  O   UNL     1     -11.494  14.226  66.781  1.00  0.00    -0.337 OA 
HETATM   10  N   UNL     1     -11.583  14.352  69.098  1.00  0.00    -0.287 N  
HETATM   11  H   UNL     1     -11.578  15.024  69.866  1.00  0.00     0.000 HD 
BRANCH  10  12
HETATM   12  C   UNL     1     -11.608  12.981  69.458  1.00  0.00    -0.276 A  
HETATM   13  C   UNL     1     -11.003  11.956  68.724  1.00  0.00    -0.280 A  
HETATM   14  C   UNL     1     -11.106  10.593  69.104  1.00  0.00    -0.309 A  
HETATM   15  C   UNL     1     -10.478   9.567  68.197  1.00  0.00    -0.268 C  
HETATM   16  C   UNL     1     -11.823  10.244  70.270  1.00  0.00    -0.372 A  
HETATM   17  C   UNL     1     -12.468  11.278  70.971  1.00  0.00    -0.503 A  
HETATM   18  C   UNL     1     -12.338  12.624  70.591  1.00  0.00    -0.375 A  
BRANCH  16  19
HETATM   19  C   UNL     1     -11.943   8.799  70.729  1.00  0.00    -0.133 C  
HETATM   20  N   UNL     1     -11.043   7.815  70.256  1.00  0.00    -0.255 N  
HETATM   21  O   UNL     1     -12.815   8.526  71.553  1.00  0.00    -0.320 OA 
HETATM   22  C   UNL     1     -11.207   6.411  70.680  1.00  0.00    -0.339 C  
HETATM   23  C   UNL     1     -10.075   5.846  71.546  1.00  0.00    -0.238 C  
HETATM   24  C   UNL     1      -8.667   5.923  70.951  1.00  0.00    -0.131 C  
HETATM   25  C   UNL     1      -8.254   7.355  70.603  1.00  0.00    -0.112 C  
HETATM   26  C   UNL     1      -8.823   7.753  69.257  1.00  0.00    -0.139 A  
HETATM   27  O   UNL     1      -6.832   7.484  70.606  1.00  0.00    -0.046 OA 
HETATM   28  H   UNL     1      -6.575   8.372  70.390  1.00  0.00     0.000 HD 
HETATM   29  C   UNL     1     -10.209   7.979  69.125  1.00  0.00    -0.217 A  
HETATM   30  C   UNL     1     -10.761   8.353  67.892  1.00  0.00    -0.141 A  
HETATM   31  C   UNL     1      -9.933   8.504  66.783  1.00  0.00    -0.351 A  
HETATM   32  C   UNL     1      -8.563   8.297  66.907  1.00  0.00    -0.119 A  
HETATM   33 CL   UNL     1      -7.542   8.490  65.537  1.00  0.00    -0.088 Cl 
HETATM   34  C   UNL     1      -8.006   7.929  68.135  1.00  0.00    -0.125 A  
ENDBRANCH  16  19
ENDBRANCH  10  12
ENDBRANCH   7   8
TORSDOF 3
ENDMDL
MODEL      118
REMARK 921   NORMALIZED FREE ENERGY PREDICTED BY IDOCK:   27.27 KCAL/MOL
REMARK 922        TOTAL FREE ENERGY PREDICTED BY IDOCK:   30.96 KCAL/MOL
REMARK 923 INTER-LIGAND FREE ENERGY PREDICTED BY IDOCK:   30.27 KCAL/MOL
REMARK 924 INTRA-LIGAND FREE ENERGY PREDICTED BY IDOCK:    0.69 KCAL/MOL
REMARK 927      BINDING AFFINITY PREDICTED BY RF-SCORE:    0.00 PKD
ROOT
HETATM    1  C   UNL     1     -13.945   9.134  73.035  1.00  0.00     0.178 C  
HETATM    2  C   UNL     1     -13.001   8.367  72.158  1.00  0.00    -0.370 A  
HETATM    3  C   UNL     1     -13.350   7.034  71.844  1.00  0.00    -0.242 A  
HETATM    4  C   UNL     1     -12.562   6.248  71.002  1.00  0.00     0.448 A  
HETATM    5  C   UNL     1     -11.398   6.771  70.461  1.00  0.00    -0.394 A  
HETATM    6  C   UNL     1     -11.030   8.084  70.760  1.00  0.00    -0.259 A  
HETATM    7  C   UNL     1     -11.813   8.897  71.605  1.00  0.00    -0.415 A  
ENDROOT
BRANCH   7   8
HETATM    8  C   UNL     1     -11.309  10.307  71.757  1.00  0.00     0.823 C  
HETATM    9  O   UNL     1     -10.190  10.448  72.243  1.00  0.00     3.712 OA 
HETATM   10  N   UNL     1     -12.164  11.335  71.400  1.00  0.00    -0.174 N  
HETATM   11  H   UNL     1     -13.037  11.063  70.948  1.00  0.00     0.000 HD 
BRANCH  10  12
HETATM   12  C   UNL     1     -11.958  12.724  71.595  1.00  0.00     1.225 A  
HETATM   13  C   UNL     1     -12.974  13.650  71.850  1.00  0.00    -0.432 A  
HETATM   14  C   UNL     1     -12.715  15.038  71.984  1.00  0.00    -0.406 A  
HETATM   15  C   UNL     1     -13.897  15.951  72.182  1.00  0.00    -0.259 C  
HETATM   16  C   UNL     1     -11.390  15.515  71.879  1.00  0.00    -0.456 A  
HETATM   17  C   UNL     1     -10.385  14.582  71.574  1.00  0.00     2.469 A  
HETATM   18  C   UNL     1     -10.657  13.209  71.465  1.00  0.00     6.638 A  
BRANCH  16  19
HETATM   19  C   UNL     1     -11.060  16.992  72.036  1.00  0.00     1.380 C  
HETATM   20  N   UNL     1     -10.603  17.749  70.932  1.00  0.00     1.701 N  
HETATM   21  O   UNL     1     -11.245  17.511  73.136  1.00  0.00     0.866 OA 
HETATM   22  C   UNL     1     -10.246  19.169  71.118  1.00  0.00     2.613 C  
HETATM   23  C   UNL     1     -11.140  20.177  70.385  1.00  0.00     3.068 C  
HETATM   24  C   UNL     1     -11.265  19.991  68.871  1.00  0.00     1.736 C  
HETATM   25  C   UNL     1     -11.795  18.606  68.491  1.00  0.00     3.435 C  
HETATM   26  C   UNL     1     -10.669  17.592  68.503  1.00  0.00    -0.237 A  
HETATM   27  O   UNL     1     -12.427  18.642  67.211  1.00  0.00     3.495 OA 
HETATM   28  H   UNL     1     -12.755  17.782  66.975  1.00  0.00     0.000 HD 
HETATM   29  C   UNL     1     -10.109  17.187  69.732  1.00  0.00     0.234 A  
HETATM   30  C   UNL     1      -9.070  16.247  69.771  1.00  0.00     0.399 A  
HETATM   31  C   UNL     1      -8.585  15.704  68.585  1.00  0.00    -0.188 A  
HETATM   32  C   UNL     1      -9.142  16.088  67.369  1.00  0.00    -0.199 A  
HETATM   33 CL   UNL     1      -8.545  15.411  65.904  1.00  0.00     0.186 Cl 
HETATM   34  C   UNL     1     -10.181  17.021  67.323  1.00  0.00    -0.310 A  
ENDBRANCH  16  19
ENDBRANCH  10  12
ENDBRANCH   7   8
TORSDOF 3
ENDMDL
MODEL      119
REMARK 921   NORMALIZED FREE ENERGY PREDICTED BY IDOCK:   28.86 KCAL/MOL
REMARK 922        TOTAL FREE ENERGY PREDICTED BY IDOCK:   32.83 KCAL/MOL
REMARK 923 INTER-LIGAND FREE ENERGY PREDICTED BY IDOCK:   31.94 KCAL/MOL
REMARK 924 INTRA-LIGAND FREE ENERGY PREDICTED BY IDOCK:    0.89 KCAL/MOL
REMARK 927      BINDING AFFINITY PREDICTED BY RF-SCORE:    0.00 PKD
ROOT
HETATM    1  C   UNL     1     -11.294  10.142  64.862  1.00  0.00     2.617 C  
HETATM    2  C   UNL     1     -10.577   8.880  65.242  1.00  0.00     2.784 A  
HETATM    3  C   UNL     1     -10.454   7.883  64.248  1.00  0.00     8.205 A  
HETATM    4  C   UNL     1      -9.769   6.690  64.486  1.00  0.00     2.693 A  
HETATM    5  C   UNL     1      -9.200   6.459  65.728  1.00  0.00     0.032 A  
HETATM    6  C   UNL     1      -9.312   7.427  66.727  1.00  0.00    -0.202 A  
HETATM    7  C   UNL     1      -9.996   8.641  66.508  1.00  0.00    -0.353 A  
ENDROOT
BRANCH   7   8
HETATM    8  C   UNL     1      -9.953   9.599  67.667  1.00  0.00    -0.174 C  
HETATM    9  O   UNL     1      -9.414   9.203  68.697  1.00  0.00    -0.142 OA 
HETATM   10  N   UNL     1     -10.577  10.824  67.508  1.00  0.00    -0.220 N  
HETATM   11  H   UNL     1     -10.924  11.040  66.573  1.00  0.00     0.000 HD 
BRANCH  10  12
HETATM   12  C   UNL     1     -10.787  11.812  68.504  1.00  0.00    -0.224 A  
HETATM   13  C   UNL     1     -11.246  11.550  69.798  1.00  0.00    -0.237 A  
HETATM   14  C   UNL     1     -11.489  12.585  70.737  1.00  0.00     1.005 A  
HETATM   15  C   UNL     1     -12.054  12.192  72.077  1.00  0.00     1.532 C  
HETATM   16  C   UNL     1     -11.244  13.928  70.376  1.00  0.00     0.207 A  
HETATM   17  C   UNL     1     -10.831  14.182  69.057  1.00  0.00    -0.273 A  
HETATM   18  C   UNL     1     -10.576  13.143  68.147  1.00  0.00    -0.257 A  
BRANCH  16  19
HETATM   19  C   UNL     1     -11.469  15.071  71.355  1.00  0.00    -0.318 C  
HETATM   20  N   UNL     1     -10.659  16.230  71.309  1.00  0.00     0.806 N  
HETATM   21  O   UNL     1     -12.401  14.973  72.152  1.00  0.00    -0.324 OA 
HETATM   22  C   UNL     1     -10.866  17.306  72.297  1.00  0.00     2.702 C  
HETATM   23  C   UNL     1     -11.367  18.638  71.728  1.00  0.00     4.957 C  
HETATM   24  C   UNL     1     -10.510  19.267  70.626  1.00  0.00     1.891 C  
HETATM   25  C   UNL     1     -10.327  18.339  69.423  1.00  0.00     0.291 C  
HETATM   26  C   UNL     1      -9.218  17.343  69.692  1.00  0.00     0.762 A  
HETATM   27  O   UNL     1     -10.052  19.093  68.243  1.00  0.00    -0.374 OA 
HETATM   28  H   UNL     1      -9.938  18.517  67.496  1.00  0.00     0.000 HD 
HETATM   29  C   UNL     1      -9.422  16.308  70.628  1.00  0.00     2.168 A  
HETATM   30  C   UNL     1      -8.413  15.371  70.892  1.00  0.00     2.516 A  
HETATM   31  C   UNL     1      -7.195  15.460  70.223  1.00  0.00     0.317 A  
HETATM   32  C   UNL     1      -6.992  16.469  69.287  1.00  0.00    -0.227 A  
HETATM   33 CL   UNL     1      -5.489  16.574  68.457  1.00  0.00    -0.114 Cl 
HETATM   34  C   UNL     1      -7.994  17.404  69.016  1.00  0.00    -0.110 A  
ENDBRANCH  16  19
ENDBRANCH  10  12
ENDBRANCH   7   8
TORSDOF 3
ENDMDL
MODEL      120
REMARK 921   NORMALIZED FREE ENERGY PREDICTED BY IDOCK:   33.37 KCAL/MOL
REMARK 922        TOTAL FREE ENERGY PREDICTED BY IDOCK:   38.14 KCAL/MOL
REMARK 923 INTER-LIGAND FREE ENERGY PREDICTED BY IDOCK:   39.02 KCAL/MOL
REMARK 924 INTRA-LIGAND FREE ENERGY PREDICTED BY IDOCK:   -0.88 KCAL/MOL
REMARK 927      BINDING AFFINITY PREDICTED BY RF-SCORE:    0.00 PKD
ROOT
HETATM    1  C   UNL     1      -9.915  12.067  63.219  1.00  0.00    -0.339 C  
HETATM    2  C   UNL     1      -8.847  11.212  63.835  1.00  0.00     0.089 A  
HETATM    3  C   UNL     1      -8.487  10.032  63.146  1.00  0.00    -0.181 A  
HETATM    4  C   UNL     1      -7.476   9.190  63.612  1.00  0.00    -0.106 A  
HETATM    5  C   UNL     1      -6.807   9.501  64.787  1.00  0.00    -0.103 A  
HETATM    6  C   UNL     1      -7.150  10.659  65.487  1.00  0.00    -0.048 A  
HETATM    7  C   UNL     1      -8.165  11.526  65.032  1.00  0.00     0.767 A  
ENDROOT
BRANCH   7   8
HETATM    8  C   UNL     1      -8.348  12.764  65.867  1.00  0.00     1.245 C  
HETATM    9  O   UNL     1      -8.755  12.605  67.015  1.00  0.00    -0.197 OA 
HETATM   10  N   UNL     1      -8.109  13.985  65.263  1.00  0.00     4.186 N  
HETATM   11  H   UNL     1      -7.710  13.958  64.325  1.00  0.00     0.000 HD 
BRANCH  10  12
HETATM   12  C   UNL     1      -8.357  15.272  65.807  1.00  0.00     1.502 A  
HETATM   13  C   UNL     1      -7.377  16.104  66.355  1.00  0.00     0.138 A  
HETATM   14  C   UNL     1      -7.691  17.360  66.935  1.00  0.00    -0.249 A  
HETATM   15  C   UNL     1      -6.565  18.140  67.563  1.00  0.00    -0.197 C  
HETATM   16  C   UNL     1      -9.031  17.809  66.947  1.00  0.00    -0.265 A  
HETATM   17  C   UNL     1     -10.012  16.941  66.438  1.00  0.00    -0.321 A  
HETATM   18  C   UNL     1      -9.680  15.710  65.851  1.00  0.00    -0.388 A  
BRANCH  16  19
HETATM   19  C   UNL     1      -9.414  19.157  67.538  1.00  0.00    -0.307 C  
HETATM   20  N   UNL     1      -9.704  19.284  68.917  1.00  0.00    -0.429 N  
HETATM   21  O   UNL     1      -9.419  20.134  66.791  1.00  0.00    -0.371 OA 
HETATM   22  C   UNL     1     -10.117  20.592  69.460  1.00  0.00     0.635 C  
HETATM   23  C   UNL     1      -9.139  21.235  70.451  1.00  0.00     4.133 C  
HETATM   24  C   UNL     1      -8.768  20.394  71.675  1.00  0.00     2.237 C  
HETATM   25  C   UNL     1      -8.154  19.044  71.296  1.00  0.00     4.997 C  
HETATM   26  C   UNL     1      -9.244  18.045  70.964  1.00  0.00     6.091 A  
HETATM   27  O   UNL     1      -7.326  18.553  72.350  1.00  0.00     5.709 OA 
HETATM   28  H   UNL     1      -6.945  17.715  72.114  1.00  0.00     0.000 HD 
HETATM   29  C   UNL     1      -9.986  18.193  69.774  1.00  0.00     0.599 A  
HETATM   30  C   UNL     1     -10.997  17.281  69.441  1.00  0.00     0.301 A  
HETATM   31  C   UNL     1     -11.273  16.216  70.293  1.00  0.00    -0.389 A  
HETATM   32  C   UNL     1     -10.536  16.054  71.462  1.00  0.00     1.072 A  
HETATM   33 CL   UNL     1     -10.876  14.734  72.510  1.00  0.00     1.020 Cl 
HETATM   34  C   UNL     1      -9.524  16.958  71.797  1.00  0.00     8.186 A  
ENDBRANCH  16  19
ENDBRANCH  10  12
ENDBRANCH   7   8
TORSDOF 3
ENDMDL
MODEL      121
REMARK 921   NORMALIZED FREE ENERGY PREDICTED BY IDOCK:   39.26 KCAL/MOL
REMARK 922        TOTAL FREE ENERGY PREDICTED BY IDOCK:   45.05 KCAL/MOL
REMARK 923 INTER-LIGAND FREE ENERGY PREDICTED BY IDOCK:   39.52 KCAL/MOL
REMARK 924 INTRA-LIGAND FREE ENERGY PREDICTED BY IDOCK:    5.53 KCAL/MOL
REMARK 927      BINDING AFFINITY PREDICTED BY RF-SCORE:    0.00 PKD
ROOT
HETATM    1  C   UNL     1     -11.495   9.417  64.405  1.00  0.00     8.570 C  
HETATM    2  C   UNL     1     -11.207   8.352  65.421  1.00  0.00     6.589 A  
HETATM    3  C   UNL     1     -11.992   7.178  65.367  1.00  0.00     9.491 A  
HETATM    4  C   UNL     1     -11.777   6.111  66.240  1.00  0.00     1.831 A  
HETATM    5  C   UNL     1     -10.778   6.195  67.198  1.00  0.00    -0.422 A  
HETATM    6  C   UNL     1      -9.993   7.346  67.274  1.00  0.00    -0.259 A  
HETATM    7  C   UNL     1     -10.190   8.435  66.399  1.00  0.00    -0.168 A  
ENDROOT
BRANCH   7   8
HETATM    8  C   UNL     1      -9.206   9.560  66.572  1.00  0.00    -0.160 C  
HETATM    9  O   UNL     1      -8.044   9.249  66.822  1.00  0.00    -0.110 OA 
HETATM   10  N   UNL     1      -9.692  10.853  66.500  1.00  0.00    -0.193 N  
HETATM   11  H   UNL     1     -10.667  10.957  66.218  1.00  0.00     0.000 HD 
BRANCH  10  12
HETATM   12  C   UNL     1      -8.983  12.050  66.775  1.00  0.00    -0.198 A  
HETATM   13  C   UNL     1      -8.966  13.172  65.942  1.00  0.00     0.451 A  
HETATM   14  C   UNL     1      -8.195  14.324  66.243  1.00  0.00     0.996 A  
HETATM   15  C   UNL     1      -8.193  15.444  65.236  1.00  0.00     3.948 C  
HETATM   16  C   UNL     1      -7.429  14.363  67.430  1.00  0.00    -0.183 A  
HETATM   17  C   UNL     1      -7.416  13.209  68.233  1.00  0.00    -0.129 A  
HETATM   18  C   UNL     1      -8.202  12.086  67.930  1.00  0.00    -0.153 A  
BRANCH  16  19
HETATM   19  C   UNL     1      -6.603  15.583  67.805  1.00  0.00    -0.159 C  
HETATM   20  N   UNL     1      -7.219  16.846  67.977  1.00  0.00    -0.159 N  
HETATM   21  O   UNL     1      -5.398  15.428  67.998  1.00  0.00    -0.115 OA 
HETATM   22  C   UNL     1      -6.391  18.025  68.297  1.00  0.00    -0.189 C  
HETATM   23  C   UNL     1      -6.630  18.644  69.680  1.00  0.00    -0.144 C  
HETATM   24  C   UNL     1      -8.068  19.068  69.991  1.00  0.00     1.132 C  
HETATM   25  C   UNL     1      -9.060  17.909  69.873  1.00  0.00     1.554 C  
HETATM   26  C   UNL     1      -9.455  17.700  68.425  1.00  0.00    -0.298 A  
HETATM   27  O   UNL     1     -10.213  18.149  70.679  1.00  0.00     1.118 OA 
HETATM   28  H   UNL     1     -10.829  17.429  70.606  1.00  0.00     0.000 HD 
HETATM   29  C   UNL     1      -8.518  17.165  67.517  1.00  0.00    -0.198 A  
HETATM   30  C   UNL     1      -8.859  16.959  66.173  1.00  0.00    -0.279 A  
HETATM   31  C   UNL     1     -10.137  17.283  65.727  1.00  0.00    -0.159 A  
HETATM   32  C   UNL     1     -11.072  17.798  66.620  1.00  0.00     0.439 A  
HETATM   33 CL   UNL     1     -12.653  18.192  66.069  1.00  0.00     7.382 Cl 
HETATM   34  C   UNL     1     -10.740  18.002  67.962  1.00  0.00    -0.301 A  
ENDBRANCH  16  19
ENDBRANCH  10  12
ENDBRANCH   7   8
TORSDOF 3
ENDMDL
MODEL      122
REMARK 921   NORMALIZED FREE ENERGY PREDICTED BY IDOCK:   39.27 KCAL/MOL
REMARK 922        TOTAL FREE ENERGY PREDICTED BY IDOCK:   45.07 KCAL/MOL
REMARK 923 INTER-LIGAND FREE ENERGY PREDICTED BY IDOCK:   44.59 KCAL/MOL
REMARK 924 INTRA-LIGAND FREE ENERGY PREDICTED BY IDOCK:    0.48 KCAL/MOL
REMARK 927      BINDING AFFINITY PREDICTED BY RF-SCORE:    0.00 PKD
ROOT
HETATM    1  C   UNL     1     -10.459  17.317  69.423  1.00  0.00    -0.142 C  
HETATM    2  C   UNL     1     -11.313  17.891  68.331  1.00  0.00     0.880 A  
HETATM    3  C   UNL     1     -11.588  19.276  68.386  1.00  0.00     2.091 A  
HETATM    4  C   UNL     1     -12.337  19.915  67.397  1.00  0.00     3.351 A  
HETATM    5  C   UNL     1     -12.840  19.183  66.332  1.00  0.00     7.996 A  
HETATM    6  C   UNL     1     -12.585  17.813  66.258  1.00  0.00     7.353 A  
HETATM    7  C   UNL     1     -11.827  17.147  67.244  1.00  0.00     1.661 A  
ENDROOT
BRANCH   7   8
HETATM    8  C   UNL     1     -11.586  15.688  66.966  1.00  0.00     0.156 C  
HETATM    9  O   UNL     1     -12.414  15.111  66.267  1.00  0.00     0.337 OA 
HETATM   10  N   UNL     1     -10.491  15.094  67.568  1.00  0.00    -0.254 N  
HETATM   11  H   UNL     1      -9.854  15.715  68.067  1.00  0.00     0.000 HD 
BRANCH  10  12
HETATM   12  C   UNL     1     -10.158  13.715  67.566  1.00  0.00    -0.237 A  
HETATM   13  C   UNL     1     -10.754  12.756  66.744  1.00  0.00    -0.278 A  
HETATM   14  C   UNL     1     -10.418  11.380  66.823  1.00  0.00    -0.284 A  
HETATM   15  C   UNL     1     -11.179  10.424  65.940  1.00  0.00     0.610 C  
HETATM   16  C   UNL     1      -9.436  10.952  67.743  1.00  0.00    -0.165 A  
HETATM   17  C   UNL     1      -8.880  11.919  68.598  1.00  0.00    -0.041 A  
HETATM   18  C   UNL     1      -9.210  13.279  68.491  1.00  0.00    -0.073 A  
BRANCH  16  19
HETATM   19  C   UNL     1      -9.027   9.490  67.850  1.00  0.00    -0.123 C  
HETATM   20  N   UNL     1      -9.535   8.674  68.887  1.00  0.00    -0.146 N  
HETATM   21  O   UNL     1      -8.280   9.035  66.985  1.00  0.00    -0.108 OA 
HETATM   22  C   UNL     1      -9.090   7.271  68.997  1.00  0.00    -0.133 C  
HETATM   23  C   UNL     1     -10.173   6.213  68.756  1.00  0.00    -0.226 C  
HETATM   24  C   UNL     1     -11.418   6.308  69.641  1.00  0.00    -0.425 C  
HETATM   25  C   UNL     1     -12.121   7.662  69.523  1.00  0.00     1.270 C  
HETATM   26  C   UNL     1     -11.439   8.687  70.406  1.00  0.00    -0.151 A  
HETATM   27  O   UNL     1     -13.503   7.544  69.862  1.00  0.00     1.459 OA 
HETATM   28  H   UNL     1     -13.939   8.385  69.789  1.00  0.00     0.000 HD 
HETATM   29  C   UNL     1     -10.161   9.169  70.055  1.00  0.00    -0.204 A  
HETATM   30  C   UNL     1      -9.510  10.121  70.852  1.00  0.00     1.051 A  
HETATM   31  C   UNL     1     -10.131  10.598  72.003  1.00  0.00     6.814 A  
HETATM   32  C   UNL     1     -11.398  10.138  72.349  1.00  0.00     2.545 A  
HETATM   33 CL   UNL     1     -12.165  10.732  73.768  1.00  0.00    10.422 Cl 
HETATM   34  C   UNL     1     -12.054   9.192  71.556  1.00  0.00    -0.422 A  
ENDBRANCH  16  19
ENDBRANCH  10  12
ENDBRANCH   7   8
TORSDOF 3
ENDMDL
MODEL      123
REMARK 921   NORMALIZED FREE ENERGY PREDICTED BY IDOCK:   44.48 KCAL/MOL
REMARK 922        TOTAL FREE ENERGY PREDICTED BY IDOCK:   51.19 KCAL/MOL
REMARK 923 INTER-LIGAND FREE ENERGY PREDICTED BY IDOCK:   50.49 KCAL/MOL
REMARK 924 INTRA-LIGAND FREE ENERGY PREDICTED BY IDOCK:    0.70 KCAL/MOL
REMARK 927      BINDING AFFINITY PREDICTED BY RF-SCORE:    0.00 PKD
ROOT
HETATM    1  C   UNL     1     -10.746  10.245  65.426  1.00  0.00     0.158 C  
HETATM    2  C   UNL     1     -10.178   8.889  65.725  1.00  0.00     0.423 A  
HETATM    3  C   UNL     1      -9.934   8.035  64.626  1.00  0.00     3.429 A  
HETATM    4  C   UNL     1      -9.367   6.770  64.792  1.00  0.00     1.322 A  
HETATM    5  C   UNL     1      -9.041   6.322  66.063  1.00  0.00    -0.126 A  
HETATM    6  C   UNL     1      -9.278   7.147  67.164  1.00  0.00    -0.153 A  
HETATM    7  C   UNL     1      -9.845   8.430  67.019  1.00  0.00    -0.296 A  
ENDROOT
BRANCH   7   8
HETATM    8  C   UNL     1      -9.958   9.210  68.301  1.00  0.00    -0.175 C  
HETATM    9  O   UNL     1      -9.154   8.941  69.189  1.00  0.00    -0.139 OA 
HETATM   10  N   UNL     1     -10.992  10.123  68.405  1.00  0.00    -0.326 N  
HETATM   11  H   UNL     1     -11.539  10.289  67.561  1.00  0.00     0.000 HD 
BRANCH  10  12
HETATM   12  C   UNL     1     -11.375  10.853  69.560  1.00  0.00    -0.283 A  
HETATM   13  C   UNL     1     -11.454  10.317  70.848  1.00  0.00    -0.425 A  
HETATM   14  C   UNL     1     -11.894  11.082  71.958  1.00  0.00     1.686 A  
HETATM   15  C   UNL     1     -12.012  10.380  73.286  1.00  0.00     6.768 C  
HETATM   16  C   UNL     1     -12.249  12.438  71.777  1.00  0.00     0.632 A  
HETATM   17  C   UNL     1     -12.212  12.950  70.469  1.00  0.00    -0.395 A  
HETATM   18  C   UNL     1     -11.754  12.184  69.386  1.00  0.00    -0.391 A  
BRANCH  16  19
HETATM   19  C   UNL     1     -12.707  13.304  72.941  1.00  0.00     0.695 C  
HETATM   20  N   UNL     1     -12.417  14.689  72.966  1.00  0.00    -0.329 N  
HETATM   21  O   UNL     1     -13.370  12.773  73.830  1.00  0.00     4.092 OA 
HETATM   22  C   UNL     1     -12.833  15.501  74.126  1.00  0.00    -0.312 C  
HETATM   23  C   UNL     1     -13.895  16.569  73.839  1.00  0.00     1.253 C  
HETATM   24  C   UNL     1     -13.555  17.582  72.743  1.00  0.00     6.641 C  
HETATM   25  C   UNL     1     -13.256  16.915  71.398  1.00  0.00     5.377 C  
HETATM   26  C   UNL     1     -11.824  16.423  71.361  1.00  0.00    -0.234 A  
HETATM   27  O   UNL     1     -13.507  17.817  70.321  1.00  0.00    12.450 OA 
HETATM   28  H   UNL     1     -13.322  17.403  69.486  1.00  0.00     0.000 HD 
HETATM   29  C   UNL     1     -11.448  15.313  72.147  1.00  0.00    -0.407 A  
HETATM   30  C   UNL     1     -10.130  14.836  72.128  1.00  0.00     3.525 A  
HETATM   31  C   UNL     1      -9.180  15.461  71.325  1.00  0.00     3.047 A  
HETATM   32  C   UNL     1      -9.547  16.547  70.536  1.00  0.00     2.016 A  
HETATM   33 CL   UNL     1      -8.373  17.314  69.540  1.00  0.00     0.405 Cl 
HETATM   34  C   UNL     1     -10.860  17.025  70.547  1.00  0.00     0.564 A  
ENDBRANCH  16  19
ENDBRANCH  10  12
ENDBRANCH   7   8
TORSDOF 3
ENDMDL
MODEL      124
REMARK 921   NORMALIZED FREE ENERGY PREDICTED BY IDOCK:   65.02 KCAL/MOL
REMARK 922        TOTAL FREE ENERGY PREDICTED BY IDOCK:   75.33 KCAL/MOL
REMARK 923 INTER-LIGAND FREE ENERGY PREDICTED BY IDOCK:   74.60 KCAL/MOL
REMARK 924 INTRA-LIGAND FREE ENERGY PREDICTED BY IDOCK:    0.73 KCAL/MOL
REMARK 927      BINDING AFFINITY PREDICTED BY RF-SCORE:    0.00 PKD
ROOT
HETATM    1  C   UNL     1      -8.898  11.674  63.039  1.00  0.00     0.185 C  
HETATM    2  C   UNL     1      -7.856  11.331  64.062  1.00  0.00     1.011 A  
HETATM    3  C   UNL     1      -6.887  10.369  63.698  1.00  0.00    -0.005 A  
HETATM    4  C   UNL     1      -5.849  10.010  64.560  1.00  0.00    -0.115 A  
HETATM    5  C   UNL     1      -5.762  10.596  65.814  1.00  0.00    -0.139 A  
HETATM    6  C   UNL     1      -6.710  11.545  66.197  1.00  0.00     0.242 A  
HETATM    7  C   UNL     1      -7.764  11.926  65.340  1.00  0.00     1.613 A  
ENDROOT
BRANCH   7   8
HETATM    8  C   UNL     1      -8.647  13.015  65.885  1.00  0.00     1.021 C  
HETATM    9  O   UNL     1      -8.796  14.013  65.184  1.00  0.00     1.533 OA 
HETATM   10  N   UNL     1      -9.171  12.841  67.153  1.00  0.00    -0.212 N  
HETATM   11  H   UNL     1      -9.017  11.931  67.588  1.00  0.00     0.000 HD 
BRANCH  10  12
HETATM   12  C   UNL     1      -9.899  13.790  67.915  1.00  0.00    -0.232 A  
HETATM   13  C   UNL     1      -9.538  14.229  69.192  1.00  0.00     0.074 A  
HETATM   14  C   UNL     1     -10.334  15.141  69.931  1.00  0.00    -0.207 A  
HETATM   15  C   UNL     1      -9.887  15.486  71.327  1.00  0.00     1.857 C  
HETATM   16  C   UNL     1     -11.524  15.649  69.363  1.00  0.00    -0.354 A  
HETATM   17  C   UNL     1     -11.902  15.162  68.100  1.00  0.00    -0.252 A  
HETATM   18  C   UNL     1     -11.090  14.274  67.375  1.00  0.00    -0.314 A  
BRANCH  16  19
HETATM   19  C   UNL     1     -12.400  16.645  70.108  1.00  0.00     1.820 C  
HETATM   20  N   UNL     1     -12.060  18.018  70.144  1.00  0.00     7.030 N  
HETATM   21  O   UNL     1     -13.430  16.227  70.635  1.00  0.00     0.646 OA 
HETATM   22  C   UNL     1     -12.900  18.959  70.909  1.00  0.00    22.406 C  
HETATM   23  C   UNL     1     -13.640  20.013  70.076  1.00  0.00    18.662 C  
HETATM   24  C   UNL     1     -12.771  20.894  69.176  1.00  0.00     6.390 C  
HETATM   25  C   UNL     1     -11.941  20.079  68.181  1.00  0.00     3.123 C  
HETATM   26  C   UNL     1     -10.685  19.556  68.848  1.00  0.00     0.414 A  
HETATM   27  O   UNL     1     -11.612  20.866  67.036  1.00  0.00     2.922 OA 
HETATM   28  H   UNL     1     -11.097  20.360  66.418  1.00  0.00     0.000 HD 
HETATM   29  C   UNL     1     -10.784  18.530  69.810  1.00  0.00     1.524 A  
HETATM   30  C   UNL     1      -9.637  18.025  70.440  1.00  0.00     2.552 A  
HETATM   31  C   UNL     1      -8.386  18.539  70.111  1.00  0.00     2.106 A  
HETATM   32  C   UNL     1      -8.279  19.541  69.152  1.00  0.00    -0.114 A  
HETATM   33 CL   UNL     1      -6.732  20.172  68.744  1.00  0.00    -0.336 Cl 
HETATM   34  C   UNL     1      -9.418  20.046  68.518  1.00  0.00    -0.253 A  
ENDBRANCH  16  19
ENDBRANCH  10  12
ENDBRANCH   7   8
TORSDOF 3
ENDMDL
MODEL      125
REMARK 921   NORMALIZED FREE ENERGY PREDICTED BY IDOCK:   75.39 KCAL/MOL
REMARK 922        TOTAL FREE ENERGY PREDICTED BY IDOCK:   87.52 KCAL/MOL
REMARK 923 INTER-LIGAND FREE ENERGY PREDICTED BY IDOCK:   79.21 KCAL/MOL
REMARK 924 INTRA-LIGAND FREE ENERGY PREDICTED BY IDOCK:    8.32 KCAL/MOL
REMARK 927      BINDING AFFINITY PREDICTED BY RF-SCORE:    0.00 PKD
ROOT
HETATM    1  C   UNL     1      -9.409   1.862  68.292  1.00  0.00    -0.249 C  
HETATM    2  C   UNL     1      -8.596   2.810  67.461  1.00  0.00    -0.120 A  
HETATM    3  C   UNL     1      -7.739   2.246  66.489  1.00  0.00    -0.071 A  
HETATM    4  C   UNL     1      -6.972   3.042  65.637  1.00  0.00    -0.053 A  
HETATM    5  C   UNL     1      -7.034   4.423  65.742  1.00  0.00    -0.059 A  
HETATM    6  C   UNL     1      -7.869   5.003  66.698  1.00  0.00    -0.100 A  
HETATM    7  C   UNL     1      -8.656   4.218  67.566  1.00  0.00    -0.108 A  
ENDROOT
BRANCH   7   8
HETATM    8  C   UNL     1      -9.554   5.009  68.480  1.00  0.00    -0.146 C  
HETATM    9  O   UNL     1     -10.484   4.404  69.006  1.00  0.00     0.239 OA 
HETATM   10  N   UNL     1      -9.304   6.364  68.608  1.00  0.00    -0.125 N  
HETATM   11  H   UNL     1      -8.455   6.713  68.164  1.00  0.00     0.000 HD 
BRANCH  10  12
HETATM   12  C   UNL     1     -10.101   7.319  69.289  1.00  0.00    -0.183 A  
HETATM   13  C   UNL     1      -9.744   7.939  70.490  1.00  0.00    -0.174 A  
HETATM   14  C   UNL     1     -10.605   8.848  71.156  1.00  0.00    -0.335 A  
HETATM   15  C   UNL     1     -10.148   9.398  72.482  1.00  0.00     1.621 C  
HETATM   16  C   UNL     1     -11.859   9.166  70.589  1.00  0.00    -0.222 A  
HETATM   17  C   UNL     1     -12.226   8.499  69.407  1.00  0.00     2.055 A  
HETATM   18  C   UNL     1     -11.353   7.617  68.752  1.00  0.00     0.536 A  
BRANCH  16  19
HETATM   19  C   UNL     1     -12.807  10.152  71.254  1.00  0.00    -0.410 C  
HETATM   20  N   UNL     1     -12.348  11.423  71.673  1.00  0.00    -0.087 N  
HETATM   21  O   UNL     1     -13.987   9.827  71.374  1.00  0.00    -0.158 OA 
HETATM   22  C   UNL     1     -13.275  12.346  72.356  1.00  0.00    -0.107 C  
HETATM   23  C   UNL     1     -13.608  13.634  71.594  1.00  0.00    -0.370 C  
HETATM   24  C   UNL     1     -12.416  14.499  71.178  1.00  0.00    -0.411 C  
HETATM   25  C   UNL     1     -11.415  13.741  70.304  1.00  0.00    -0.019 C  
HETATM   26  C   UNL     1     -10.487  12.910  71.167  1.00  0.00     6.126 A  
HETATM   27  O   UNL     1     -10.670  14.646  69.489  1.00  0.00    -0.287 OA 
HETATM   28  H   UNL     1     -10.049  14.174  68.946  1.00  0.00     0.000 HD 
HETATM   29  C   UNL     1     -10.984  11.766  71.824  1.00  0.00     6.127 A  
HETATM   30  C   UNL     1     -10.145  10.978  72.625  1.00  0.00    13.423 A  
HETATM   31  C   UNL     1      -8.806  11.327  72.774  1.00  0.00    18.699 A  
HETATM   32  C   UNL     1      -8.305  12.446  72.117  1.00  0.00    18.822 A  
HETATM   33 CL   UNL     1      -6.648  12.872  72.298  1.00  0.00     3.793 Cl 
HETATM   34  C   UNL     1      -9.134  13.233  71.313  1.00  0.00    11.559 A  
ENDBRANCH  16  19
ENDBRANCH  10  12
ENDBRANCH   7   8
TORSDOF 3
ENDMDL
MODEL      126
REMARK 921   NORMALIZED FREE ENERGY PREDICTED BY IDOCK:   76.12 KCAL/MOL
REMARK 922        TOTAL FREE ENERGY PREDICTED BY IDOCK:   88.37 KCAL/MOL
REMARK 923 INTER-LIGAND FREE ENERGY PREDICTED BY IDOCK:   86.64 KCAL/MOL
REMARK 924 INTRA-LIGAND FREE ENERGY PREDICTED BY IDOCK:    1.74 KCAL/MOL
REMARK 927      BINDING AFFINITY PREDICTED BY RF-SCORE:    0.00 PKD
ROOT
HETATM    1  C   UNL     1      -8.955   3.827  65.848  1.00  0.00    -0.135 C  
HETATM    2  C   UNL     1     -10.259   3.602  66.555  1.00  0.00     0.637 A  
HETATM    3  C   UNL     1     -11.025   2.484  66.155  1.00  0.00     5.120 A  
HETATM    4  C   UNL     1     -12.233   2.162  66.777  1.00  0.00    19.384 A  
HETATM    5  C   UNL     1     -12.710   2.957  67.808  1.00  0.00    26.976 A  
HETATM    6  C   UNL     1     -11.973   4.069  68.217  1.00  0.00    13.322 A  
HETATM    7  C   UNL     1     -10.748   4.411  67.605  1.00  0.00     1.017 A  
ENDROOT
BRANCH   7   8
HETATM    8  C   UNL     1     -10.051   5.593  68.222  1.00  0.00    -0.169 C  
HETATM    9  O   UNL     1      -9.628   5.455  69.366  1.00  0.00    -0.131 OA 
HETATM   10  N   UNL     1      -9.996   6.761  67.482  1.00  0.00    -0.133 N  
HETATM   11  H   UNL     1     -10.331   6.706  66.520  1.00  0.00     0.000 HD 
BRANCH  10  12
HETATM   12  C   UNL     1      -9.525   8.027  67.916  1.00  0.00    -0.145 A  
HETATM   13  C   UNL     1      -9.889   9.249  67.343  1.00  0.00    -0.229 A  
HETATM   14  C   UNL     1      -9.344  10.482  67.784  1.00  0.00    -0.158 A  
HETATM   15  C   UNL     1      -9.750  11.729  67.043  1.00  0.00    -0.198 C  
HETATM   16  C   UNL     1      -8.419  10.495  68.852  1.00  0.00    -0.152 A  
HETATM   17  C   UNL     1      -8.025   9.257  69.386  1.00  0.00    -0.099 A  
HETATM   18  C   UNL     1      -8.590   8.048  68.950  1.00  0.00    -0.131 A  
BRANCH  16  19
HETATM   19  C   UNL     1      -7.824  11.794  69.374  1.00  0.00     0.429 C  
HETATM   20  N   UNL     1      -7.300  12.758  68.480  1.00  0.00    -0.112 N  
HETATM   21  O   UNL     1      -7.855  11.996  70.587  1.00  0.00     3.146 OA 
HETATM   22  C   UNL     1      -6.688  13.990  69.012  1.00  0.00    -0.109 C  
HETATM   23  C   UNL     1      -7.426  15.292  68.679  1.00  0.00    -0.126 C  
HETATM   24  C   UNL     1      -7.664  15.573  67.193  1.00  0.00    -0.257 C  
HETATM   25  C   UNL     1      -8.450  14.456  66.503  1.00  0.00     0.215 C  
HETATM   26  C   UNL     1      -7.524  13.319  66.121  1.00  0.00     2.699 A  
HETATM   27  O   UNL     1      -9.134  14.956  65.354  1.00  0.00    -0.231 OA 
HETATM   28  H   UNL     1      -9.622  14.263  64.926  1.00  0.00     0.000 HD 
HETATM   29  C   UNL     1      -6.979  12.496  67.128  1.00  0.00    -0.055 A  
HETATM   30  C   UNL     1      -6.123  11.435  66.801  1.00  0.00    -0.145 A  
HETATM   31  C   UNL     1      -5.807  11.189  65.468  1.00  0.00     0.164 A  
HETATM   32  C   UNL     1      -6.352  11.988  64.467  1.00  0.00     5.040 A  
HETATM   33 CL   UNL     1      -5.964  11.679  62.821  1.00  0.00     0.984 Cl 
HETATM   34  C   UNL     1      -7.209  13.044  64.786  1.00  0.00    10.220 A  
ENDBRANCH  16  19
ENDBRANCH  10  12
ENDBRANCH   7   8
TORSDOF 3
ENDMDL
MODEL      127
REMARK 921   NORMALIZED FREE ENERGY PREDICTED BY IDOCK:   79.98 KCAL/MOL
REMARK 922        TOTAL FREE ENERGY PREDICTED BY IDOCK:   92.91 KCAL/MOL
REMARK 923 INTER-LIGAND FREE ENERGY PREDICTED BY IDOCK:   92.22 KCAL/MOL
REMARK 924 INTRA-LIGAND FREE ENERGY PREDICTED BY IDOCK:    0.70 KCAL/MOL
REMARK 927      BINDING AFFINITY PREDICTED BY RF-SCORE:    0.00 PKD
ROOT
HETATM    1  C   UNL     1     -11.616  18.562  62.879  1.00  0.00    18.108 C  
HETATM    2  C   UNL     1     -11.684  19.131  64.266  1.00  0.00     6.581 A  
HETATM    3  C   UNL     1     -12.589  20.193  64.485  1.00  0.00     9.343 A  
HETATM    4  C   UNL     1     -12.759  20.764  65.747  1.00  0.00     7.014 A  
HETATM    5  C   UNL     1     -12.019  20.293  66.821  1.00  0.00     2.824 A  
HETATM    6  C   UNL     1     -11.115  19.248  66.628  1.00  0.00    -0.108 A  
HETATM    7  C   UNL     1     -10.930  18.653  65.362  1.00  0.00     0.452 A  
ENDROOT
BRANCH   7   8
HETATM    8  C   UNL     1      -9.975  17.491  65.352  1.00  0.00     0.496 C  
HETATM    9  O   UNL     1      -9.675  17.027  64.255  1.00  0.00     3.060 OA 
HETATM   10  N   UNL     1      -9.558  16.994  66.574  1.00  0.00    -0.266 N  
HETATM   11  H   UNL     1      -9.837  17.525  67.399  1.00  0.00     0.000 HD 
BRANCH  10  12
HETATM   12  C   UNL     1      -8.786  15.826  66.804  1.00  0.00    -0.267 A  
HETATM   13  C   UNL     1      -9.084  14.563  66.286  1.00  0.00    -0.164 A  
HETATM   14  C   UNL     1      -8.305  13.418  66.593  1.00  0.00     0.234 A  
HETATM   15  C   UNL     1      -8.763  12.094  66.040  1.00  0.00     0.174 C  
HETATM   16  C   UNL     1      -7.175  13.546  67.431  1.00  0.00    -0.113 A  
HETATM   17  C   UNL     1      -6.915  14.811  67.985  1.00  0.00    -0.149 A  
HETATM   18  C   UNL     1      -7.686  15.937  67.653  1.00  0.00    -0.169 A  
BRANCH  16  19
HETATM   19  C   UNL     1      -6.296  12.351  67.772  1.00  0.00    -0.109 C  
HETATM   20  N   UNL     1      -6.275  11.824  69.085  1.00  0.00    -0.074 N  
HETATM   21  O   UNL     1      -5.645  11.836  66.865  1.00  0.00    -0.120 OA 
HETATM   22  C   UNL     1      -5.382  10.693  69.403  1.00  0.00    -0.037 C  
HETATM   23  C   UNL     1      -6.083   9.381  69.775  1.00  0.00    -0.039 C  
HETATM   24  C   UNL     1      -7.071   9.451  70.941  1.00  0.00    -0.098 C  
HETATM   25  C   UNL     1      -8.188  10.471  70.705  1.00  0.00     2.144 C  
HETATM   26  C   UNL     1      -7.708  11.865  71.054  1.00  0.00     6.405 A  
HETATM   27  O   UNL     1      -9.348  10.133  71.465  1.00  0.00     0.653 OA 
HETATM   28  H   UNL     1     -10.041  10.766  71.319  1.00  0.00     0.000 HD 
HETATM   29  C   UNL     1      -6.765  12.505  70.223  1.00  0.00     0.735 A  
HETATM   30  C   UNL     1      -6.308  13.797  70.521  1.00  0.00     0.026 A  
HETATM   31  C   UNL     1      -6.789  14.457  71.648  1.00  0.00     1.687 A  
HETATM   32  C   UNL     1      -7.731  13.838  72.464  1.00  0.00     8.322 A  
HETATM   33 CL   UNL     1      -8.329  14.657  73.853  1.00  0.00     8.137 Cl 
HETATM   34  C   UNL     1      -8.194  12.552  72.171  1.00  0.00    17.538 A  
ENDBRANCH  16  19
ENDBRANCH  10  12
ENDBRANCH   7   8
TORSDOF 3
ENDMDL
