MODEL        1
REMARK 921   NORMALIZED FREE ENERGY PREDICTED BY IDOCK:   -7.41 KCAL/MOL
REMARK 922        TOTAL FREE ENERGY PREDICTED BY IDOCK:   -8.71 KCAL/MOL
REMARK 923 INTER-LIGAND FREE ENERGY PREDICTED BY IDOCK:   -8.28 KCAL/MOL
REMARK 924 INTRA-LIGAND FREE ENERGY PREDICTED BY IDOCK:   -0.42 KCAL/MOL
REMARK 927      BINDING AFFINITY PREDICTED BY RF-SCORE:    0.00 PKD
ROOT
HETATM    1  C   UNL     1      -9.617  14.767  68.742  1.00  0.00    -0.215 C  
HETATM    2  C   UNL     1      -9.222  13.613  67.809  1.00  0.00    -0.214 C  
HETATM    3  O   UNL     1     -10.212  12.762  67.241  1.00  0.00    -0.229 OA 
HETATM    4  C   UNL     1     -11.587  12.860  67.629  1.00  0.00    -0.355 C  
HETATM    5  O   UNL     1     -12.071  11.554  67.989  1.00  0.00    -0.617 OA 
HETATM    6  C   UNL     1     -11.098  14.949  68.908  1.00  0.00    -0.257 C  
HETATM    7  C   UNL     1     -10.527  17.992  67.636  1.00  0.00    -0.422 C  
HETATM    8  C   UNL     1     -11.707  11.390  69.361  1.00  0.00    -0.338 C  
HETATM    9  C   UNL     1     -12.861  10.697  70.086  1.00  0.00    -0.146 C  
HETATM   10  O   UNL     1     -11.425  12.691  69.932  1.00  0.00    -0.204 OA 
HETATM   11  C   UNL     1      -9.952  16.290  65.931  1.00  0.00    -0.366 C  
HETATM   12  C   UNL     1     -10.476  10.487  69.420  1.00  0.00    -0.264 C  
HETATM   13  O   UNL     1      -9.196  16.036  68.209  1.00  0.00    -0.187 OA 
HETATM   14  C   UNL     1     -10.289  16.502  67.409  1.00  0.00    -0.290 C  
HETATM   15  O   UNL     1     -11.473  15.776  67.785  1.00  0.00    -0.290 OA 
HETATM   16  C   UNL     1     -11.844  13.628  68.907  1.00  0.00    -0.364 C  
ENDROOT
BRANCH   4  17
HETATM   17  C   UNL     1     -12.410  13.352  66.433  1.00  0.00    -0.321 C  
BRANCH  17  18
HETATM   18  O   UNL     1     -12.338  12.385  65.390  1.00  0.00    -0.596 OA 
HETATM   19  H2  UNL     1     -12.259  10.564  63.337  1.00  0.00     0.000 HD 
HETATM   20  O   UNL     1     -12.752  13.826  63.413  1.00  0.00    -0.795 OA 
HETATM   21  N   UNL     1     -11.926  11.486  63.057  1.00  0.00    -0.908 N  
HETATM   22  O   UNL     1     -10.392  13.193  64.085  1.00  0.00    -0.421 OA 
HETATM   23  S   UNL     1     -11.792  12.893  63.955  1.00  0.00    -0.482 S  
HETATM   24  H1  UNL     1     -11.581  11.806  62.151  1.00  0.00     0.000 HD 
ENDBRANCH  17  18
ENDBRANCH   4  17
TORSDOF 2
ENDMDL
MODEL        2
REMARK 921   NORMALIZED FREE ENERGY PREDICTED BY IDOCK:   -6.85 KCAL/MOL
REMARK 922        TOTAL FREE ENERGY PREDICTED BY IDOCK:   -8.07 KCAL/MOL
REMARK 923 INTER-LIGAND FREE ENERGY PREDICTED BY IDOCK:   -7.64 KCAL/MOL
REMARK 924 INTRA-LIGAND FREE ENERGY PREDICTED BY IDOCK:   -0.43 KCAL/MOL
REMARK 927      BINDING AFFINITY PREDICTED BY RF-SCORE:    0.00 PKD
ROOT
HETATM    1  C   UNL     1      -9.398  15.892  68.687  1.00  0.00    -0.212 C  
HETATM    2  C   UNL     1      -8.312  15.084  67.962  1.00  0.00    -0.148 C  
HETATM    3  O   UNL     1      -8.655  14.145  66.949  1.00  0.00    -0.204 OA 
HETATM    4  C   UNL     1     -10.022  13.817  66.672  1.00  0.00    -0.279 C  
HETATM    5  O   UNL     1     -10.178  12.387  66.682  1.00  0.00    -0.220 OA 
HETATM    6  C   UNL     1     -10.788  15.663  68.171  1.00  0.00    -0.301 C  
HETATM    7  C   UNL     1     -10.721  18.943  67.508  1.00  0.00    -0.509 C  
HETATM    8  C   UNL     1     -10.386  12.048  68.055  1.00  0.00    -0.195 C  
HETATM    9  C   UNL     1     -11.457  10.959  68.124  1.00  0.00    -0.368 C  
HETATM   10  O   UNL     1     -10.789  13.237  68.778  1.00  0.00    -0.245 OA 
HETATM   11  C   UNL     1      -8.990  17.814  66.143  1.00  0.00    -0.123 C  
HETATM   12  C   UNL     1      -9.077  11.487  68.608  1.00  0.00    -0.124 C  
HETATM   13  O   UNL     1      -9.213  17.306  68.492  1.00  0.00    -0.260 OA 
HETATM   14  C   UNL     1      -9.958  17.636  67.315  1.00  0.00    -0.322 C  
HETATM   15  O   UNL     1     -10.899  16.577  67.059  1.00  0.00    -0.245 OA 
HETATM   16  C   UNL     1     -11.012  14.225  67.741  1.00  0.00    -0.264 C  
ENDROOT
BRANCH   4  17
HETATM   17  C   UNL     1     -10.382  14.318  65.269  1.00  0.00    -0.395 C  
BRANCH  17  18
HETATM   18  O   UNL     1     -10.616  13.198  64.421  1.00  0.00    -0.384 OA 
HETATM   19  H2  UNL     1     -11.116  11.005  62.847  1.00  0.00     0.000 HD 
HETATM   20  O   UNL     1     -12.964  12.665  65.018  1.00  0.00    -0.812 OA 
HETATM   21  N   UNL     1     -11.948  11.573  63.004  1.00  0.00    -0.908 N  
HETATM   22  O   UNL     1     -12.430  14.040  62.958  1.00  0.00    -0.641 OA 
HETATM   23  S   UNL     1     -12.127  12.985  63.886  1.00  0.00    -0.479 S  
HETATM   24  H1  UNL     1     -12.901  11.439  62.666  1.00  0.00     0.000 HD 
ENDBRANCH  17  18
ENDBRANCH   4  17
TORSDOF 2
ENDMDL
MODEL        3
REMARK 921   NORMALIZED FREE ENERGY PREDICTED BY IDOCK:   -6.71 KCAL/MOL
REMARK 922        TOTAL FREE ENERGY PREDICTED BY IDOCK:   -7.92 KCAL/MOL
REMARK 923 INTER-LIGAND FREE ENERGY PREDICTED BY IDOCK:   -7.56 KCAL/MOL
REMARK 924 INTRA-LIGAND FREE ENERGY PREDICTED BY IDOCK:   -0.37 KCAL/MOL
REMARK 927      BINDING AFFINITY PREDICTED BY RF-SCORE:    0.00 PKD
ROOT
HETATM    1  C   UNL     1      -9.665  14.369  65.672  1.00  0.00    -0.224 C  
HETATM    2  C   UNL     1      -8.974  14.375  67.044  1.00  0.00    -0.240 C  
HETATM    3  O   UNL     1      -9.396  15.267  68.070  1.00  0.00    -0.194 OA 
HETATM    4  C   UNL     1     -10.375  16.281  67.816  1.00  0.00    -0.287 C  
HETATM    5  O   UNL     1      -9.871  17.550  68.272  1.00  0.00    -0.287 OA 
HETATM    6  C   UNL     1     -10.839  15.298  65.568  1.00  0.00    -0.372 C  
HETATM    7  C   UNL     1     -12.563  12.504  64.918  1.00  0.00    -0.469 C  
HETATM    8  C   UNL     1      -9.089  18.048  67.185  1.00  0.00    -0.256 C  
HETATM    9  C   UNL     1      -9.339  19.552  67.063  1.00  0.00    -0.416 C  
HETATM   10  O   UNL     1      -9.463  17.347  65.974  1.00  0.00    -0.473 OA 
HETATM   11  C   UNL     1     -11.649  12.365  67.216  1.00  0.00    -0.435 C  
HETATM   12  C   UNL     1      -7.615  17.821  67.518  1.00  0.00    -0.214 C  
HETATM   13  O   UNL     1     -10.247  13.084  65.387  1.00  0.00    -0.292 OA 
HETATM   14  C   UNL     1     -11.583  13.142  65.898  1.00  0.00    -0.354 C  
HETATM   15  O   UNL     1     -11.941  14.523  66.087  1.00  0.00    -0.372 OA 
HETATM   16  C   UNL     1     -10.633  16.579  66.356  1.00  0.00    -0.221 C  
ENDROOT
BRANCH   4  17
HETATM   17  C   UNL     1     -11.642  15.965  68.618  1.00  0.00    -0.380 C  
BRANCH  17  18
HETATM   18  O   UNL     1     -11.334  16.000  70.008  1.00  0.00    -0.320 OA 
HETATM   19  H2  UNL     1     -10.811  16.108  72.701  1.00  0.00     0.000 HD 
HETATM   20  O   UNL     1     -13.606  15.782  70.979  1.00  0.00    -0.568 OA 
HETATM   21  N   UNL     1     -11.617  15.523  72.481  1.00  0.00    -0.458 N  
HETATM   22  O   UNL     1     -12.095  13.761  70.752  1.00  0.00    -0.341 OA 
HETATM   23  S   UNL     1     -12.302  15.163  70.997  1.00  0.00    -0.387 S  
HETATM   24  H1  UNL     1     -12.227  14.995  73.105  1.00  0.00     0.000 HD 
ENDBRANCH  17  18
ENDBRANCH   4  17
TORSDOF 2
ENDMDL
MODEL        4
REMARK 921   NORMALIZED FREE ENERGY PREDICTED BY IDOCK:   -6.66 KCAL/MOL
REMARK 922        TOTAL FREE ENERGY PREDICTED BY IDOCK:   -7.87 KCAL/MOL
REMARK 923 INTER-LIGAND FREE ENERGY PREDICTED BY IDOCK:   -7.39 KCAL/MOL
REMARK 924 INTRA-LIGAND FREE ENERGY PREDICTED BY IDOCK:   -0.47 KCAL/MOL
REMARK 927      BINDING AFFINITY PREDICTED BY RF-SCORE:    0.00 PKD
ROOT
HETATM    1  C   UNL     1     -12.005  14.761  64.901  1.00  0.00    -0.358 C  
HETATM    2  C   UNL     1     -10.526  15.123  65.099  1.00  0.00    -0.410 C  
HETATM    3  O   UNL     1      -9.795  14.622  66.213  1.00  0.00    -0.271 OA 
HETATM    4  C   UNL     1     -10.444  13.888  67.258  1.00  0.00    -0.271 C  
HETATM    5  O   UNL     1     -10.091  14.462  68.529  1.00  0.00    -0.232 OA 
HETATM    6  C   UNL     1     -12.546  13.793  65.913  1.00  0.00    -0.447 C  
HETATM    7  C   UNL     1     -13.135  11.857  63.247  1.00  0.00     0.005 C  
HETATM    8  C   UNL     1     -11.018  15.532  68.720  1.00  0.00    -0.270 C  
HETATM    9  C   UNL     1     -11.442  15.545  70.189  1.00  0.00    -0.342 C  
HETATM   10  O   UNL     1     -12.153  15.336  67.841  1.00  0.00    -0.133 OA 
HETATM   11  C   UNL     1     -10.692  12.206  63.459  1.00  0.00    -0.509 C  
HETATM   12  C   UNL     1     -10.300  16.844  68.405  1.00  0.00    -0.338 C  
HETATM   13  O   UNL     1     -12.212  14.072  63.655  1.00  0.00    -0.609 OA 
HETATM   14  C   UNL     1     -12.061  12.679  63.953  1.00  0.00    -0.487 C  
HETATM   15  O   UNL     1     -12.195  12.500  65.375  1.00  0.00    -0.497 OA 
HETATM   16  C   UNL     1     -11.951  14.009  67.292  1.00  0.00    -0.413 C  
ENDROOT
BRANCH   4  17
HETATM   17  C   UNL     1      -9.937  12.441  67.240  1.00  0.00    -0.206 C  
BRANCH  17  18
HETATM   18  O   UNL     1      -9.984  11.916  68.564  1.00  0.00    -0.207 OA 
HETATM   19  H2  UNL     1     -10.157  10.922  71.117  1.00  0.00     0.000 HD 
HETATM   20  O   UNL     1     -12.240  10.884  68.558  1.00  0.00    -0.535 OA 
HETATM   21  N   UNL     1     -10.670  10.357  70.440  1.00  0.00    -0.441 N  
HETATM   22  O   UNL     1     -10.171   9.482  68.136  1.00  0.00    -0.175 OA 
HETATM   23  S   UNL     1     -10.850  10.569  68.789  1.00  0.00    -0.249 S  
HETATM   24  H1  UNL     1     -11.216   9.507  70.582  1.00  0.00     0.000 HD 
ENDBRANCH  17  18
ENDBRANCH   4  17
TORSDOF 2
ENDMDL
MODEL        5
REMARK 921   NORMALIZED FREE ENERGY PREDICTED BY IDOCK:   -6.59 KCAL/MOL
REMARK 922        TOTAL FREE ENERGY PREDICTED BY IDOCK:   -7.78 KCAL/MOL
REMARK 923 INTER-LIGAND FREE ENERGY PREDICTED BY IDOCK:   -7.43 KCAL/MOL
REMARK 924 INTRA-LIGAND FREE ENERGY PREDICTED BY IDOCK:   -0.36 KCAL/MOL
REMARK 927      BINDING AFFINITY PREDICTED BY RF-SCORE:    0.00 PKD
ROOT
HETATM    1  C   UNL     1      -9.913  10.637  69.452  1.00  0.00    -0.158 C  
HETATM    2  C   UNL     1     -11.448  10.619  69.474  1.00  0.00    -0.291 C  
HETATM    3  O   UNL     1     -12.200  11.411  68.560  1.00  0.00    -0.557 OA 
HETATM    4  C   UNL     1     -11.560  12.353  67.692  1.00  0.00    -0.357 C  
HETATM    5  O   UNL     1     -12.211  13.629  67.816  1.00  0.00    -0.321 OA 
HETATM    6  C   UNL     1      -9.319  11.470  68.353  1.00  0.00    -0.194 C  
HETATM    7  C   UNL     1      -7.933   8.585  67.376  1.00  0.00    -0.102 C  
HETATM    8  C   UNL     1     -11.586  14.255  68.938  1.00  0.00    -0.305 C  
HETATM    9  C   UNL     1     -11.391  15.737  68.616  1.00  0.00    -0.369 C  
HETATM   10  O   UNL     1     -10.322  13.598  69.201  1.00  0.00    -0.097 OA 
HETATM   11  C   UNL     1     -10.396   8.386  67.208  1.00  0.00    -0.369 C  
HETATM   12  C   UNL     1     -12.528  14.132  70.135  1.00  0.00    -0.391 C  
HETATM   13  O   UNL     1      -9.379   9.327  69.186  1.00  0.00    -0.151 OA 
HETATM   14  C   UNL     1      -9.254   9.243  67.762  1.00  0.00    -0.129 C  
HETATM   15  O   UNL     1      -9.289  10.575  67.220  1.00  0.00    -0.146 OA 
HETATM   16  C   UNL     1     -10.139  12.714  68.066  1.00  0.00    -0.229 C  
ENDROOT
BRANCH   4  17
HETATM   17  C   UNL     1     -11.719  11.884  66.241  1.00  0.00    -0.147 C  
BRANCH  17  18
HETATM   18  O   UNL     1     -12.031  13.007  65.422  1.00  0.00    -0.364 OA 
HETATM   19  H2  UNL     1     -12.555  15.167  63.811  1.00  0.00     0.000 HD 
HETATM   20  O   UNL     1     -10.713  12.463  63.392  1.00  0.00    -0.446 OA 
HETATM   21  N   UNL     1     -12.403  14.310  63.280  1.00  0.00    -1.092 N  
HETATM   22  O   UNL     1     -13.188  11.932  63.511  1.00  0.00    -0.676 OA 
HETATM   23  S   UNL     1     -12.057  12.764  63.823  1.00  0.00    -0.536 S  
HETATM   24  H1  UNL     1     -12.420  14.157  62.271  1.00  0.00     0.000 HD 
ENDBRANCH  17  18
ENDBRANCH   4  17
TORSDOF 2
ENDMDL
MODEL        6
REMARK 921   NORMALIZED FREE ENERGY PREDICTED BY IDOCK:   -6.50 KCAL/MOL
REMARK 922        TOTAL FREE ENERGY PREDICTED BY IDOCK:   -7.68 KCAL/MOL
REMARK 923 INTER-LIGAND FREE ENERGY PREDICTED BY IDOCK:   -7.22 KCAL/MOL
REMARK 924 INTRA-LIGAND FREE ENERGY PREDICTED BY IDOCK:   -0.46 KCAL/MOL
REMARK 927      BINDING AFFINITY PREDICTED BY RF-SCORE:    0.00 PKD
ROOT
HETATM    1  C   UNL     1      -9.712  15.607  65.801  1.00  0.00    -0.345 C  
HETATM    2  C   UNL     1     -11.146  15.154  66.115  1.00  0.00    -0.311 C  
HETATM    3  O   UNL     1     -11.470  14.584  67.378  1.00  0.00    -0.335 OA 
HETATM    4  C   UNL     1     -10.453  14.283  68.341  1.00  0.00    -0.249 C  
HETATM    5  O   UNL     1     -10.609  12.924  68.786  1.00  0.00    -0.242 OA 
HETATM    6  C   UNL     1      -8.756  15.476  66.950  1.00  0.00    -0.250 C  
HETATM    7  C   UNL     1      -8.415  18.788  66.605  1.00  0.00    -0.299 C  
HETATM    8  C   UNL     1      -9.912  12.137  67.819  1.00  0.00    -0.198 C  
HETATM    9  C   UNL     1      -9.166  11.022  68.553  1.00  0.00    -0.177 C  
HETATM   10  O   UNL     1      -9.001  12.991  67.084  1.00  0.00    -0.207 OA 
HETATM   11  C   UNL     1     -10.756  18.286  67.240  1.00  0.00    -0.366 C  
HETATM   12  C   UNL     1     -10.945  11.506  66.886  1.00  0.00    -0.350 C  
HETATM   13  O   UNL     1      -9.664  17.014  65.502  1.00  0.00    -0.534 OA 
HETATM   14  C   UNL     1      -9.441  17.669  66.756  1.00  0.00    -0.280 C  
HETATM   15  O   UNL     1      -8.942  16.699  67.695  1.00  0.00    -0.203 OA 
HETATM   16  C   UNL     1      -9.041  14.252  67.799  1.00  0.00    -0.195 C  
ENDROOT
BRANCH   4  17
HETATM   17  C   UNL     1     -10.630  15.198  69.558  1.00  0.00    -0.270 C  
BRANCH  17  18
HETATM   18  O   UNL     1     -12.018  15.455  69.748  1.00  0.00    -0.323 OA 
HETATM   19  H2  UNL     1     -14.705  15.869  70.130  1.00  0.00     0.000 HD 
HETATM   20  O   UNL     1     -12.538  13.817  71.538  1.00  0.00    -0.345 OA 
HETATM   21  N   UNL     1     -14.227  15.585  70.985  1.00  0.00    -0.826 N  
HETATM   22  O   UNL     1     -12.070  16.244  72.097  1.00  0.00    -0.496 OA 
HETATM   23  S   UNL     1     -12.610  15.227  71.236  1.00  0.00    -0.423 S  
HETATM   24  H1  UNL     1     -14.600  15.442  71.923  1.00  0.00     0.000 HD 
ENDBRANCH  17  18
ENDBRANCH   4  17
TORSDOF 2
ENDMDL
MODEL        7
REMARK 921   NORMALIZED FREE ENERGY PREDICTED BY IDOCK:   -6.48 KCAL/MOL
REMARK 922        TOTAL FREE ENERGY PREDICTED BY IDOCK:   -7.66 KCAL/MOL
REMARK 923 INTER-LIGAND FREE ENERGY PREDICTED BY IDOCK:   -7.30 KCAL/MOL
REMARK 924 INTRA-LIGAND FREE ENERGY PREDICTED BY IDOCK:   -0.36 KCAL/MOL
REMARK 927      BINDING AFFINITY PREDICTED BY RF-SCORE:    0.00 PKD
ROOT
HETATM    1  C   UNL     1      -9.292  15.838  65.922  1.00  0.00    -0.321 C  
HETATM    2  C   UNL     1     -10.775  15.823  65.523  1.00  0.00    -0.383 C  
HETATM    3  O   UNL     1     -11.750  15.216  66.364  1.00  0.00    -0.194 OA 
HETATM    4  C   UNL     1     -11.369  14.478  67.531  1.00  0.00    -0.340 C  
HETATM    5  O   UNL     1     -12.010  13.190  67.507  1.00  0.00    -0.358 OA 
HETATM    6  C   UNL     1      -9.009  15.253  67.274  1.00  0.00    -0.195 C  
HETATM    7  C   UNL     1      -7.812  18.300  67.969  1.00  0.00    -0.274 C  
HETATM    8  C   UNL     1     -11.151  12.365  66.718  1.00  0.00    -0.285 C  
HETATM    9  C   UNL     1     -11.087  10.981  67.365  1.00  0.00    -0.370 C  
HETATM   10  O   UNL     1      -9.841  12.980  66.647  1.00  0.00    -0.239 OA 
HETATM   11  C   UNL     1     -10.235  18.482  67.488  1.00  0.00    -0.414 C  
HETATM   12  C   UNL     1     -11.770  12.229  65.328  1.00  0.00    -0.413 C  
HETATM   13  O   UNL     1      -8.799  17.184  66.045  1.00  0.00    -0.484 OA 
HETATM   14  C   UNL     1      -9.020  17.554  67.410  1.00  0.00    -0.230 C  
HETATM   15  O   UNL     1      -9.227  16.356  68.180  1.00  0.00    -0.196 OA 
HETATM   16  C   UNL     1      -9.912  14.076  67.593  1.00  0.00    -0.237 C  
ENDROOT
BRANCH   4  17
HETATM   17  C   UNL     1     -11.861  15.224  68.777  1.00  0.00    -0.307 C  
BRANCH  17  18
HETATM   18  O   UNL     1     -12.339  14.276  69.727  1.00  0.00    -0.328 OA 
HETATM   19  H2  UNL     1     -13.189  12.461  71.603  1.00  0.00     0.000 HD 
HETATM   20  O   UNL     1     -11.406  15.229  71.819  1.00  0.00    -0.408 OA 
HETATM   21  N   UNL     1     -13.121  13.408  71.976  1.00  0.00    -0.380 N  
HETATM   22  O   UNL     1     -13.807  15.681  71.147  1.00  0.00    -0.583 OA 
HETATM   23  S   UNL     1     -12.654  14.825  71.216  1.00  0.00    -0.365 S  
HETATM   24  H1  UNL     1     -13.320  13.754  72.915  1.00  0.00     0.000 HD 
ENDBRANCH  17  18
ENDBRANCH   4  17
TORSDOF 2
ENDMDL
MODEL        8
REMARK 921   NORMALIZED FREE ENERGY PREDICTED BY IDOCK:   -6.41 KCAL/MOL
REMARK 922        TOTAL FREE ENERGY PREDICTED BY IDOCK:   -7.59 KCAL/MOL
REMARK 923 INTER-LIGAND FREE ENERGY PREDICTED BY IDOCK:   -7.19 KCAL/MOL
REMARK 924 INTRA-LIGAND FREE ENERGY PREDICTED BY IDOCK:   -0.40 KCAL/MOL
REMARK 927      BINDING AFFINITY PREDICTED BY RF-SCORE:    0.00 PKD
ROOT
HETATM    1  C   UNL     1      -9.093  16.123  65.961  1.00  0.00    -0.318 C  
HETATM    2  C   UNL     1     -10.626  16.219  65.955  1.00  0.00    -0.297 C  
HETATM    3  O   UNL     1     -11.398  15.628  66.994  1.00  0.00    -0.209 OA 
HETATM    4  C   UNL     1     -10.789  14.807  67.998  1.00  0.00    -0.260 C  
HETATM    5  O   UNL     1     -11.507  13.564  68.091  1.00  0.00    -0.266 OA 
HETATM    6  C   UNL     1      -8.521  15.451  67.175  1.00  0.00    -0.214 C  
HETATM    7  C   UNL     1      -6.971  18.378  67.651  1.00  0.00    -0.208 C  
HETATM    8  C   UNL     1     -10.937  12.731  67.079  1.00  0.00    -0.263 C  
HETATM    9  C   UNL     1     -10.811  11.313  67.638  1.00  0.00    -0.286 C  
HETATM   10  O   UNL     1      -9.647  13.269  66.698  1.00  0.00    -0.250 OA 
HETATM   11  C   UNL     1      -9.417  18.732  67.812  1.00  0.00    -0.333 C  
HETATM   12  C   UNL     1     -11.895  12.708  65.889  1.00  0.00    -0.499 C  
HETATM   13  O   UNL     1      -8.489  17.429  66.004  1.00  0.00    -0.503 OA 
HETATM   14  C   UNL     1      -8.331  17.737  67.393  1.00  0.00    -0.222 C  
HETATM   15  O   UNL     1      -8.423  16.515  68.146  1.00  0.00    -0.182 OA 
HETATM   16  C   UNL     1      -9.397  14.315  67.671  1.00  0.00    -0.201 C  
ENDROOT
BRANCH   4  17
HETATM   17  C   UNL     1     -10.896  15.513  69.354  1.00  0.00    -0.261 C  
BRANCH  17  18
HETATM   18  O   UNL     1     -12.270  15.641  69.705  1.00  0.00    -0.352 OA 
HETATM   19  H2  UNL     1     -14.924  15.803  70.388  1.00  0.00     0.000 HD 
HETATM   20  O   UNL     1     -12.502  13.759  71.305  1.00  0.00    -0.349 OA 
HETATM   21  N   UNL     1     -14.344  15.451  71.149  1.00  0.00    -0.821 N  
HETATM   22  O   UNL     1     -12.130  16.125  72.132  1.00  0.00    -0.474 OA 
HETATM   23  S   UNL     1     -12.692  15.186  71.199  1.00  0.00    -0.424 S  
HETATM   24  H1  UNL     1     -14.610  15.165  72.092  1.00  0.00     0.000 HD 
ENDBRANCH  17  18
ENDBRANCH   4  17
TORSDOF 2
ENDMDL
MODEL        9
REMARK 921   NORMALIZED FREE ENERGY PREDICTED BY IDOCK:   -6.38 KCAL/MOL
REMARK 922        TOTAL FREE ENERGY PREDICTED BY IDOCK:   -7.56 KCAL/MOL
REMARK 923 INTER-LIGAND FREE ENERGY PREDICTED BY IDOCK:   -7.12 KCAL/MOL
REMARK 924 INTRA-LIGAND FREE ENERGY PREDICTED BY IDOCK:   -0.44 KCAL/MOL
REMARK 927      BINDING AFFINITY PREDICTED BY RF-SCORE:    0.00 PKD
ROOT
HETATM    1  C   UNL     1     -11.505  12.857  68.682  1.00  0.00    -0.308 C  
HETATM    2  C   UNL     1     -10.063  12.747  68.165  1.00  0.00    -0.239 C  
HETATM    3  O   UNL     1      -9.660  13.421  66.977  1.00  0.00    -0.228 OA 
HETATM    4  C   UNL     1     -10.611  14.102  66.151  1.00  0.00    -0.293 C  
HETATM    5  O   UNL     1     -10.453  13.666  64.789  1.00  0.00    -0.387 OA 
HETATM    6  C   UNL     1     -12.377  13.785  67.888  1.00  0.00     0.029 C  
HETATM    7  C   UNL     1     -12.668  15.444  70.780  1.00  0.00    -0.516 C  
HETATM    8  C   UNL     1     -11.237  12.476  64.690  1.00  0.00    -0.312 C  
HETATM    9  C   UNL     1     -11.952  12.482  63.338  1.00  0.00    -0.602 C  
HETATM   10  O   UNL     1     -12.179  12.438  65.790  1.00  0.00    -0.620 OA 
HETATM   11  C   UNL     1     -10.299  15.500  70.059  1.00  0.00    -0.315 C  
HETATM   12  C   UNL     1     -10.288  11.278  64.739  1.00  0.00    -0.366 C  
HETATM   13  O   UNL     1     -11.543  13.432  70.001  1.00  0.00    -0.241 OA 
HETATM   14  C   UNL     1     -11.659  14.845  69.804  1.00  0.00    -0.303 C  
HETATM   15  O   UNL     1     -12.111  15.084  68.459  1.00  0.00    -0.257 OA 
HETATM   16  C   UNL     1     -12.059  13.746  66.405  1.00  0.00    -0.444 C  
ENDROOT
BRANCH   4  17
HETATM   17  C   UNL     1     -10.325  15.608  66.197  1.00  0.00    -0.316 C  
BRANCH  17  18
HETATM   18  O   UNL     1      -9.134  15.832  66.945  1.00  0.00    -0.209 OA 
HETATM   19  H2  UNL     1      -6.798  16.280  68.316  1.00  0.00     0.000 HD 
HETATM   20  O   UNL     1      -8.092  17.638  65.602  1.00  0.00    -0.518 OA 
HETATM   21  N   UNL     1      -7.159  17.124  67.870  1.00  0.00    -0.159 N  
HETATM   22  O   UNL     1      -9.434  18.180  67.681  1.00  0.00    -0.260 OA 
HETATM   23  S   UNL     1      -8.536  17.335  66.941  1.00  0.00    -0.253 S  
HETATM   24  H1  UNL     1      -6.782  18.072  67.868  1.00  0.00     0.000 HD 
ENDBRANCH  17  18
ENDBRANCH   4  17
TORSDOF 2
ENDMDL
MODEL       10
REMARK 921   NORMALIZED FREE ENERGY PREDICTED BY IDOCK:   -6.36 KCAL/MOL
REMARK 922        TOTAL FREE ENERGY PREDICTED BY IDOCK:   -7.53 KCAL/MOL
REMARK 923 INTER-LIGAND FREE ENERGY PREDICTED BY IDOCK:   -7.11 KCAL/MOL
REMARK 924 INTRA-LIGAND FREE ENERGY PREDICTED BY IDOCK:   -0.42 KCAL/MOL
REMARK 927      BINDING AFFINITY PREDICTED BY RF-SCORE:    0.00 PKD
ROOT
HETATM    1  C   UNL     1     -10.749  14.081  65.662  1.00  0.00    -0.303 C  
HETATM    2  C   UNL     1      -9.629  13.642  66.618  1.00  0.00    -0.283 C  
HETATM    3  O   UNL     1      -9.934  13.019  67.860  1.00  0.00    -0.217 OA 
HETATM    4  C   UNL     1     -11.284  12.910  68.326  1.00  0.00    -0.270 C  
HETATM    5  O   UNL     1     -11.362  13.410  69.673  1.00  0.00    -0.227 OA 
HETATM    6  C   UNL     1     -12.131  13.715  66.119  1.00  0.00    -0.436 C  
HETATM    7  C   UNL     1     -12.250  11.977  63.261  1.00  0.00    -0.531 C  
HETATM    8  C   UNL     1     -11.535  14.822  69.534  1.00  0.00    -0.298 C  
HETATM    9  C   UNL     1     -12.544  15.288  70.583  1.00  0.00    -0.471 C  
HETATM   10  O   UNL     1     -11.993  15.110  68.190  1.00  0.00    -0.290 OA 
HETATM   11  C   UNL     1     -10.477  11.024  64.705  1.00  0.00    -0.398 C  
HETATM   12  C   UNL     1     -10.191  15.494  69.811  1.00  0.00    -0.301 C  
HETATM   13  O   UNL     1     -10.643  13.413  64.392  1.00  0.00    -0.411 OA 
HETATM   14  C   UNL     1     -11.419  12.216  64.519  1.00  0.00    -0.334 C  
HETATM   15  O   UNL     1     -12.305  12.363  65.644  1.00  0.00    -0.639 OA 
HETATM   16  C   UNL     1     -12.282  13.806  67.626  1.00  0.00    -0.194 C  
ENDROOT
BRANCH   4  17
HETATM   17  C   UNL     1     -11.688  11.432  68.351  1.00  0.00    -0.303 C  
BRANCH  17  18
HETATM   18  O   UNL     1     -11.400  10.893  69.637  1.00  0.00    -0.245 OA 
HETATM   19  H2  UNL     1     -10.875   9.780  72.091  1.00  0.00     0.000 HD 
HETATM   20  O   UNL     1     -10.746   8.580  69.020  1.00  0.00    -0.193 OA 
HETATM   21  N   UNL     1     -10.295   9.387  71.350  1.00  0.00    -0.310 N  
HETATM   22  O   UNL     1      -8.989  10.358  69.434  1.00  0.00    -0.194 OA 
HETATM   23  S   UNL     1     -10.260   9.749  69.716  1.00  0.00    -0.259 S  
HETATM   24  H1  UNL     1      -9.576   8.665  71.400  1.00  0.00     0.000 HD 
ENDBRANCH  17  18
ENDBRANCH   4  17
TORSDOF 2
ENDMDL
MODEL       11
REMARK 921   NORMALIZED FREE ENERGY PREDICTED BY IDOCK:   -6.28 KCAL/MOL
REMARK 922        TOTAL FREE ENERGY PREDICTED BY IDOCK:   -7.44 KCAL/MOL
REMARK 923 INTER-LIGAND FREE ENERGY PREDICTED BY IDOCK:   -6.97 KCAL/MOL
REMARK 924 INTRA-LIGAND FREE ENERGY PREDICTED BY IDOCK:   -0.47 KCAL/MOL
REMARK 927      BINDING AFFINITY PREDICTED BY RF-SCORE:    0.00 PKD
ROOT
HETATM    1  C   UNL     1     -10.074  14.742  65.465  1.00  0.00    -0.380 C  
HETATM    2  C   UNL     1      -8.924  14.424  66.432  1.00  0.00    -0.088 C  
HETATM    3  O   UNL     1      -9.063  14.652  67.830  1.00  0.00    -0.180 OA 
HETATM    4  C   UNL     1     -10.216  15.313  68.365  1.00  0.00    -0.223 C  
HETATM    5  O   UNL     1      -9.790  16.385  69.225  1.00  0.00    -0.259 OA 
HETATM    6  C   UNL     1     -11.334  15.209  66.134  1.00  0.00    -0.220 C  
HETATM    7  C   UNL     1     -12.696  12.510  64.698  1.00  0.00    -0.434 C  
HETATM    8  C   UNL     1      -9.572  17.494  68.351  1.00  0.00    -0.303 C  
HETATM    9  C   UNL     1     -10.091  18.757  69.039  1.00  0.00    -0.295 C  
HETATM   10  O   UNL     1     -10.259  17.250  67.099  1.00  0.00    -0.303 OA 
HETATM   11  C   UNL     1     -10.968  11.772  66.310  1.00  0.00    -0.346 C  
HETATM   12  C   UNL     1      -8.067  17.637  68.132  1.00  0.00    -0.252 C  
HETATM   13  O   UNL     1     -10.503  13.563  64.760  1.00  0.00    -0.379 OA 
HETATM   14  C   UNL     1     -11.535  12.984  65.566  1.00  0.00    -0.321 C  
HETATM   15  O   UNL     1     -12.014  13.984  66.484  1.00  0.00    -0.401 OA 
HETATM   16  C   UNL     1     -11.054  16.065  67.355  1.00  0.00    -0.167 C  
ENDROOT
BRANCH   4  17
HETATM   17  C   UNL     1     -11.013  14.318  69.216  1.00  0.00    -0.241 C  
BRANCH  17  18
HETATM   18  O   UNL     1     -12.236  14.926  69.618  1.00  0.00    -0.301 OA 
HETATM   19  H2  UNL     1     -14.626  16.023  70.408  1.00  0.00     0.000 HD 
HETATM   20  O   UNL     1     -12.968  13.342  71.383  1.00  0.00    -0.352 OA 
HETATM   21  N   UNL     1     -14.143  15.546  71.169  1.00  0.00    -0.785 N  
HETATM   22  O   UNL     1     -11.766  15.490  71.986  1.00  0.00    -0.377 OA 
HETATM   23  S   UNL     1     -12.676  14.739  71.164  1.00  0.00    -0.363 S  
HETATM   24  H1  UNL     1     -14.420  15.428  72.144  1.00  0.00     0.000 HD 
ENDBRANCH  17  18
ENDBRANCH   4  17
TORSDOF 2
ENDMDL
MODEL       12
REMARK 921   NORMALIZED FREE ENERGY PREDICTED BY IDOCK:   -6.26 KCAL/MOL
REMARK 922        TOTAL FREE ENERGY PREDICTED BY IDOCK:   -7.42 KCAL/MOL
REMARK 923 INTER-LIGAND FREE ENERGY PREDICTED BY IDOCK:   -7.17 KCAL/MOL
REMARK 924 INTRA-LIGAND FREE ENERGY PREDICTED BY IDOCK:   -0.25 KCAL/MOL
REMARK 927      BINDING AFFINITY PREDICTED BY RF-SCORE:    0.00 PKD
ROOT
HETATM    1  C   UNL     1     -11.113  15.169  66.281  1.00  0.00    -0.309 C  
HETATM    2  C   UNL     1     -12.378  14.304  66.392  1.00  0.00    -0.350 C  
HETATM    3  O   UNL     1     -12.284  12.894  66.557  1.00  0.00    -0.441 OA 
HETATM    4  C   UNL     1     -11.024  12.218  66.483  1.00  0.00    -0.279 C  
HETATM    5  O   UNL     1     -11.129  11.120  65.560  1.00  0.00    -0.145 OA 
HETATM    6  C   UNL     1      -9.829  14.411  66.453  1.00  0.00    -0.295 C  
HETATM    7  C   UNL     1      -9.351  16.471  69.047  1.00  0.00    -0.239 C  
HETATM    8  C   UNL     1     -10.884  11.694  64.274  1.00  0.00    -0.359 C  
HETATM    9  C   UNL     1     -10.026  10.720  63.467  1.00  0.00    -0.403 C  
HETATM   10  O   UNL     1     -10.221  12.970  64.446  1.00  0.00    -0.372 OA 
HETATM   11  C   UNL     1     -11.353  15.081  69.486  1.00  0.00    -0.308 C  
HETATM   12  C   UNL     1     -12.229  11.865  63.568  1.00  0.00    -0.591 C  
HETATM   13  O   UNL     1     -11.053  16.143  67.339  1.00  0.00    -0.258 OA 
HETATM   14  C   UNL     1     -10.350  15.508  68.412  1.00  0.00    -0.230 C  
HETATM   15  O   UNL     1      -9.636  14.375  67.883  1.00  0.00    -0.210 OA 
HETATM   16  C   UNL     1      -9.900  13.016  65.860  1.00  0.00    -0.237 C  
ENDROOT
BRANCH   4  17
HETATM   17  C   UNL     1     -10.684  11.640  67.862  1.00  0.00    -0.202 C  
BRANCH  17  18
HETATM   18  O   UNL     1     -11.858  11.064  68.426  1.00  0.00    -0.503 OA 
HETATM   19  H2  UNL     1     -14.075   9.888  69.539  1.00  0.00     0.000 HD 
HETATM   20  O   UNL     1     -10.887   9.894  70.387  1.00  0.00    -0.275 OA 
HETATM   21  N   UNL     1     -13.376  10.144  70.235  1.00  0.00    -0.466 N  
HETATM   22  O   UNL     1     -11.954  12.179  70.638  1.00  0.00    -0.322 OA 
HETATM   23  S   UNL     1     -11.884  10.876  70.033  1.00  0.00    -0.378 S  
HETATM   24  H1  UNL     1     -13.393  10.026  71.249  1.00  0.00     0.000 HD 
ENDBRANCH  17  18
ENDBRANCH   4  17
TORSDOF 2
ENDMDL
MODEL       13
REMARK 921   NORMALIZED FREE ENERGY PREDICTED BY IDOCK:   -6.10 KCAL/MOL
REMARK 922        TOTAL FREE ENERGY PREDICTED BY IDOCK:   -7.24 KCAL/MOL
REMARK 923 INTER-LIGAND FREE ENERGY PREDICTED BY IDOCK:   -6.86 KCAL/MOL
REMARK 924 INTRA-LIGAND FREE ENERGY PREDICTED BY IDOCK:   -0.38 KCAL/MOL
REMARK 927      BINDING AFFINITY PREDICTED BY RF-SCORE:    0.00 PKD
ROOT
HETATM    1  C   UNL     1     -11.432  14.683  66.533  1.00  0.00    -0.351 C  
HETATM    2  C   UNL     1     -12.535  13.625  66.384  1.00  0.00    -0.324 C  
HETATM    3  O   UNL     1     -12.208  12.248  66.229  1.00  0.00    -0.628 OA 
HETATM    4  C   UNL     1     -10.852  11.820  66.063  1.00  0.00    -0.296 C  
HETATM    5  O   UNL     1     -10.763  10.964  64.910  1.00  0.00    -0.276 OA 
HETATM    6  C   UNL     1     -10.041  14.123  66.588  1.00  0.00    -0.275 C  
HETATM    7  C   UNL     1      -9.938  15.575  69.602  1.00  0.00    -0.287 C  
HETATM    8  C   UNL     1     -10.607  11.852  63.802  1.00  0.00    -0.422 C  
HETATM    9  C   UNL     1      -9.590  11.243  62.836  1.00  0.00    -0.377 C  
HETATM   10  O   UNL     1     -10.168  13.144  64.291  1.00  0.00    -0.400 OA 
HETATM   11  C   UNL     1     -11.683  13.817  69.619  1.00  0.00    -0.379 C  
HETATM   12  C   UNL     1     -11.955  11.964  63.090  1.00  0.00    -0.287 C  
HETATM   13  O   UNL     1     -11.546  15.383  67.786  1.00  0.00    -0.322 OA 
HETATM   14  C   UNL     1     -10.756  14.638  68.718  1.00  0.00    -0.249 C  
HETATM   15  O   UNL     1      -9.858  13.788  67.980  1.00  0.00    -0.225 OA 
HETATM   16  C   UNL     1      -9.872  12.911  65.691  1.00  0.00    -0.175 C  
ENDROOT
BRANCH   4  17
HETATM   17  C   UNL     1     -10.432  11.001  67.289  1.00  0.00    -0.231 C  
BRANCH  17  18
HETATM   18  O   UNL     1     -11.065   9.726  67.235  1.00  0.00    -0.177 OA 
HETATM   19  H2  UNL     1     -12.243   7.253  67.059  1.00  0.00     0.000 HD 
HETATM   20  O   UNL     1      -9.249   8.365  66.233  1.00  0.00    -0.182 OA 
HETATM   21  N   UNL     1     -11.237   7.198  67.216  1.00  0.00    -0.586 N  
HETATM   22  O   UNL     1      -9.624   8.382  68.739  1.00  0.00    -0.147 OA 
HETATM   23  S   UNL     1     -10.114   8.427  67.387  1.00  0.00    -0.260 S  
HETATM   24  H1  UNL     1     -10.637   6.378  67.313  1.00  0.00     0.000 HD 
ENDBRANCH  17  18
ENDBRANCH   4  17
TORSDOF 2
ENDMDL
MODEL       14
REMARK 921   NORMALIZED FREE ENERGY PREDICTED BY IDOCK:   -6.09 KCAL/MOL
REMARK 922        TOTAL FREE ENERGY PREDICTED BY IDOCK:   -7.23 KCAL/MOL
REMARK 923 INTER-LIGAND FREE ENERGY PREDICTED BY IDOCK:   -6.82 KCAL/MOL
REMARK 924 INTRA-LIGAND FREE ENERGY PREDICTED BY IDOCK:   -0.41 KCAL/MOL
REMARK 927      BINDING AFFINITY PREDICTED BY RF-SCORE:    0.00 PKD
ROOT
HETATM    1  C   UNL     1      -9.326  10.598  68.125  1.00  0.00    -0.151 C  
HETATM    2  C   UNL     1      -8.704  11.755  67.328  1.00  0.00    -0.163 C  
HETATM    3  O   UNL     1      -9.059  11.978  65.968  1.00  0.00    -0.191 OA 
HETATM    4  C   UNL     1      -9.893  11.056  65.257  1.00  0.00    -0.259 C  
HETATM    5  O   UNL     1      -9.259  10.707  64.014  1.00  0.00    -0.206 OA 
HETATM    6  C   UNL     1     -10.371   9.823  67.375  1.00  0.00    -0.240 C  
HETATM    7  C   UNL     1     -12.394  10.805  69.854  1.00  0.00    -0.340 C  
HETATM    8  C   UNL     1      -8.371   9.635  64.341  1.00  0.00    -0.168 C  
HETATM    9  C   UNL     1      -8.428   8.603  63.215  1.00  0.00    -0.089 C  
HETATM   10  O   UNL     1      -8.773   9.061  65.609  1.00  0.00    -0.153 OA 
HETATM   11  C   UNL     1     -11.611  12.804  68.620  1.00  0.00    -0.352 C  
HETATM   12  C   UNL     1      -6.954  10.200  64.419  1.00  0.00    -0.106 C  
HETATM   13  O   UNL     1     -10.048  11.084  69.271  1.00  0.00    -0.189 OA 
HETATM   14  C   UNL     1     -11.389  11.303  68.820  1.00  0.00    -0.270 C  
HETATM   15  O   UNL     1     -11.583  10.578  67.592  1.00  0.00    -0.447 OA 
HETATM   16  C   UNL     1     -10.044   9.695  65.899  1.00  0.00    -0.234 C  
ENDROOT
BRANCH   4  17
HETATM   17  C   UNL     1     -11.225  11.739  64.927  1.00  0.00    -0.266 C  
BRANCH  17  18
HETATM   18  O   UNL     1     -11.002  13.135  64.754  1.00  0.00    -0.305 OA 
HETATM   19  H2  UNL     1     -10.589  15.817  64.338  1.00  0.00     0.000 HD 
HETATM   20  O   UNL     1     -12.657  13.637  62.975  1.00  0.00    -0.729 OA 
HETATM   21  N   UNL     1     -11.558  15.540  64.180  1.00  0.00    -0.840 N  
HETATM   22  O   UNL     1     -13.197  14.082  65.411  1.00  0.00    -0.761 OA 
HETATM   23  S   UNL     1     -12.273  14.032  64.310  1.00  0.00    -0.356 S  
HETATM   24  H1  UNL     1     -12.359  16.106  63.901  1.00  0.00     0.000 HD 
ENDBRANCH  17  18
ENDBRANCH   4  17
TORSDOF 2
ENDMDL
MODEL       15
REMARK 921   NORMALIZED FREE ENERGY PREDICTED BY IDOCK:   -6.07 KCAL/MOL
REMARK 922        TOTAL FREE ENERGY PREDICTED BY IDOCK:   -7.21 KCAL/MOL
REMARK 923 INTER-LIGAND FREE ENERGY PREDICTED BY IDOCK:   -6.79 KCAL/MOL
REMARK 924 INTRA-LIGAND FREE ENERGY PREDICTED BY IDOCK:   -0.42 KCAL/MOL
REMARK 927      BINDING AFFINITY PREDICTED BY RF-SCORE:    0.00 PKD
ROOT
HETATM    1  C   UNL     1     -12.099  14.814  64.993  1.00  0.00    -0.291 C  
HETATM    2  C   UNL     1     -10.665  15.364  65.037  1.00  0.00    -0.438 C  
HETATM    3  O   UNL     1      -9.773  14.992  66.081  1.00  0.00    -0.268 OA 
HETATM    4  C   UNL     1     -10.218  14.212  67.197  1.00  0.00    -0.258 C  
HETATM    5  O   UNL     1      -9.820  14.863  68.417  1.00  0.00    -0.205 OA 
HETATM    6  C   UNL     1     -12.410  13.815  66.069  1.00  0.00    -0.457 C  
HETATM    7  C   UNL     1     -13.002  11.744  63.507  1.00  0.00    -0.215 C  
HETATM    8  C   UNL     1     -10.854  15.813  68.682  1.00  0.00    -0.278 C  
HETATM    9  C   UNL     1     -11.132  15.814  70.186  1.00  0.00    -0.360 C  
HETATM   10  O   UNL     1     -12.034  15.450  67.924  1.00  0.00    -0.192 OA 
HETATM   11  C   UNL     1     -10.615  12.403  63.469  1.00  0.00    -0.451 C  
HETATM   12  C   UNL     1     -10.344  17.195  68.276  1.00  0.00    -0.354 C  
HETATM   13  O   UNL     1     -12.335  14.068  63.785  1.00  0.00    -0.684 OA 
HETATM   14  C   UNL     1     -11.979  12.715  64.090  1.00  0.00    -0.426 C  
HETATM   15  O   UNL     1     -11.950  12.561  65.521  1.00  0.00    -0.420 OA 
HETATM   16  C   UNL     1     -11.718  14.144  67.378  1.00  0.00    -0.391 C  
ENDROOT
BRANCH   4  17
HETATM   17  C   UNL     1      -9.534  12.841  67.153  1.00  0.00    -0.223 C  
BRANCH  17  18
HETATM   18  O   UNL     1      -8.739  12.680  68.323  1.00  0.00    -0.183 OA 
HETATM   19  H2  UNL     1      -7.200  12.287  70.562  1.00  0.00     0.000 HD 
HETATM   20  O   UNL     1      -7.164  10.922  67.559  1.00  0.00    -0.090 OA 
HETATM   21  N   UNL     1      -6.680  12.136  69.697  1.00  0.00    -0.326 N  
HETATM   22  O   UNL     1      -6.500  13.367  67.513  1.00  0.00    -0.166 OA 
HETATM   23  S   UNL     1      -7.193  12.257  68.108  1.00  0.00    -0.113 S  
HETATM   24  H1  UNL     1      -5.705  11.870  69.562  1.00  0.00     0.000 HD 
ENDBRANCH  17  18
ENDBRANCH   4  17
TORSDOF 2
ENDMDL
MODEL       16
REMARK 921   NORMALIZED FREE ENERGY PREDICTED BY IDOCK:   -6.07 KCAL/MOL
REMARK 922        TOTAL FREE ENERGY PREDICTED BY IDOCK:   -7.21 KCAL/MOL
REMARK 923 INTER-LIGAND FREE ENERGY PREDICTED BY IDOCK:   -6.81 KCAL/MOL
REMARK 924 INTRA-LIGAND FREE ENERGY PREDICTED BY IDOCK:   -0.40 KCAL/MOL
REMARK 927      BINDING AFFINITY PREDICTED BY RF-SCORE:    0.00 PKD
ROOT
HETATM    1  C   UNL     1      -8.034  17.536  68.358  1.00  0.00    -0.261 C  
HETATM    2  C   UNL     1      -7.328  17.068  67.076  1.00  0.00    -0.185 C  
HETATM    3  O   UNL     1      -7.869  16.013  66.289  1.00  0.00    -0.197 OA 
HETATM    4  C   UNL     1      -9.003  15.260  66.734  1.00  0.00    -0.262 C  
HETATM    5  O   UNL     1      -8.703  13.856  66.647  1.00  0.00    -0.149 OA 
HETATM    6  C   UNL     1      -9.344  16.854  68.625  1.00  0.00    -0.268 C  
HETATM    7  C   UNL     1     -10.607  19.948  68.437  1.00  0.00    -0.236 C  
HETATM    8  C   UNL     1      -8.031  13.546  67.870  1.00  0.00    -0.162 C  
HETATM    9  C   UNL     1      -8.523  12.182  68.357  1.00  0.00    -0.145 C  
HETATM   10  O   UNL     1      -8.309  14.588  68.838  1.00  0.00    -0.157 OA 
HETATM   11  C   UNL     1      -9.640  19.343  66.239  1.00  0.00    -0.437 C  
HETATM   12  C   UNL     1      -6.534  13.454  67.579  1.00  0.00    -0.129 C  
HETATM   13  O   UNL     1      -8.406  18.923  68.271  1.00  0.00    -0.306 OA 
HETATM   14  C   UNL     1      -9.724  18.937  67.712  1.00  0.00    -0.323 C  
HETATM   15  O   UNL     1     -10.297  17.625  67.861  1.00  0.00    -0.337 OA 
HETATM   16  C   UNL     1      -9.332  15.397  68.204  1.00  0.00    -0.197 C  
ENDROOT
BRANCH   4  17
HETATM   17  C   UNL     1     -10.188  15.544  65.803  1.00  0.00    -0.366 C  
BRANCH  17  18
HETATM   18  O   UNL     1     -10.209  14.567  64.767  1.00  0.00    -0.390 OA 
HETATM   19  H2  UNL     1     -10.266  12.627  62.826  1.00  0.00     0.000 HD 
HETATM   20  O   UNL     1     -11.969  13.041  65.622  1.00  0.00    -0.381 OA 
HETATM   21  N   UNL     1     -11.178  12.776  63.258  1.00  0.00    -0.715 N  
HETATM   22  O   UNL     1     -12.515  14.810  63.891  1.00  0.00    -0.811 OA 
HETATM   23  S   UNL     1     -11.624  13.841  64.470  1.00  0.00    -0.396 S  
HETATM   24  H1  UNL     1     -12.070  12.318  63.071  1.00  0.00     0.000 HD 
ENDBRANCH  17  18
ENDBRANCH   4  17
TORSDOF 2
ENDMDL
MODEL       17
REMARK 921   NORMALIZED FREE ENERGY PREDICTED BY IDOCK:   -6.07 KCAL/MOL
REMARK 922        TOTAL FREE ENERGY PREDICTED BY IDOCK:   -7.20 KCAL/MOL
REMARK 923 INTER-LIGAND FREE ENERGY PREDICTED BY IDOCK:   -7.00 KCAL/MOL
REMARK 924 INTRA-LIGAND FREE ENERGY PREDICTED BY IDOCK:   -0.20 KCAL/MOL
REMARK 927      BINDING AFFINITY PREDICTED BY RF-SCORE:    0.00 PKD
ROOT
HETATM    1  C   UNL     1     -11.235  12.748  66.837  1.00  0.00    -0.296 C  
HETATM    2  C   UNL     1     -12.076  13.858  67.486  1.00  0.00    -0.331 C  
HETATM    3  O   UNL     1     -11.616  15.204  67.505  1.00  0.00    -0.331 OA 
HETATM    4  C   UNL     1     -10.301  15.548  67.052  1.00  0.00    -0.279 C  
HETATM    5  O   UNL     1      -9.646  16.340  68.059  1.00  0.00    -0.221 OA 
HETATM    6  C   UNL     1      -9.978  13.233  66.174  1.00  0.00    -0.293 C  
HETATM    7  C   UNL     1     -11.336  11.930  63.406  1.00  0.00    -0.465 C  
HETATM    8  C   UNL     1      -9.076  15.390  68.962  1.00  0.00    -0.233 C  
HETATM    9  C   UNL     1      -7.694  15.893  69.380  1.00  0.00    -0.199 C  
HETATM   10  O   UNL     1      -8.996  14.102  68.303  1.00  0.00    -0.178 OA 
HETATM   11  C   UNL     1     -12.774  13.780  64.210  1.00  0.00    -0.032 C  
HETATM   12  C   UNL     1      -9.968  15.318  70.200  1.00  0.00    -0.051 C  
HETATM   13  O   UNL     1     -11.946  12.120  65.755  1.00  0.00    -0.536 OA 
HETATM   14  C   UNL     1     -11.604  12.866  64.582  1.00  0.00    -0.346 C  
HETATM   15  O   UNL     1     -10.413  13.626  64.854  1.00  0.00    -0.368 OA 
HETATM   16  C   UNL     1      -9.340  14.387  66.923  1.00  0.00    -0.256 C  
ENDROOT
BRANCH   4  17
HETATM   17  C   UNL     1     -10.416  16.403  65.785  1.00  0.00    -0.354 C  
BRANCH  17  18
HETATM   18  O   UNL     1      -9.575  17.545  65.917  1.00  0.00    -0.514 OA 
HETATM   19  H2  UNL     1      -7.984  19.775  66.099  1.00  0.00     0.000 HD 
HETATM   20  O   UNL     1     -11.008  19.281  64.875  1.00  0.00    -0.286 OA 
HETATM   21  N   UNL     1      -8.978  19.996  66.159  1.00  0.00    -0.531 N  
HETATM   22  O   UNL     1     -10.932  19.003  67.392  1.00  0.00    -0.459 OA 
HETATM   23  S   UNL     1     -10.305  18.977  66.099  1.00  0.00    -0.445 S  
HETATM   24  H1  UNL     1      -9.438  20.899  66.274  1.00  0.00     0.000 HD 
ENDBRANCH  17  18
ENDBRANCH   4  17
TORSDOF 2
ENDMDL
MODEL       18
REMARK 921   NORMALIZED FREE ENERGY PREDICTED BY IDOCK:   -6.05 KCAL/MOL
REMARK 922        TOTAL FREE ENERGY PREDICTED BY IDOCK:   -7.18 KCAL/MOL
REMARK 923 INTER-LIGAND FREE ENERGY PREDICTED BY IDOCK:   -6.72 KCAL/MOL
REMARK 924 INTRA-LIGAND FREE ENERGY PREDICTED BY IDOCK:   -0.46 KCAL/MOL
REMARK 927      BINDING AFFINITY PREDICTED BY RF-SCORE:    0.00 PKD
ROOT
HETATM    1  C   UNL     1      -8.754  10.082  67.756  1.00  0.00    -0.125 C  
HETATM    2  C   UNL     1     -10.193   9.545  67.770  1.00  0.00    -0.216 C  
HETATM    3  O   UNL     1     -11.278  10.354  67.331  1.00  0.00    -0.301 OA 
HETATM    4  C   UNL     1     -11.089  11.735  66.998  1.00  0.00    -0.304 C  
HETATM    5  O   UNL     1     -12.060  12.528  67.703  1.00  0.00    -0.436 OA 
HETATM    6  C   UNL     1      -8.613  11.456  67.168  1.00  0.00    -0.151 C  
HETATM    7  C   UNL     1      -6.609   9.938  64.958  1.00  0.00    -0.110 C  
HETATM    8  C   UNL     1     -11.479  12.769  68.986  1.00  0.00    -0.309 C  
HETATM    9  C   UNL     1     -11.783  14.213  69.388  1.00  0.00    -0.361 C  
HETATM   10  O   UNL     1     -10.052  12.527  68.910  1.00  0.00    -0.102 OA 
HETATM   11  C   UNL     1      -8.898   9.023  64.724  1.00  0.00    -0.165 C  
HETATM   12  C   UNL     1     -12.142  11.828  69.991  1.00  0.00    -0.387 C  
HETATM   13  O   UNL     1      -7.907   9.283  66.910  1.00  0.00    -0.097 OA 
HETATM   14  C   UNL     1      -7.988   9.877  65.610  1.00  0.00    -0.130 C  
HETATM   15  O   UNL     1      -8.499  11.215  65.749  1.00  0.00    -0.158 OA 
HETATM   16  C   UNL     1      -9.797  12.346  67.494  1.00  0.00    -0.194 C  
ENDROOT
BRANCH   4  17
HETATM   17  C   UNL     1     -11.329  11.924  65.496  1.00  0.00    -0.277 C  
BRANCH  17  18
HETATM   18  O   UNL     1     -11.054  13.278  65.149  1.00  0.00    -0.288 OA 
HETATM   19  H2  UNL     1     -10.528  15.866  64.398  1.00  0.00     0.000 HD 
HETATM   20  O   UNL     1     -12.412  13.497  63.083  1.00  0.00    -0.759 OA 
HETATM   21  N   UNL     1     -11.467  15.565  64.139  1.00  0.00    -0.794 N  
HETATM   22  O   UNL     1     -13.302  14.309  65.312  1.00  0.00    -0.660 OA 
HETATM   23  S   UNL     1     -12.224  14.093  64.386  1.00  0.00    -0.392 S  
HETATM   24  H1  UNL     1     -12.205  16.080  63.657  1.00  0.00     0.000 HD 
ENDBRANCH  17  18
ENDBRANCH   4  17
TORSDOF 2
ENDMDL
MODEL       19
REMARK 921   NORMALIZED FREE ENERGY PREDICTED BY IDOCK:   -6.04 KCAL/MOL
REMARK 922        TOTAL FREE ENERGY PREDICTED BY IDOCK:   -7.17 KCAL/MOL
REMARK 923 INTER-LIGAND FREE ENERGY PREDICTED BY IDOCK:   -6.83 KCAL/MOL
REMARK 924 INTRA-LIGAND FREE ENERGY PREDICTED BY IDOCK:   -0.34 KCAL/MOL
REMARK 927      BINDING AFFINITY PREDICTED BY RF-SCORE:    0.00 PKD
ROOT
HETATM    1  C   UNL     1      -7.914  14.742  68.330  1.00  0.00    -0.138 C  
HETATM    2  C   UNL     1      -9.046  15.097  69.306  1.00  0.00    -0.201 C  
HETATM    3  O   UNL     1     -10.340  15.445  68.827  1.00  0.00    -0.217 OA 
HETATM    4  C   UNL     1     -10.593  15.615  67.427  1.00  0.00    -0.301 C  
HETATM    5  O   UNL     1     -11.245  16.880  67.215  1.00  0.00    -0.001 OA 
HETATM    6  C   UNL     1      -8.328  14.712  66.888  1.00  0.00    -0.126 C  
HETATM    7  C   UNL     1      -7.360  11.511  67.025  1.00  0.00    -0.145 C  
HETATM    8  C   UNL     1     -10.184  17.833  67.128  1.00  0.00    -0.353 C  
HETATM    9  C   UNL     1     -10.527  18.835  66.025  1.00  0.00    -0.483 C  
HETATM   10  O   UNL     1      -8.946  17.135  66.846  1.00  0.00    -0.219 OA 
HETATM   11  C   UNL     1      -9.271  11.837  68.567  1.00  0.00    -0.152 C  
HETATM   12  C   UNL     1     -10.104  18.577  68.460  1.00  0.00    -0.414 C  
HETATM   13  O   UNL     1      -7.434  13.403  68.554  1.00  0.00    -0.111 OA 
HETATM   14  C   UNL     1      -8.228  12.562  67.711  1.00  0.00    -0.166 C  
HETATM   15  O   UNL     1      -8.854  13.380  66.707  1.00  0.00    -0.213 OA 
HETATM   16  C   UNL     1      -9.361  15.775  66.564  1.00  0.00    -0.283 C  
ENDROOT
BRANCH   4  17
HETATM   17  C   UNL     1     -11.545  14.511  66.953  1.00  0.00    -0.385 C  
BRANCH  17  18
HETATM   18  O   UNL     1     -11.896  14.752  65.594  1.00  0.00    -0.314 OA 
HETATM   19  H2  UNL     1     -12.498  15.191  62.952  1.00  0.00     0.000 HD 
HETATM   20  O   UNL     1     -10.655  12.918  64.476  1.00  0.00    -0.337 OA 
HETATM   21  N   UNL     1     -12.361  14.203  63.164  1.00  0.00    -1.046 N  
HETATM   22  O   UNL     1     -13.120  12.676  65.013  1.00  0.00    -0.808 OA 
HETATM   23  S   UNL     1     -11.984  13.465  64.619  1.00  0.00    -0.422 S  
HETATM   24  H1  UNL     1     -12.416  13.391  62.549  1.00  0.00     0.000 HD 
ENDBRANCH  17  18
ENDBRANCH   4  17
TORSDOF 2
ENDMDL
MODEL       20
REMARK 921   NORMALIZED FREE ENERGY PREDICTED BY IDOCK:   -5.97 KCAL/MOL
REMARK 922        TOTAL FREE ENERGY PREDICTED BY IDOCK:   -7.10 KCAL/MOL
REMARK 923 INTER-LIGAND FREE ENERGY PREDICTED BY IDOCK:   -6.66 KCAL/MOL
REMARK 924 INTRA-LIGAND FREE ENERGY PREDICTED BY IDOCK:   -0.43 KCAL/MOL
REMARK 927      BINDING AFFINITY PREDICTED BY RF-SCORE:    0.00 PKD
ROOT
HETATM    1  C   UNL     1     -11.524  14.788  66.521  1.00  0.00    -0.327 C  
HETATM    2  C   UNL     1     -12.533  13.630  66.510  1.00  0.00    -0.285 C  
HETATM    3  O   UNL     1     -12.093  12.281  66.390  1.00  0.00    -0.623 OA 
HETATM    4  C   UNL     1     -10.719  11.967  66.133  1.00  0.00    -0.275 C  
HETATM    5  O   UNL     1     -10.641  11.064  65.017  1.00  0.00    -0.292 OA 
HETATM    6  C   UNL     1     -10.087  14.357  66.487  1.00  0.00    -0.276 C  
HETATM    7  C   UNL     1      -9.887  15.966  69.415  1.00  0.00    -0.280 C  
HETATM    8  C   UNL     1     -10.654  11.904  63.861  1.00  0.00    -0.394 C  
HETATM    9  C   UNL     1      -9.662  11.338  62.844  1.00  0.00    -0.351 C  
HETATM   10  O   UNL     1     -10.300  13.253  64.254  1.00  0.00    -0.427 OA 
HETATM   11  C   UNL     1     -11.455  14.064  69.652  1.00  0.00    -0.317 C  
HETATM   12  C   UNL     1     -12.057  11.858  63.257  1.00  0.00    -0.466 C  
HETATM   13  O   UNL     1     -11.605  15.539  67.746  1.00  0.00    -0.302 OA 
HETATM   14  C   UNL     1     -10.680  14.916  68.644  1.00  0.00    -0.250 C  
HETATM   15  O   UNL     1      -9.767  14.112  67.874  1.00  0.00    -0.213 OA 
HETATM   16  C   UNL     1      -9.876  13.120  65.635  1.00  0.00    -0.160 C  
ENDROOT
BRANCH   4  17
HETATM   17  C   UNL     1     -10.132  11.253  67.356  1.00  0.00    -0.188 C  
BRANCH  17  18
HETATM   18  O   UNL     1     -11.188  10.929  68.256  1.00  0.00    -0.241 OA 
HETATM   19  H2  UNL     1     -13.228  10.229  69.954  1.00  0.00     0.000 HD 
HETATM   20  O   UNL     1     -10.771   8.505  68.583  1.00  0.00    -0.159 OA 
HETATM   21  N   UNL     1     -12.386   9.674  70.103  1.00  0.00    -0.441 N  
HETATM   22  O   UNL     1      -9.933  10.203  70.267  1.00  0.00    -0.204 OA 
HETATM   23  S   UNL     1     -10.909   9.741  69.317  1.00  0.00    -0.193 S  
HETATM   24  H1  UNL     1     -12.210   8.924  70.773  1.00  0.00     0.000 HD 
ENDBRANCH  17  18
ENDBRANCH   4  17
TORSDOF 2
ENDMDL
MODEL       21
REMARK 921   NORMALIZED FREE ENERGY PREDICTED BY IDOCK:   -5.94 KCAL/MOL
REMARK 922        TOTAL FREE ENERGY PREDICTED BY IDOCK:   -7.05 KCAL/MOL
REMARK 923 INTER-LIGAND FREE ENERGY PREDICTED BY IDOCK:   -6.61 KCAL/MOL
REMARK 924 INTRA-LIGAND FREE ENERGY PREDICTED BY IDOCK:   -0.44 KCAL/MOL
REMARK 927      BINDING AFFINITY PREDICTED BY RF-SCORE:    0.00 PKD
ROOT
HETATM    1  C   UNL     1      -9.502  16.040  65.710  1.00  0.00    -0.247 C  
HETATM    2  C   UNL     1     -11.015  16.005  65.447  1.00  0.00    -0.253 C  
HETATM    3  O   UNL     1     -11.817  14.939  65.942  1.00  0.00    -0.256 OA 
HETATM    4  C   UNL     1     -11.227  13.798  66.576  1.00  0.00    -0.312 C  
HETATM    5  O   UNL     1     -11.741  12.600  65.967  1.00  0.00    -0.373 OA 
HETATM    6  C   UNL     1      -9.001  14.929  66.586  1.00  0.00    -0.270 C  
HETATM    7  C   UNL     1      -8.023  17.414  68.604  1.00  0.00    -0.271 C  
HETATM    8  C   UNL     1     -10.911  12.382  64.824  1.00  0.00    -0.304 C  
HETATM    9  C   UNL     1     -10.636  10.882  64.709  1.00  0.00    -0.316 C  
HETATM   10  O   UNL     1      -9.684  13.137  64.982  1.00  0.00    -0.080 OA 
HETATM   11  C   UNL     1     -10.493  17.455  68.422  1.00  0.00    -0.384 C  
HETATM   12  C   UNL     1     -11.680  12.837  63.585  1.00  0.00    -0.587 C  
HETATM   13  O   UNL     1      -9.128  17.220  66.444  1.00  0.00    -0.256 OA 
HETATM   14  C   UNL     1      -9.214  16.860  67.827  1.00  0.00    -0.230 C  
HETATM   15  O   UNL     1      -9.210  15.424  67.926  1.00  0.00    -0.179 OA 
HETATM   16  C   UNL     1      -9.742  13.627  66.345  1.00  0.00    -0.292 C  
ENDROOT
BRANCH   4  17
HETATM   17  C   UNL     1     -11.632  13.782  68.055  1.00  0.00    -0.333 C  
BRANCH  17  18
HETATM   18  O   UNL     1     -10.856  12.803  68.738  1.00  0.00    -0.242 OA 
HETATM   19  H2  UNL     1      -9.389  10.945  70.129  1.00  0.00     0.000 HD 
HETATM   20  O   UNL     1     -12.347  12.306  70.658  1.00  0.00    -0.354 OA 
HETATM   21  N   UNL     1     -10.394  10.798  70.219  1.00  0.00    -0.277 N  
HETATM   22  O   UNL     1     -12.327  10.812  68.611  1.00  0.00    -0.430 OA 
HETATM   23  S   UNL     1     -11.664  11.667  69.558  1.00  0.00    -0.365 S  
HETATM   24  H1  UNL     1     -10.903  10.082  70.736  1.00  0.00     0.000 HD 
ENDBRANCH  17  18
ENDBRANCH   4  17
TORSDOF 2
ENDMDL
MODEL       22
REMARK 921   NORMALIZED FREE ENERGY PREDICTED BY IDOCK:   -5.84 KCAL/MOL
REMARK 922        TOTAL FREE ENERGY PREDICTED BY IDOCK:   -6.94 KCAL/MOL
REMARK 923 INTER-LIGAND FREE ENERGY PREDICTED BY IDOCK:   -6.43 KCAL/MOL
REMARK 924 INTRA-LIGAND FREE ENERGY PREDICTED BY IDOCK:   -0.52 KCAL/MOL
REMARK 927      BINDING AFFINITY PREDICTED BY RF-SCORE:    0.00 PKD
ROOT
HETATM    1  C   UNL     1     -11.019  10.029  67.240  1.00  0.00    -0.156 C  
HETATM    2  C   UNL     1      -9.818  10.240  66.307  1.00  0.00    -0.219 C  
HETATM    3  O   UNL     1      -9.349  11.549  66.006  1.00  0.00    -0.215 OA 
HETATM    4  C   UNL     1     -10.061  12.713  66.443  1.00  0.00    -0.253 C  
HETATM    5  O   UNL     1     -10.270  13.589  65.322  1.00  0.00    -0.314 OA 
HETATM    6  C   UNL     1     -11.560  11.291  67.846  1.00  0.00    -0.256 C  
HETATM    7  C   UNL     1     -10.790   9.825  70.755  1.00  0.00    -0.403 C  
HETATM    8  C   UNL     1     -11.461  13.108  64.695  1.00  0.00    -0.333 C  
HETATM    9  C   UNL     1     -12.292  14.313  64.254  1.00  0.00    -0.407 C  
HETATM   10  O   UNL     1     -12.186  12.278  65.635  1.00  0.00    -0.605 OA 
HETATM   11  C   UNL     1      -8.707  10.194  69.467  1.00  0.00    -0.189 C  
HETATM   12  C   UNL     1     -11.056  12.310  63.457  1.00  0.00    -0.533 C  
HETATM   13  O   UNL     1     -10.653   9.250  68.394  1.00  0.00    -0.218 OA 
HETATM   14  C   UNL     1     -10.235  10.198  69.383  1.00  0.00    -0.227 C  
HETATM   15  O   UNL     1     -10.735  11.496  69.013  1.00  0.00    -0.208 OA 
HETATM   16  C   UNL     1     -11.485  12.467  66.890  1.00  0.00    -0.360 C  
ENDROOT
BRANCH   4  17
HETATM   17  C   UNL     1      -9.208  13.464  67.472  1.00  0.00    -0.219 C  
BRANCH  17  18
HETATM   18  O   UNL     1      -9.628  14.824  67.520  1.00  0.00    -0.205 OA 
HETATM   19  H2  UNL     1     -10.512  17.420  67.639  1.00  0.00     0.000 HD 
HETATM   20  O   UNL     1     -11.114  14.767  69.505  1.00  0.00    -0.261 OA 
HETATM   21  N   UNL     1     -10.439  16.988  68.560  1.00  0.00    -0.351 N  
HETATM   22  O   UNL     1      -8.715  15.559  69.704  1.00  0.00    -0.251 OA 
HETATM   23  S   UNL     1      -9.951  15.442  68.979  1.00  0.00    -0.243 S  
HETATM   24  H1  UNL     1     -10.643  17.378  69.480  1.00  0.00     0.000 HD 
ENDBRANCH  17  18
ENDBRANCH   4  17
TORSDOF 2
ENDMDL
MODEL       23
REMARK 921   NORMALIZED FREE ENERGY PREDICTED BY IDOCK:   -5.83 KCAL/MOL
REMARK 922        TOTAL FREE ENERGY PREDICTED BY IDOCK:   -6.94 KCAL/MOL
REMARK 923 INTER-LIGAND FREE ENERGY PREDICTED BY IDOCK:   -6.58 KCAL/MOL
REMARK 924 INTRA-LIGAND FREE ENERGY PREDICTED BY IDOCK:   -0.36 KCAL/MOL
REMARK 927      BINDING AFFINITY PREDICTED BY RF-SCORE:    0.00 PKD
ROOT
HETATM    1  C   UNL     1      -9.330  10.429  67.189  1.00  0.00    -0.157 C  
HETATM    2  C   UNL     1      -8.722  11.764  67.645  1.00  0.00    -0.159 C  
HETATM    3  O   UNL     1      -9.553  12.823  68.108  1.00  0.00    -0.214 OA 
HETATM    4  C   UNL     1     -10.980  12.736  68.031  1.00  0.00    -0.239 C  
HETATM    5  O   UNL     1     -11.493  13.921  67.396  1.00  0.00    -0.313 OA 
HETATM    6  C   UNL     1     -10.817  10.335  67.365  1.00  0.00    -0.277 C  
HETATM    7  C   UNL     1     -10.080   7.747  69.355  1.00  0.00    -0.195 C  
HETATM    8  C   UNL     1     -11.411  13.653  65.995  1.00  0.00    -0.324 C  
HETATM    9  C   UNL     1     -12.670  14.206  65.325  1.00  0.00    -0.425 C  
HETATM   10  O   UNL     1     -11.287  12.223  65.794  1.00  0.00    -0.326 OA 
HETATM   11  C   UNL     1      -9.125   9.810  70.337  1.00  0.00    -0.154 C  
HETATM   12  C   UNL     1     -10.195  14.393  65.440  1.00  0.00    -0.408 C  
HETATM   13  O   UNL     1      -8.843   9.334  67.987  1.00  0.00    -0.128 OA 
HETATM   14  C   UNL     1      -9.761   9.213  69.079  1.00  0.00    -0.166 C  
HETATM   15  O   UNL     1     -10.978   9.899  68.732  1.00  0.00    -0.223 OA 
HETATM   16  C   UNL     1     -11.512  11.659  67.111  1.00  0.00    -0.271 C  
ENDROOT
BRANCH   4  17
HETATM   17  C   UNL     1     -11.555  12.679  69.451  1.00  0.00    -0.306 C  
BRANCH  17  18
HETATM   18  O   UNL     1     -12.471  13.756  69.625  1.00  0.00    -0.281 OA 
HETATM   19  H2  UNL     1     -14.288  15.779  70.000  1.00  0.00     0.000 HD 
HETATM   20  O   UNL     1     -13.428  13.179  71.840  1.00  0.00    -0.435 OA 
HETATM   21  N   UNL     1     -13.885  15.447  70.876  1.00  0.00    -0.844 N  
HETATM   22  O   UNL     1     -11.558  14.876  71.638  1.00  0.00    -0.352 OA 
HETATM   23  S   UNL     1     -12.750  14.245  71.141  1.00  0.00    -0.381 S  
HETATM   24  H1  UNL     1     -14.061  15.756  71.832  1.00  0.00     0.000 HD 
ENDBRANCH  17  18
ENDBRANCH   4  17
TORSDOF 2
ENDMDL
MODEL       24
REMARK 921   NORMALIZED FREE ENERGY PREDICTED BY IDOCK:   -5.67 KCAL/MOL
REMARK 922        TOTAL FREE ENERGY PREDICTED BY IDOCK:   -6.76 KCAL/MOL
REMARK 923 INTER-LIGAND FREE ENERGY PREDICTED BY IDOCK:   -6.29 KCAL/MOL
REMARK 924 INTRA-LIGAND FREE ENERGY PREDICTED BY IDOCK:   -0.47 KCAL/MOL
REMARK 927      BINDING AFFINITY PREDICTED BY RF-SCORE:    0.00 PKD
ROOT
HETATM    1  C   UNL     1     -11.884  14.940  66.354  1.00  0.00    -0.131 C  
HETATM    2  C   UNL     1     -11.160  15.570  65.154  1.00  0.00    -0.374 C  
HETATM    3  O   UNL     1      -9.884  16.180  65.311  1.00  0.00    -0.452 OA 
HETATM    4  C   UNL     1      -9.298  16.354  66.606  1.00  0.00    -0.259 C  
HETATM    5  O   UNL     1      -8.884  17.724  66.757  1.00  0.00    -0.245 OA 
HETATM    6  C   UNL     1     -11.094  14.954  67.630  1.00  0.00    -0.311 C  
HETATM    7  C   UNL     1     -11.388  11.625  67.454  1.00  0.00    -0.367 C  
HETATM    8  C   UNL     1     -10.052  18.415  67.205  1.00  0.00    -0.353 C  
HETATM    9  C   UNL     1      -9.633  19.430  68.268  1.00  0.00    -0.454 C  
HETATM   10  O   UNL     1     -10.997  17.451  67.733  1.00  0.00    -0.317 OA 
HETATM   11  C   UNL     1     -10.081  12.417  65.505  1.00  0.00    -0.287 C  
HETATM   12  C   UNL     1     -10.644  19.167  66.013  1.00  0.00    -0.524 C  
HETATM   13  O   UNL     1     -12.123  13.537  66.140  1.00  0.00    -0.396 OA 
HETATM   14  C   UNL     1     -10.974  12.864  66.666  1.00  0.00    -0.276 C  
HETATM   15  O   UNL     1     -10.278  13.767  67.544  1.00  0.00    -0.238 OA 
HETATM   16  C   UNL     1     -10.251  16.208  67.771  1.00  0.00    -0.267 C  
ENDROOT
BRANCH   4  17
HETATM   17  C   UNL     1      -8.048  15.473  66.712  1.00  0.00    -0.212 C  
BRANCH  17  18
HETATM   18  O   UNL     1      -7.423  15.701  67.971  1.00  0.00    -0.116 OA 
HETATM   19  H2  UNL     1      -6.174  16.072  70.387  1.00  0.00     0.000 HD 
HETATM   20  O   UNL     1      -5.131  14.881  67.493  1.00  0.00    -0.325 OA 
HETATM   21  N   UNL     1      -5.539  16.181  69.597  1.00  0.00    -0.132 N  
HETATM   22  O   UNL     1      -5.674  17.353  67.376  1.00  0.00    -0.122 OA 
HETATM   23  S   UNL     1      -5.844  16.048  67.956  1.00  0.00    -0.134 S  
HETATM   24  H1  UNL     1      -4.542  16.400  69.587  1.00  0.00     0.000 HD 
ENDBRANCH  17  18
ENDBRANCH   4  17
TORSDOF 2
ENDMDL
MODEL       25
REMARK 921   NORMALIZED FREE ENERGY PREDICTED BY IDOCK:   -5.60 KCAL/MOL
REMARK 922        TOTAL FREE ENERGY PREDICTED BY IDOCK:   -6.69 KCAL/MOL
REMARK 923 INTER-LIGAND FREE ENERGY PREDICTED BY IDOCK:   -6.31 KCAL/MOL
REMARK 924 INTRA-LIGAND FREE ENERGY PREDICTED BY IDOCK:   -0.37 KCAL/MOL
REMARK 927      BINDING AFFINITY PREDICTED BY RF-SCORE:    0.00 PKD
ROOT
HETATM    1  C   UNL     1     -10.696  16.694  68.422  1.00  0.00    -0.353 C  
HETATM    2  C   UNL     1      -9.816  16.181  69.572  1.00  0.00    -0.198 C  
HETATM    3  O   UNL     1     -10.184  15.022  70.311  1.00  0.00    -0.090 OA 
HETATM    4  C   UNL     1     -11.448  14.380  70.107  1.00  0.00    -0.220 C  
HETATM    5  O   UNL     1     -12.098  14.200  71.378  1.00  0.00    -0.334 OA 
HETATM    6  C   UNL     1     -11.882  15.826  68.118  1.00  0.00    -0.044 C  
HETATM    7  C   UNL     1     -10.477  15.550  65.092  1.00  0.00    -0.431 C  
HETATM    8  C   UNL     1     -12.776  15.434  71.623  1.00  0.00    -0.410 C  
HETATM    9  C   UNL     1     -14.140  15.120  72.238  1.00  0.00    -0.633 C  
HETATM   10  O   UNL     1     -12.910  16.155  70.373  1.00  0.00    -0.163 OA 
HETATM   11  C   UNL     1      -8.960  14.548  66.774  1.00  0.00    -0.270 C  
HETATM   12  C   UNL     1     -11.954  16.234  72.633  1.00  0.00    -0.644 C  
HETATM   13  O   UNL     1      -9.975  16.701  67.177  1.00  0.00    -0.255 OA 
HETATM   14  C   UNL     1     -10.207  15.416  66.588  1.00  0.00    -0.277 C  
HETATM   15  O   UNL     1     -11.356  14.824  67.220  1.00  0.00    -0.335 OA 
HETATM   16  C   UNL     1     -12.478  15.205  69.367  1.00  0.00    -0.034 C  
ENDROOT
BRANCH   4  17
HETATM   17  C   UNL     1     -11.212  12.992  69.501  1.00  0.00    -0.077 C  
BRANCH  17  18
HETATM   18  O   UNL     1     -12.195  12.092  70.004  1.00  0.00    -0.269 OA 
HETATM   19  H2  UNL     1     -14.101  10.329  70.896  1.00  0.00     0.000 HD 
HETATM   20  O   UNL     1     -11.852  10.158  68.488  1.00  0.00    -0.097 OA 
HETATM   21  N   UNL     1     -13.272   9.859  70.532  1.00  0.00    -0.600 N  
HETATM   22  O   UNL     1     -10.795  10.204  70.791  1.00  0.00    -0.307 OA 
HETATM   23  S   UNL     1     -11.871  10.512  69.888  1.00  0.00    -0.270 S  
HETATM   24  H1  UNL     1     -13.068   8.863  70.459  1.00  0.00     0.000 HD 
ENDBRANCH  17  18
ENDBRANCH   4  17
TORSDOF 2
ENDMDL
MODEL       26
REMARK 921   NORMALIZED FREE ENERGY PREDICTED BY IDOCK:   -5.56 KCAL/MOL
REMARK 922        TOTAL FREE ENERGY PREDICTED BY IDOCK:   -6.63 KCAL/MOL
REMARK 923 INTER-LIGAND FREE ENERGY PREDICTED BY IDOCK:   -6.18 KCAL/MOL
REMARK 924 INTRA-LIGAND FREE ENERGY PREDICTED BY IDOCK:   -0.46 KCAL/MOL
REMARK 927      BINDING AFFINITY PREDICTED BY RF-SCORE:    0.00 PKD
ROOT
HETATM    1  C   UNL     1      -9.035  10.403  68.778  1.00  0.00    -0.157 C  
HETATM    2  C   UNL     1     -10.426  11.054  68.725  1.00  0.00    -0.198 C  
HETATM    3  O   UNL     1     -10.794  11.902  67.643  1.00  0.00    -0.209 OA 
HETATM    4  C   UNL     1      -9.841  12.291  66.646  1.00  0.00    -0.220 C  
HETATM    5  O   UNL     1      -9.871  13.721  66.496  1.00  0.00    -0.273 OA 
HETATM    6  C   UNL     1      -8.181  10.672  67.573  1.00  0.00    -0.111 C  
HETATM    7  C   UNL     1      -8.217   7.343  67.225  1.00  0.00    -0.115 C  
HETATM    8  C   UNL     1      -8.996  14.217  67.511  1.00  0.00    -0.196 C  
HETATM    9  C   UNL     1      -8.191  15.379  66.926  1.00  0.00    -0.281 C  
HETATM   10  O   UNL     1      -8.132  13.142  67.955  1.00  0.00    -0.134 OA 
HETATM   11  C   UNL     1     -10.527   8.199  66.975  1.00  0.00    -0.396 C  
HETATM   12  C   UNL     1      -9.853  14.744  68.661  1.00  0.00    -0.225 C  
HETATM   13  O   UNL     1      -9.132   8.967  68.789  1.00  0.00    -0.136 OA 
HETATM   14  C   UNL     1      -9.108   8.567  67.414  1.00  0.00    -0.133 C  
HETATM   15  O   UNL     1      -8.583   9.654  66.631  1.00  0.00    -0.129 OA 
HETATM   16  C   UNL     1      -8.392  12.067  67.017  1.00  0.00    -0.178 C  
ENDROOT
BRANCH   4  17
HETATM   17  C   UNL     1     -10.241  11.670  65.303  1.00  0.00    -0.272 C  
BRANCH  17  18
HETATM   18  O   UNL     1     -10.736  12.694  64.446  1.00  0.00    -0.314 OA 
HETATM   19  H2  UNL     1     -11.707  14.611  62.737  1.00  0.00     0.000 HD 
HETATM   20  O   UNL     1     -12.561  11.473  63.292  1.00  0.00    -0.365 OA 
HETATM   21  N   UNL     1     -12.430  13.964  63.052  1.00  0.00    -1.009 N  
HETATM   22  O   UNL     1     -13.056  12.970  65.275  1.00  0.00    -0.689 OA 
HETATM   23  S   UNL     1     -12.312  12.653  64.086  1.00  0.00    -0.434 S  
HETATM   24  H1  UNL     1     -13.424  13.938  62.825  1.00  0.00     0.000 HD 
ENDBRANCH  17  18
ENDBRANCH   4  17
TORSDOF 2
ENDMDL
MODEL       27
REMARK 921   NORMALIZED FREE ENERGY PREDICTED BY IDOCK:   -5.55 KCAL/MOL
REMARK 922        TOTAL FREE ENERGY PREDICTED BY IDOCK:   -6.62 KCAL/MOL
REMARK 923 INTER-LIGAND FREE ENERGY PREDICTED BY IDOCK:   -6.25 KCAL/MOL
REMARK 924 INTRA-LIGAND FREE ENERGY PREDICTED BY IDOCK:   -0.38 KCAL/MOL
REMARK 927      BINDING AFFINITY PREDICTED BY RF-SCORE:    0.00 PKD
ROOT
HETATM    1  C   UNL     1      -8.611  15.214  66.523  1.00  0.00    -0.191 C  
HETATM    2  C   UNL     1      -9.899  16.027  66.718  1.00  0.00    -0.250 C  
HETATM    3  O   UNL     1     -11.118  15.388  67.081  1.00  0.00    -0.327 OA 
HETATM    4  C   UNL     1     -11.221  13.961  67.137  1.00  0.00    -0.313 C  
HETATM    5  O   UNL     1     -12.364  13.538  66.374  1.00  0.00    -0.407 OA 
HETATM    6  C   UNL     1      -8.750  13.752  66.835  1.00  0.00    -0.154 C  
HETATM    7  C   UNL     1      -6.390  14.361  69.128  1.00  0.00    -0.102 C  
HETATM    8  C   UNL     1     -11.893  13.440  65.028  1.00  0.00    -0.352 C  
HETATM    9  C   UNL     1     -12.516  12.198  64.390  1.00  0.00    -0.418 C  
HETATM   10  O   UNL     1     -10.447  13.363  65.039  1.00  0.00    -0.327 OA 
HETATM   11  C   UNL     1      -8.418  15.663  69.701  1.00  0.00    -0.076 C  
HETATM   12  C   UNL     1     -12.372  14.676  64.267  1.00  0.00    -0.375 C  
HETATM   13  O   UNL     1      -7.583  15.639  67.435  1.00  0.00    -0.160 OA 
HETATM   14  C   UNL     1      -7.745  14.831  68.606  1.00  0.00    -0.130 C  
HETATM   15  O   UNL     1      -8.538  13.681  68.261  1.00  0.00    -0.164 OA 
HETATM   16  C   UNL     1     -10.110  13.206  66.441  1.00  0.00    -0.281 C  
ENDROOT
BRANCH   4  17
HETATM   17  C   UNL     1     -11.444  13.533  68.592  1.00  0.00    -0.308 C  
BRANCH  17  18
HETATM   18  O   UNL     1     -12.501  14.308  69.148  1.00  0.00    -0.212 OA 
HETATM   19  H2  UNL     1     -14.578  15.732  70.243  1.00  0.00     0.000 HD 
HETATM   20  O   UNL     1     -13.084  12.925  71.123  1.00  0.00    -0.223 OA 
HETATM   21  N   UNL     1     -14.025  15.241  70.946  1.00  0.00    -0.796 N  
HETATM   22  O   UNL     1     -11.562  14.938  71.354  1.00  0.00    -0.336 OA 
HETATM   23  S   UNL     1     -12.681  14.261  70.754  1.00  0.00    -0.344 S  
HETATM   24  H1  UNL     1     -14.138  15.212  71.959  1.00  0.00     0.000 HD 
ENDBRANCH  17  18
ENDBRANCH   4  17
TORSDOF 2
ENDMDL
MODEL       28
REMARK 921   NORMALIZED FREE ENERGY PREDICTED BY IDOCK:   -5.53 KCAL/MOL
REMARK 922        TOTAL FREE ENERGY PREDICTED BY IDOCK:   -6.60 KCAL/MOL
REMARK 923 INTER-LIGAND FREE ENERGY PREDICTED BY IDOCK:   -6.20 KCAL/MOL
REMARK 924 INTRA-LIGAND FREE ENERGY PREDICTED BY IDOCK:   -0.41 KCAL/MOL
REMARK 927      BINDING AFFINITY PREDICTED BY RF-SCORE:    0.00 PKD
ROOT
HETATM    1  C   UNL     1     -10.067  12.355  65.616  1.00  0.00    -0.257 C  
HETATM    2  C   UNL     1     -11.151  11.284  65.810  1.00  0.00    -0.084 C  
HETATM    3  O   UNL     1     -11.676  11.004  67.103  1.00  0.00    -0.456 OA 
HETATM    4  C   UNL     1     -11.117  11.602  68.278  1.00  0.00    -0.234 C  
HETATM    5  O   UNL     1     -10.833  10.574  69.243  1.00  0.00    -0.210 OA 
HETATM    6  C   UNL     1      -9.706  13.103  66.866  1.00  0.00    -0.243 C  
HETATM    7  C   UNL     1     -10.730  15.789  65.151  1.00  0.00    -0.455 C  
HETATM    8  C   UNL     1      -9.538  10.084  68.890  1.00  0.00    -0.181 C  
HETATM    9  C   UNL     1      -8.752   9.831  70.176  1.00  0.00    -0.215 C  
HETATM   10  O   UNL     1      -8.878  11.060  68.046  1.00  0.00    -0.130 OA 
HETATM   11  C   UNL     1     -12.652  14.260  65.467  1.00  0.00    -0.429 C  
HETATM   12  C   UNL     1      -9.718   8.756  68.155  1.00  0.00    -0.177 C  
HETATM   13  O   UNL     1     -10.518  13.401  64.736  1.00  0.00    -0.366 OA 
HETATM   14  C   UNL     1     -11.131  14.381  65.581  1.00  0.00    -0.321 C  
HETATM   15  O   UNL     1     -10.688  14.160  66.932  1.00  0.00    -0.282 OA 
HETATM   16  C   UNL     1      -9.748  12.219  68.099  1.00  0.00    -0.213 C  
ENDROOT
BRANCH   4  17
HETATM   17  C   UNL     1     -12.150  12.552  68.895  1.00  0.00    -0.122 C  
BRANCH  17  18
HETATM   18  O   UNL     1     -11.585  13.166  70.049  1.00  0.00    -0.238 OA 
HETATM   19  H2  UNL     1     -10.463  14.411  72.224  1.00  0.00     0.000 HD 
HETATM   20  O   UNL     1     -11.769  15.559  69.420  1.00  0.00    -0.323 OA 
HETATM   21  N   UNL     1     -11.197  14.970  71.788  1.00  0.00    -0.561 N  
HETATM   22  O   UNL     1     -13.503  14.475  70.915  1.00  0.00    -0.354 OA 
HETATM   23  S   UNL     1     -12.150  14.627  70.454  1.00  0.00    -0.342 S  
HETATM   24  H1  UNL     1     -11.553  15.891  72.043  1.00  0.00     0.000 HD 
ENDBRANCH  17  18
ENDBRANCH   4  17
TORSDOF 2
ENDMDL
MODEL       29
REMARK 921   NORMALIZED FREE ENERGY PREDICTED BY IDOCK:   -5.52 KCAL/MOL
REMARK 922        TOTAL FREE ENERGY PREDICTED BY IDOCK:   -6.59 KCAL/MOL
REMARK 923 INTER-LIGAND FREE ENERGY PREDICTED BY IDOCK:   -6.26 KCAL/MOL
REMARK 924 INTRA-LIGAND FREE ENERGY PREDICTED BY IDOCK:   -0.33 KCAL/MOL
REMARK 927      BINDING AFFINITY PREDICTED BY RF-SCORE:    0.00 PKD
ROOT
HETATM    1  C   UNL     1     -11.294  14.487  67.199  1.00  0.00    -0.350 C  
HETATM    2  C   UNL     1     -12.255  13.302  67.019  1.00  0.00    -0.253 C  
HETATM    3  O   UNL     1     -11.872  11.987  67.405  1.00  0.00    -0.546 OA 
HETATM    4  C   UNL     1     -10.537  11.699  67.839  1.00  0.00    -0.193 C  
HETATM    5  O   UNL     1     -10.032  10.574  67.098  1.00  0.00    -0.180 OA 
HETATM    6  C   UNL     1     -10.004  14.138  67.882  1.00  0.00    -0.231 C  
HETATM    7  C   UNL     1     -11.001  16.369  70.169  1.00  0.00    -0.291 C  
HETATM    8  C   UNL     1      -9.507  11.132  65.891  1.00  0.00    -0.215 C  
HETATM    9  C   UNL     1      -8.204  10.408  65.553  1.00  0.00    -0.162 C  
HETATM   10  O   UNL     1      -9.292  12.552  66.084  1.00  0.00    -0.217 OA 
HETATM   11  C   UNL     1     -12.609  14.486  70.133  1.00  0.00    -0.339 C  
HETATM   12  C   UNL     1     -10.517  10.877  64.773  1.00  0.00    -0.373 C  
HETATM   13  O   UNL     1     -11.857  15.486  68.069  1.00  0.00    -0.277 OA 
HETATM   14  C   UNL     1     -11.436  15.131  69.390  1.00  0.00    -0.306 C  
HETATM   15  O   UNL     1     -10.321  14.227  69.287  1.00  0.00    -0.176 OA 
HETATM   16  C   UNL     1      -9.508  12.755  67.503  1.00  0.00    -0.187 C  
ENDROOT
BRANCH   4  17
HETATM   17  C   UNL     1     -10.567  11.308  69.321  1.00  0.00    -0.148 C  
BRANCH  17  18
HETATM   18  O   UNL     1     -11.240  10.061  69.460  1.00  0.00    -0.234 OA 
HETATM   19  H2  UNL     1     -12.468   7.625  69.763  1.00  0.00     0.000 HD 
HETATM   20  O   UNL     1     -10.249   9.250  71.585  1.00  0.00    -0.332 OA 
HETATM   21  N   UNL     1     -12.256   8.071  70.656  1.00  0.00    -0.495 N  
HETATM   22  O   UNL     1     -12.506  10.402  71.564  1.00  0.00    -0.376 OA 
HETATM   23  S   UNL     1     -11.520   9.542  70.966  1.00  0.00    -0.380 S  
HETATM   24  H1  UNL     1     -12.433   7.744  71.606  1.00  0.00     0.000 HD 
ENDBRANCH  17  18
ENDBRANCH   4  17
TORSDOF 2
ENDMDL
MODEL       30
REMARK 921   NORMALIZED FREE ENERGY PREDICTED BY IDOCK:   -5.49 KCAL/MOL
REMARK 922        TOTAL FREE ENERGY PREDICTED BY IDOCK:   -6.56 KCAL/MOL
REMARK 923 INTER-LIGAND FREE ENERGY PREDICTED BY IDOCK:   -6.21 KCAL/MOL
REMARK 924 INTRA-LIGAND FREE ENERGY PREDICTED BY IDOCK:   -0.35 KCAL/MOL
REMARK 927      BINDING AFFINITY PREDICTED BY RF-SCORE:    0.00 PKD
ROOT
HETATM    1  C   UNL     1     -10.952   9.986  67.312  1.00  0.00    -0.156 C  
HETATM    2  C   UNL     1      -9.756  10.196  66.373  1.00  0.00    -0.205 C  
HETATM    3  O   UNL     1      -9.284  11.506  66.075  1.00  0.00    -0.214 OA 
HETATM    4  C   UNL     1      -9.990  12.670  66.521  1.00  0.00    -0.251 C  
HETATM    5  O   UNL     1     -10.203  13.551  65.405  1.00  0.00    -0.303 OA 
HETATM    6  C   UNL     1     -11.486  11.247  67.927  1.00  0.00    -0.288 C  
HETATM    7  C   UNL     1     -10.703   9.767  70.825  1.00  0.00    -0.393 C  
HETATM    8  C   UNL     1     -11.399  13.078  64.783  1.00  0.00    -0.317 C  
HETATM    9  C   UNL     1     -12.229  14.287  64.352  1.00  0.00    -0.471 C  
HETATM   10  O   UNL     1     -12.122  12.245  65.724  1.00  0.00    -0.587 OA 
HETATM   11  C   UNL     1      -8.626  10.133  69.526  1.00  0.00    -0.177 C  
HETATM   12  C   UNL     1     -11.005  12.283  63.539  1.00  0.00    -0.521 C  
HETATM   13  O   UNL     1     -10.582   9.201  68.461  1.00  0.00    -0.212 OA 
HETATM   14  C   UNL     1     -10.155  10.143  69.451  1.00  0.00    -0.231 C  
HETATM   15  O   UNL     1     -10.652  11.444  69.090  1.00  0.00    -0.211 OA 
HETATM   16  C   UNL     1     -11.412  12.427  66.976  1.00  0.00    -0.358 C  
ENDROOT
BRANCH   4  17
HETATM   17  C   UNL     1      -9.128  13.414  67.548  1.00  0.00    -0.215 C  
BRANCH  17  18
HETATM   18  O   UNL     1      -8.547  14.556  66.927  1.00  0.00    -0.216 OA 
HETATM   19  H2  UNL     1      -7.447  16.803  65.797  1.00  0.00     0.000 HD 
HETATM   20  O   UNL     1      -7.623  15.725  68.910  1.00  0.00    -0.154 OA 
HETATM   21  N   UNL     1      -6.938  16.490  66.624  1.00  0.00    -0.206 N  
HETATM   22  O   UNL     1      -6.146  14.257  67.466  1.00  0.00    -0.328 OA 
HETATM   23  S   UNL     1      -7.233  15.185  67.629  1.00  0.00    -0.199 S  
HETATM   24  H1  UNL     1      -6.109  16.887  67.067  1.00  0.00     0.000 HD 
ENDBRANCH  17  18
ENDBRANCH   4  17
TORSDOF 2
ENDMDL
MODEL       31
REMARK 921   NORMALIZED FREE ENERGY PREDICTED BY IDOCK:   -5.47 KCAL/MOL
REMARK 922        TOTAL FREE ENERGY PREDICTED BY IDOCK:   -6.54 KCAL/MOL
REMARK 923 INTER-LIGAND FREE ENERGY PREDICTED BY IDOCK:   -6.22 KCAL/MOL
REMARK 924 INTRA-LIGAND FREE ENERGY PREDICTED BY IDOCK:   -0.31 KCAL/MOL
REMARK 927      BINDING AFFINITY PREDICTED BY RF-SCORE:    0.00 PKD
ROOT
HETATM    1  C   UNL     1      -9.729  14.262  65.430  1.00  0.00    -0.100 C  
HETATM    2  C   UNL     1      -8.874  13.884  66.649  1.00  0.00    -0.081 C  
HETATM    3  O   UNL     1      -9.316  14.176  67.969  1.00  0.00    -0.190 OA 
HETATM    4  C   UNL     1     -10.495  14.955  68.203  1.00  0.00    -0.242 C  
HETATM    5  O   UNL     1     -10.186  16.019  69.121  1.00  0.00    -0.213 OA 
HETATM    6  C   UNL     1     -11.062  14.862  65.773  1.00  0.00    -0.342 C  
HETATM    7  C   UNL     1     -12.293  12.237  64.100  1.00  0.00    -0.546 C  
HETATM    8  C   UNL     1      -9.666  17.071  68.305  1.00  0.00    -0.275 C  
HETATM    9  C   UNL     1     -10.212  18.400  68.828  1.00  0.00    -0.333 C  
HETATM   10  O   UNL     1     -10.059  16.839  66.930  1.00  0.00    -0.270 OA 
HETATM   11  C   UNL     1     -11.069  11.416  66.090  1.00  0.00    -0.259 C  
HETATM   12  C   UNL     1      -8.145  17.074  68.448  1.00  0.00    -0.245 C  
HETATM   13  O   UNL     1     -10.088  13.098  64.664  1.00  0.00    -0.310 OA 
HETATM   14  C   UNL     1     -11.330  12.642  65.211  1.00  0.00    -0.315 C  
HETATM   15  O   UNL     1     -11.916  13.714  65.971  1.00  0.00    -0.368 OA 
HETATM   16  C   UNL     1     -10.999  15.737  67.010  1.00  0.00    -0.221 C  
ENDROOT
BRANCH   4  17
HETATM   17  C   UNL     1     -11.560  14.066  68.857  1.00  0.00    -0.315 C  
BRANCH  17  18
HETATM   18  O   UNL     1     -10.939  12.883  69.349  1.00  0.00    -0.132 OA 
HETATM   19  H2  UNL     1      -9.771  10.619  70.373  1.00  0.00     0.000 HD 
HETATM   20  O   UNL     1     -12.564  12.218  71.102  1.00  0.00    -0.364 OA 
HETATM   21  N   UNL     1     -10.790  10.587  70.413  1.00  0.00    -0.447 N  
HETATM   22  O   UNL     1     -12.634  11.159  68.802  1.00  0.00    -0.345 OA 
HETATM   23  S   UNL     1     -11.914  11.722  69.912  1.00  0.00    -0.311 S  
HETATM   24  H1  UNL     1     -11.405   9.855  70.768  1.00  0.00     0.000 HD 
ENDBRANCH  17  18
ENDBRANCH   4  17
TORSDOF 2
ENDMDL
MODEL       32
REMARK 921   NORMALIZED FREE ENERGY PREDICTED BY IDOCK:   -5.43 KCAL/MOL
REMARK 922        TOTAL FREE ENERGY PREDICTED BY IDOCK:   -6.49 KCAL/MOL
REMARK 923 INTER-LIGAND FREE ENERGY PREDICTED BY IDOCK:   -6.25 KCAL/MOL
REMARK 924 INTRA-LIGAND FREE ENERGY PREDICTED BY IDOCK:   -0.24 KCAL/MOL
REMARK 927      BINDING AFFINITY PREDICTED BY RF-SCORE:    0.00 PKD
ROOT
HETATM    1  C   UNL     1      -6.614  16.498  67.052  1.00  0.00    -0.199 C  
HETATM    2  C   UNL     1      -6.685  17.488  68.224  1.00  0.00    -0.197 C  
HETATM    3  O   UNL     1      -7.940  17.926  68.734  1.00  0.00    -0.292 OA 
HETATM    4  C   UNL     1      -9.168  17.576  68.086  1.00  0.00    -0.277 C  
HETATM    5  O   UNL     1      -9.946  18.767  67.870  1.00  0.00    -0.322 OA 
HETATM    6  C   UNL     1      -7.949  15.995  66.586  1.00  0.00    -0.256 C  
HETATM    7  C   UNL     1      -6.726  12.990  67.408  1.00  0.00    -0.123 C  
HETATM    8  C   UNL     1      -9.462  19.304  66.637  1.00  0.00    -0.344 C  
HETATM    9  C   UNL     1     -10.656  19.827  65.838  1.00  0.00    -0.557 C  
HETATM   10  O   UNL     1      -8.754  18.265  65.916  1.00  0.00    -0.500 OA 
HETATM   11  C   UNL     1      -6.882  14.377  69.453  1.00  0.00    -0.132 C  
HETATM   12  C   UNL     1      -8.535  20.475  66.961  1.00  0.00    -0.313 C  
HETATM   13  O   UNL     1      -5.930  15.289  67.431  1.00  0.00    -0.325 OA 
HETATM   14  C   UNL     1      -6.946  14.408  67.924  1.00  0.00    -0.163 C  
HETATM   15  O   UNL     1      -8.224  14.881  67.463  1.00  0.00    -0.155 OA 
HETATM   16  C   UNL     1      -9.027  17.058  66.672  1.00  0.00    -0.254 C  
ENDROOT
BRANCH   4  17
HETATM   17  C   UNL     1      -9.973  16.652  69.008  1.00  0.00    -0.280 C  
BRANCH  17  18
HETATM   18  O   UNL     1     -10.903  15.910  68.225  1.00  0.00    -0.287 OA 
HETATM   19  H2  UNL     1     -12.644  14.415  66.717  1.00  0.00     0.000 HD 
HETATM   20  O   UNL     1     -10.549  13.633  69.142  1.00  0.00    -0.176 OA 
HETATM   21  N   UNL     1     -12.527  14.048  67.661  1.00  0.00    -0.445 N  
HETATM   22  O   UNL     1     -12.468  15.074  69.956  1.00  0.00    -0.320 OA 
HETATM   23  S   UNL     1     -11.581  14.617  68.920  1.00  0.00    -0.327 S  
HETATM   24  H1  UNL     1     -12.955  13.232  68.099  1.00  0.00     0.000 HD 
ENDBRANCH  17  18
ENDBRANCH   4  17
TORSDOF 2
ENDMDL
MODEL       33
REMARK 921   NORMALIZED FREE ENERGY PREDICTED BY IDOCK:   -5.39 KCAL/MOL
REMARK 922        TOTAL FREE ENERGY PREDICTED BY IDOCK:   -6.45 KCAL/MOL
REMARK 923 INTER-LIGAND FREE ENERGY PREDICTED BY IDOCK:   -5.91 KCAL/MOL
REMARK 924 INTRA-LIGAND FREE ENERGY PREDICTED BY IDOCK:   -0.54 KCAL/MOL
REMARK 927      BINDING AFFINITY PREDICTED BY RF-SCORE:    0.00 PKD
ROOT
HETATM    1  C   UNL     1     -11.090  17.602  67.233  1.00  0.00     0.147 C  
HETATM    2  C   UNL     1     -10.927  16.447  68.232  1.00  0.00    -0.355 C  
HETATM    3  O   UNL     1     -10.065  15.352  67.946  1.00  0.00    -0.224 OA 
HETATM    4  C   UNL     1      -9.433  15.217  66.668  1.00  0.00    -0.263 C  
HETATM    5  O   UNL     1      -9.675  13.894  66.158  1.00  0.00    -0.291 OA 
HETATM    6  C   UNL     1     -10.210  17.501  66.022  1.00  0.00    -0.299 C  
HETATM    7  C   UNL     1      -8.971  20.419  67.094  1.00  0.00    -0.453 C  
HETATM    8  C   UNL     1     -10.946  13.974  65.510  1.00  0.00    -0.309 C  
HETATM    9  C   UNL     1     -10.881  13.156  64.220  1.00  0.00    -0.430 C  
HETATM   10  O   UNL     1     -11.252  15.365  65.243  1.00  0.00    -0.349 OA 
HETATM   11  C   UNL     1      -8.485  18.674  68.783  1.00  0.00    -0.292 C  
HETATM   12  C   UNL     1     -11.990  13.351  66.435  1.00  0.00    -0.457 C  
HETATM   13  O   UNL     1     -10.690  18.856  67.816  1.00  0.00    -0.413 OA 
HETATM   14  C   UNL     1      -9.295  18.991  67.523  1.00  0.00    -0.298 C  
HETATM   15  O   UNL     1      -8.965  18.093  66.449  1.00  0.00    -0.322 OA 
HETATM   16  C   UNL     1     -10.024  16.066  65.564  1.00  0.00    -0.247 C  
ENDROOT
BRANCH   4  17
HETATM   17  C   UNL     1      -7.919  15.385  66.837  1.00  0.00    -0.195 C  
BRANCH  17  18
HETATM   18  O   UNL     1      -7.596  15.315  68.223  1.00  0.00    -0.107 OA 
HETATM   19  H2  UNL     1      -7.025  15.114  70.900  1.00  0.00     0.000 HD 
HETATM   20  O   UNL     1      -7.670  12.860  68.578  1.00  0.00    -0.129 OA 
HETATM   21  N   UNL     1      -6.684  14.315  70.365  1.00  0.00    -0.407 N  
HETATM   22  O   UNL     1      -5.466  14.047  68.182  1.00  0.00    -0.105 OA 
HETATM   23  S   UNL     1      -6.797  14.001  68.725  1.00  0.00    -0.109 S  
HETATM   24  H1  UNL     1      -6.180  13.486  70.682  1.00  0.00     0.000 HD 
ENDBRANCH  17  18
ENDBRANCH   4  17
TORSDOF 2
ENDMDL
MODEL       34
REMARK 921   NORMALIZED FREE ENERGY PREDICTED BY IDOCK:   -5.39 KCAL/MOL
REMARK 922        TOTAL FREE ENERGY PREDICTED BY IDOCK:   -6.45 KCAL/MOL
REMARK 923 INTER-LIGAND FREE ENERGY PREDICTED BY IDOCK:   -6.02 KCAL/MOL
REMARK 924 INTRA-LIGAND FREE ENERGY PREDICTED BY IDOCK:   -0.43 KCAL/MOL
REMARK 927      BINDING AFFINITY PREDICTED BY RF-SCORE:    0.00 PKD
ROOT
HETATM    1  C   UNL     1     -12.015  14.006  67.227  1.00  0.00    -0.413 C  
HETATM    2  C   UNL     1     -11.040  14.273  66.070  1.00  0.00    -0.319 C  
HETATM    3  O   UNL     1      -9.761  14.848  66.313  1.00  0.00    -0.262 OA 
HETATM    4  C   UNL     1      -9.396  15.328  67.612  1.00  0.00    -0.199 C  
HETATM    5  O   UNL     1      -8.894  16.672  67.497  1.00  0.00    -0.194 OA 
HETATM    6  C   UNL     1     -11.461  14.317  68.586  1.00  0.00    -0.296 C  
HETATM    7  C   UNL     1     -12.015  11.071  69.185  1.00  0.00    -0.394 C  
HETATM    8  C   UNL     1     -10.056  17.503  67.528  1.00  0.00    -0.326 C  
HETATM    9  C   UNL     1      -9.740  18.741  68.368  1.00  0.00    -0.421 C  
HETATM   10  O   UNL     1     -11.161  16.749  68.087  1.00  0.00    -0.363 OA 
HETATM   11  C   UNL     1     -10.323  11.277  67.388  1.00  0.00    -0.233 C  
HETATM   12  C   UNL     1     -10.362  17.945  66.098  1.00  0.00    -0.352 C  
HETATM   13  O   UNL     1     -12.337  12.607  67.324  1.00  0.00    -0.352 OA 
HETATM   14  C   UNL     1     -11.362  12.045  68.210  1.00  0.00    -0.286 C  
HETATM   15  O   UNL     1     -10.751  13.115  68.955  1.00  0.00    -0.233 OA 
HETATM   16  C   UNL     1     -10.547  15.528  68.573  1.00  0.00    -0.246 C  
ENDROOT
BRANCH   4  17
HETATM   17  C   UNL     1      -8.267  14.453  68.169  1.00  0.00    -0.149 C  
BRANCH  17  18
HETATM   18  O   UNL     1      -7.891  13.496  67.184  1.00  0.00    -0.123 OA 
HETATM   19  H2  UNL     1      -7.095  11.693  65.273  1.00  0.00     0.000 HD 
HETATM   20  O   UNL     1      -5.440  13.405  67.557  1.00  0.00    -0.304 OA 
HETATM   21  N   UNL     1      -6.511  11.662  66.109  1.00  0.00    -0.326 N  
HETATM   22  O   UNL     1      -6.973  11.666  68.581  1.00  0.00    -0.074 OA 
HETATM   23  S   UNL     1      -6.613  12.563  67.517  1.00  0.00    -0.151 S  
HETATM   24  H1  UNL     1      -5.705  11.073  66.319  1.00  0.00     0.000 HD 
ENDBRANCH  17  18
ENDBRANCH   4  17
TORSDOF 2
ENDMDL
MODEL       35
REMARK 921   NORMALIZED FREE ENERGY PREDICTED BY IDOCK:   -5.34 KCAL/MOL
REMARK 922        TOTAL FREE ENERGY PREDICTED BY IDOCK:   -6.39 KCAL/MOL
REMARK 923 INTER-LIGAND FREE ENERGY PREDICTED BY IDOCK:   -5.92 KCAL/MOL
REMARK 924 INTRA-LIGAND FREE ENERGY PREDICTED BY IDOCK:   -0.46 KCAL/MOL
REMARK 927      BINDING AFFINITY PREDICTED BY RF-SCORE:    0.00 PKD
ROOT
HETATM    1  C   UNL     1     -11.628  13.180  67.607  1.00  0.00    -0.349 C  
HETATM    2  C   UNL     1     -10.280  13.200  68.343  1.00  0.00    -0.247 C  
HETATM    3  O   UNL     1      -9.284  12.222  68.068  1.00  0.00    -0.182 OA 
HETATM    4  C   UNL     1      -9.553  11.108  67.208  1.00  0.00    -0.165 C  
HETATM    5  O   UNL     1      -9.171   9.892  67.875  1.00  0.00    -0.131 OA 
HETATM    6  C   UNL     1     -11.738  12.121  66.549  1.00  0.00    -0.321 C  
HETATM    7  C   UNL     1     -12.206  14.712  64.482  1.00  0.00    -0.473 C  
HETATM    8  C   UNL     1     -10.304   9.537  68.671  1.00  0.00    -0.205 C  
HETATM    9  C   UNL     1     -10.487   8.021  68.598  1.00  0.00    -0.196 C  
HETATM   10  O   UNL     1     -11.469  10.238  68.173  1.00  0.00    -0.270 OA 
HETATM   11  C   UNL     1      -9.934  14.864  65.456  1.00  0.00    -0.392 C  
HETATM   12  C   UNL     1     -10.007   9.927  70.119  1.00  0.00    -0.291 C  
HETATM   13  O   UNL     1     -11.836  14.396  66.866  1.00  0.00    -0.392 OA 
HETATM   14  C   UNL     1     -11.287  14.157  65.566  1.00  0.00    -0.319 C  
HETATM   15  O   UNL     1     -11.151  12.736  65.382  1.00  0.00    -0.277 OA 
HETATM   16  C   UNL     1     -11.017  10.843  66.935  1.00  0.00    -0.223 C  
ENDROOT
BRANCH   4  17
HETATM   17  C   UNL     1      -8.698  11.236  65.942  1.00  0.00    -0.145 C  
BRANCH  17  18
HETATM   18  O   UNL     1      -9.050  10.195  65.036  1.00  0.00    -0.172 OA 
HETATM   19  H2  UNL     1      -9.780   8.243  63.250  1.00  0.00     0.000 HD 
HETATM   20  O   UNL     1      -9.341  11.498  62.945  1.00  0.00    -0.363 OA 
HETATM   21  N   UNL     1      -9.252   8.997  62.812  1.00  0.00    -0.490 N  
HETATM   22  O   UNL     1      -7.173  10.275  63.419  1.00  0.00    -0.136 OA 
HETATM   23  S   UNL     1      -8.605  10.383  63.493  1.00  0.00    -0.184 S  
HETATM   24  H1  UNL     1      -8.971   9.115  61.838  1.00  0.00     0.000 HD 
ENDBRANCH  17  18
ENDBRANCH   4  17
TORSDOF 2
ENDMDL
MODEL       36
REMARK 921   NORMALIZED FREE ENERGY PREDICTED BY IDOCK:   -5.33 KCAL/MOL
REMARK 922        TOTAL FREE ENERGY PREDICTED BY IDOCK:   -6.38 KCAL/MOL
REMARK 923 INTER-LIGAND FREE ENERGY PREDICTED BY IDOCK:   -6.01 KCAL/MOL
REMARK 924 INTRA-LIGAND FREE ENERGY PREDICTED BY IDOCK:   -0.37 KCAL/MOL
REMARK 927      BINDING AFFINITY PREDICTED BY RF-SCORE:    0.00 PKD
ROOT
HETATM    1  C   UNL     1     -11.572  12.298  67.180  1.00  0.00    -0.353 C  
HETATM    2  C   UNL     1     -12.440  13.505  66.794  1.00  0.00    -0.159 C  
HETATM    3  O   UNL     1     -12.023  14.831  67.100  1.00  0.00    -0.351 OA 
HETATM    4  C   UNL     1     -10.860  15.078  67.899  1.00  0.00    -0.280 C  
HETATM    5  O   UNL     1     -11.200  15.986  68.962  1.00  0.00    -0.303 OA 
HETATM    6  C   UNL     1     -10.255  12.657  67.802  1.00  0.00    -0.222 C  
HETATM    7  C   UNL     1      -8.956  11.017  65.189  1.00  0.00    -0.159 C  
HETATM    8  C   UNL     1     -11.724  15.156  70.001  1.00  0.00    -0.307 C  
HETATM    9  C   UNL     1     -11.207  15.681  71.341  1.00  0.00    -0.392 C  
HETATM   10  O   UNL     1     -11.306  13.789  69.768  1.00  0.00    -0.223 OA 
HETATM   11  C   UNL     1     -10.197  12.993  64.358  1.00  0.00    -0.335 C  
HETATM   12  C   UNL     1     -13.247  15.276  69.980  1.00  0.00     0.206 C  
HETATM   13  O   UNL     1     -11.183  11.543  66.018  1.00  0.00    -0.270 OA 
HETATM   14  C   UNL     1      -9.943  12.112  65.584  1.00  0.00    -0.249 C  
HETATM   15  O   UNL     1      -9.386  12.875  66.670  1.00  0.00    -0.240 OA 
HETATM   16  C   UNL     1     -10.351  13.889  68.683  1.00  0.00    -0.237 C  
ENDROOT
BRANCH   4  17
HETATM   17  C   UNL     1      -9.791  15.753  67.031  1.00  0.00    -0.234 C  
BRANCH  17  18
HETATM   18  O   UNL     1      -9.498  17.038  67.569  1.00  0.00    -0.241 OA 
HETATM   19  H2  UNL     1      -8.855  19.508  68.580  1.00  0.00     0.000 HD 
HETATM   20  O   UNL     1      -7.878  17.873  65.886  1.00  0.00    -0.515 OA 
HETATM   21  N   UNL     1      -8.822  19.481  67.561  1.00  0.00    -0.299 N  
HETATM   22  O   UNL     1     -10.321  18.538  65.776  1.00  0.00    -0.590 OA 
HETATM   23  S   UNL     1      -9.133  18.210  66.516  1.00  0.00    -0.251 S  
HETATM   24  H1  UNL     1      -8.592  20.220  66.897  1.00  0.00     0.000 HD 
ENDBRANCH  17  18
ENDBRANCH   4  17
TORSDOF 2
ENDMDL
MODEL       37
REMARK 921   NORMALIZED FREE ENERGY PREDICTED BY IDOCK:   -5.30 KCAL/MOL
REMARK 922        TOTAL FREE ENERGY PREDICTED BY IDOCK:   -6.35 KCAL/MOL
REMARK 923 INTER-LIGAND FREE ENERGY PREDICTED BY IDOCK:   -5.91 KCAL/MOL
REMARK 924 INTRA-LIGAND FREE ENERGY PREDICTED BY IDOCK:   -0.44 KCAL/MOL
REMARK 927      BINDING AFFINITY PREDICTED BY RF-SCORE:    0.00 PKD
ROOT
HETATM    1  C   UNL     1     -12.083  13.506  69.891  1.00  0.00    -0.341 C  
HETATM    2  C   UNL     1     -10.563  13.483  69.673  1.00  0.00     0.425 C  
HETATM    3  O   UNL     1      -9.919  14.508  68.925  1.00  0.00    -0.228 OA 
HETATM    4  C   UNL     1     -10.673  15.511  68.234  1.00  0.00    -0.271 C  
HETATM    5  O   UNL     1     -10.224  15.585  66.870  1.00  0.00    -0.267 OA 
HETATM    6  C   UNL     1     -12.770  14.719  69.336  1.00  0.00     0.214 C  
HETATM    7  C   UNL     1     -13.686  15.240  72.513  1.00  0.00    -0.627 C  
HETATM    8  C   UNL     1     -10.961  14.572  66.182  1.00  0.00    -0.322 C  
HETATM    9  C   UNL     1     -11.368  15.118  64.814  1.00  0.00    -0.399 C  
HETATM   10  O   UNL     1     -12.117  14.210  66.976  1.00  0.00    -0.427 OA 
HETATM   11  C   UNL     1     -11.218  15.377  72.358  1.00  0.00    -0.207 C  
HETATM   12  C   UNL     1     -10.038  13.371  65.977  1.00  0.00    -0.308 C  
HETATM   13  O   UNL     1     -12.408  13.567  71.292  1.00  0.00    -0.336 OA 
HETATM   14  C   UNL     1     -12.487  14.960  71.611  1.00  0.00    -0.331 C  
HETATM   15  O   UNL     1     -12.640  15.701  70.387  1.00  0.00    -0.426 OA 
HETATM   16  C   UNL     1     -12.140  15.195  68.040  1.00  0.00     0.057 C  
ENDROOT
BRANCH   4  17
HETATM   17  C   UNL     1     -10.413  16.872  68.888  1.00  0.00    -0.346 C  
BRANCH  17  18
HETATM   18  O   UNL     1     -10.712  17.903  67.952  1.00  0.00    -0.392 OA 
HETATM   19  H2  UNL     1     -11.293  19.944  66.211  1.00  0.00     0.000 HD 
HETATM   20  O   UNL     1      -9.559  19.825  69.016  1.00  0.00    -0.340 OA 
HETATM   21  N   UNL     1     -10.385  20.059  66.661  1.00  0.00    -0.456 N  
HETATM   22  O   UNL     1      -8.453  18.524  67.144  1.00  0.00    -0.256 OA 
HETATM   23  S   UNL     1      -9.616  19.080  67.780  1.00  0.00    -0.323 S  
HETATM   24  H1  UNL     1      -9.694  20.801  66.552  1.00  0.00     0.000 HD 
ENDBRANCH  17  18
ENDBRANCH   4  17
TORSDOF 2
ENDMDL
MODEL       38
REMARK 921   NORMALIZED FREE ENERGY PREDICTED BY IDOCK:   -5.30 KCAL/MOL
REMARK 922        TOTAL FREE ENERGY PREDICTED BY IDOCK:   -6.34 KCAL/MOL
REMARK 923 INTER-LIGAND FREE ENERGY PREDICTED BY IDOCK:   -5.91 KCAL/MOL
REMARK 924 INTRA-LIGAND FREE ENERGY PREDICTED BY IDOCK:   -0.43 KCAL/MOL
REMARK 927      BINDING AFFINITY PREDICTED BY RF-SCORE:    0.00 PKD
ROOT
HETATM    1  C   UNL     1     -10.840  17.222  68.327  1.00  0.00    -0.287 C  
HETATM    2  C   UNL     1     -10.418  16.514  69.623  1.00  0.00    -0.267 C  
HETATM    3  O   UNL     1      -9.704  15.284  69.583  1.00  0.00    -0.249 OA 
HETATM    4  C   UNL     1      -9.479  14.595  68.347  1.00  0.00    -0.209 C  
HETATM    5  O   UNL     1      -9.891  13.223  68.489  1.00  0.00    -0.227 OA 
HETATM    6  C   UNL     1     -10.358  16.554  67.073  1.00  0.00    -0.301 C  
HETATM    7  C   UNL     1      -8.789  19.461  66.531  1.00  0.00    -0.382 C  
HETATM    8  C   UNL     1     -11.294  13.230  68.218  1.00  0.00    -0.300 C  
HETATM    9  C   UNL     1     -11.631  11.988  67.392  1.00  0.00    -0.388 C  
HETATM   10  O   UNL     1     -11.632  14.447  67.509  1.00  0.00    -0.336 OA 
HETATM   11  C   UNL     1      -7.870  18.426  68.585  1.00  0.00    -0.320 C  
HETATM   12  C   UNL     1     -12.035  13.149  69.552  1.00  0.00    -0.354 C  
HETATM   13  O   UNL     1     -10.257  18.535  68.237  1.00  0.00    -0.361 OA 
HETATM   14  C   UNL     1      -9.007  18.357  67.561  1.00  0.00    -0.264 C  
HETATM   15  O   UNL     1      -9.028  17.085  66.888  1.00  0.00    -0.214 OA 
HETATM   16  C   UNL     1     -10.348  15.042  67.193  1.00  0.00    -0.257 C  
ENDROOT
BRANCH   4  17
HETATM   17  C   UNL     1      -7.978  14.603  68.035  1.00  0.00    -0.136 C  
BRANCH  17  18
HETATM   18  O   UNL     1      -7.665  13.473  67.227  1.00  0.00    -0.154 OA 
HETATM   19  H2  UNL     1      -6.992  11.334  65.645  1.00  0.00     0.000 HD 
HETATM   20  O   UNL     1      -5.190  13.466  67.403  1.00  0.00    -0.330 OA 
HETATM   21  N   UNL     1      -6.341  11.469  66.418  1.00  0.00    -0.347 N  
HETATM   22  O   UNL     1      -6.599  11.956  68.872  1.00  0.00    -0.073 OA 
HETATM   23  S   UNL     1      -6.345  12.628  67.626  1.00  0.00    -0.158 S  
HETATM   24  H1  UNL     1      -5.508  10.936  66.670  1.00  0.00     0.000 HD 
ENDBRANCH  17  18
ENDBRANCH   4  17
TORSDOF 2
ENDMDL
MODEL       39
REMARK 921   NORMALIZED FREE ENERGY PREDICTED BY IDOCK:   -5.29 KCAL/MOL
REMARK 922        TOTAL FREE ENERGY PREDICTED BY IDOCK:   -6.34 KCAL/MOL
REMARK 923 INTER-LIGAND FREE ENERGY PREDICTED BY IDOCK:   -5.80 KCAL/MOL
REMARK 924 INTRA-LIGAND FREE ENERGY PREDICTED BY IDOCK:   -0.54 KCAL/MOL
REMARK 927      BINDING AFFINITY PREDICTED BY RF-SCORE:    0.00 PKD
ROOT
HETATM    1  C   UNL     1      -7.455  17.885  66.904  1.00  0.00    -0.200 C  
HETATM    2  C   UNL     1      -7.921  16.506  66.413  1.00  0.00    -0.317 C  
HETATM    3  O   UNL     1      -8.408  15.532  67.330  1.00  0.00    -0.164 OA 
HETATM    4  C   UNL     1      -8.348  15.747  68.745  1.00  0.00    -0.195 C  
HETATM    5  O   UNL     1      -7.735  14.606  69.371  1.00  0.00    -0.131 OA 
HETATM    6  C   UNL     1      -7.648  18.115  68.374  1.00  0.00    -0.283 C  
HETATM    7  C   UNL     1      -9.595  20.649  67.377  1.00  0.00    -0.544 C  
HETATM    8  C   UNL     1      -6.330  14.849  69.286  1.00  0.00    -0.115 C  
HETATM    9  C   UNL     1      -5.684  14.405  70.599  1.00  0.00    -0.173 C  
HETATM   10  O   UNL     1      -6.109  16.259  69.035  1.00  0.00    -0.130 OA 
HETATM   11  C   UNL     1     -10.592  18.520  66.600  1.00  0.00    -0.383 C  
HETATM   12  C   UNL     1      -5.769  13.995  68.149  1.00  0.00    -0.128 C  
HETATM   13  O   UNL     1      -8.232  18.940  66.309  1.00  0.00    -0.293 OA 
HETATM   14  C   UNL     1      -9.334  19.157  67.196  1.00  0.00    -0.310 C  
HETATM   15  O   UNL     1      -9.012  18.580  68.475  1.00  0.00    -0.316 OA 
HETATM   16  C   UNL     1      -7.421  16.856  69.190  1.00  0.00    -0.180 C  
ENDROOT
BRANCH   4  17
HETATM   17  C   UNL     1      -9.775  15.872  69.292  1.00  0.00    -0.263 C  
BRANCH  17  18
HETATM   18  O   UNL     1     -10.697  15.475  68.282  1.00  0.00    -0.254 OA 
HETATM   19  H2  UNL     1     -12.426  14.642  66.320  1.00  0.00     0.000 HD 
HETATM   20  O   UNL     1     -10.564  13.007  68.498  1.00  0.00    -0.249 OA 
HETATM   21  N   UNL     1     -12.401  14.006  67.117  1.00  0.00    -0.539 N  
HETATM   22  O   UNL     1     -12.431  14.307  69.613  1.00  0.00    -0.308 OA 
HETATM   23  S   UNL     1     -11.509  14.098  68.530  1.00  0.00    -0.322 S  
HETATM   24  H1  UNL     1     -12.914  13.137  67.273  1.00  0.00     0.000 HD 
ENDBRANCH  17  18
ENDBRANCH   4  17
TORSDOF 2
ENDMDL
MODEL       40
REMARK 921   NORMALIZED FREE ENERGY PREDICTED BY IDOCK:   -5.29 KCAL/MOL
REMARK 922        TOTAL FREE ENERGY PREDICTED BY IDOCK:   -6.34 KCAL/MOL
REMARK 923 INTER-LIGAND FREE ENERGY PREDICTED BY IDOCK:   -5.90 KCAL/MOL
REMARK 924 INTRA-LIGAND FREE ENERGY PREDICTED BY IDOCK:   -0.43 KCAL/MOL
REMARK 927      BINDING AFFINITY PREDICTED BY RF-SCORE:    0.00 PKD
ROOT
HETATM    1  C   UNL     1      -7.791  17.577  66.546  1.00  0.00    -0.276 C  
HETATM    2  C   UNL     1      -8.613  16.315  66.244  1.00  0.00    -0.339 C  
HETATM    3  O   UNL     1      -9.118  15.504  67.299  1.00  0.00    -0.193 OA 
HETATM    4  C   UNL     1      -8.760  15.751  68.664  1.00  0.00    -0.195 C  
HETATM    5  O   UNL     1      -8.294  14.528  69.260  1.00  0.00    -0.055 OA 
HETATM    6  C   UNL     1      -7.663  17.896  68.007  1.00  0.00    -0.245 C  
HETATM    7  C   UNL     1      -9.189  20.755  67.170  1.00  0.00    -0.354 C  
HETATM    8  C   UNL     1      -6.908  14.456  68.920  1.00  0.00    -0.102 C  
HETATM    9  C   UNL     1      -6.142  13.930  70.134  1.00  0.00    -0.147 C  
HETATM   10  O   UNL     1      -6.449  15.774  68.533  1.00  0.00    -0.103 OA 
HETATM   11  C   UNL     1     -10.730  18.867  66.731  1.00  0.00    -0.414 C  
HETATM   12  C   UNL     1      -6.752  13.461  67.771  1.00  0.00    -0.163 C  
HETATM   13  O   UNL     1      -8.427  18.754  66.015  1.00  0.00    -0.480 OA 
HETATM   14  C   UNL     1      -9.281  19.236  67.058  1.00  0.00    -0.307 C  
HETATM   15  O   UNL     1      -8.859  18.649  68.302  1.00  0.00    -0.307 OA 
HETATM   16  C   UNL     1      -7.558  16.648  68.863  1.00  0.00    -0.240 C  
ENDROOT
BRANCH   4  17
HETATM   17  C   UNL     1     -10.006  16.203  69.434  1.00  0.00    -0.243 C  
BRANCH  17  18
HETATM   18  O   UNL     1     -10.475  15.122  70.234  1.00  0.00    -0.227 OA 
HETATM   19  H2  UNL     1     -11.432  13.092  71.815  1.00  0.00     0.000 HD 
HETATM   20  O   UNL     1     -12.867  15.739  70.466  1.00  0.00    -0.423 OA 
HETATM   21  N   UNL     1     -12.133  13.447  71.165  1.00  0.00    -0.401 N  
HETATM   22  O   UNL     1     -12.126  14.054  68.725  1.00  0.00    -0.349 OA 
HETATM   23  S   UNL     1     -12.011  14.664  70.022  1.00  0.00    -0.341 S  
HETATM   24  H1  UNL     1     -13.102  13.157  71.031  1.00  0.00     0.000 HD 
ENDBRANCH  17  18
ENDBRANCH   4  17
TORSDOF 2
ENDMDL
MODEL       41
REMARK 921   NORMALIZED FREE ENERGY PREDICTED BY IDOCK:   -5.25 KCAL/MOL
REMARK 922        TOTAL FREE ENERGY PREDICTED BY IDOCK:   -6.29 KCAL/MOL
REMARK 923 INTER-LIGAND FREE ENERGY PREDICTED BY IDOCK:   -5.74 KCAL/MOL
REMARK 924 INTRA-LIGAND FREE ENERGY PREDICTED BY IDOCK:   -0.55 KCAL/MOL
REMARK 927      BINDING AFFINITY PREDICTED BY RF-SCORE:    0.00 PKD
ROOT
HETATM    1  C   UNL     1      -8.975  14.126  68.516  1.00  0.00    -0.174 C  
HETATM    2  C   UNL     1      -8.746  14.114  66.998  1.00  0.00    -0.204 C  
HETATM    3  O   UNL     1      -9.308  13.091  66.184  1.00  0.00    -0.198 OA 
HETATM    4  C   UNL     1      -9.980  11.966  66.762  1.00  0.00    -0.195 C  
HETATM    5  O   UNL     1      -9.438  10.754  66.208  1.00  0.00    -0.172 OA 
HETATM    6  C   UNL     1      -9.890  13.045  69.012  1.00  0.00     0.292 C  
HETATM    7  C   UNL     1     -11.769  15.596  70.090  1.00  0.00    -0.374 C  
HETATM    8  C   UNL     1      -8.290  10.464  67.007  1.00  0.00    -0.127 C  
HETATM    9  C   UNL     1      -8.238   8.955  67.246  1.00  0.00    -0.104 C  
HETATM   10  O   UNL     1      -8.386  11.197  68.253  1.00  0.00    -0.129 OA 
HETATM   11  C   UNL     1     -11.639  15.686  67.619  1.00  0.00    -0.089 C  
HETATM   12  C   UNL     1      -7.047  10.881  66.221  1.00  0.00    -0.119 C  
HETATM   13  O   UNL     1      -9.645  15.330  68.933  1.00  0.00    -0.199 OA 
HETATM   14  C   UNL     1     -11.045  15.035  68.870  1.00  0.00    -0.266 C  
HETATM   15  O   UNL     1     -11.210  13.605  68.845  1.00  0.00    -0.246 OA 
HETATM   16  C   UNL     1      -9.726  11.751  68.237  1.00  0.00    -0.199 C  
ENDROOT
BRANCH   4  17
HETATM   17  C   UNL     1     -11.467  12.027  66.391  1.00  0.00    -0.353 C  
BRANCH  17  18
HETATM   18  O   UNL     1     -11.647  12.983  65.351  1.00  0.00    -0.318 OA 
HETATM   19  H2  UNL     1     -11.932  14.790  63.304  1.00  0.00     0.000 HD 
HETATM   20  O   UNL     1     -11.110  11.596  63.366  1.00  0.00    -0.396 OA 
HETATM   21  N   UNL     1     -12.173  13.840  63.024  1.00  0.00    -0.977 N  
HETATM   22  O   UNL     1     -13.514  11.984  64.063  1.00  0.00    -0.655 OA 
HETATM   23  S   UNL     1     -12.154  12.425  63.920  1.00  0.00    -0.540 S  
HETATM   24  H1  UNL     1     -12.493  13.488  62.122  1.00  0.00     0.000 HD 
ENDBRANCH  17  18
ENDBRANCH   4  17
TORSDOF 2
ENDMDL
MODEL       42
REMARK 921   NORMALIZED FREE ENERGY PREDICTED BY IDOCK:   -5.24 KCAL/MOL
REMARK 922        TOTAL FREE ENERGY PREDICTED BY IDOCK:   -6.28 KCAL/MOL
REMARK 923 INTER-LIGAND FREE ENERGY PREDICTED BY IDOCK:   -5.82 KCAL/MOL
REMARK 924 INTRA-LIGAND FREE ENERGY PREDICTED BY IDOCK:   -0.46 KCAL/MOL
REMARK 927      BINDING AFFINITY PREDICTED BY RF-SCORE:    0.00 PKD
ROOT
HETATM    1  C   UNL     1     -10.240  16.799  66.888  1.00  0.00    -0.290 C  
HETATM    2  C   UNL     1     -11.072  15.834  67.746  1.00  0.00    -0.313 C  
HETATM    3  O   UNL     1     -11.009  14.429  67.531  1.00  0.00    -0.280 OA 
HETATM    4  C   UNL     1     -10.285  13.877  66.425  1.00  0.00    -0.292 C  
HETATM    5  O   UNL     1     -11.136  12.962  65.712  1.00  0.00    -0.278 OA 
HETATM    6  C   UNL     1      -9.325  16.124  65.908  1.00  0.00    -0.281 C  
HETATM    7  C   UNL     1      -6.903  17.706  67.592  1.00  0.00    -0.185 C  
HETATM    8  C   UNL     1     -11.879  13.778  64.805  1.00  0.00    -0.391 C  
HETATM    9  C   UNL     1     -11.992  13.037  63.472  1.00  0.00    -0.615 C  
HETATM   10  O   UNL     1     -11.200  15.049  64.650  1.00  0.00    -0.374 OA 
HETATM   11  C   UNL     1      -8.027  16.109  69.116  1.00  0.00    -0.233 C  
HETATM   12  C   UNL     1     -13.281  13.972  65.380  1.00  0.00    -0.029 C  
HETATM   13  O   UNL     1      -9.331  17.566  67.699  1.00  0.00    -0.241 OA 
HETATM   14  C   UNL     1      -8.121  16.801  67.753  1.00  0.00    -0.179 C  
HETATM   15  O   UNL     1      -8.138  15.843  66.680  1.00  0.00    -0.247 OA 
HETATM   16  C   UNL     1      -9.933  14.860  65.330  1.00  0.00    -0.293 C  
ENDROOT
BRANCH   4  17
HETATM   17  C   UNL     1      -9.086  13.085  66.957  1.00  0.00    -0.230 C  
BRANCH  17  18
HETATM   18  O   UNL     1      -9.439  12.486  68.199  1.00  0.00    -0.206 OA 
HETATM   19  H2  UNL     1     -10.183  11.292  70.557  1.00  0.00     0.000 HD 
HETATM   20  O   UNL     1     -10.248  10.274  67.419  1.00  0.00    -0.194 OA 
HETATM   21  N   UNL     1      -9.842  10.621  69.868  1.00  0.00    -0.392 N  
HETATM   22  O   UNL     1      -7.886  10.556  68.290  1.00  0.00    -0.104 OA 
HETATM   23  S   UNL     1      -9.287  10.880  68.310  1.00  0.00    -0.175 S  
HETATM   24  H1  UNL     1      -9.746   9.608  69.937  1.00  0.00     0.000 HD 
ENDBRANCH  17  18
ENDBRANCH   4  17
TORSDOF 2
ENDMDL
MODEL       43
REMARK 921   NORMALIZED FREE ENERGY PREDICTED BY IDOCK:   -5.18 KCAL/MOL
REMARK 922        TOTAL FREE ENERGY PREDICTED BY IDOCK:   -6.21 KCAL/MOL
REMARK 923 INTER-LIGAND FREE ENERGY PREDICTED BY IDOCK:   -5.76 KCAL/MOL
REMARK 924 INTRA-LIGAND FREE ENERGY PREDICTED BY IDOCK:   -0.45 KCAL/MOL
REMARK 927      BINDING AFFINITY PREDICTED BY RF-SCORE:    0.00 PKD
ROOT
HETATM    1  C   UNL     1     -11.900  12.361  67.199  1.00  0.00    -0.291 C  
HETATM    2  C   UNL     1     -11.126  12.324  65.873  1.00  0.00    -0.322 C  
HETATM    3  O   UNL     1      -9.938  13.088  65.700  1.00  0.00    -0.275 OA 
HETATM    4  C   UNL     1      -9.502  14.020  66.696  1.00  0.00    -0.287 C  
HETATM    5  O   UNL     1      -9.242  15.291  66.073  1.00  0.00    -0.313 OA 
HETATM    6  C   UNL     1     -11.245  13.179  68.274  1.00  0.00    -0.274 C  
HETATM    7  C   UNL     1     -11.192  10.293  69.968  1.00  0.00    -0.376 C  
HETATM    8  C   UNL     1     -10.511  15.947  66.029  1.00  0.00    -0.345 C  
HETATM    9  C   UNL     1     -10.300  17.424  66.362  1.00  0.00    -0.317 C  
HETATM   10  O   UNL     1     -11.403  15.311  66.977  1.00  0.00    -0.317 OA 
HETATM   11  C   UNL     1      -9.783  10.060  67.945  1.00  0.00    -0.168 C  
HETATM   12  C   UNL     1     -11.053  15.836  64.605  1.00  0.00    -0.376 C  
HETATM   13  O   UNL     1     -11.978  11.053  67.794  1.00  0.00    -0.609 OA 
HETATM   14  C   UNL     1     -10.826  10.941  68.636  1.00  0.00    -0.217 C  
HETATM   15  O   UNL     1     -10.312  12.262  68.885  1.00  0.00    -0.172 OA 
HETATM   16  C   UNL     1     -10.547  14.406  67.719  1.00  0.00    -0.246 C  
ENDROOT
BRANCH   4  17
HETATM   17  C   UNL     1      -8.188  13.521  67.309  1.00  0.00    -0.154 C  
BRANCH  17  18
HETATM   18  O   UNL     1      -7.238  14.582  67.299  1.00  0.00    -0.177 OA 
HETATM   19  H2  UNL     1      -5.466  16.678  67.313  1.00  0.00     0.000 HD 
HETATM   20  O   UNL     1      -7.929  15.822  69.334  1.00  0.00    -0.229 OA 
HETATM   21  N   UNL     1      -5.741  16.391  68.252  1.00  0.00    -0.102 N  
HETATM   22  O   UNL     1      -6.005  14.175  69.410  1.00  0.00    -0.086 OA 
HETATM   23  S   UNL     1      -6.786  15.175  68.734  1.00  0.00    -0.104 S  
HETATM   24  H1  UNL     1      -5.455  16.765  69.157  1.00  0.00     0.000 HD 
ENDBRANCH  17  18
ENDBRANCH   4  17
TORSDOF 2
ENDMDL
MODEL       44
REMARK 921   NORMALIZED FREE ENERGY PREDICTED BY IDOCK:   -5.10 KCAL/MOL
REMARK 922        TOTAL FREE ENERGY PREDICTED BY IDOCK:   -6.13 KCAL/MOL
REMARK 923 INTER-LIGAND FREE ENERGY PREDICTED BY IDOCK:   -5.68 KCAL/MOL
REMARK 924 INTRA-LIGAND FREE ENERGY PREDICTED BY IDOCK:   -0.45 KCAL/MOL
REMARK 927      BINDING AFFINITY PREDICTED BY RF-SCORE:    0.00 PKD
ROOT
HETATM    1  C   UNL     1     -10.960   7.670  72.387  1.00  0.00    -0.301 C  
HETATM    2  C   UNL     1      -9.835   8.706  72.252  1.00  0.00    -0.289 C  
HETATM    3  O   UNL     1      -9.259   8.995  70.983  1.00  0.00    -0.226 OA 
HETATM    4  C   UNL     1      -9.604   8.235  69.819  1.00  0.00    -0.171 C  
HETATM    5  O   UNL     1      -8.399   7.789  69.171  1.00  0.00    -0.130 OA 
HETATM    6  C   UNL     1     -11.428   7.091  71.084  1.00  0.00    -0.294 C  
HETATM    7  C   UNL     1     -14.386   8.393  71.954  1.00  0.00    -0.561 C  
HETATM    8  C   UNL     1      -8.046   6.578  69.844  1.00  0.00    -0.121 C  
HETATM    9  C   UNL     1      -7.545   5.578  68.802  1.00  0.00    -0.083 C  
HETATM   10  O   UNL     1      -9.207   6.075  70.550  1.00  0.00    -0.153 OA 
HETATM   11  C   UNL     1     -12.757  10.235  71.659  1.00  0.00    -0.561 C  
HETATM   12  C   UNL     1      -6.906   6.890  70.813  1.00  0.00    -0.058 C  
HETATM   13  O   UNL     1     -12.157   8.266  72.921  1.00  0.00    -0.290 OA 
HETATM   14  C   UNL     1     -12.905   8.716  71.786  1.00  0.00    -0.359 C  
HETATM   15  O   UNL     1     -12.408   8.042  70.615  1.00  0.00    -0.042 OA 
HETATM   16  C   UNL     1     -10.294   6.917  70.091  1.00  0.00    -0.199 C  
ENDROOT
BRANCH   4  17
HETATM   17  C   UNL     1     -10.357   9.140  68.836  1.00  0.00    -0.214 C  
BRANCH  17  18
HETATM   18  O   UNL     1     -10.222  10.494  69.254  1.00  0.00    -0.208 OA 
HETATM   19  H2  UNL     1      -9.898  13.115  70.005  1.00  0.00     0.000 HD 
HETATM   20  O   UNL     1      -9.556  11.560  67.115  1.00  0.00    -0.175 OA 
HETATM   21  N   UNL     1     -10.219  13.020  69.042  1.00  0.00    -0.431 N  
HETATM   22  O   UNL     1     -11.965  11.618  67.898  1.00  0.00    -0.599 OA 
HETATM   23  S   UNL     1     -10.551  11.637  68.158  1.00  0.00    -0.212 S  
HETATM   24  H1  UNL     1     -10.427  13.741  68.351  1.00  0.00     0.000 HD 
ENDBRANCH  17  18
ENDBRANCH   4  17
TORSDOF 2
ENDMDL
MODEL       45
REMARK 921   NORMALIZED FREE ENERGY PREDICTED BY IDOCK:   -5.07 KCAL/MOL
REMARK 922        TOTAL FREE ENERGY PREDICTED BY IDOCK:   -6.09 KCAL/MOL
REMARK 923 INTER-LIGAND FREE ENERGY PREDICTED BY IDOCK:   -5.72 KCAL/MOL
REMARK 924 INTRA-LIGAND FREE ENERGY PREDICTED BY IDOCK:   -0.37 KCAL/MOL
REMARK 927      BINDING AFFINITY PREDICTED BY RF-SCORE:    0.00 PKD
ROOT
HETATM    1  C   UNL     1      -9.772  12.697  66.259  1.00  0.00    -0.259 C  
HETATM    2  C   UNL     1     -10.921  11.680  66.197  1.00  0.00    -0.288 C  
HETATM    3  O   UNL     1     -11.145  10.767  67.266  1.00  0.00    -0.306 OA 
HETATM    4  C   UNL     1     -10.229  10.667  68.363  1.00  0.00    -0.173 C  
HETATM    5  O   UNL     1      -9.871   9.287  68.556  1.00  0.00    -0.151 OA 
HETATM    6  C   UNL     1      -9.005  12.686  67.548  1.00  0.00    -0.187 C  
HETATM    7  C   UNL     1     -10.009  15.870  67.782  1.00  0.00    -0.229 C  
HETATM    8  C   UNL     1      -8.793   9.055  67.648  1.00  0.00    -0.124 C  
HETATM    9  C   UNL     1      -7.758   8.171  68.345  1.00  0.00    -0.113 C  
HETATM   10  O   UNL     1      -8.225  10.328  67.254  1.00  0.00    -0.120 OA 
HETATM   11  C   UNL     1     -11.999  14.397  67.835  1.00  0.00    -0.348 C  
HETATM   12  C   UNL     1      -9.346   8.303  66.438  1.00  0.00    -0.274 C  
HETATM   13  O   UNL     1     -10.266  14.047  66.191  1.00  0.00    -0.284 OA 
HETATM   14  C   UNL     1     -10.496  14.443  67.547  1.00  0.00    -0.252 C  
HETATM   15  O   UNL     1      -9.770  13.552  68.413  1.00  0.00    -0.221 OA 
HETATM   16  C   UNL     1      -8.870  11.290  68.127  1.00  0.00    -0.159 C  
ENDROOT
BRANCH   4  17
HETATM   17  C   UNL     1     -10.922  11.155  69.640  1.00  0.00    -0.192 C  
BRANCH  17  18
HETATM   18  O   UNL     1     -12.085  10.365  69.868  1.00  0.00    -0.250 OA 
HETATM   19  H2  UNL     1     -14.277   8.782  70.343  1.00  0.00     0.000 HD 
HETATM   20  O   UNL     1     -11.457   9.244  71.991  1.00  0.00    -0.355 OA 
HETATM   21  N   UNL     1     -13.831   9.103  71.202  1.00  0.00    -0.547 N  
HETATM   22  O   UNL     1     -12.926  11.309  72.000  1.00  0.00    -0.445 OA 
HETATM   23  S   UNL     1     -12.484  10.075  71.409  1.00  0.00    -0.444 S  
HETATM   24  H1  UNL     1     -14.084   8.920  72.174  1.00  0.00     0.000 HD 
ENDBRANCH  17  18
ENDBRANCH   4  17
TORSDOF 2
ENDMDL
MODEL       46
REMARK 921   NORMALIZED FREE ENERGY PREDICTED BY IDOCK:   -5.05 KCAL/MOL
REMARK 922        TOTAL FREE ENERGY PREDICTED BY IDOCK:   -6.06 KCAL/MOL
REMARK 923 INTER-LIGAND FREE ENERGY PREDICTED BY IDOCK:   -5.69 KCAL/MOL
REMARK 924 INTRA-LIGAND FREE ENERGY PREDICTED BY IDOCK:   -0.37 KCAL/MOL
REMARK 927      BINDING AFFINITY PREDICTED BY RF-SCORE:    0.00 PKD
ROOT
HETATM    1  C   UNL     1     -10.889   6.209  73.326  1.00  0.00    -0.244 C  
HETATM    2  C   UNL     1     -11.934   5.822  72.270  1.00  0.00    -0.085 C  
HETATM    3  O   UNL     1     -12.122   6.617  71.104  1.00  0.00    -0.360 OA 
HETATM    4  C   UNL     1     -11.452   7.872  70.944  1.00  0.00    -0.281 C  
HETATM    5  O   UNL     1     -12.416   8.883  70.599  1.00  0.00    -0.031 OA 
HETATM    6  C   UNL     1     -10.062   7.409  72.967  1.00  0.00    -0.273 C  
HETATM    7  C   UNL     1      -7.488   5.281  73.187  1.00  0.00    -0.092 C  
HETATM    8  C   UNL     1     -12.940   9.335  71.850  1.00  0.00    -0.411 C  
HETATM    9  C   UNL     1     -13.113  10.852  71.779  1.00  0.00    -0.564 C  
HETATM   10  O   UNL     1     -12.029   8.952  72.909  1.00  0.00     0.007 OA 
HETATM   11  C   UNL     1      -8.975   4.552  71.345  1.00  0.00    -0.165 C  
HETATM   12  C   UNL     1     -14.313   8.692  72.048  1.00  0.00    -0.512 C  
HETATM   13  O   UNL     1      -9.901   5.175  73.486  1.00  0.00    -0.149 OA 
HETATM   14  C   UNL     1      -8.861   5.486  72.553  1.00  0.00    -0.130 C  
HETATM   15  O   UNL     1      -8.994   6.864  72.161  1.00  0.00    -0.133 OA 
HETATM   16  C   UNL     1     -10.861   8.453  72.210  1.00  0.00    -0.352 C  
ENDROOT
BRANCH   4  17
HETATM   17  C   UNL     1     -10.453   7.762  69.786  1.00  0.00    -0.233 C  
BRANCH  17  18
HETATM   18  O   UNL     1     -11.006   6.927  68.774  1.00  0.00    -0.213 OA 
HETATM   19  H2  UNL     1     -12.093   5.384  66.780  1.00  0.00     0.000 HD 
HETATM   20  O   UNL     1     -10.509   8.278  66.754  1.00  0.00    -0.318 OA 
HETATM   21  N   UNL     1     -11.276   5.909  66.468  1.00  0.00    -0.741 N  
HETATM   22  O   UNL     1      -8.999   6.360  67.434  1.00  0.00    -0.111 OA 
HETATM   23  S   UNL     1     -10.297   6.967  67.321  1.00  0.00    -0.296 S  
HETATM   24  H1  UNL     1     -10.829   5.935  65.552  1.00  0.00     0.000 HD 
ENDBRANCH  17  18
ENDBRANCH   4  17
TORSDOF 2
ENDMDL
MODEL       47
REMARK 921   NORMALIZED FREE ENERGY PREDICTED BY IDOCK:   -5.04 KCAL/MOL
REMARK 922        TOTAL FREE ENERGY PREDICTED BY IDOCK:   -6.05 KCAL/MOL
REMARK 923 INTER-LIGAND FREE ENERGY PREDICTED BY IDOCK:   -5.58 KCAL/MOL
REMARK 924 INTRA-LIGAND FREE ENERGY PREDICTED BY IDOCK:   -0.47 KCAL/MOL
REMARK 927      BINDING AFFINITY PREDICTED BY RF-SCORE:    0.00 PKD
ROOT
HETATM    1  C   UNL     1     -10.455  11.058  69.392  1.00  0.00    -0.142 C  
HETATM    2  C   UNL     1     -11.767  10.981  68.598  1.00  0.00    -0.296 C  
HETATM    3  O   UNL     1     -11.773  11.130  67.183  1.00  0.00    -0.501 OA 
HETATM    4  C   UNL     1     -10.587  11.497  66.469  1.00  0.00    -0.258 C  
HETATM    5  O   UNL     1     -10.878  12.612  65.608  1.00  0.00    -0.266 OA 
HETATM    6  C   UNL     1      -9.226  11.207  68.543  1.00  0.00    -0.183 C  
HETATM    7  C   UNL     1      -8.311   8.313  69.953  1.00  0.00    -0.125 C  
HETATM    8  C   UNL     1     -10.724  13.767  66.435  1.00  0.00    -0.281 C  
HETATM    9  C   UNL     1     -10.038  14.859  65.614  1.00  0.00    -0.387 C  
HETATM   10  O   UNL     1      -9.944  13.410  67.603  1.00  0.00    -0.221 OA 
HETATM   11  C   UNL     1     -10.363   7.939  68.617  1.00  0.00    -0.224 C  
HETATM   12  C   UNL     1     -12.117  14.254  66.834  1.00  0.00    -0.440 C  
HETATM   13  O   UNL     1     -10.205   9.833  70.106  1.00  0.00    -0.244 OA 
HETATM   14  C   UNL     1      -9.447   9.012  69.212  1.00  0.00    -0.157 C  
HETATM   15  O   UNL     1      -8.888   9.850  68.184  1.00  0.00    -0.118 OA 
HETATM   16  C   UNL     1      -9.473  12.068  67.319  1.00  0.00    -0.181 C  
ENDROOT
BRANCH   4  17
HETATM   17  C   UNL     1     -10.152  10.323  65.584  1.00  0.00    -0.271 C  
BRANCH  17  18
HETATM   18  O   UNL     1      -8.880  10.616  65.015  1.00  0.00    -0.192 OA 
HETATM   19  H2  UNL     1      -6.419  11.099  63.898  1.00  0.00     0.000 HD 
HETATM   20  O   UNL     1      -8.848   9.002  63.131  1.00  0.00    -0.163 OA 
HETATM   21  N   UNL     1      -7.113  10.809  63.209  1.00  0.00    -0.342 N  
HETATM   22  O   UNL     1      -9.510  11.419  62.757  1.00  0.00    -0.369 OA 
HETATM   23  S   UNL     1      -8.726  10.412  63.418  1.00  0.00    -0.214 S  
HETATM   24  H1  UNL     1      -7.015  10.680  62.201  1.00  0.00     0.000 HD 
ENDBRANCH  17  18
ENDBRANCH   4  17
TORSDOF 2
ENDMDL
MODEL       48
REMARK 921   NORMALIZED FREE ENERGY PREDICTED BY IDOCK:   -4.97 KCAL/MOL
REMARK 922        TOTAL FREE ENERGY PREDICTED BY IDOCK:   -5.97 KCAL/MOL
REMARK 923 INTER-LIGAND FREE ENERGY PREDICTED BY IDOCK:   -5.59 KCAL/MOL
REMARK 924 INTRA-LIGAND FREE ENERGY PREDICTED BY IDOCK:   -0.38 KCAL/MOL
REMARK 927      BINDING AFFINITY PREDICTED BY RF-SCORE:    0.00 PKD
ROOT
HETATM    1  C   UNL     1     -10.535   7.797  73.120  1.00  0.00    -0.349 C  
HETATM    2  C   UNL     1     -11.874   7.723  72.371  1.00  0.00    -0.321 C  
HETATM    3  O   UNL     1     -11.914   7.472  70.971  1.00  0.00    -0.302 OA 
HETATM    4  C   UNL     1     -10.714   7.423  70.190  1.00  0.00    -0.242 C  
HETATM    5  O   UNL     1     -10.856   8.287  69.049  1.00  0.00    -0.131 OA 
HETATM    6  C   UNL     1      -9.334   7.497  72.270  1.00  0.00    -0.145 C  
HETATM    7  C   UNL     1      -8.843   4.998  74.442  1.00  0.00    -0.111 C  
HETATM    8  C   UNL     1     -10.483   9.584  69.520  1.00  0.00    -0.220 C  
HETATM    9  C   UNL     1      -9.663  10.274  68.429  1.00  0.00    -0.165 C  
HETATM   10  O   UNL     1      -9.724   9.440  70.745  1.00  0.00    -0.260 OA 
HETATM   11  C   UNL     1     -10.981   4.616  73.252  1.00  0.00    -0.381 C  
HETATM   12  C   UNL     1     -11.761  10.387  69.757  1.00  0.00    -0.310 C  
HETATM   13  O   UNL     1     -10.457   6.795  74.150  1.00  0.00    -0.365 OA 
HETATM   14  C   UNL     1      -9.880   5.643  73.527  1.00  0.00    -0.167 C  
HETATM   15  O   UNL     1      -9.235   6.057  72.308  1.00  0.00    -0.145 OA 
HETATM   16  C   UNL     1      -9.489   8.013  70.852  1.00  0.00    -0.161 C  
ENDROOT
BRANCH   4  17
HETATM   17  C   UNL     1     -10.512   5.993  69.673  1.00  0.00    -0.261 C  
BRANCH  17  18
HETATM   18  O   UNL     1     -11.125   5.871  68.394  1.00  0.00    -0.268 OA 
HETATM   19  H2  UNL     1     -12.258   5.698  65.899  1.00  0.00     0.000 HD 
HETATM   20  O   UNL     1      -9.205   6.420  66.921  1.00  0.00    -0.127 OA 
HETATM   21  N   UNL     1     -11.272   5.436  65.901  1.00  0.00    -0.753 N  
HETATM   22  O   UNL     1      -9.832   4.010  67.389  1.00  0.00    -0.177 OA 
HETATM   23  S   UNL     1     -10.183   5.387  67.171  1.00  0.00    -0.234 S  
HETATM   24  H1  UNL     1     -10.678   5.131  65.130  1.00  0.00     0.000 HD 
ENDBRANCH  17  18
ENDBRANCH   4  17
TORSDOF 2
ENDMDL
MODEL       49
REMARK 921   NORMALIZED FREE ENERGY PREDICTED BY IDOCK:   -4.96 KCAL/MOL
REMARK 922        TOTAL FREE ENERGY PREDICTED BY IDOCK:   -5.97 KCAL/MOL
REMARK 923 INTER-LIGAND FREE ENERGY PREDICTED BY IDOCK:   -5.56 KCAL/MOL
REMARK 924 INTRA-LIGAND FREE ENERGY PREDICTED BY IDOCK:   -0.41 KCAL/MOL
REMARK 927      BINDING AFFINITY PREDICTED BY RF-SCORE:    0.00 PKD
ROOT
HETATM    1  C   UNL     1      -9.006   9.438  68.304  1.00  0.00    -0.128 C  
HETATM    2  C   UNL     1      -8.369  10.780  67.917  1.00  0.00    -0.117 C  
HETATM    3  O   UNL     1      -8.860  11.530  66.812  1.00  0.00    -0.171 OA 
HETATM    4  C   UNL     1      -9.863  10.997  65.940  1.00  0.00    -0.232 C  
HETATM    5  O   UNL     1      -9.422  11.125  64.576  1.00  0.00    -0.232 OA 
HETATM    6  C   UNL     1     -10.207   9.065  67.484  1.00  0.00    -0.241 C  
HETATM    7  C   UNL     1     -11.807   9.108  70.424  1.00  0.00    -0.057 C  
HETATM    8  C   UNL     1      -8.617   9.969  64.339  1.00  0.00    -0.190 C  
HETATM    9  C   UNL     1      -8.915   9.457  62.929  1.00  0.00    -0.188 C  
HETATM   10  O   UNL     1      -8.920   8.969  65.343  1.00  0.00    -0.193 OA 
HETATM   11  C   UNL     1     -10.976  11.388  69.931  1.00  0.00    -0.030 C  
HETATM   12  C   UNL     1      -7.150  10.390  64.409  1.00  0.00     0.007 C  
HETATM   13  O   UNL     1      -9.531   9.476  69.643  1.00  0.00    -0.173 OA 
HETATM   14  C   UNL     1     -10.887   9.918  69.515  1.00  0.00    -0.246 C  
HETATM   15  O   UNL     1     -11.301   9.735  68.149  1.00  0.00    -0.097 OA 
HETATM   16  C   UNL     1     -10.076   9.503  66.038  1.00  0.00    -0.249 C  
ENDROOT
BRANCH   4  17
HETATM   17  C   UNL     1     -11.149  11.818  66.096  1.00  0.00    -0.307 C  
BRANCH  17  18
HETATM   18  O   UNL     1     -11.610  12.208  64.806  1.00  0.00    -0.331 OA 
HETATM   19  H2  UNL     1     -12.569  12.993  62.356  1.00  0.00     0.000 HD 
HETATM   20  O   UNL     1     -12.788  14.318  65.370  1.00  0.00    -0.588 OA 
HETATM   21  N   UNL     1     -12.346  13.783  62.961  1.00  0.00    -1.030 N  
HETATM   22  O   UNL     1     -10.418  14.356  64.471  1.00  0.00    -0.349 OA 
HETATM   23  S   UNL     1     -11.742  13.795  64.523  1.00  0.00    -0.420 S  
HETATM   24  H1  UNL     1     -12.428  14.784  62.782  1.00  0.00     0.000 HD 
ENDBRANCH  17  18
ENDBRANCH   4  17
TORSDOF 2
ENDMDL
MODEL       50
REMARK 921   NORMALIZED FREE ENERGY PREDICTED BY IDOCK:   -4.93 KCAL/MOL
REMARK 922        TOTAL FREE ENERGY PREDICTED BY IDOCK:   -5.93 KCAL/MOL
REMARK 923 INTER-LIGAND FREE ENERGY PREDICTED BY IDOCK:   -5.59 KCAL/MOL
REMARK 924 INTRA-LIGAND FREE ENERGY PREDICTED BY IDOCK:   -0.34 KCAL/MOL
REMARK 927      BINDING AFFINITY PREDICTED BY RF-SCORE:    0.00 PKD
ROOT
HETATM    1  C   UNL     1     -10.059   5.425  69.529  1.00  0.00    -0.240 C  
HETATM    2  C   UNL     1     -11.325   6.123  70.047  1.00  0.00    -0.373 C  
HETATM    3  O   UNL     1     -11.270   7.452  70.553  1.00  0.00    -0.267 OA 
HETATM    4  C   UNL     1     -10.020   8.129  70.728  1.00  0.00    -0.188 C  
HETATM    5  O   UNL     1      -9.954   8.663  72.063  1.00  0.00    -0.283 OA 
HETATM    6  C   UNL     1      -8.833   6.290  69.527  1.00  0.00    -0.135 C  
HETATM    7  C   UNL     1      -8.842   5.714  66.230  1.00  0.00    -0.137 C  
HETATM    8  C   UNL     1      -9.471   7.585  72.867  1.00  0.00    -0.188 C  
HETATM    9  C   UNL     1      -8.480   8.151  73.885  1.00  0.00    -0.306 C  
HETATM   10  O   UNL     1      -8.847   6.599  72.008  1.00  0.00    -0.135 OA 
HETATM   11  C   UNL     1     -10.897   6.959  66.831  1.00  0.00    -0.380 C  
HETATM   12  C   UNL     1     -10.658   6.985  73.619  1.00  0.00    -0.383 C  
HETATM   13  O   UNL     1     -10.195   5.058  68.144  1.00  0.00    -0.144 OA 
HETATM   14  C   UNL     1      -9.708   6.179  67.397  1.00  0.00    -0.120 C  
HETATM   15  O   UNL     1      -8.912   6.999  68.272  1.00  0.00    -0.129 OA 
HETATM   16  C   UNL     1      -8.796   7.240  70.709  1.00  0.00    -0.150 C  
ENDROOT
BRANCH   4  17
HETATM   17  C   UNL     1      -9.947   9.307  69.749  1.00  0.00    -0.199 C  
BRANCH  17  18
HETATM   18  O   UNL     1     -10.626  10.424  70.314  1.00  0.00    -0.262 OA 
HETATM   19  H2  UNL     1     -11.873  12.627  71.376  1.00  0.00     0.000 HD 
HETATM   20  O   UNL     1     -10.053  12.182  68.660  1.00  0.00    -0.212 OA 
HETATM   21  N   UNL     1     -11.837  12.650  70.357  1.00  0.00    -0.549 N  
HETATM   22  O   UNL     1     -12.272  10.965  68.542  1.00  0.00    -0.535 OA 
HETATM   23  S   UNL     1     -11.185  11.541  69.286  1.00  0.00    -0.274 S  
HETATM   24  H1  UNL     1     -12.190  13.354  69.709  1.00  0.00     0.000 HD 
ENDBRANCH  17  18
ENDBRANCH   4  17
TORSDOF 2
ENDMDL
MODEL       51
REMARK 921   NORMALIZED FREE ENERGY PREDICTED BY IDOCK:   -4.91 KCAL/MOL
REMARK 922        TOTAL FREE ENERGY PREDICTED BY IDOCK:   -5.91 KCAL/MOL
REMARK 923 INTER-LIGAND FREE ENERGY PREDICTED BY IDOCK:   -5.46 KCAL/MOL
REMARK 924 INTRA-LIGAND FREE ENERGY PREDICTED BY IDOCK:   -0.46 KCAL/MOL
REMARK 927      BINDING AFFINITY PREDICTED BY RF-SCORE:    0.00 PKD
ROOT
HETATM    1  C   UNL     1      -8.449  11.259  68.936  1.00  0.00    -0.058 C  
HETATM    2  C   UNL     1      -9.817  10.569  69.054  1.00  0.00    -0.212 C  
HETATM    3  O   UNL     1     -10.944  11.059  68.337  1.00  0.00    -0.195 OA 
HETATM    4  C   UNL     1     -10.881  12.285  67.599  1.00  0.00    -0.225 C  
HETATM    5  O   UNL     1     -11.987  13.123  67.977  1.00  0.00    -0.351 OA 
HETATM    6  C   UNL     1      -8.412  12.395  67.956  1.00  0.00    -0.176 C  
HETATM    7  C   UNL     1      -6.080  10.549  66.420  1.00  0.00    -0.089 C  
HETATM    8  C   UNL     1     -11.543  13.816  69.146  1.00  0.00    -0.317 C  
HETATM    9  C   UNL     1     -12.035  15.261  69.064  1.00  0.00    -0.304 C  
HETATM   10  O   UNL     1     -10.097  13.749  69.212  1.00  0.00     0.039 OA 
HETATM   11  C   UNL     1      -8.228   9.318  66.382  1.00  0.00    -0.111 C  
HETATM   12  C   UNL     1     -12.179  13.147  70.364  1.00  0.00    -0.389 C  
HETATM   13  O   UNL     1      -7.453  10.357  68.419  1.00  0.00    -0.086 OA 
HETATM   14  C   UNL     1      -7.492  10.511  66.996  1.00  0.00    -0.100 C  
HETATM   15  O   UNL     1      -8.156  11.750  66.689  1.00  0.00    -0.161 OA 
HETATM   16  C   UNL     1      -9.709  13.181  67.935  1.00  0.00    -0.221 C  
ENDROOT
BRANCH   4  17
HETATM   17  C   UNL     1     -11.017  11.977  66.103  1.00  0.00    -0.302 C  
BRANCH  17  18
HETATM   18  O   UNL     1     -11.889  12.933  65.509  1.00  0.00    -0.363 OA 
HETATM   19  H2  UNL     1     -13.516  14.838  64.388  1.00  0.00     0.000 HD 
HETATM   20  O   UNL     1     -10.241  14.611  64.717  1.00  0.00    -0.367 OA 
HETATM   21  N   UNL     1     -12.612  14.771  63.920  1.00  0.00    -0.973 N  
HETATM   22  O   UNL     1     -11.173  12.863  63.137  1.00  0.00    -0.226 OA 
HETATM   23  S   UNL     1     -11.314  13.766  64.247  1.00  0.00    -0.269 S  
HETATM   24  H1  UNL     1     -12.250  15.296  63.124  1.00  0.00     0.000 HD 
ENDBRANCH  17  18
ENDBRANCH   4  17
TORSDOF 2
ENDMDL
MODEL       52
REMARK 921   NORMALIZED FREE ENERGY PREDICTED BY IDOCK:   -4.90 KCAL/MOL
REMARK 922        TOTAL FREE ENERGY PREDICTED BY IDOCK:   -5.90 KCAL/MOL
REMARK 923 INTER-LIGAND FREE ENERGY PREDICTED BY IDOCK:   -5.52 KCAL/MOL
REMARK 924 INTRA-LIGAND FREE ENERGY PREDICTED BY IDOCK:   -0.38 KCAL/MOL
REMARK 927      BINDING AFFINITY PREDICTED BY RF-SCORE:    0.00 PKD
ROOT
HETATM    1  C   UNL     1     -11.998  12.479  65.476  1.00  0.00    -0.442 C  
HETATM    2  C   UNL     1     -11.790  12.054  66.937  1.00  0.00    -0.173 C  
HETATM    3  O   UNL     1     -10.503  11.672  67.409  1.00  0.00    -0.201 OA 
HETATM    4  C   UNL     1      -9.394  11.533  66.514  1.00  0.00    -0.197 C  
HETATM    5  O   UNL     1      -8.774  10.252  66.724  1.00  0.00    -0.126 OA 
HETATM    6  C   UNL     1     -10.738  12.534  64.663  1.00  0.00    -0.311 C  
HETATM    7  C   UNL     1     -11.528  15.764  64.278  1.00  0.00    -0.203 C  
HETATM    8  C   UNL     1      -9.525   9.342  65.918  1.00  0.00    -0.259 C  
HETATM    9  C   UNL     1      -8.551   8.360  65.266  1.00  0.00    -0.177 C  
HETATM   10  O   UNL     1     -10.267  10.093  64.925  1.00  0.00    -0.300 OA 
HETATM   11  C   UNL     1     -11.105  15.323  66.679  1.00  0.00    -0.276 C  
HETATM   12  C   UNL     1     -10.468   8.563  66.835  1.00  0.00    -0.345 C  
HETATM   13  O   UNL     1     -12.495  13.827  65.390  1.00  0.00    -0.443 OA 
HETATM   14  C   UNL     1     -11.334  14.663  65.317  1.00  0.00    -0.354 C  
HETATM   15  O   UNL     1     -10.210  13.851  64.933  1.00  0.00    -0.395 OA 
HETATM   16  C   UNL     1      -9.756  11.444  65.048  1.00  0.00    -0.250 C  
ENDROOT
BRANCH   4  17
HETATM   17  C   UNL     1      -8.355  12.614  66.833  1.00  0.00    -0.075 C  
BRANCH  17  18
HETATM   18  O   UNL     1      -8.824  13.403  67.922  1.00  0.00    -0.174 OA 
HETATM   19  H2  UNL     1      -9.670  14.888  70.071  1.00  0.00     0.000 HD 
HETATM   20  O   UNL     1      -6.690  13.853  69.104  1.00  0.00    -0.106 OA 
HETATM   21  N   UNL     1      -8.734  15.147  69.759  1.00  0.00    -0.430 N  
HETATM   22  O   UNL     1      -7.677  15.562  67.515  1.00  0.00    -0.140 OA 
HETATM   23  S   UNL     1      -7.817  14.526  68.503  1.00  0.00    -0.141 S  
HETATM   24  H1  UNL     1      -8.098  15.856  70.125  1.00  0.00     0.000 HD 
ENDBRANCH  17  18
ENDBRANCH   4  17
TORSDOF 2
ENDMDL
MODEL       53
REMARK 921   NORMALIZED FREE ENERGY PREDICTED BY IDOCK:   -4.90 KCAL/MOL
REMARK 922        TOTAL FREE ENERGY PREDICTED BY IDOCK:   -5.90 KCAL/MOL
REMARK 923 INTER-LIGAND FREE ENERGY PREDICTED BY IDOCK:   -5.56 KCAL/MOL
REMARK 924 INTRA-LIGAND FREE ENERGY PREDICTED BY IDOCK:   -0.34 KCAL/MOL
REMARK 927      BINDING AFFINITY PREDICTED BY RF-SCORE:    0.00 PKD
ROOT
HETATM    1  C   UNL     1      -8.402  11.099  66.674  1.00  0.00    -0.160 C  
HETATM    2  C   UNL     1      -8.566  12.002  67.906  1.00  0.00    -0.165 C  
HETATM    3  O   UNL     1      -9.855  12.283  68.438  1.00  0.00    -0.213 OA 
HETATM    4  C   UNL     1     -11.046  11.857  67.766  1.00  0.00    -0.239 C  
HETATM    5  O   UNL     1     -11.936  12.979  67.623  1.00  0.00    -0.353 OA 
HETATM    6  C   UNL     1      -9.684  10.500  66.173  1.00  0.00    -0.209 C  
HETATM    7  C   UNL     1      -8.173   7.581  66.807  1.00  0.00    -0.124 C  
HETATM    8  C   UNL     1     -11.510  13.637  66.428  1.00  0.00    -0.338 C  
HETATM    9  C   UNL     1     -12.751  14.092  65.661  1.00  0.00    -0.515 C  
HETATM   10  O   UNL     1     -10.707  12.720  65.645  1.00  0.00    -0.266 OA 
HETATM   11  C   UNL     1      -8.457   8.815  68.936  1.00  0.00    -0.131 C  
HETATM   12  C   UNL     1     -10.700  14.870  66.829  1.00  0.00    -0.312 C  
HETATM   13  O   UNL     1      -7.604   9.941  66.978  1.00  0.00    -0.092 OA 
HETATM   14  C   UNL     1      -8.528   8.937  67.411  1.00  0.00    -0.115 C  
HETATM   15  O   UNL     1      -9.848   9.312  66.977  1.00  0.00    -0.171 OA 
HETATM   16  C   UNL     1     -10.860  11.447  66.322  1.00  0.00    -0.263 C  
ENDROOT
BRANCH   4  17
HETATM   17  C   UNL     1     -11.755  10.803  68.625  1.00  0.00    -0.219 C  
BRANCH  17  18
HETATM   18  O   UNL     1     -12.278  11.430  69.792  1.00  0.00    -0.298 OA 
HETATM   19  H2  UNL     1     -13.361  12.600  72.027  1.00  0.00     0.000 HD 
HETATM   20  O   UNL     1     -13.828   9.666  70.593  1.00  0.00    -0.029 OA 
HETATM   21  N   UNL     1     -13.289  11.586  72.110  1.00  0.00    -0.562 N  
HETATM   22  O   UNL     1     -11.505   9.896  71.579  1.00  0.00    -0.365 OA 
HETATM   23  S   UNL     1     -12.701  10.463  71.017  1.00  0.00    -0.421 S  
HETATM   24  H1  UNL     1     -13.556  10.976  72.884  1.00  0.00     0.000 HD 
ENDBRANCH  17  18
ENDBRANCH   4  17
TORSDOF 2
ENDMDL
MODEL       54
REMARK 921   NORMALIZED FREE ENERGY PREDICTED BY IDOCK:   -4.86 KCAL/MOL
REMARK 922        TOTAL FREE ENERGY PREDICTED BY IDOCK:   -5.86 KCAL/MOL
REMARK 923 INTER-LIGAND FREE ENERGY PREDICTED BY IDOCK:   -5.38 KCAL/MOL
REMARK 924 INTRA-LIGAND FREE ENERGY PREDICTED BY IDOCK:   -0.48 KCAL/MOL
REMARK 927      BINDING AFFINITY PREDICTED BY RF-SCORE:    0.00 PKD
ROOT
HETATM    1  C   UNL     1     -10.577   7.035  72.084  1.00  0.00    -0.213 C  
HETATM    2  C   UNL     1      -9.264   7.554  71.479  1.00  0.00    -0.135 C  
HETATM    3  O   UNL     1      -9.029   7.485  70.078  1.00  0.00    -0.143 OA 
HETATM    4  C   UNL     1      -9.937   6.805  69.204  1.00  0.00    -0.159 C  
HETATM    5  O   UNL     1      -9.202   5.880  68.384  1.00  0.00    -0.118 OA 
HETATM    6  C   UNL     1     -11.576   6.555  71.071  1.00  0.00    -0.348 C  
HETATM    7  C   UNL     1     -13.528   8.948  72.361  1.00  0.00    -0.499 C  
HETATM    8  C   UNL     1      -9.090   4.694  69.174  1.00  0.00    -0.117 C  
HETATM    9  C   UNL     1      -9.287   3.486  68.258  1.00  0.00    -0.235 C  
HETATM   10  O   UNL     1     -10.087   4.733  70.224  1.00  0.00    -0.239 OA 
HETATM   11  C   UNL     1     -11.543  10.006  71.325  1.00  0.00    -0.430 C  
HETATM   12  C   UNL     1      -7.679   4.644  69.758  1.00  0.00    -0.058 C  
HETATM   13  O   UNL     1     -11.289   8.084  72.764  1.00  0.00    -0.394 OA 
HETATM   14  C   UNL     1     -12.144   8.673  71.779  1.00  0.00    -0.340 C  
HETATM   15  O   UNL     1     -12.274   7.756  70.678  1.00  0.00    -0.121 OA 
HETATM   16  C   UNL     1     -10.915   5.875  69.887  1.00  0.00    -0.374 C  
ENDROOT
BRANCH   4  17
HETATM   17  C   UNL     1     -10.600   7.829  68.276  1.00  0.00    -0.117 C  
BRANCH  17  18
HETATM   18  O   UNL     1      -9.875   9.053  68.340  1.00  0.00    -0.157 OA 
HETATM   19  H2  UNL     1      -8.450  11.399  68.386  1.00  0.00     0.000 HD 
HETATM   20  O   UNL     1     -10.109   9.839  65.999  1.00  0.00    -0.276 OA 
HETATM   21  N   UNL     1      -9.228  11.426  67.727  1.00  0.00    -0.155 N  
HETATM   22  O   UNL     1     -11.638  10.715  67.819  1.00  0.00    -0.501 OA 
HETATM   23  S   UNL     1     -10.358  10.246  67.361  1.00  0.00    -0.250 S  
HETATM   24  H1  UNL     1      -9.533  12.179  67.110  1.00  0.00     0.000 HD 
ENDBRANCH  17  18
ENDBRANCH   4  17
TORSDOF 2
ENDMDL
MODEL       55
REMARK 921   NORMALIZED FREE ENERGY PREDICTED BY IDOCK:   -4.84 KCAL/MOL
REMARK 922        TOTAL FREE ENERGY PREDICTED BY IDOCK:   -5.83 KCAL/MOL
REMARK 923 INTER-LIGAND FREE ENERGY PREDICTED BY IDOCK:   -5.44 KCAL/MOL
REMARK 924 INTRA-LIGAND FREE ENERGY PREDICTED BY IDOCK:   -0.40 KCAL/MOL
REMARK 927      BINDING AFFINITY PREDICTED BY RF-SCORE:    0.00 PKD
ROOT
HETATM    1  C   UNL     1     -10.666  16.656  68.277  1.00  0.00    -0.351 C  
HETATM    2  C   UNL     1     -10.365  16.339  66.805  1.00  0.00    -0.296 C  
HETATM    3  O   UNL     1      -9.187  15.630  66.437  1.00  0.00    -0.256 OA 
HETATM    4  C   UNL     1      -8.177  15.316  67.403  1.00  0.00    -0.184 C  
HETATM    5  O   UNL     1      -6.897  15.746  66.906  1.00  0.00    -0.248 OA 
HETATM    6  C   UNL     1      -9.675  16.084  69.248  1.00  0.00    -0.257 C  
HETATM    7  C   UNL     1     -12.330  14.462  70.482  1.00  0.00    -0.413 C  
HETATM    8  C   UNL     1      -6.803  17.124  67.271  1.00  0.00    -0.165 C  
HETATM    9  C   UNL     1      -5.371  17.404  67.728  1.00  0.00    -0.124 C  
HETATM   10  O   UNL     1      -7.760  17.400  68.322  1.00  0.00    -0.221 OA 
HETATM   11  C   UNL     1     -11.941  13.708  68.155  1.00  0.00    -0.390 C  
HETATM   12  C   UNL     1      -7.095  17.965  66.028  1.00  0.00    -0.340 C  
HETATM   13  O   UNL     1     -11.907  16.060  68.696  1.00  0.00    -0.367 OA 
HETATM   14  C   UNL     1     -11.564  14.764  69.197  1.00  0.00    -0.303 C  
HETATM   15  O   UNL     1     -10.152  14.741  69.477  1.00  0.00    -0.160 OA 
HETATM   16  C   UNL     1      -8.260  16.092  68.699  1.00  0.00    -0.193 C  
ENDROOT
BRANCH   4  17
HETATM   17  C   UNL     1      -8.120  13.796  67.592  1.00  0.00    -0.177 C  
BRANCH  17  18
HETATM   18  O   UNL     1      -9.073  13.185  66.727  1.00  0.00    -0.234 OA 
HETATM   19  H2  UNL     1     -10.846  11.976  65.015  1.00  0.00     0.000 HD 
HETATM   20  O   UNL     1      -7.847  11.123  66.093  1.00  0.00    -0.149 OA 
HETATM   21  N   UNL     1     -10.283  11.304  65.536  1.00  0.00    -0.249 N  
HETATM   22  O   UNL     1      -9.580  11.084  67.940  1.00  0.00    -0.166 OA 
HETATM   23  S   UNL     1      -9.089  11.568  66.679  1.00  0.00    -0.194 S  
HETATM   24  H1  UNL     1     -10.294  10.284  65.506  1.00  0.00     0.000 HD 
ENDBRANCH  17  18
ENDBRANCH   4  17
TORSDOF 2
ENDMDL
MODEL       56
REMARK 921   NORMALIZED FREE ENERGY PREDICTED BY IDOCK:   -4.80 KCAL/MOL
REMARK 922        TOTAL FREE ENERGY PREDICTED BY IDOCK:   -5.79 KCAL/MOL
REMARK 923 INTER-LIGAND FREE ENERGY PREDICTED BY IDOCK:   -5.27 KCAL/MOL
REMARK 924 INTRA-LIGAND FREE ENERGY PREDICTED BY IDOCK:   -0.51 KCAL/MOL
REMARK 927      BINDING AFFINITY PREDICTED BY RF-SCORE:    0.00 PKD
ROOT
HETATM    1  C   UNL     1     -10.780   6.182  73.488  1.00  0.00    -0.244 C  
HETATM    2  C   UNL     1     -11.654   5.672  72.332  1.00  0.00    -0.221 C  
HETATM    3  O   UNL     1     -11.819   6.443  71.147  1.00  0.00    -0.335 OA 
HETATM    4  C   UNL     1     -11.298   7.774  71.047  1.00  0.00    -0.271 C  
HETATM    5  O   UNL     1     -12.340   8.657  70.597  1.00  0.00    -0.050 OA 
HETATM    6  C   UNL     1     -10.078   7.478  73.206  1.00  0.00    -0.331 C  
HETATM    7  C   UNL     1      -7.294   5.688  73.707  1.00  0.00    -0.087 C  
HETATM    8  C   UNL     1     -13.043   9.033  71.783  1.00  0.00    -0.381 C  
HETATM    9  C   UNL     1     -13.397  10.517  71.682  1.00  0.00    -0.423 C  
HETATM   10  O   UNL     1     -12.206   8.762  72.934  1.00  0.00    -0.202 OA 
HETATM   11  C   UNL     1      -8.480   4.788  71.728  1.00  0.00    -0.120 C  
HETATM   12  C   UNL     1     -14.338   8.223  71.844  1.00  0.00    -0.564 C  
HETATM   13  O   UNL     1      -9.693   5.279  73.757  1.00  0.00    -0.140 OA 
HETATM   14  C   UNL     1      -8.609   5.723  72.933  1.00  0.00    -0.122 C  
HETATM   15  O   UNL     1      -8.873   7.076  72.519  1.00  0.00    -0.124 OA 
HETATM   16  C   UNL     1     -10.918   8.418  72.362  1.00  0.00    -0.355 C  
ENDROOT
BRANCH   4  17
HETATM   17  C   UNL     1     -10.180   7.795  69.999  1.00  0.00    -0.210 C  
BRANCH  17  18
HETATM   18  O   UNL     1      -9.985   9.134  69.555  1.00  0.00    -0.177 OA 
HETATM   19  H2  UNL     1      -9.582  11.736  68.777  1.00  0.00     0.000 HD 
HETATM   20  O   UNL     1      -7.978   9.758  70.875  1.00  0.00    -0.279 OA 
HETATM   21  N   UNL     1      -8.711  11.255  69.003  1.00  0.00    -0.369 N  
HETATM   22  O   UNL     1      -7.761   8.989  68.470  1.00  0.00    -0.095 OA 
HETATM   23  S   UNL     1      -8.463   9.681  69.517  1.00  0.00    -0.175 S  
HETATM   24  H1  UNL     1      -7.751  11.600  68.978  1.00  0.00     0.000 HD 
ENDBRANCH  17  18
ENDBRANCH   4  17
TORSDOF 2
ENDMDL
MODEL       57
REMARK 921   NORMALIZED FREE ENERGY PREDICTED BY IDOCK:   -4.78 KCAL/MOL
REMARK 922        TOTAL FREE ENERGY PREDICTED BY IDOCK:   -5.77 KCAL/MOL
REMARK 923 INTER-LIGAND FREE ENERGY PREDICTED BY IDOCK:   -5.44 KCAL/MOL
REMARK 924 INTRA-LIGAND FREE ENERGY PREDICTED BY IDOCK:   -0.32 KCAL/MOL
REMARK 927      BINDING AFFINITY PREDICTED BY RF-SCORE:    0.00 PKD
ROOT
HETATM    1  C   UNL     1      -7.298  15.678  69.002  1.00  0.00    -0.169 C  
HETATM    2  C   UNL     1      -8.793  15.679  69.356  1.00  0.00    -0.257 C  
HETATM    3  O   UNL     1      -9.775  15.989  68.374  1.00  0.00    -0.207 OA 
HETATM    4  C   UNL     1      -9.402  16.447  67.069  1.00  0.00    -0.228 C  
HETATM    5  O   UNL     1     -10.129  17.651  66.764  1.00  0.00    -0.306 OA 
HETATM    6  C   UNL     1      -7.006  15.936  67.553  1.00  0.00    -0.180 C  
HETATM    7  C   UNL     1      -5.582  12.908  67.650  1.00  0.00    -0.120 C  
HETATM    8  C   UNL     1      -9.357  18.705  67.343  1.00  0.00    -0.282 C  
HETATM    9  C   UNL     1      -9.362  19.891  66.378  1.00  0.00    -0.493 C  
HETATM   10  O   UNL     1      -8.012  18.224  67.588  1.00  0.00    -0.236 OA 
HETATM   11  C   UNL     1      -8.003  12.669  68.114  1.00  0.00    -0.158 C  
HETATM   12  C   UNL     1     -10.035  19.128  68.646  1.00  0.00    -0.486 C  
HETATM   13  O   UNL     1      -6.712  14.382  69.222  1.00  0.00    -0.112 OA 
HETATM   14  C   UNL     1      -6.857  13.676  67.985  1.00  0.00    -0.138 C  
HETATM   15  O   UNL     1      -7.116  14.632  66.941  1.00  0.00     0.004 OA 
HETATM   16  C   UNL     1      -7.974  16.929  66.938  1.00  0.00    -0.213 C  
ENDROOT
BRANCH   4  17
HETATM   17  C   UNL     1      -9.797  15.387  66.035  1.00  0.00    -0.326 C  
BRANCH  17  18
HETATM   18  O   UNL     1     -10.350  14.262  66.710  1.00  0.00    -0.268 OA 
HETATM   19  H2  UNL     1     -11.494  12.116  67.986  1.00  0.00     0.000 HD 
HETATM   20  O   UNL     1     -12.178  13.652  65.147  1.00  0.00    -0.386 OA 
HETATM   21  N   UNL     1     -11.557  12.048  66.970  1.00  0.00    -0.339 N  
HETATM   22  O   UNL     1      -9.952  12.443  65.075  1.00  0.00    -0.265 OA 
HETATM   23  S   UNL     1     -11.008  13.104  65.792  1.00  0.00    -0.280 S  
HETATM   24  H1  UNL     1     -11.972  11.318  66.391  1.00  0.00     0.000 HD 
ENDBRANCH  17  18
ENDBRANCH   4  17
TORSDOF 2
ENDMDL
MODEL       58
REMARK 921   NORMALIZED FREE ENERGY PREDICTED BY IDOCK:   -4.76 KCAL/MOL
REMARK 922        TOTAL FREE ENERGY PREDICTED BY IDOCK:   -5.74 KCAL/MOL
REMARK 923 INTER-LIGAND FREE ENERGY PREDICTED BY IDOCK:   -5.34 KCAL/MOL
REMARK 924 INTRA-LIGAND FREE ENERGY PREDICTED BY IDOCK:   -0.40 KCAL/MOL
REMARK 927      BINDING AFFINITY PREDICTED BY RF-SCORE:    0.00 PKD
ROOT
HETATM    1  C   UNL     1     -11.077   7.233  73.026  1.00  0.00    -0.317 C  
HETATM    2  C   UNL     1      -9.729   7.958  72.893  1.00  0.00    -0.273 C  
HETATM    3  O   UNL     1      -8.939   7.817  71.718  1.00  0.00    -0.117 OA 
HETATM    4  C   UNL     1      -9.298   6.891  70.686  1.00  0.00    -0.162 C  
HETATM    5  O   UNL     1      -8.159   6.070  70.371  1.00  0.00    -0.107 OA 
HETATM    6  C   UNL     1     -11.492   6.470  71.801  1.00  0.00    -0.300 C  
HETATM    7  C   UNL     1     -14.145   8.511  71.842  1.00  0.00    -0.519 C  
HETATM    8  C   UNL     1      -8.196   5.006  71.324  1.00  0.00    -0.116 C  
HETATM    9  C   UNL     1      -7.814   3.708  70.611  1.00  0.00    -0.053 C  
HETATM   10  O   UNL     1      -9.526   4.929  71.894  1.00  0.00    -0.142 OA 
HETATM   11  C   UNL     1     -12.100   9.863  71.486  1.00  0.00    -0.496 C  
HETATM   12  C   UNL     1      -7.153   5.300  72.402  1.00  0.00    -0.086 C  
HETATM   13  O   UNL     1     -12.157   8.167  73.204  1.00  0.00    -0.157 OA 
HETATM   14  C   UNL     1     -12.620   8.479  71.885  1.00  0.00    -0.354 C  
HETATM   15  O   UNL     1     -12.148   7.463  70.982  1.00  0.00    -0.312 OA 
HETATM   16  C   UNL     1     -10.311   5.842  71.086  1.00  0.00    -0.227 C  
ENDROOT
BRANCH   4  17
HETATM   17  C   UNL     1      -9.677   7.671  69.423  1.00  0.00    -0.165 C  
BRANCH  17  18
HETATM   18  O   UNL     1     -10.338   6.794  68.516  1.00  0.00    -0.169 OA 
HETATM   19  H2  UNL     1     -11.645   5.171  66.729  1.00  0.00     0.000 HD 
HETATM   20  O   UNL     1     -10.281   8.162  66.446  1.00  0.00    -0.239 OA 
HETATM   21  N   UNL     1     -10.929   5.746  66.285  1.00  0.00    -0.737 N  
HETATM   22  O   UNL     1      -8.555   6.352  66.852  1.00  0.00    -0.109 OA 
HETATM   23  S   UNL     1      -9.891   6.871  66.963  1.00  0.00    -0.188 S  
HETATM   24  H1  UNL     1     -10.647   5.794  65.306  1.00  0.00     0.000 HD 
ENDBRANCH  17  18
ENDBRANCH   4  17
TORSDOF 2
ENDMDL
MODEL       59
REMARK 921   NORMALIZED FREE ENERGY PREDICTED BY IDOCK:   -4.76 KCAL/MOL
REMARK 922        TOTAL FREE ENERGY PREDICTED BY IDOCK:   -5.74 KCAL/MOL
REMARK 923 INTER-LIGAND FREE ENERGY PREDICTED BY IDOCK:   -5.32 KCAL/MOL
REMARK 924 INTRA-LIGAND FREE ENERGY PREDICTED BY IDOCK:   -0.43 KCAL/MOL
REMARK 927      BINDING AFFINITY PREDICTED BY RF-SCORE:    0.00 PKD
ROOT
HETATM    1  C   UNL     1      -9.788   6.052  72.052  1.00  0.00    -0.156 C  
HETATM    2  C   UNL     1     -10.632   5.954  70.773  1.00  0.00    -0.265 C  
HETATM    3  O   UNL     1     -11.167   7.122  70.161  1.00  0.00    -0.272 OA 
HETATM    4  C   UNL     1     -11.060   8.405  70.788  1.00  0.00    -0.258 C  
HETATM    5  O   UNL     1     -12.360   9.020  70.832  1.00  0.00    -0.238 OA 
HETATM    6  C   UNL     1      -9.523   7.456  72.512  1.00  0.00    -0.152 C  
HETATM    7  C   UNL     1      -6.307   6.628  72.094  1.00  0.00    -0.049 C  
HETATM    8  C   UNL     1     -12.972   8.505  72.016  1.00  0.00    -0.371 C  
HETATM    9  C   UNL     1     -13.739   9.640  72.695  1.00  0.00    -0.155 C  
HETATM   10  O   UNL     1     -11.943   7.966  72.882  1.00  0.00    -0.258 OA 
HETATM   11  C   UNL     1      -7.450   6.534  69.899  1.00  0.00    -0.088 C  
HETATM   12  C   UNL     1     -13.965   7.419  71.603  1.00  0.00    -0.523 C  
HETATM   13  O   UNL     1      -8.464   5.528  71.845  1.00  0.00    -0.121 OA 
HETATM   14  C   UNL     1      -7.671   6.638  71.410  1.00  0.00    -0.094 C  
HETATM   15  O   UNL     1      -8.359   7.854  71.756  1.00  0.00    -0.105 OA 
HETATM   16  C   UNL     1     -10.701   8.378  72.257  1.00  0.00    -0.347 C  
ENDROOT
BRANCH   4  17
HETATM   17  C   UNL     1     -10.147   9.301  69.943  1.00  0.00    -0.209 C  
BRANCH  17  18
HETATM   18  O   UNL     1     -10.542  10.658  70.111  1.00  0.00    -0.199 OA 
HETATM   19  H2  UNL     1     -11.229  13.300  70.402  1.00  0.00     0.000 HD 
HETATM   20  O   UNL     1      -9.476  11.687  68.120  1.00  0.00    -0.178 OA 
HETATM   21  N   UNL     1     -11.149  13.021  69.425  1.00  0.00    -0.453 N  
HETATM   22  O   UNL     1     -11.925  11.037  68.089  1.00  0.00    -0.610 OA 
HETATM   23  S   UNL     1     -10.757  11.532  68.767  1.00  0.00    -0.214 S  
HETATM   24  H1  UNL     1     -11.285  13.573  68.577  1.00  0.00     0.000 HD 
ENDBRANCH  17  18
ENDBRANCH   4  17
TORSDOF 2
ENDMDL
MODEL       60
REMARK 921   NORMALIZED FREE ENERGY PREDICTED BY IDOCK:   -4.75 KCAL/MOL
REMARK 922        TOTAL FREE ENERGY PREDICTED BY IDOCK:   -5.73 KCAL/MOL
REMARK 923 INTER-LIGAND FREE ENERGY PREDICTED BY IDOCK:   -5.32 KCAL/MOL
REMARK 924 INTRA-LIGAND FREE ENERGY PREDICTED BY IDOCK:   -0.41 KCAL/MOL
REMARK 927      BINDING AFFINITY PREDICTED BY RF-SCORE:    0.00 PKD
ROOT
HETATM    1  C   UNL     1     -10.765  17.124  67.929  1.00  0.00    -0.355 C  
HETATM    2  C   UNL     1     -10.332  17.252  66.461  1.00  0.00    -0.308 C  
HETATM    3  O   UNL     1      -8.966  17.106  66.088  1.00  0.00    -0.415 OA 
HETATM    4  C   UNL     1      -7.936  16.980  67.075  1.00  0.00    -0.203 C  
HETATM    5  O   UNL     1      -6.895  17.933  66.796  1.00  0.00    -0.166 OA 
HETATM    6  C   UNL     1      -9.656  16.754  68.871  1.00  0.00    -0.249 C  
HETATM    7  C   UNL     1     -11.549  14.069  69.509  1.00  0.00    -0.350 C  
HETATM    8  C   UNL     1      -7.327  19.144  67.419  1.00  0.00    -0.228 C  
HETATM    9  C   UNL     1      -6.113  19.815  68.062  1.00  0.00    -0.249 C  
HETATM   10  O   UNL     1      -8.344  18.831  68.403  1.00  0.00    -0.320 OA 
HETATM   11  C   UNL     1     -10.852  14.011  67.133  1.00  0.00    -0.288 C  
HETATM   12  C   UNL     1      -7.880  20.065  66.332  1.00  0.00    -0.326 C  
HETATM   13  O   UNL     1     -11.706  16.050  68.104  1.00  0.00    -0.259 OA 
HETATM   14  C   UNL     1     -10.919  14.888  68.386  1.00  0.00    -0.261 C  
HETATM   15  O   UNL     1      -9.607  15.313  68.797  1.00  0.00    -0.196 OA 
HETATM   16  C   UNL     1      -8.332  17.383  68.477  1.00  0.00    -0.271 C  
ENDROOT
BRANCH   4  17
HETATM   17  C   UNL     1      -7.324  15.577  66.982  1.00  0.00    -0.137 C  
BRANCH  17  18
HETATM   18  O   UNL     1      -6.492  15.357  68.116  1.00  0.00    -0.105 OA 
HETATM   19  H2  UNL     1      -4.952  14.892  70.341  1.00  0.00     0.000 HD 
HETATM   20  O   UNL     1      -7.304  13.128  68.843  1.00  0.00    -0.095 OA 
HETATM   21  N   UNL     1      -5.192  14.034  69.844  1.00  0.00    -0.092 N  
HETATM   22  O   UNL     1      -5.215  13.348  67.425  1.00  0.00    -0.330 OA 
HETATM   23  S   UNL     1      -6.100  13.824  68.453  1.00  0.00    -0.114 S  
HETATM   24  H1  UNL     1      -4.945  13.068  70.056  1.00  0.00     0.000 HD 
ENDBRANCH  17  18
ENDBRANCH   4  17
TORSDOF 2
ENDMDL
MODEL       61
REMARK 921   NORMALIZED FREE ENERGY PREDICTED BY IDOCK:   -4.74 KCAL/MOL
REMARK 922        TOTAL FREE ENERGY PREDICTED BY IDOCK:   -5.72 KCAL/MOL
REMARK 923 INTER-LIGAND FREE ENERGY PREDICTED BY IDOCK:   -5.44 KCAL/MOL
REMARK 924 INTRA-LIGAND FREE ENERGY PREDICTED BY IDOCK:   -0.28 KCAL/MOL
REMARK 927      BINDING AFFINITY PREDICTED BY RF-SCORE:    0.00 PKD
ROOT
HETATM    1  C   UNL     1      -7.842  14.682  67.820  1.00  0.00    -0.154 C  
HETATM    2  C   UNL     1      -8.794  15.115  66.695  1.00  0.00    -0.286 C  
HETATM    3  O   UNL     1      -9.943  15.907  66.976  1.00  0.00    -0.239 OA 
HETATM    4  C   UNL     1     -10.328  16.206  68.323  1.00  0.00    -0.266 C  
HETATM    5  O   UNL     1     -11.718  15.878  68.501  1.00  0.00    -0.383 OA 
HETATM    6  C   UNL     1      -8.188  15.237  69.171  1.00  0.00    -0.234 C  
HETATM    7  C   UNL     1      -5.150  16.632  69.003  1.00  0.00    -0.120 C  
HETATM    8  C   UNL     1     -11.731  14.485  68.818  1.00  0.00    -0.327 C  
HETATM    9  C   UNL     1     -12.777  14.249  69.908  1.00  0.00    -0.093 C  
HETATM   10  O   UNL     1     -10.408  14.089  69.256  1.00  0.00    -0.115 OA 
HETATM   11  C   UNL     1      -6.560  17.562  67.191  1.00  0.00    -0.194 C  
HETATM   12  C   UNL     1     -12.146  13.717  67.563  1.00  0.00    -0.366 C  
HETATM   13  O   UNL     1      -6.511  15.183  67.599  1.00  0.00    -0.153 OA 
HETATM   14  C   UNL     1      -6.465  16.458  68.248  1.00  0.00    -0.131 C  
HETATM   15  O   UNL     1      -7.555  16.535  69.184  1.00  0.00    -0.232 OA 
HETATM   16  C   UNL     1      -9.687  15.340  69.385  1.00  0.00    -0.247 C  
ENDROOT
BRANCH   4  17
HETATM   17  C   UNL     1     -10.166  17.711  68.568  1.00  0.00    -0.386 C  
BRANCH  17  18
HETATM   18  O   UNL     1     -10.079  18.379  67.313  1.00  0.00    -0.320 OA 
HETATM   19  H2  UNL     1      -9.977  19.714  64.917  1.00  0.00     0.000 HD 
HETATM   20  O   UNL     1     -10.767  20.669  67.974  1.00  0.00     0.120 OA 
HETATM   21  N   UNL     1      -9.753  20.315  65.710  1.00  0.00    -0.591 N  
HETATM   22  O   UNL     1      -8.316  20.063  67.759  1.00  0.00    -0.303 OA 
HETATM   23  S   UNL     1      -9.688  19.948  67.342  1.00  0.00    -0.417 S  
HETATM   24  H1  UNL     1      -9.505  21.304  65.728  1.00  0.00     0.000 HD 
ENDBRANCH  17  18
ENDBRANCH   4  17
TORSDOF 2
ENDMDL
MODEL       62
REMARK 921   NORMALIZED FREE ENERGY PREDICTED BY IDOCK:   -4.69 KCAL/MOL
REMARK 922        TOTAL FREE ENERGY PREDICTED BY IDOCK:   -5.67 KCAL/MOL
REMARK 923 INTER-LIGAND FREE ENERGY PREDICTED BY IDOCK:   -5.31 KCAL/MOL
REMARK 924 INTRA-LIGAND FREE ENERGY PREDICTED BY IDOCK:   -0.36 KCAL/MOL
REMARK 927      BINDING AFFINITY PREDICTED BY RF-SCORE:    0.00 PKD
ROOT
HETATM    1  C   UNL     1      -8.815   8.829  66.492  1.00  0.00    -0.131 C  
HETATM    2  C   UNL     1      -8.029   9.439  67.662  1.00  0.00    -0.099 C  
HETATM    3  O   UNL     1      -8.696   9.863  68.846  1.00  0.00    -0.127 OA 
HETATM    4  C   UNL     1     -10.125   9.869  68.933  1.00  0.00    -0.184 C  
HETATM    5  O   UNL     1     -10.566  11.159  69.395  1.00  0.00    -0.208 OA 
HETATM    6  C   UNL     1     -10.282   8.652  66.758  1.00  0.00    -0.291 C  
HETATM    7  C   UNL     1      -9.642   5.410  66.224  1.00  0.00    -0.175 C  
HETATM    8  C   UNL     1     -10.644  11.965  68.217  1.00  0.00    -0.213 C  
HETATM    9  C   UNL     1     -11.894  12.841  68.317  1.00  0.00    -0.357 C  
HETATM   10  O   UNL     1     -10.691  11.100  67.056  1.00  0.00    -0.241 OA 
HETATM   11  C   UNL     1      -8.386   6.155  68.224  1.00  0.00    -0.114 C  
HETATM   12  C   UNL     1      -9.412  12.869  68.179  1.00  0.00    -0.218 C  
HETATM   13  O   UNL     1      -8.376   7.488  66.211  1.00  0.00    -0.120 OA 
HETATM   14  C   UNL     1      -9.196   6.635  67.016  1.00  0.00    -0.135 C  
HETATM   15  O   UNL     1     -10.359   7.375  67.428  1.00  0.00    -0.215 OA 
HETATM   16  C   UNL     1     -10.852   9.770  67.610  1.00  0.00    -0.239 C  
ENDROOT
BRANCH   4  17
HETATM   17  C   UNL     1     -10.569   8.825  69.964  1.00  0.00    -0.223 C  
BRANCH  17  18
HETATM   18  O   UNL     1     -11.605   9.379  70.769  1.00  0.00    -0.275 OA 
HETATM   19  H2  UNL     1     -13.659  10.393  72.283  1.00  0.00     0.000 HD 
HETATM   20  O   UNL     1     -13.032   7.376  71.103  1.00  0.00    -0.319 OA 
HETATM   21  N   UNL     1     -13.460   9.416  72.496  1.00  0.00    -0.646 N  
HETATM   22  O   UNL     1     -11.360   8.085  72.869  1.00  0.00    -0.408 OA 
HETATM   23  S   UNL     1     -12.312   8.391  71.837  1.00  0.00    -0.369 S  
HETATM   24  H1  UNL     1     -13.906   8.793  73.169  1.00  0.00     0.000 HD 
ENDBRANCH  17  18
ENDBRANCH   4  17
TORSDOF 2
ENDMDL
MODEL       63
REMARK 921   NORMALIZED FREE ENERGY PREDICTED BY IDOCK:   -4.67 KCAL/MOL
REMARK 922        TOTAL FREE ENERGY PREDICTED BY IDOCK:   -5.64 KCAL/MOL
REMARK 923 INTER-LIGAND FREE ENERGY PREDICTED BY IDOCK:   -5.27 KCAL/MOL
REMARK 924 INTRA-LIGAND FREE ENERGY PREDICTED BY IDOCK:   -0.37 KCAL/MOL
REMARK 927      BINDING AFFINITY PREDICTED BY RF-SCORE:    0.00 PKD
ROOT
HETATM    1  C   UNL     1     -10.654  11.040  66.095  1.00  0.00    -0.228 C  
HETATM    2  C   UNL     1     -11.003  11.174  67.585  1.00  0.00    -0.269 C  
HETATM    3  O   UNL     1     -10.306  12.094  68.418  1.00  0.00    -0.219 OA 
HETATM    4  C   UNL     1      -9.168  12.818  67.935  1.00  0.00    -0.205 C  
HETATM    5  O   UNL     1      -8.079  12.661  68.863  1.00  0.00     0.037 OA 
HETATM    6  C   UNL     1      -9.611  12.006  65.616  1.00  0.00    -0.189 C  
HETATM    7  C   UNL     1     -12.021  13.060  63.547  1.00  0.00    -0.615 C  
HETATM    8  C   UNL     1      -7.447  11.436  68.485  1.00  0.00    -0.113 C  
HETATM    9  C   UNL     1      -5.933  11.621  68.600  1.00  0.00    -0.050 C  
HETATM   10  O   UNL     1      -7.840  11.100  67.132  1.00  0.00    -0.126 OA 
HETATM   11  C   UNL     1     -12.726  13.489  65.882  1.00  0.00    -0.382 C  
HETATM   12  C   UNL     1      -7.886  10.353  69.469  1.00  0.00    -0.161 C  
HETATM   13  O   UNL     1     -11.787  11.352  65.264  1.00  0.00     0.003 OA 
HETATM   14  C   UNL     1     -11.703  12.758  65.008  1.00  0.00    -0.354 C  
HETATM   15  O   UNL     1     -10.362  13.196  65.296  1.00  0.00    -0.294 OA 
HETATM   16  C   UNL     1      -8.549  12.276  66.666  1.00  0.00    -0.099 C  
ENDROOT
BRANCH   4  17
HETATM   17  C   UNL     1      -9.516  14.309  67.869  1.00  0.00    -0.212 C  
BRANCH  17  18
HETATM   18  O   UNL     1     -10.849  14.497  68.334  1.00  0.00    -0.232 OA 
HETATM   19  H2  UNL     1     -13.392  14.842  69.308  1.00  0.00     0.000 HD 
HETATM   20  O   UNL     1     -10.411  15.508  70.557  1.00  0.00    -0.302 OA 
HETATM   21  N   UNL     1     -12.744  15.556  69.641  1.00  0.00    -0.584 N  
HETATM   22  O   UNL     1     -10.964  16.963  68.557  1.00  0.00    -0.350 OA 
HETATM   23  S   UNL     1     -11.113  15.752  69.319  1.00  0.00    -0.325 S  
HETATM   24  H1  UNL     1     -12.911  16.348  70.262  1.00  0.00     0.000 HD 
ENDBRANCH  17  18
ENDBRANCH   4  17
TORSDOF 2
ENDMDL
MODEL       64
REMARK 921   NORMALIZED FREE ENERGY PREDICTED BY IDOCK:   -4.63 KCAL/MOL
REMARK 922        TOTAL FREE ENERGY PREDICTED BY IDOCK:   -5.59 KCAL/MOL
REMARK 923 INTER-LIGAND FREE ENERGY PREDICTED BY IDOCK:   -5.15 KCAL/MOL
REMARK 924 INTRA-LIGAND FREE ENERGY PREDICTED BY IDOCK:   -0.44 KCAL/MOL
REMARK 927      BINDING AFFINITY PREDICTED BY RF-SCORE:    0.00 PKD
ROOT
HETATM    1  C   UNL     1     -12.140  13.377  67.406  1.00  0.00    -0.293 C  
HETATM    2  C   UNL     1     -11.035  13.509  68.465  1.00  0.00    -0.267 C  
HETATM    3  O   UNL     1      -9.905  12.644  68.452  1.00  0.00    -0.226 OA 
HETATM    4  C   UNL     1      -9.828  11.536  67.546  1.00  0.00    -0.190 C  
HETATM    5  O   UNL     1      -9.505  10.344  68.284  1.00  0.00    -0.143 OA 
HETATM    6  C   UNL     1     -11.865  12.347  66.350  1.00  0.00    -0.354 C  
HETATM    7  C   UNL     1     -12.055  14.941  64.245  1.00  0.00    -0.373 C  
HETATM    8  C   UNL     1     -10.760   9.853  68.759  1.00  0.00    -0.220 C  
HETATM    9  C   UNL     1     -10.759   8.329  68.634  1.00  0.00    -0.068 C  
HETATM   10  O   UNL     1     -11.826  10.451  67.980  1.00  0.00    -0.328 OA 
HETATM   11  C   UNL     1     -10.137  15.289  65.772  1.00  0.00    -0.384 C  
HETATM   12  C   UNL     1     -10.886  10.225  70.236  1.00  0.00    -0.349 C  
HETATM   13  O   UNL     1     -12.277  14.590  66.643  1.00  0.00    -0.379 OA 
HETATM   14  C   UNL     1     -11.391  14.447  65.527  1.00  0.00    -0.334 C  
HETATM   15  O   UNL     1     -11.065  13.053  65.377  1.00  0.00    -0.273 OA 
HETATM   16  C   UNL     1     -11.137  11.136  66.904  1.00  0.00    -0.247 C  
ENDROOT
BRANCH   4  17
HETATM   17  C   UNL     1      -8.695  11.788  66.544  1.00  0.00    -0.173 C  
BRANCH  17  18
HETATM   18  O   UNL     1      -7.669  10.822  66.749  1.00  0.00    -0.123 OA 
HETATM   19  H2  UNL     1      -5.751   8.899  67.146  1.00  0.00     0.000 HD 
HETATM   20  O   UNL     1      -8.600   8.903  65.482  1.00  0.00    -0.148 OA 
HETATM   21  N   UNL     1      -6.213   8.811  66.241  1.00  0.00    -0.059 N  
HETATM   22  O   UNL     1      -6.872  10.432  64.435  1.00  0.00    -0.099 OA 
HETATM   23  S   UNL     1      -7.429   9.744  65.568  1.00  0.00    -0.121 S  
HETATM   24  H1  UNL     1      -6.061   8.132  65.495  1.00  0.00     0.000 HD 
ENDBRANCH  17  18
ENDBRANCH   4  17
TORSDOF 2
ENDMDL
MODEL       65
REMARK 921   NORMALIZED FREE ENERGY PREDICTED BY IDOCK:   -4.62 KCAL/MOL
REMARK 922        TOTAL FREE ENERGY PREDICTED BY IDOCK:   -5.59 KCAL/MOL
REMARK 923 INTER-LIGAND FREE ENERGY PREDICTED BY IDOCK:   -5.19 KCAL/MOL
REMARK 924 INTRA-LIGAND FREE ENERGY PREDICTED BY IDOCK:   -0.40 KCAL/MOL
REMARK 927      BINDING AFFINITY PREDICTED BY RF-SCORE:    0.00 PKD
ROOT
HETATM    1  C   UNL     1     -11.061  11.371  66.107  1.00  0.00    -0.198 C  
HETATM    2  C   UNL     1     -11.311  11.752  67.574  1.00  0.00    -0.310 C  
HETATM    3  O   UNL     1     -10.432  12.639  68.257  1.00  0.00    -0.226 OA 
HETATM    4  C   UNL     1      -9.214  13.090  67.653  1.00  0.00    -0.200 C  
HETATM    5  O   UNL     1      -8.123  12.871  68.564  1.00  0.00    -0.142 OA 
HETATM    6  C   UNL     1      -9.896  12.075  65.475  1.00  0.00    -0.229 C  
HETATM    7  C   UNL     1     -12.196  13.251  63.347  1.00  0.00    -0.476 C  
HETATM    8  C   UNL     1      -7.721  11.518  68.338  1.00  0.00    -0.129 C  
HETATM    9  C   UNL     1      -6.194  11.456  68.388  1.00  0.00    -0.045 C  
HETATM   10  O   UNL     1      -8.229  11.083  67.053  1.00  0.00    -0.129 OA 
HETATM   11  C   UNL     1     -12.707  14.089  65.621  1.00  0.00    -0.515 C  
HETATM   12  C   UNL     1      -8.285  10.660  69.470  1.00  0.00    -0.036 C  
HETATM   13  O   UNL     1     -12.165  11.762  65.271  1.00  0.00    -0.256 OA 
HETATM   14  C   UNL     1     -11.862  13.089  64.827  1.00  0.00    -0.363 C  
HETATM   15  O   UNL     1     -10.455  13.325  65.018  1.00  0.00    -0.320 OA 
HETATM   16  C   UNL     1      -8.756  12.293  66.452  1.00  0.00    -0.017 C  
ENDROOT
BRANCH   4  17
HETATM   17  C   UNL     1      -9.313  14.599  67.395  1.00  0.00    -0.196 C  
BRANCH  17  18
HETATM   18  O   UNL     1      -8.014  15.108  67.111  1.00  0.00    -0.193 OA 
HETATM   19  H2  UNL     1      -5.538  16.115  66.488  1.00  0.00     0.000 HD 
HETATM   20  O   UNL     1      -8.600  17.113  65.773  1.00  0.00    -0.525 OA 
HETATM   21  N   UNL     1      -6.245  16.844  66.585  1.00  0.00    -0.202 N  
HETATM   22  O   UNL     1      -8.076  17.312  68.244  1.00  0.00    -0.227 OA 
HETATM   23  S   UNL     1      -7.872  16.711  66.953  1.00  0.00    -0.256 S  
HETATM   24  H1  UNL     1      -6.155  17.856  66.486  1.00  0.00     0.000 HD 
ENDBRANCH  17  18
ENDBRANCH   4  17
TORSDOF 2
ENDMDL
MODEL       66
REMARK 921   NORMALIZED FREE ENERGY PREDICTED BY IDOCK:   -4.61 KCAL/MOL
REMARK 922        TOTAL FREE ENERGY PREDICTED BY IDOCK:   -5.57 KCAL/MOL
REMARK 923 INTER-LIGAND FREE ENERGY PREDICTED BY IDOCK:   -5.03 KCAL/MOL
REMARK 924 INTRA-LIGAND FREE ENERGY PREDICTED BY IDOCK:   -0.54 KCAL/MOL
REMARK 927      BINDING AFFINITY PREDICTED BY RF-SCORE:    0.00 PKD
ROOT
HETATM    1  C   UNL     1      -9.547  11.324  68.570  1.00  0.00    -0.198 C  
HETATM    2  C   UNL     1      -8.480  10.226  68.448  1.00  0.00    -0.124 C  
HETATM    3  O   UNL     1      -8.811   8.860  68.674  1.00  0.00    -0.136 OA 
HETATM    4  C   UNL     1     -10.103   8.479  69.160  1.00  0.00    -0.203 C  
HETATM    5  O   UNL     1      -9.945   7.614  70.298  1.00  0.00    -0.187 OA 
HETATM    6  C   UNL     1     -10.931  10.814  68.849  1.00  0.00    -0.241 C  
HETATM    7  C   UNL     1     -11.699  12.301  65.951  1.00  0.00    -0.451 C  
HETATM    8  C   UNL     1      -9.797   8.495  71.414  1.00  0.00    -0.228 C  
HETATM    9  C   UNL     1     -10.575   7.911  72.594  1.00  0.00    -0.394 C  
HETATM   10  O   UNL     1     -10.292   9.806  71.047  1.00  0.00    -0.273 OA 
HETATM   11  C   UNL     1     -10.075  10.483  65.512  1.00  0.00    -0.349 C  
HETATM   12  C   UNL     1      -8.315   8.551  71.781  1.00  0.00    -0.221 C  
HETATM   13  O   UNL     1      -9.711  12.032  67.328  1.00  0.00    -0.183 OA 
HETATM   14  C   UNL     1     -10.729  11.326  66.611  1.00  0.00    -0.272 C  
HETATM   15  O   UNL     1     -11.454  10.501  67.541  1.00  0.00    -0.431 OA 
HETATM   16  C   UNL     1     -10.924   9.600  69.758  1.00  0.00    -0.240 C  
ENDROOT
BRANCH   4  17
HETATM   17  C   UNL     1     -10.834   7.688  68.069  1.00  0.00    -0.001 C  
BRANCH  17  18
HETATM   18  O   UNL     1      -9.912   7.363  67.033  1.00  0.00    -0.190 OA 
HETATM   19  H2  UNL     1      -8.083   6.706  65.095  1.00  0.00     0.000 HD 
HETATM   20  O   UNL     1      -8.948   5.261  67.932  1.00  0.00    -0.109 OA 
HETATM   21  N   UNL     1      -8.484   5.886  65.550  1.00  0.00    -0.151 N  
HETATM   22  O   UNL     1     -10.811   5.203  66.215  1.00  0.00    -0.296 OA 
HETATM   23  S   UNL     1      -9.624   5.793  66.773  1.00  0.00    -0.155 S  
HETATM   24  H1  UNL     1      -8.302   4.895  65.385  1.00  0.00     0.000 HD 
ENDBRANCH  17  18
ENDBRANCH   4  17
TORSDOF 2
ENDMDL
MODEL       67
REMARK 921   NORMALIZED FREE ENERGY PREDICTED BY IDOCK:   -4.56 KCAL/MOL
REMARK 922        TOTAL FREE ENERGY PREDICTED BY IDOCK:   -5.52 KCAL/MOL
REMARK 923 INTER-LIGAND FREE ENERGY PREDICTED BY IDOCK:   -5.08 KCAL/MOL
REMARK 924 INTRA-LIGAND FREE ENERGY PREDICTED BY IDOCK:   -0.44 KCAL/MOL
REMARK 927      BINDING AFFINITY PREDICTED BY RF-SCORE:    0.00 PKD
ROOT
HETATM    1  C   UNL     1     -10.435  11.629  66.173  1.00  0.00    -0.247 C  
HETATM    2  C   UNL     1      -9.708  12.467  67.236  1.00  0.00    -0.202 C  
HETATM    3  O   UNL     1      -9.460  11.941  68.535  1.00  0.00    -0.198 OA 
HETATM    4  C   UNL     1     -10.001  10.679  68.942  1.00  0.00    -0.204 C  
HETATM    5  O   UNL     1     -10.677  10.837  70.202  1.00  0.00    -0.188 OA 
HETATM    6  C   UNL     1     -10.757  10.228  66.604  1.00  0.00    -0.113 C  
HETATM    7  C   UNL     1      -8.835   9.348  64.009  1.00  0.00    -0.210 C  
HETATM    8  C   UNL     1     -11.992  11.278  69.862  1.00  0.00    -0.365 C  
HETATM    9  C   UNL     1     -12.989  10.576  70.784  1.00  0.00    -0.413 C  
HETATM   10  O   UNL     1     -12.248  10.970  68.469  1.00  0.00    -0.582 OA 
HETATM   11  C   UNL     1      -7.445  10.565  65.659  1.00  0.00    -0.129 C  
HETATM   12  C   UNL     1     -12.067  12.784  70.113  1.00  0.00    -0.370 C  
HETATM   13  O   UNL     1      -9.607  11.426  65.014  1.00  0.00    -0.230 OA 
HETATM   14  C   UNL     1      -8.882  10.216  65.263  1.00  0.00    -0.178 C  
HETATM   15  O   UNL     1      -9.551   9.490  66.310  1.00  0.00    -0.188 OA 
HETATM   16  C   UNL     1     -11.121  10.148  68.075  1.00  0.00    -0.240 C  
ENDROOT
BRANCH   4  17
HETATM   17  C   UNL     1      -8.851   9.686  69.148  1.00  0.00    -0.157 C  
BRANCH  17  18
HETATM   18  O   UNL     1      -8.735   9.390  70.536  1.00  0.00    -0.215 OA 
HETATM   19  H2  UNL     1      -8.594   8.805  73.214  1.00  0.00     0.000 HD 
HETATM   20  O   UNL     1     -10.415   7.577  70.752  1.00  0.00    -0.210 OA 
HETATM   21  N   UNL     1      -8.827   7.990  72.647  1.00  0.00    -0.181 N  
HETATM   22  O   UNL     1      -7.953   7.039  70.489  1.00  0.00    -0.109 OA 
HETATM   23  S   UNL     1      -9.020   7.864  70.988  1.00  0.00    -0.145 S  
HETATM   24  H1  UNL     1      -9.006   7.027  72.932  1.00  0.00     0.000 HD 
ENDBRANCH  17  18
ENDBRANCH   4  17
TORSDOF 2
ENDMDL
MODEL       68
REMARK 921   NORMALIZED FREE ENERGY PREDICTED BY IDOCK:   -4.55 KCAL/MOL
REMARK 922        TOTAL FREE ENERGY PREDICTED BY IDOCK:   -5.51 KCAL/MOL
REMARK 923 INTER-LIGAND FREE ENERGY PREDICTED BY IDOCK:   -5.06 KCAL/MOL
REMARK 924 INTRA-LIGAND FREE ENERGY PREDICTED BY IDOCK:   -0.44 KCAL/MOL
REMARK 927      BINDING AFFINITY PREDICTED BY RF-SCORE:    0.00 PKD
ROOT
HETATM    1  C   UNL     1     -11.785  11.613  66.987  1.00  0.00    -0.092 C  
HETATM    2  C   UNL     1     -11.425  12.327  68.299  1.00  0.00    -0.315 C  
HETATM    3  O   UNL     1     -10.095  12.298  68.804  1.00  0.00    -0.175 OA 
HETATM    4  C   UNL     1      -9.084  11.490  68.190  1.00  0.00    -0.181 C  
HETATM    5  O   UNL     1      -8.441  10.689  69.197  1.00  0.00    -0.153 OA 
HETATM    6  C   UNL     1     -10.616  10.990  66.282  1.00  0.00    -0.237 C  
HETATM    7  C   UNL     1     -11.451  13.057  63.785  1.00  0.00    -0.486 C  
HETATM    8  C   UNL     1      -9.269   9.532  69.332  1.00  0.00    -0.176 C  
HETATM    9  C   UNL     1      -8.365   8.310  69.495  1.00  0.00    -0.121 C  
HETATM   10  O   UNL     1     -10.112   9.417  68.159  1.00  0.00    -0.166 OA 
HETATM   11  C   UNL     1     -10.780  14.406  65.751  1.00  0.00    -0.312 C  
HETATM   12  C   UNL     1     -10.110   9.695  70.598  1.00  0.00    -0.324 C  
HETATM   13  O   UNL     1     -12.291  12.541  66.010  1.00  0.00    -0.615 OA 
HETATM   14  C   UNL     1     -11.147  12.997  65.279  1.00  0.00    -0.286 C  
HETATM   15  O   UNL     1     -10.066  12.073  65.500  1.00  0.00    -0.241 OA 
HETATM   16  C   UNL     1      -9.595  10.421  67.250  1.00  0.00    -0.156 C  
ENDROOT
BRANCH   4  17
HETATM   17  C   UNL     1      -8.021  12.405  67.570  1.00  0.00    -0.173 C  
BRANCH  17  18
HETATM   18  O   UNL     1      -7.383  13.144  68.606  1.00  0.00    -0.107 OA 
HETATM   19  H2  UNL     1      -6.094  14.595  70.548  1.00  0.00     0.000 HD 
HETATM   20  O   UNL     1      -6.532  15.085  67.315  1.00  0.00    -0.305 OA 
HETATM   21  N   UNL     1      -6.495  15.185  69.819  1.00  0.00    -0.155 N  
HETATM   22  O   UNL     1      -8.701  15.243  68.615  1.00  0.00    -0.164 OA 
HETATM   23  S   UNL     1      -7.359  14.754  68.452  1.00  0.00    -0.126 S  
HETATM   24  H1  UNL     1      -6.480  16.200  69.722  1.00  0.00     0.000 HD 
ENDBRANCH  17  18
ENDBRANCH   4  17
TORSDOF 2
ENDMDL
MODEL       69
REMARK 921   NORMALIZED FREE ENERGY PREDICTED BY IDOCK:   -4.51 KCAL/MOL
REMARK 922        TOTAL FREE ENERGY PREDICTED BY IDOCK:   -5.47 KCAL/MOL
REMARK 923 INTER-LIGAND FREE ENERGY PREDICTED BY IDOCK:   -5.03 KCAL/MOL
REMARK 924 INTRA-LIGAND FREE ENERGY PREDICTED BY IDOCK:   -0.43 KCAL/MOL
REMARK 927      BINDING AFFINITY PREDICTED BY RF-SCORE:    0.00 PKD
ROOT
HETATM    1  C   UNL     1     -12.282  15.961  69.646  1.00  0.00    -0.115 C  
HETATM    2  C   UNL     1     -12.626  15.045  68.461  1.00  0.00     0.546 C  
HETATM    3  O   UNL     1     -11.621  14.257  67.833  1.00  0.00    -0.299 OA 
HETATM    4  C   UNL     1     -10.239  14.396  68.185  1.00  0.00    -0.232 C  
HETATM    5  O   UNL     1      -9.462  14.581  66.989  1.00  0.00    -0.222 OA 
HETATM    6  C   UNL     1     -10.857  15.868  70.106  1.00  0.00    -0.353 C  
HETATM    7  C   UNL     1     -12.212  14.909  73.013  1.00  0.00    -0.407 C  
HETATM    8  C   UNL     1      -9.524  15.984  66.722  1.00  0.00    -0.231 C  
HETATM    9  C   UNL     1      -8.146  16.444  66.247  1.00  0.00    -0.311 C  
HETATM   10  O   UNL     1      -9.929  16.676  67.929  1.00  0.00    -0.243 OA 
HETATM   11  C   UNL     1     -12.773  13.234  71.277  1.00  0.00    -0.411 C  
HETATM   12  C   UNL     1     -10.533  16.208  65.596  1.00  0.00    -0.402 C  
HETATM   13  O   UNL     1     -13.024  15.592  70.823  1.00  0.00    -0.478 OA 
HETATM   14  C   UNL     1     -12.209  14.638  71.511  1.00  0.00    -0.352 C  
HETATM   15  O   UNL     1     -10.861  14.749  71.019  1.00  0.00    -0.017 OA 
HETATM   16  C   UNL     1      -9.893  15.651  68.955  1.00  0.00    -0.219 C  
ENDROOT
BRANCH   4  17
HETATM   17  C   UNL     1      -9.762  13.104  68.859  1.00  0.00     0.179 C  
BRANCH  17  18
HETATM   18  O   UNL     1      -9.870  12.029  67.930  1.00  0.00    -0.185 OA 
HETATM   19  H2  UNL     1     -10.034   9.909  66.194  1.00  0.00     0.000 HD 
HETATM   20  O   UNL     1     -10.060  10.107  69.488  1.00  0.00    -0.211 OA 
HETATM   21  N   UNL     1     -10.556   9.751  67.057  1.00  0.00    -0.225 N  
HETATM   22  O   UNL     1     -12.126  11.140  68.445  1.00  0.00    -0.605 OA 
HETATM   23  S   UNL     1     -10.744  10.748  68.389  1.00  0.00    -0.238 S  
HETATM   24  H1  UNL     1     -11.107   8.943  67.346  1.00  0.00     0.000 HD 
ENDBRANCH  17  18
ENDBRANCH   4  17
TORSDOF 2
ENDMDL
MODEL       70
REMARK 921   NORMALIZED FREE ENERGY PREDICTED BY IDOCK:   -4.47 KCAL/MOL
REMARK 922        TOTAL FREE ENERGY PREDICTED BY IDOCK:   -5.42 KCAL/MOL
REMARK 923 INTER-LIGAND FREE ENERGY PREDICTED BY IDOCK:   -5.01 KCAL/MOL
REMARK 924 INTRA-LIGAND FREE ENERGY PREDICTED BY IDOCK:   -0.42 KCAL/MOL
REMARK 927      BINDING AFFINITY PREDICTED BY RF-SCORE:    0.00 PKD
ROOT
HETATM    1  C   UNL     1      -9.063   7.784  66.753  1.00  0.00    -0.154 C  
HETATM    2  C   UNL     1     -10.503   8.290  66.927  1.00  0.00    -0.295 C  
HETATM    3  O   UNL     1     -10.800   9.346  67.835  1.00  0.00    -0.236 OA 
HETATM    4  C   UNL     1      -9.801   9.871  68.716  1.00  0.00    -0.171 C  
HETATM    5  O   UNL     1     -10.314   9.885  70.060  1.00  0.00    -0.240 OA 
HETATM    6  C   UNL     1      -8.039   8.549  67.539  1.00  0.00    -0.107 C  
HETATM    7  C   UNL     1      -6.715   9.201  64.535  1.00  0.00    -0.079 C  
HETATM    8  C   UNL     1     -10.057   8.574  70.567  1.00  0.00    -0.192 C  
HETATM    9  C   UNL     1      -9.605   8.701  72.022  1.00  0.00    -0.385 C  
HETATM   10  O   UNL     1      -9.041   7.943  69.748  1.00  0.00    -0.146 OA 
HETATM   11  C   UNL     1      -8.971  10.215  64.652  1.00  0.00    -0.241 C  
HETATM   12  C   UNL     1     -11.364   7.784  70.525  1.00  0.00    -0.253 C  
HETATM   13  O   UNL     1      -8.614   7.946  65.395  1.00  0.00    -0.151 OA 
HETATM   14  C   UNL     1      -8.010   9.243  65.341  1.00  0.00    -0.108 C  
HETATM   15  O   UNL     1      -7.712   9.666  66.684  1.00  0.00    -0.097 OA 
HETATM   16  C   UNL     1      -8.570   9.008  68.884  1.00  0.00    -0.131 C  
ENDROOT
BRANCH   4  17
HETATM   17  C   UNL     1      -9.494  11.319  68.317  1.00  0.00    -0.190 C  
BRANCH  17  18
HETATM   18  O   UNL     1     -10.541  12.163  68.786  1.00  0.00    -0.229 OA 
HETATM   19  H2  UNL     1     -12.513  13.855  69.671  1.00  0.00     0.000 HD 
HETATM   20  O   UNL     1     -10.287  14.093  67.247  1.00  0.00    -0.264 OA 
HETATM   21  N   UNL     1     -12.346  13.938  68.668  1.00  0.00    -0.454 N  
HETATM   22  O   UNL     1     -12.013  12.293  66.795  1.00  0.00    -0.586 OA 
HETATM   23  S   UNL     1     -11.256  13.120  67.696  1.00  0.00    -0.297 S  
HETATM   24  H1  UNL     1     -12.797  14.542  67.981  1.00  0.00     0.000 HD 
ENDBRANCH  17  18
ENDBRANCH   4  17
TORSDOF 2
ENDMDL
MODEL       71
REMARK 921   NORMALIZED FREE ENERGY PREDICTED BY IDOCK:   -4.47 KCAL/MOL
REMARK 922        TOTAL FREE ENERGY PREDICTED BY IDOCK:   -5.41 KCAL/MOL
REMARK 923 INTER-LIGAND FREE ENERGY PREDICTED BY IDOCK:   -4.94 KCAL/MOL
REMARK 924 INTRA-LIGAND FREE ENERGY PREDICTED BY IDOCK:   -0.47 KCAL/MOL
REMARK 927      BINDING AFFINITY PREDICTED BY RF-SCORE:    0.00 PKD
ROOT
HETATM    1  C   UNL     1      -9.503   8.001  66.513  1.00  0.00    -0.214 C  
HETATM    2  C   UNL     1     -10.718   7.206  67.014  1.00  0.00    -0.350 C  
HETATM    3  O   UNL     1     -10.784   6.747  68.360  1.00  0.00    -0.213 OA 
HETATM    4  C   UNL     1      -9.669   6.883  69.248  1.00  0.00    -0.156 C  
HETATM    5  O   UNL     1      -9.392   5.610  69.858  1.00  0.00    -0.142 OA 
HETATM    6  C   UNL     1      -8.484   8.306  67.572  1.00  0.00    -0.130 C  
HETATM    7  C   UNL     1      -9.154  11.498  66.820  1.00  0.00    -0.184 C  
HETATM    8  C   UNL     1      -8.552   4.929  68.924  1.00  0.00    -0.085 C  
HETATM    9  C   UNL     1      -7.469   4.184  69.705  1.00  0.00    -0.049 C  
HETATM   10  O   UNL     1      -7.978   5.897  68.012  1.00  0.00    -0.103 OA 
HETATM   11  C   UNL     1     -11.202  10.443  67.731  1.00  0.00    -0.309 C  
HETATM   12  C   UNL     1      -9.406   3.908  68.174  1.00  0.00    -0.223 C  
HETATM   13  O   UNL     1      -9.889   9.309  66.053  1.00  0.00    -0.277 OA 
HETATM   14  C   UNL     1      -9.795  10.165  67.196  1.00  0.00    -0.187 C  
HETATM   15  O   UNL     1      -8.977   9.516  68.187  1.00  0.00    -0.124 OA 
HETATM   16  C   UNL     1      -8.345   7.180  68.579  1.00  0.00    -0.125 C  
ENDROOT
BRANCH   4  17
HETATM   17  C   UNL     1     -10.036   7.868  70.364  1.00  0.00    -0.192 C  
BRANCH  17  18
HETATM   18  O   UNL     1     -11.441   8.095  70.340  1.00  0.00    -0.234 OA 
HETATM   19  H2  UNL     1     -14.157   8.496  70.367  1.00  0.00     0.000 HD 
HETATM   20  O   UNL     1     -11.882   8.445  72.756  1.00  0.00    -0.371 OA 
HETATM   21  N   UNL     1     -13.677   9.015  71.102  1.00  0.00    -0.582 N  
HETATM   22  O   UNL     1     -11.592  10.418  71.192  1.00  0.00    -0.333 OA 
HETATM   23  S   UNL     1     -12.045   9.082  71.470  1.00  0.00    -0.362 S  
HETATM   24  H1  UNL     1     -14.057   9.638  71.815  1.00  0.00     0.000 HD 
ENDBRANCH  17  18
ENDBRANCH   4  17
TORSDOF 2
ENDMDL
MODEL       72
REMARK 921   NORMALIZED FREE ENERGY PREDICTED BY IDOCK:   -4.46 KCAL/MOL
REMARK 922        TOTAL FREE ENERGY PREDICTED BY IDOCK:   -5.40 KCAL/MOL
REMARK 923 INTER-LIGAND FREE ENERGY PREDICTED BY IDOCK:   -5.00 KCAL/MOL
REMARK 924 INTRA-LIGAND FREE ENERGY PREDICTED BY IDOCK:   -0.40 KCAL/MOL
REMARK 927      BINDING AFFINITY PREDICTED BY RF-SCORE:    0.00 PKD
ROOT
HETATM    1  C   UNL     1     -10.771   9.945  70.451  1.00  0.00    -0.318 C  
HETATM    2  C   UNL     1     -11.386   9.768  69.055  1.00  0.00     0.035 C  
HETATM    3  O   UNL     1     -10.660   9.121  68.015  1.00  0.00    -0.229 OA 
HETATM    4  C   UNL     1      -9.290   8.744  68.189  1.00  0.00    -0.140 C  
HETATM    5  O   UNL     1      -8.517   9.244  67.084  1.00  0.00    -0.122 OA 
HETATM    6  C   UNL     1      -9.422   9.309  70.618  1.00  0.00    -0.272 C  
HETATM    7  C   UNL     1     -10.934   7.525  73.013  1.00  0.00    -0.443 C  
HETATM    8  C   UNL     1      -8.182  10.585  67.444  1.00  0.00    -0.118 C  
HETATM    9  C   UNL     1      -6.739  10.853  67.014  1.00  0.00    -0.098 C  
HETATM   10  O   UNL     1      -8.348  10.744  68.875  1.00  0.00    -0.138 OA 
HETATM   11  C   UNL     1     -11.985   6.993  70.834  1.00  0.00    -0.409 C  
HETATM   12  C   UNL     1      -9.107  11.528  66.676  1.00  0.00    -0.193 C  
HETATM   13  O   UNL     1     -11.563   9.287  71.457  1.00  0.00    -0.329 OA 
HETATM   14  C   UNL     1     -11.039   7.958  71.553  1.00  0.00    -0.241 C  
HETATM   15  O   UNL     1      -9.726   7.940  70.964  1.00  0.00    -0.160 OA 
HETATM   16  C   UNL     1      -8.584   9.397  69.357  1.00  0.00    -0.148 C  
ENDROOT
BRANCH   4  17
HETATM   17  C   UNL     1      -9.187   7.214  68.179  1.00  0.00    -0.131 C  
BRANCH  17  18
HETATM   18  O   UNL     1     -10.162   6.689  67.283  1.00  0.00    -0.156 OA 
HETATM   19  H2  UNL     1     -11.986   5.687  65.493  1.00  0.00     0.000 HD 
HETATM   20  O   UNL     1      -8.698   5.486  65.681  1.00  0.00    -0.146 OA 
HETATM   21  N   UNL     1     -11.171   5.084  65.601  1.00  0.00    -0.868 N  
HETATM   22  O   UNL     1      -9.848   4.247  67.569  1.00  0.00    -0.175 OA 
HETATM   23  S   UNL     1      -9.819   5.279  66.569  1.00  0.00    -0.205 S  
HETATM   24  H1  UNL     1     -10.955   4.194  65.151  1.00  0.00     0.000 HD 
ENDBRANCH  17  18
ENDBRANCH   4  17
TORSDOF 2
ENDMDL
MODEL       73
REMARK 921   NORMALIZED FREE ENERGY PREDICTED BY IDOCK:   -4.43 KCAL/MOL
REMARK 922        TOTAL FREE ENERGY PREDICTED BY IDOCK:   -5.37 KCAL/MOL
REMARK 923 INTER-LIGAND FREE ENERGY PREDICTED BY IDOCK:   -4.95 KCAL/MOL
REMARK 924 INTRA-LIGAND FREE ENERGY PREDICTED BY IDOCK:   -0.43 KCAL/MOL
REMARK 927      BINDING AFFINITY PREDICTED BY RF-SCORE:    0.00 PKD
ROOT
HETATM    1  C   UNL     1      -8.839  10.653  66.660  1.00  0.00    -0.141 C  
HETATM    2  C   UNL     1      -9.847   9.549  66.306  1.00  0.00    -0.266 C  
HETATM    3  O   UNL     1     -10.368   8.687  67.312  1.00  0.00    -0.251 OA 
HETATM    4  C   UNL     1      -9.867   8.723  68.653  1.00  0.00    -0.168 C  
HETATM    5  O   UNL     1      -9.524   7.389  69.066  1.00  0.00    -0.149 OA 
HETATM    6  C   UNL     1      -8.548  10.777  68.127  1.00  0.00    -0.129 C  
HETATM    7  C   UNL     1      -9.736  13.884  67.755  1.00  0.00    -0.225 C  
HETATM    8  C   UNL     1      -8.193   7.185  68.587  1.00  0.00    -0.125 C  
HETATM    9  C   UNL     1      -7.408   6.425  69.656  1.00  0.00    -0.080 C  
HETATM   10  O   UNL     1      -7.593   8.472  68.300  1.00  0.00    -0.094 OA 
HETATM   11  C   UNL     1     -11.550  12.269  67.269  1.00  0.00    -0.427 C  
HETATM   12  C   UNL     1      -8.270   6.322  67.327  1.00  0.00    -0.109 C  
HETATM   13  O   UNL     1      -9.351  11.955  66.323  1.00  0.00    -0.221 OA 
HETATM   14  C   UNL     1     -10.042  12.413  67.490  1.00  0.00    -0.202 C  
HETATM   15  O   UNL     1      -9.602  11.633  68.617  1.00  0.00    -0.190 OA 
HETATM   16  C   UNL     1      -8.543   9.432  68.829  1.00  0.00    -0.127 C  
ENDROOT
BRANCH   4  17
HETATM   17  C   UNL     1     -10.972   9.232  69.586  1.00  0.00    -0.175 C  
BRANCH  17  18
HETATM   18  O   UNL     1     -10.790   8.662  70.878  1.00  0.00    -0.222 OA 
HETATM   19  H2  UNL     1     -10.490   7.620  73.400  1.00  0.00     0.000 HD 
HETATM   20  O   UNL     1     -13.052   8.994  71.840  1.00  0.00    -0.344 OA 
HETATM   21  N   UNL     1     -11.435   7.498  73.035  1.00  0.00    -0.607 N  
HETATM   22  O   UNL     1     -12.389   6.769  70.826  1.00  0.00    -0.377 OA 
HETATM   23  S   UNL     1     -12.079   7.965  71.562  1.00  0.00    -0.316 S  
HETATM   24  H1  UNL     1     -12.247   7.058  73.467  1.00  0.00     0.000 HD 
ENDBRANCH  17  18
ENDBRANCH   4  17
TORSDOF 2
ENDMDL
MODEL       74
REMARK 921   NORMALIZED FREE ENERGY PREDICTED BY IDOCK:   -4.42 KCAL/MOL
REMARK 922        TOTAL FREE ENERGY PREDICTED BY IDOCK:   -5.36 KCAL/MOL
REMARK 923 INTER-LIGAND FREE ENERGY PREDICTED BY IDOCK:   -4.98 KCAL/MOL
REMARK 924 INTRA-LIGAND FREE ENERGY PREDICTED BY IDOCK:   -0.38 KCAL/MOL
REMARK 927      BINDING AFFINITY PREDICTED BY RF-SCORE:    0.00 PKD
ROOT
HETATM    1  C   UNL     1     -10.064   6.036  70.582  1.00  0.00    -0.194 C  
HETATM    2  C   UNL     1      -8.723   6.455  69.962  1.00  0.00    -0.142 C  
HETATM    3  O   UNL     1      -8.663   6.987  68.644  1.00  0.00    -0.124 OA 
HETATM    4  C   UNL     1      -9.820   7.017  67.801  1.00  0.00    -0.139 C  
HETATM    5  O   UNL     1      -9.494   6.431  66.528  1.00  0.00    -0.159 OA 
HETATM    6  C   UNL     1     -11.259   6.322  69.720  1.00  0.00    -0.430 C  
HETATM    7  C   UNL     1     -12.234   8.232  72.290  1.00  0.00    -0.428 C  
HETATM    8  C   UNL     1      -9.677   5.026  66.711  1.00  0.00    -0.174 C  
HETATM    9  C   UNL     1     -10.329   4.457  65.450  1.00  0.00    -0.238 C  
HETATM   10  O   UNL     1     -10.502   4.806  67.882  1.00  0.00     0.001 OA 
HETATM   11  C   UNL     1     -10.133   9.155  71.358  1.00  0.00    -0.392 C  
HETATM   12  C   UNL     1      -8.300   4.386  66.882  1.00  0.00    -0.101 C  
HETATM   13  O   UNL     1     -10.344   6.787  71.777  1.00  0.00    -0.199 OA 
HETATM   14  C   UNL     1     -11.069   7.944  71.347  1.00  0.00    -0.243 C  
HETATM   15  O   UNL     1     -11.587   7.695  70.027  1.00  0.00    -0.086 OA 
HETATM   16  C   UNL     1     -10.964   6.132  68.244  1.00  0.00    -0.308 C  
ENDROOT
BRANCH   4  17
HETATM   17  C   UNL     1     -10.223   8.475  67.556  1.00  0.00    -0.242 C  
BRANCH  17  18
HETATM   18  O   UNL     1     -10.263   8.717  66.153  1.00  0.00    -0.233 OA 
HETATM   19  H2  UNL     1     -10.399   9.243  63.462  1.00  0.00     0.000 HD 
HETATM   20  O   UNL     1     -10.665  11.166  66.130  1.00  0.00    -0.263 OA 
HETATM   21  N   UNL     1     -10.016  10.024  63.995  1.00  0.00    -0.474 N  
HETATM   22  O   UNL     1      -8.326  10.233  65.845  1.00  0.00    -0.134 OA 
HETATM   23  S   UNL     1      -9.748  10.163  65.642  1.00  0.00    -0.278 S  
HETATM   24  H1  UNL     1      -9.691  10.935  63.673  1.00  0.00     0.000 HD 
ENDBRANCH  17  18
ENDBRANCH   4  17
TORSDOF 2
ENDMDL
MODEL       75
REMARK 921   NORMALIZED FREE ENERGY PREDICTED BY IDOCK:   -4.39 KCAL/MOL
REMARK 922        TOTAL FREE ENERGY PREDICTED BY IDOCK:   -5.33 KCAL/MOL
REMARK 923 INTER-LIGAND FREE ENERGY PREDICTED BY IDOCK:   -4.87 KCAL/MOL
REMARK 924 INTRA-LIGAND FREE ENERGY PREDICTED BY IDOCK:   -0.47 KCAL/MOL
REMARK 927      BINDING AFFINITY PREDICTED BY RF-SCORE:    0.00 PKD
ROOT
HETATM    1  C   UNL     1      -9.155   8.617  70.687  1.00  0.00    -0.171 C  
HETATM    2  C   UNL     1      -8.596   9.867  69.992  1.00  0.00    -0.167 C  
HETATM    3  O   UNL     1      -8.864  10.118  68.617  1.00  0.00    -0.125 OA 
HETATM    4  C   UNL     1      -9.538   9.152  67.802  1.00  0.00    -0.146 C  
HETATM    5  O   UNL     1      -8.774   8.928  66.604  1.00  0.00    -0.122 OA 
HETATM    6  C   UNL     1     -10.051   7.778  69.823  1.00  0.00    -0.194 C  
HETATM    7  C   UNL     1     -12.355   8.430  72.161  1.00  0.00    -0.426 C  
HETATM    8  C   UNL     1      -7.809   7.937  66.961  1.00  0.00    -0.108 C  
HETATM    9  C   UNL     1      -7.668   6.959  65.794  1.00  0.00    -0.100 C  
HETATM   10  O   UNL     1      -8.247   7.266  68.168  1.00  0.00    -0.122 OA 
HETATM   11  C   UNL     1     -11.690  10.556  71.076  1.00  0.00    -0.384 C  
HETATM   12  C   UNL     1      -6.468   8.638  67.180  1.00  0.00    -0.058 C  
HETATM   13  O   UNL     1     -10.012   8.972  71.787  1.00  0.00    -0.325 OA 
HETATM   14  C   UNL     1     -11.329   9.076  71.235  1.00  0.00    -0.319 C  
HETATM   15  O   UNL     1     -11.348   8.395  69.967  1.00  0.00    -0.154 OA 
HETATM   16  C   UNL     1      -9.597   7.754  68.375  1.00  0.00    -0.152 C  
ENDROOT
BRANCH   4  17
HETATM   17  C   UNL     1     -10.904   9.712  67.389  1.00  0.00    -0.172 C  
BRANCH  17  18
HETATM   18  O   UNL     1     -11.020  11.050  67.863  1.00  0.00    -0.222 OA 
HETATM   19  H2  UNL     1     -11.166  13.645  68.747  1.00  0.00     0.000 HD 
HETATM   20  O   UNL     1      -9.719  12.256  66.128  1.00  0.00    -0.239 OA 
HETATM   21  N   UNL     1     -11.120  13.579  67.730  1.00  0.00    -0.261 N  
HETATM   22  O   UNL     1     -12.247  12.139  66.005  1.00  0.00    -0.609 OA 
HETATM   23  S   UNL     1     -11.021  12.225  66.751  1.00  0.00    -0.291 S  
HETATM   24  H1  UNL     1     -11.121  14.320  67.029  1.00  0.00     0.000 HD 
ENDBRANCH  17  18
ENDBRANCH   4  17
TORSDOF 2
ENDMDL
MODEL       76
REMARK 921   NORMALIZED FREE ENERGY PREDICTED BY IDOCK:   -4.39 KCAL/MOL
REMARK 922        TOTAL FREE ENERGY PREDICTED BY IDOCK:   -5.33 KCAL/MOL
REMARK 923 INTER-LIGAND FREE ENERGY PREDICTED BY IDOCK:   -4.86 KCAL/MOL
REMARK 924 INTRA-LIGAND FREE ENERGY PREDICTED BY IDOCK:   -0.47 KCAL/MOL
REMARK 927      BINDING AFFINITY PREDICTED BY RF-SCORE:    0.00 PKD
ROOT
HETATM    1  C   UNL     1      -8.433   9.276  70.583  1.00  0.00    -0.217 C  
HETATM    2  C   UNL     1      -9.965   9.383  70.535  1.00  0.00    -0.267 C  
HETATM    3  O   UNL     1     -10.710   8.727  69.515  1.00  0.00    -0.228 OA 
HETATM    4  C   UNL     1     -10.057   8.069  68.423  1.00  0.00    -0.195 C  
HETATM    5  O   UNL     1     -10.626   8.528  67.185  1.00  0.00    -0.303 OA 
HETATM    6  C   UNL     1      -7.844   8.371  69.540  1.00  0.00    -0.102 C  
HETATM    7  C   UNL     1      -6.674   6.663  72.170  1.00  0.00    -0.059 C  
HETATM    8  C   UNL     1      -9.915   9.727  66.873  1.00  0.00    -0.211 C  
HETATM    9  C   UNL     1      -9.649   9.752  65.368  1.00  0.00    -0.359 C  
HETATM   10  O   UNL     1      -8.680   9.754  67.632  1.00  0.00    -0.125 OA 
HETATM   11  C   UNL     1      -9.150   6.598  72.210  1.00  0.00    -0.138 C  
HETATM   12  C   UNL     1     -10.806  10.915  67.235  1.00  0.00    -0.342 C  
HETATM   13  O   UNL     1      -7.990   8.678  71.814  1.00  0.00    -0.161 OA 
HETATM   14  C   UNL     1      -7.935   7.270  71.563  1.00  0.00    -0.100 C  
HETATM   15  O   UNL     1      -7.918   7.060  70.139  1.00  0.00    -0.110 OA 
HETATM   16  C   UNL     1      -8.602   8.434  68.228  1.00  0.00    -0.139 C  
ENDROOT
BRANCH   4  17
HETATM   17  C   UNL     1     -10.310   6.560  68.525  1.00  0.00    -0.192 C  
BRANCH  17  18
HETATM   18  O   UNL     1     -10.947   6.115  67.332  1.00  0.00    -0.321 OA 
HETATM   19  H2  UNL     1     -12.114   5.291  64.987  1.00  0.00     0.000 HD 
HETATM   20  O   UNL     1      -8.967   5.636  65.916  1.00  0.00    -0.152 OA 
HETATM   21  N   UNL     1     -11.218   4.835  65.161  1.00  0.00    -0.893 N  
HETATM   22  O   UNL     1     -10.142   3.776  67.172  1.00  0.00     0.030 OA 
HETATM   23  S   UNL     1     -10.158   5.016  66.444  1.00  0.00    -0.274 S  
HETATM   24  H1  UNL     1     -10.721   4.142  64.601  1.00  0.00     0.000 HD 
ENDBRANCH  17  18
ENDBRANCH   4  17
TORSDOF 2
ENDMDL
MODEL       77
REMARK 921   NORMALIZED FREE ENERGY PREDICTED BY IDOCK:   -4.39 KCAL/MOL
REMARK 922        TOTAL FREE ENERGY PREDICTED BY IDOCK:   -5.32 KCAL/MOL
REMARK 923 INTER-LIGAND FREE ENERGY PREDICTED BY IDOCK:   -5.15 KCAL/MOL
REMARK 924 INTRA-LIGAND FREE ENERGY PREDICTED BY IDOCK:   -0.17 KCAL/MOL
REMARK 927      BINDING AFFINITY PREDICTED BY RF-SCORE:    0.00 PKD
ROOT
HETATM    1  C   UNL     1      -9.900  10.059  69.091  1.00  0.00    -0.205 C  
HETATM    2  C   UNL     1      -8.940  11.223  68.804  1.00  0.00    -0.111 C  
HETATM    3  O   UNL     1      -9.065  11.996  67.616  1.00  0.00    -0.168 OA 
HETATM    4  C   UNL     1      -9.991  11.631  66.586  1.00  0.00    -0.203 C  
HETATM    5  O   UNL     1      -9.304  11.595  65.323  1.00  0.00    -0.196 OA 
HETATM    6  C   UNL     1     -10.992   9.894  68.074  1.00  0.00    -0.213 C  
HETATM    7  C   UNL     1     -13.032  10.414  70.676  1.00  0.00    -0.357 C  
HETATM    8  C   UNL     1      -8.728  10.289  65.253  1.00  0.00    -0.172 C  
HETATM    9  C   UNL     1      -8.877   9.774  63.821  1.00  0.00    -0.259 C  
HETATM   10  O   UNL     1      -9.402   9.426  66.202  1.00  0.00    -0.172 OA 
HETATM   11  C   UNL     1     -11.672  12.451  70.304  1.00  0.00    -0.207 C  
HETATM   12  C   UNL     1      -7.240  10.408  65.580  1.00  0.00    -0.146 C  
HETATM   13  O   UNL     1     -10.630  10.273  70.313  1.00  0.00    -0.282 OA 
HETATM   14  C   UNL     1     -11.821  10.973  69.935  1.00  0.00    -0.353 C  
HETATM   15  O   UNL     1     -12.020  10.805  68.519  1.00  0.00    -0.487 OA 
HETATM   16  C   UNL     1     -10.524  10.218  66.668  1.00  0.00    -0.194 C  
ENDROOT
BRANCH   4  17
HETATM   17  C   UNL     1     -11.085  12.702  66.494  1.00  0.00    -0.280 C  
BRANCH  17  18
HETATM   18  O   UNL     1     -10.486  13.950  66.158  1.00  0.00    -0.286 OA 
HETATM   19  H2  UNL     1      -9.408  16.391  65.516  1.00  0.00     0.000 HD 
HETATM   20  O   UNL     1     -11.872  15.494  67.517  1.00  0.00    -0.127 OA 
HETATM   21  N   UNL     1      -9.766  16.360  66.470  1.00  0.00    -0.254 N  
HETATM   22  O   UNL     1      -9.616  14.701  68.354  1.00  0.00    -0.204 OA 
HETATM   23  S   UNL     1     -10.501  15.101  67.294  1.00  0.00    -0.276 S  
HETATM   24  H1  UNL     1      -9.775  17.086  67.186  1.00  0.00     0.000 HD 
ENDBRANCH  17  18
ENDBRANCH   4  17
TORSDOF 2
ENDMDL
MODEL       78
REMARK 921   NORMALIZED FREE ENERGY PREDICTED BY IDOCK:   -4.37 KCAL/MOL
REMARK 922        TOTAL FREE ENERGY PREDICTED BY IDOCK:   -5.31 KCAL/MOL
REMARK 923 INTER-LIGAND FREE ENERGY PREDICTED BY IDOCK:   -4.97 KCAL/MOL
REMARK 924 INTRA-LIGAND FREE ENERGY PREDICTED BY IDOCK:   -0.34 KCAL/MOL
REMARK 927      BINDING AFFINITY PREDICTED BY RF-SCORE:    0.00 PKD
ROOT
HETATM    1  C   UNL     1      -8.791   8.619  68.972  1.00  0.00    -0.138 C  
HETATM    2  C   UNL     1     -10.140   8.266  68.327  1.00  0.00    -0.198 C  
HETATM    3  O   UNL     1     -10.812   9.196  67.486  1.00  0.00    -0.242 OA 
HETATM    4  C   UNL     1     -10.332  10.536  67.325  1.00  0.00    -0.228 C  
HETATM    5  O   UNL     1     -11.412  11.457  67.559  1.00  0.00    -0.399 OA 
HETATM    6  C   UNL     1      -8.241   9.954  68.561  1.00  0.00    -0.106 C  
HETATM    7  C   UNL     1      -5.663   8.159  67.408  1.00  0.00    -0.039 C  
HETATM    8  C   UNL     1     -11.436  11.646  68.975  1.00  0.00    -0.294 C  
HETATM    9  C   UNL     1     -11.712  13.123  69.258  1.00  0.00    -0.376 C  
HETATM   10  O   UNL     1     -10.164  11.227  69.528  1.00  0.00    -0.043 OA 
HETATM   11  C   UNL     1      -7.702   7.532  66.149  1.00  0.00    -0.090 C  
HETATM   12  C   UNL     1     -12.583  10.813  69.546  1.00  0.00     0.055 C  
HETATM   13  O   UNL     1      -7.759   7.706  68.557  1.00  0.00    -0.113 OA 
HETATM   14  C   UNL     1      -7.183   8.282  67.379  1.00  0.00    -0.084 C  
HETATM   15  O   UNL     1      -7.539   9.675  67.331  1.00  0.00    -0.094 OA 
HETATM   16  C   UNL     1      -9.331  10.991  68.365  1.00  0.00    -0.179 C  
ENDROOT
BRANCH   4  17
HETATM   17  C   UNL     1      -9.856  10.727  65.881  1.00  0.00    -0.239 C  
BRANCH  17  18
HETATM   18  O   UNL     1     -10.990  10.921  65.040  1.00  0.00    -0.141 OA 
HETATM   19  H2  UNL     1     -13.163  11.379  63.427  1.00  0.00     0.000 HD 
HETATM   20  O   UNL     1     -10.286  12.950  63.797  1.00  0.00    -0.378 OA 
HETATM   21  N   UNL     1     -12.286  11.671  62.996  1.00  0.00    -0.956 N  
HETATM   22  O   UNL     1     -10.000  10.645  62.785  1.00  0.00    -0.266 OA 
HETATM   23  S   UNL     1     -10.724  11.590  63.592  1.00  0.00    -0.424 S  
HETATM   24  H1  UNL     1     -12.119  12.092  62.082  1.00  0.00     0.000 HD 
ENDBRANCH  17  18
ENDBRANCH   4  17
TORSDOF 2
ENDMDL
MODEL       79
REMARK 921   NORMALIZED FREE ENERGY PREDICTED BY IDOCK:   -4.35 KCAL/MOL
REMARK 922        TOTAL FREE ENERGY PREDICTED BY IDOCK:   -5.29 KCAL/MOL
REMARK 923 INTER-LIGAND FREE ENERGY PREDICTED BY IDOCK:   -4.84 KCAL/MOL
REMARK 924 INTRA-LIGAND FREE ENERGY PREDICTED BY IDOCK:   -0.45 KCAL/MOL
REMARK 927      BINDING AFFINITY PREDICTED BY RF-SCORE:    0.00 PKD
ROOT
HETATM    1  C   UNL     1      -9.691   5.460  68.280  1.00  0.00    -0.135 C  
HETATM    2  C   UNL     1     -10.962   6.256  67.947  1.00  0.00    -0.327 C  
HETATM    3  O   UNL     1     -11.161   7.565  68.470  1.00  0.00     0.041 OA 
HETATM    4  C   UNL     1     -10.260   8.126  69.432  1.00  0.00    -0.211 C  
HETATM    5  O   UNL     1     -11.014   8.623  70.552  1.00  0.00    -0.231 OA 
HETATM    6  C   UNL     1      -8.687   6.214  69.102  1.00  0.00    -0.121 C  
HETATM    7  C   UNL     1      -6.665   5.710  66.483  1.00  0.00    -0.058 C  
HETATM    8  C   UNL     1     -11.200   7.490  71.403  1.00  0.00    -0.242 C  
HETATM    9  C   UNL     1     -11.034   7.945  72.854  1.00  0.00    -0.452 C  
HETATM   10  O   UNL     1     -10.232   6.471  71.051  1.00  0.00    -0.187 OA 
HETATM   11  C   UNL     1      -8.571   7.119  65.764  1.00  0.00    -0.143 C  
HETATM   12  C   UNL     1     -12.628   6.981  71.209  1.00  0.00    -0.418 C  
HETATM   13  O   UNL     1      -8.951   5.137  67.089  1.00  0.00    -0.113 OA 
HETATM   14  C   UNL     1      -8.043   6.225  66.889  1.00  0.00    -0.109 C  
HETATM   15  O   UNL     1      -7.925   6.954  68.124  1.00  0.00    -0.112 OA 
HETATM   16  C   UNL     1      -9.345   7.133  70.115  1.00  0.00    -0.158 C  
ENDROOT
BRANCH   4  17
HETATM   17  C   UNL     1      -9.526   9.312  68.798  1.00  0.00    -0.150 C  
BRANCH  17  18
HETATM   18  O   UNL     1      -9.975  10.518  69.409  1.00  0.00    -0.222 OA 
HETATM   19  H2  UNL     1     -10.786  12.884  70.540  1.00  0.00     0.000 HD 
HETATM   20  O   UNL     1      -9.732  12.100  67.514  1.00  0.00    -0.181 OA 
HETATM   21  N   UNL     1     -11.005  12.829  69.546  1.00  0.00    -0.454 N  
HETATM   22  O   UNL     1     -11.978  11.057  68.051  1.00  0.00    -0.623 OA 
HETATM   23  S   UNL     1     -10.707  11.597  68.452  1.00  0.00    -0.229 S  
HETATM   24  H1  UNL     1     -11.467  13.510  68.943  1.00  0.00     0.000 HD 
ENDBRANCH  17  18
ENDBRANCH   4  17
TORSDOF 2
ENDMDL
MODEL       80
REMARK 921   NORMALIZED FREE ENERGY PREDICTED BY IDOCK:   -4.34 KCAL/MOL
REMARK 922        TOTAL FREE ENERGY PREDICTED BY IDOCK:   -5.28 KCAL/MOL
REMARK 923 INTER-LIGAND FREE ENERGY PREDICTED BY IDOCK:   -4.86 KCAL/MOL
REMARK 924 INTRA-LIGAND FREE ENERGY PREDICTED BY IDOCK:   -0.41 KCAL/MOL
REMARK 927      BINDING AFFINITY PREDICTED BY RF-SCORE:    0.00 PKD
ROOT
HETATM    1  C   UNL     1     -10.285  11.058  68.860  1.00  0.00    -0.203 C  
HETATM    2  C   UNL     1     -11.160  10.375  67.798  1.00  0.00    -0.299 C  
HETATM    3  O   UNL     1     -10.844  10.482  66.414  1.00  0.00    -0.146 OA 
HETATM    4  C   UNL     1      -9.792  11.339  65.956  1.00  0.00    -0.229 C  
HETATM    5  O   UNL     1     -10.294  12.183  64.904  1.00  0.00    -0.273 OA 
HETATM    6  C   UNL     1      -9.065  11.739  68.311  1.00  0.00    -0.187 C  
HETATM    7  C   UNL     1      -7.401   9.609  70.285  1.00  0.00    -0.153 C  
HETATM    8  C   UNL     1     -10.893  13.293  65.575  1.00  0.00    -0.284 C  
HETATM    9  C   UNL     1     -10.557  14.565  64.795  1.00  0.00    -0.401 C  
HETATM   10  O   UNL     1     -10.386  13.353  66.931  1.00  0.00    -0.253 OA 
HETATM   11  C   UNL     1      -8.633   8.315  68.570  1.00  0.00    -0.133 C  
HETATM   12  C   UNL     1     -12.408  13.094  65.563  1.00  0.00    -0.529 C  
HETATM   13  O   UNL     1      -9.730  10.096  69.775  1.00  0.00    -0.230 OA 
HETATM   14  C   UNL     1      -8.478   9.698  69.207  1.00  0.00    -0.150 C  
HETATM   15  O   UNL     1      -8.084  10.682  68.233  1.00  0.00    -0.109 OA 
HETATM   16  C   UNL     1      -9.319  12.371  66.955  1.00  0.00    -0.204 C  
ENDROOT
BRANCH   4  17
HETATM   17  C   UNL     1      -8.666  10.480  65.370  1.00  0.00    -0.183 C  
BRANCH  17  18
HETATM   18  O   UNL     1      -9.050   9.110  65.426  1.00  0.00    -0.207 OA 
HETATM   19  H2  UNL     1      -9.798   6.468  65.449  1.00  0.00     0.000 HD 
HETATM   20  O   UNL     1      -8.052   8.277  63.312  1.00  0.00    -0.159 OA 
HETATM   21  N   UNL     1      -8.900   6.618  64.988  1.00  0.00    -0.349 N  
HETATM   22  O   UNL     1      -6.850   7.972  65.522  1.00  0.00    -0.057 OA 
HETATM   23  S   UNL     1      -8.052   8.039  64.736  1.00  0.00    -0.122 S  
HETATM   24  H1  UNL     1      -8.271   5.942  64.554  1.00  0.00     0.000 HD 
ENDBRANCH  17  18
ENDBRANCH   4  17
TORSDOF 2
ENDMDL
MODEL       81
REMARK 921   NORMALIZED FREE ENERGY PREDICTED BY IDOCK:   -4.34 KCAL/MOL
REMARK 922        TOTAL FREE ENERGY PREDICTED BY IDOCK:   -5.27 KCAL/MOL
REMARK 923 INTER-LIGAND FREE ENERGY PREDICTED BY IDOCK:   -4.86 KCAL/MOL
REMARK 924 INTRA-LIGAND FREE ENERGY PREDICTED BY IDOCK:   -0.41 KCAL/MOL
REMARK 927      BINDING AFFINITY PREDICTED BY RF-SCORE:    0.00 PKD
ROOT
HETATM    1  C   UNL     1      -8.811   8.933  71.452  1.00  0.00    -0.213 C  
HETATM    2  C   UNL     1      -8.664   7.409  71.327  1.00  0.00    -0.126 C  
HETATM    3  O   UNL     1      -9.557   6.655  70.515  1.00  0.00    -0.168 OA 
HETATM    4  C   UNL     1     -10.701   7.263  69.904  1.00  0.00    -0.242 C  
HETATM    5  O   UNL     1     -11.870   6.483  70.207  1.00  0.00    -0.413 OA 
HETATM    6  C   UNL     1      -9.889   9.523  70.591  1.00  0.00    -0.262 C  
HETATM    7  C   UNL     1      -7.376  11.254  69.216  1.00  0.00    -0.068 C  
HETATM    8  C   UNL     1     -12.311   6.958  71.481  1.00  0.00    -0.376 C  
HETATM    9  C   UNL     1     -13.838   7.031  71.465  1.00  0.00    -0.359 C  
HETATM   10  O   UNL     1     -11.719   8.257  71.730  1.00  0.00    -0.270 OA 
HETATM   11  C   UNL     1      -7.015   8.842  68.787  1.00  0.00    -0.063 C  
HETATM   12  C   UNL     1     -11.878   5.945  72.541  1.00  0.00    -0.238 C  
HETATM   13  O   UNL     1      -7.627   9.610  70.992  1.00  0.00    -0.326 OA 
HETATM   14  C   UNL     1      -7.835   9.850  69.596  1.00  0.00    -0.154 C  
HETATM   15  O   UNL     1      -9.241   9.725  69.316  1.00  0.00    -0.168 OA 
HETATM   16  C   UNL     1     -11.094   8.610  70.470  1.00  0.00    -0.242 C  
ENDROOT
BRANCH   4  17
HETATM   17  C   UNL     1     -10.516   7.260  68.382  1.00  0.00    -0.195 C  
BRANCH  17  18
HETATM   18  O   UNL     1     -10.599   5.920  67.907  1.00  0.00    -0.218 OA 
HETATM   19  H2  UNL     1     -10.758   3.366  66.913  1.00  0.00     0.000 HD 
HETATM   20  O   UNL     1      -9.241   6.091  65.838  1.00  0.00    -0.146 OA 
HETATM   21  N   UNL     1      -9.873   3.820  66.688  1.00  0.00    -0.389 N  
HETATM   22  O   UNL     1      -8.226   5.208  67.985  1.00  0.00    -0.098 OA 
HETATM   23  S   UNL     1      -9.331   5.355  67.077  1.00  0.00    -0.127 S  
HETATM   24  H1  UNL     1      -9.073   3.464  66.165  1.00  0.00     0.000 HD 
ENDBRANCH  17  18
ENDBRANCH   4  17
TORSDOF 2
ENDMDL
MODEL       82
REMARK 921   NORMALIZED FREE ENERGY PREDICTED BY IDOCK:   -4.29 KCAL/MOL
REMARK 922        TOTAL FREE ENERGY PREDICTED BY IDOCK:   -5.21 KCAL/MOL
REMARK 923 INTER-LIGAND FREE ENERGY PREDICTED BY IDOCK:   -4.74 KCAL/MOL
REMARK 924 INTRA-LIGAND FREE ENERGY PREDICTED BY IDOCK:   -0.47 KCAL/MOL
REMARK 927      BINDING AFFINITY PREDICTED BY RF-SCORE:    0.00 PKD
ROOT
HETATM    1  C   UNL     1     -10.615   7.240  68.772  1.00  0.00    -0.181 C  
HETATM    2  C   UNL     1      -9.773   8.320  69.468  1.00  0.00    -0.174 C  
HETATM    3  O   UNL     1      -9.765   8.438  70.886  1.00  0.00    -0.164 OA 
HETATM    4  C   UNL     1     -10.645   7.656  71.702  1.00  0.00    -0.202 C  
HETATM    5  O   UNL     1     -11.345   8.525  72.611  1.00  0.00    -0.343 OA 
HETATM    6  C   UNL     1     -11.323   6.308  69.712  1.00  0.00    -0.436 C  
HETATM    7  C   UNL     1      -9.518   3.939  68.186  1.00  0.00    -0.219 C  
HETATM    8  C   UNL     1     -12.471   9.002  71.872  1.00  0.00    -0.384 C  
HETATM    9  C   UNL     1     -13.680   9.035  72.807  1.00  0.00    -0.299 C  
HETATM   10  O   UNL     1     -12.698   8.126  70.740  1.00  0.00     0.015 OA 
HETATM   11  C   UNL     1      -7.979   5.492  69.350  1.00  0.00    -0.094 C  
HETATM   12  C   UNL     1     -12.167  10.427  71.410  1.00  0.00    -0.461 C  
HETATM   13  O   UNL     1      -9.788   6.350  68.000  1.00  0.00    -0.120 OA 
HETATM   14  C   UNL     1      -9.426   5.289  68.890  1.00  0.00    -0.128 C  
HETATM   15  O   UNL     1     -10.335   5.297  70.006  1.00  0.00    -0.267 OA 
HETATM   16  C   UNL     1     -11.800   7.010  70.969  1.00  0.00    -0.351 C  
ENDROOT
BRANCH   4  17
HETATM   17  C   UNL     1      -9.814   6.676  72.537  1.00  0.00    -0.165 C  
BRANCH  17  18
HETATM   18  O   UNL     1      -8.431   6.927  72.307  1.00  0.00    -0.109 OA 
HETATM   19  H2  UNL     1      -5.777   7.490  71.884  1.00  0.00     0.000 HD 
HETATM   20  O   UNL     1      -7.993   8.654  74.034  1.00  0.00    -0.397 OA 
HETATM   21  N   UNL     1      -6.049   7.592  72.862  1.00  0.00    -0.054 N  
HETATM   22  O   UNL     1      -7.425   6.222  74.460  1.00  0.00    -0.096 OA 
HETATM   23  S   UNL     1      -7.540   7.358  73.586  1.00  0.00    -0.111 S  
HETATM   24  H1  UNL     1      -5.487   7.864  73.669  1.00  0.00     0.000 HD 
ENDBRANCH  17  18
ENDBRANCH   4  17
TORSDOF 2
ENDMDL
MODEL       83
REMARK 921   NORMALIZED FREE ENERGY PREDICTED BY IDOCK:   -4.26 KCAL/MOL
REMARK 922        TOTAL FREE ENERGY PREDICTED BY IDOCK:   -5.18 KCAL/MOL
REMARK 923 INTER-LIGAND FREE ENERGY PREDICTED BY IDOCK:   -4.76 KCAL/MOL
REMARK 924 INTRA-LIGAND FREE ENERGY PREDICTED BY IDOCK:   -0.42 KCAL/MOL
REMARK 927      BINDING AFFINITY PREDICTED BY RF-SCORE:    0.00 PKD
ROOT
HETATM    1  C   UNL     1     -10.625   8.695  67.469  1.00  0.00    -0.222 C  
HETATM    2  C   UNL     1     -10.622  10.078  68.137  1.00  0.00    -0.227 C  
HETATM    3  O   UNL     1      -9.985  10.279  69.393  1.00  0.00    -0.214 OA 
HETATM    4  C   UNL     1      -9.454   9.180  70.142  1.00  0.00    -0.208 C  
HETATM    5  O   UNL     1      -9.954   9.239  71.490  1.00  0.00    -0.307 OA 
HETATM    6  C   UNL     1      -9.840   7.650  68.207  1.00  0.00    -0.166 C  
HETATM    7  C   UNL     1      -8.045   7.490  65.387  1.00  0.00    -0.133 C  
HETATM    8  C   UNL     1     -11.222   8.581  71.442  1.00  0.00    -0.266 C  
HETATM    9  C   UNL     1     -11.370   7.731  72.705  1.00  0.00    -0.449 C  
HETATM   10  O   UNL     1     -11.286   7.768  70.244  1.00  0.00    -0.263 OA 
HETATM   11  C   UNL     1      -7.795   9.750  66.368  1.00  0.00    -0.106 C  
HETATM   12  C   UNL     1     -12.313   9.651  71.439  1.00  0.00    -0.468 C  
HETATM   13  O   UNL     1      -9.978   8.734  66.184  1.00  0.00    -0.275 OA 
HETATM   14  C   UNL     1      -8.598   8.448  66.437  1.00  0.00    -0.127 C  
HETATM   15  O   UNL     1      -8.489   7.835  67.735  1.00  0.00    -0.121 OA 
HETATM   16  C   UNL     1      -9.938   7.813  69.712  1.00  0.00    -0.189 C  
ENDROOT
BRANCH   4  17
HETATM   17  C   UNL     1      -7.927   9.308  70.203  1.00  0.00    -0.137 C  
BRANCH  17  18
HETATM   18  O   UNL     1      -7.572  10.684  70.115  1.00  0.00    -0.083 OA 
HETATM   19  H2  UNL     1      -6.863  13.334  70.024  1.00  0.00     0.000 HD 
HETATM   20  O   UNL     1      -5.598  10.737  71.617  1.00  0.00    -0.327 OA 
HETATM   21  N   UNL     1      -6.061  12.718  70.153  1.00  0.00    -0.293 N  
HETATM   22  O   UNL     1      -5.312  10.558  69.105  1.00  0.00    -0.039 OA 
HETATM   23  S   UNL     1      -6.004  11.049  70.267  1.00  0.00    -0.139 S  
HETATM   24  H1  UNL     1      -5.071  12.948  70.249  1.00  0.00     0.000 HD 
ENDBRANCH  17  18
ENDBRANCH   4  17
TORSDOF 2
ENDMDL
MODEL       84
REMARK 921   NORMALIZED FREE ENERGY PREDICTED BY IDOCK:   -4.22 KCAL/MOL
REMARK 922        TOTAL FREE ENERGY PREDICTED BY IDOCK:   -5.14 KCAL/MOL
REMARK 923 INTER-LIGAND FREE ENERGY PREDICTED BY IDOCK:   -4.72 KCAL/MOL
REMARK 924 INTRA-LIGAND FREE ENERGY PREDICTED BY IDOCK:   -0.42 KCAL/MOL
REMARK 927      BINDING AFFINITY PREDICTED BY RF-SCORE:    0.00 PKD
ROOT
HETATM    1  C   UNL     1     -11.989  13.062  69.376  1.00  0.00    -0.281 C  
HETATM    2  C   UNL     1     -10.484  12.795  69.227  1.00  0.00     0.246 C  
HETATM    3  O   UNL     1      -9.679  13.607  68.379  1.00  0.00    -0.224 OA 
HETATM    4  C   UNL     1     -10.263  14.602  67.531  1.00  0.00    -0.225 C  
HETATM    5  O   UNL     1      -9.775  14.425  66.189  1.00  0.00    -0.297 OA 
HETATM    6  C   UNL     1     -12.477  14.273  68.637  1.00  0.00     0.186 C  
HETATM    7  C   UNL     1     -13.381  15.347  71.675  1.00  0.00    -0.578 C  
HETATM    8  C   UNL     1     -10.636  13.443  65.610  1.00  0.00    -0.282 C  
HETATM    9  C   UNL     1     -10.928  13.850  64.165  1.00  0.00    -0.084 C  
HETATM   10  O   UNL     1     -11.852  13.360  66.395  1.00  0.00    -0.356 OA 
HETATM   11  C   UNL     1     -10.916  15.110  71.610  1.00  0.00    -0.032 C  
HETATM   12  C   UNL     1      -9.895  12.107  65.605  1.00  0.00    -0.256 C  
HETATM   13  O   UNL     1     -12.333  13.359  70.742  1.00  0.00    -0.353 OA 
HETATM   14  C   UNL     1     -12.216  14.780  70.870  1.00  0.00    -0.318 C  
HETATM   15  O   UNL     1     -12.230  15.361  69.554  1.00  0.00    -0.313 OA 
HETATM   16  C   UNL     1     -11.755  14.474  67.318  1.00  0.00    -0.406 C  
ENDROOT
BRANCH   4  17
HETATM   17  C   UNL     1      -9.821  15.990  68.011  1.00  0.00    -0.222 C  
BRANCH  17  18
HETATM   18  O   UNL     1      -9.303  16.721  66.904  1.00  0.00    -0.223 OA 
HETATM   19  H2  UNL     1      -8.302  18.200  64.819  1.00  0.00     0.000 HD 
HETATM   20  O   UNL     1      -7.793  18.303  68.078  1.00  0.00    -0.251 OA 
HETATM   21  N   UNL     1      -7.635  18.100  65.584  1.00  0.00    -0.016 N  
HETATM   22  O   UNL     1      -6.887  16.182  67.028  1.00  0.00    -0.202 OA 
HETATM   23  S   UNL     1      -7.797  17.295  67.043  1.00  0.00    -0.230 S  
HETATM   24  H1  UNL     1      -6.685  18.461  65.672  1.00  0.00     0.000 HD 
ENDBRANCH  17  18
ENDBRANCH   4  17
TORSDOF 2
ENDMDL
MODEL       85
REMARK 921   NORMALIZED FREE ENERGY PREDICTED BY IDOCK:   -4.21 KCAL/MOL
REMARK 922        TOTAL FREE ENERGY PREDICTED BY IDOCK:   -5.13 KCAL/MOL
REMARK 923 INTER-LIGAND FREE ENERGY PREDICTED BY IDOCK:   -4.71 KCAL/MOL
REMARK 924 INTRA-LIGAND FREE ENERGY PREDICTED BY IDOCK:   -0.42 KCAL/MOL
REMARK 927      BINDING AFFINITY PREDICTED BY RF-SCORE:    0.00 PKD
ROOT
HETATM    1  C   UNL     1     -11.761  11.406  68.000  1.00  0.00    -0.254 C  
HETATM    2  C   UNL     1     -11.019  10.871  69.234  1.00  0.00    -0.244 C  
HETATM    3  O   UNL     1      -9.722  10.297  69.114  1.00  0.00    -0.195 OA 
HETATM    4  C   UNL     1      -9.127  10.067  67.832  1.00  0.00    -0.131 C  
HETATM    5  O   UNL     1      -8.667   8.706  67.760  1.00  0.00    -0.135 OA 
HETATM    6  C   UNL     1     -10.968  11.344  66.727  1.00  0.00    -0.291 C  
HETATM    7  C   UNL     1     -11.374  14.666  66.709  1.00  0.00    -0.360 C  
HETATM    8  C   UNL     1      -9.810   7.951  67.353  1.00  0.00    -0.181 C  
HETATM    9  C   UNL     1      -9.354   6.891  66.351  1.00  0.00    -0.183 C  
HETATM   10  O   UNL     1     -10.785   8.850  66.770  1.00  0.00    -0.198 OA 
HETATM   11  C   UNL     1     -10.046  14.033  68.701  1.00  0.00    -0.217 C  
HETATM   12  C   UNL     1     -10.379   7.250  68.586  1.00  0.00    -0.208 C  
HETATM   13  O   UNL     1     -12.048  12.810  68.131  1.00  0.00    -0.288 OA 
HETATM   14  C   UNL     1     -10.920  13.490  67.568  1.00  0.00    -0.268 C  
HETATM   15  O   UNL     1     -10.192  12.562  66.744  1.00  0.00    -0.227 OA 
HETATM   16  C   UNL     1     -10.082  10.114  66.660  1.00  0.00    -0.223 C  
ENDROOT
BRANCH   4  17
HETATM   17  C   UNL     1      -7.907  10.983  67.675  1.00  0.00    -0.114 C  
BRANCH  17  18
HETATM   18  O   UNL     1      -7.495  10.979  66.312  1.00  0.00    -0.144 OA 
HETATM   19  H2  UNL     1      -6.658  11.043  63.698  1.00  0.00     0.000 HD 
HETATM   20  O   UNL     1      -5.228  11.965  66.525  1.00  0.00    -0.309 OA 
HETATM   21  N   UNL     1      -5.889  10.903  64.353  1.00  0.00    -0.356 N  
HETATM   22  O   UNL     1      -5.542   9.455  66.379  1.00  0.00    -0.050 OA 
HETATM   23  S   UNL     1      -5.914  10.797  66.024  1.00  0.00    -0.133 S  
HETATM   24  H1  UNL     1      -4.892  10.788  64.171  1.00  0.00     0.000 HD 
ENDBRANCH  17  18
ENDBRANCH   4  17
TORSDOF 2
ENDMDL
MODEL       86
REMARK 921   NORMALIZED FREE ENERGY PREDICTED BY IDOCK:   -4.20 KCAL/MOL
REMARK 922        TOTAL FREE ENERGY PREDICTED BY IDOCK:   -5.12 KCAL/MOL
REMARK 923 INTER-LIGAND FREE ENERGY PREDICTED BY IDOCK:   -4.90 KCAL/MOL
REMARK 924 INTRA-LIGAND FREE ENERGY PREDICTED BY IDOCK:   -0.22 KCAL/MOL
REMARK 927      BINDING AFFINITY PREDICTED BY RF-SCORE:    0.00 PKD
ROOT
HETATM    1  C   UNL     1      -9.588  10.525  68.347  1.00  0.00    -0.160 C  
HETATM    2  C   UNL     1      -8.387   9.903  69.074  1.00  0.00    -0.130 C  
HETATM    3  O   UNL     1      -8.274   8.491  69.220  1.00  0.00    -0.111 OA 
HETATM    4  C   UNL     1      -9.336   7.616  68.824  1.00  0.00    -0.148 C  
HETATM    5  O   UNL     1      -9.640   6.721  69.909  1.00  0.00    -0.156 OA 
HETATM    6  C   UNL     1     -10.537   9.525  67.753  1.00  0.00    -0.261 C  
HETATM    7  C   UNL     1      -9.760  11.012  64.857  1.00  0.00    -0.303 C  
HETATM    8  C   UNL     1     -10.556   7.441  70.736  1.00  0.00    -0.223 C  
HETATM    9  C   UNL     1     -11.631   6.469  71.222  1.00  0.00    -0.381 C  
HETATM   10  O   UNL     1     -11.130   8.528  69.968  1.00  0.00    -0.236 OA 
HETATM   11  C   UNL     1      -7.720   9.964  65.791  1.00  0.00    -0.112 C  
HETATM   12  C   UNL     1      -9.788   7.970  71.946  1.00  0.00    -0.251 C  
HETATM   13  O   UNL     1      -9.166  11.287  67.201  1.00  0.00    -0.160 OA 
HETATM   14  C   UNL     1      -9.164  10.366  66.104  1.00  0.00    -0.168 C  
HETATM   15  O   UNL     1      -9.959   9.222  66.465  1.00  0.00    -0.234 OA 
HETATM   16  C   UNL     1     -10.677   8.283  68.612  1.00  0.00    -0.027 C  
ENDROOT
BRANCH   4  17
HETATM   17  C   UNL     1      -8.869   6.769  67.635  1.00  0.00    -0.117 C  
BRANCH  17  18
HETATM   18  O   UNL     1     -10.010   6.275  66.940  1.00  0.00    -0.149 OA 
HETATM   19  H2  UNL     1     -12.169   5.336  65.527  1.00  0.00     0.000 HD 
HETATM   20  O   UNL     1      -8.915   5.165  65.010  1.00  0.00    -0.156 OA 
HETATM   21  N   UNL     1     -11.348   4.738  65.433  1.00  0.00    -0.977 N  
HETATM   22  O   UNL     1      -9.638   3.826  67.035  1.00  0.00    -0.206 OA 
HETATM   23  S   UNL     1      -9.822   4.904  66.102  1.00  0.00    -0.228 S  
HETATM   24  H1  UNL     1     -11.230   3.873  64.904  1.00  0.00     0.000 HD 
ENDBRANCH  17  18
ENDBRANCH   4  17
TORSDOF 2
ENDMDL
MODEL       87
REMARK 921   NORMALIZED FREE ENERGY PREDICTED BY IDOCK:   -4.20 KCAL/MOL
REMARK 922        TOTAL FREE ENERGY PREDICTED BY IDOCK:   -5.12 KCAL/MOL
REMARK 923 INTER-LIGAND FREE ENERGY PREDICTED BY IDOCK:   -4.76 KCAL/MOL
REMARK 924 INTRA-LIGAND FREE ENERGY PREDICTED BY IDOCK:   -0.36 KCAL/MOL
REMARK 927      BINDING AFFINITY PREDICTED BY RF-SCORE:    0.00 PKD
ROOT
HETATM    1  C   UNL     1      -9.941   7.844  72.563  1.00  0.00    -0.249 C  
HETATM    2  C   UNL     1      -8.662   7.171  72.043  1.00  0.00    -0.122 C  
HETATM    3  O   UNL     1      -8.729   5.989  71.254  1.00  0.00    -0.134 OA 
HETATM    4  C   UNL     1      -9.971   5.309  71.038  1.00  0.00    -0.201 C  
HETATM    5  O   UNL     1      -9.809   3.915  71.355  1.00  0.00    -0.182 OA 
HETATM    6  C   UNL     1     -11.213   7.202  72.092  1.00  0.00    -0.255 C  
HETATM    7  C   UNL     1     -11.829  10.199  70.736  1.00  0.00    -0.443 C  
HETATM    8  C   UNL     1     -10.020   3.831  72.766  1.00  0.00    -0.153 C  
HETATM    9  C   UNL     1     -10.828   2.565  73.057  1.00  0.00    -0.209 C  
HETATM   10  O   UNL     1     -10.718   5.021  73.210  1.00  0.00    -0.207 OA 
HETATM   11  C   UNL     1      -9.812   9.236  69.668  1.00  0.00    -0.196 C  
HETATM   12  C   UNL     1      -8.655   3.710  73.444  1.00  0.00    -0.083 C  
HETATM   13  O   UNL     1     -10.060   9.191  72.069  1.00  0.00    -0.279 OA 
HETATM   14  C   UNL     1     -10.787   9.089  70.840  1.00  0.00    -0.258 C  
HETATM   15  O   UNL     1     -11.455   7.815  70.808  1.00  0.00    -0.280 OA 
HETATM   16  C   UNL     1     -11.090   5.694  71.981  1.00  0.00    -0.230 C  
ENDROOT
BRANCH   4  17
HETATM   17  C   UNL     1     -10.347   5.411  69.555  1.00  0.00    -0.280 C  
BRANCH  17  18
HETATM   18  O   UNL     1     -10.017   4.187  68.907  1.00  0.00    -0.089 OA 
HETATM   19  H2  UNL     1      -9.446   1.839  67.604  1.00  0.00     0.000 HD 
HETATM   20  O   UNL     1     -10.617   4.743  66.564  1.00  0.00    -0.259 OA 
HETATM   21  N   UNL     1      -9.299   2.659  67.016  1.00  0.00    -0.362 N  
HETATM   22  O   UNL     1      -8.217   4.902  67.361  1.00  0.00    -0.105 OA 
HETATM   23  S   UNL     1      -9.513   4.281  67.373  1.00  0.00    -0.183 S  
HETATM   24  H1  UNL     1      -8.981   2.718  66.049  1.00  0.00     0.000 HD 
ENDBRANCH  17  18
ENDBRANCH   4  17
TORSDOF 2
ENDMDL
MODEL       88
REMARK 921   NORMALIZED FREE ENERGY PREDICTED BY IDOCK:   -4.20 KCAL/MOL
REMARK 922        TOTAL FREE ENERGY PREDICTED BY IDOCK:   -5.12 KCAL/MOL
REMARK 923 INTER-LIGAND FREE ENERGY PREDICTED BY IDOCK:   -4.61 KCAL/MOL
REMARK 924 INTRA-LIGAND FREE ENERGY PREDICTED BY IDOCK:   -0.51 KCAL/MOL
REMARK 927      BINDING AFFINITY PREDICTED BY RF-SCORE:    0.00 PKD
ROOT
HETATM    1  C   UNL     1     -12.812  13.386  66.436  1.00  0.00     0.340 C  
HETATM    2  C   UNL     1     -12.275  14.265  67.576  1.00  0.00    -0.202 C  
HETATM    3  O   UNL     1     -11.082  13.914  68.268  1.00  0.00    -0.241 OA 
HETATM    4  C   UNL     1     -10.422  12.666  68.026  1.00  0.00    -0.224 C  
HETATM    5  O   UNL     1     -10.181  12.007  69.282  1.00  0.00     0.058 OA 
HETATM    6  C   UNL     1     -11.931  12.222  66.086  1.00  0.00    -0.249 C  
HETATM    7  C   UNL     1     -11.797  13.664  63.069  1.00  0.00     0.589 C  
HETATM    8  C   UNL     1     -11.391  11.300  69.565  1.00  0.00    -0.294 C  
HETATM    9  C   UNL     1     -11.025   9.937  70.152  1.00  0.00    -0.356 C  
HETATM   10  O   UNL     1     -12.155  11.164  68.341  1.00  0.00    -0.605 OA 
HETATM   11  C   UNL     1     -10.765  15.184  64.730  1.00  0.00    -0.344 C  
HETATM   12  C   UNL     1     -12.170  12.094  70.612  1.00  0.00    -0.392 C  
HETATM   13  O   UNL     1     -12.880  14.119  65.200  1.00  0.00    -0.686 OA 
HETATM   14  C   UNL     1     -11.614  13.921  64.562  1.00  0.00    -0.393 C  
HETATM   15  O   UNL     1     -10.975  12.779  65.159  1.00  0.00    -0.283 OA 
HETATM   16  C   UNL     1     -11.252  11.627  67.305  1.00  0.00    -0.304 C  
ENDROOT
BRANCH   4  17
HETATM   17  C   UNL     1      -9.062  12.938  67.371  1.00  0.00    -0.197 C  
BRANCH  17  18
HETATM   18  O   UNL     1      -8.764  14.326  67.479  1.00  0.00    -0.177 OA 
HETATM   19  H2  UNL     1      -8.190  16.995  67.771  1.00  0.00     0.000 HD 
HETATM   20  O   UNL     1      -7.349  14.325  69.517  1.00  0.00    -0.076 OA 
HETATM   21  N   UNL     1      -7.437  16.393  68.105  1.00  0.00    -0.146 N  
HETATM   22  O   UNL     1      -6.300  14.336  67.211  1.00  0.00    -0.296 OA 
HETATM   23  S   UNL     1      -7.337  14.722  68.129  1.00  0.00    -0.134 S  
HETATM   24  H1  UNL     1      -6.536  16.643  68.514  1.00  0.00     0.000 HD 
ENDBRANCH  17  18
ENDBRANCH   4  17
TORSDOF 2
ENDMDL
MODEL       89
REMARK 921   NORMALIZED FREE ENERGY PREDICTED BY IDOCK:   -4.15 KCAL/MOL
REMARK 922        TOTAL FREE ENERGY PREDICTED BY IDOCK:   -5.06 KCAL/MOL
REMARK 923 INTER-LIGAND FREE ENERGY PREDICTED BY IDOCK:   -4.55 KCAL/MOL
REMARK 924 INTRA-LIGAND FREE ENERGY PREDICTED BY IDOCK:   -0.50 KCAL/MOL
REMARK 927      BINDING AFFINITY PREDICTED BY RF-SCORE:    0.00 PKD
ROOT
HETATM    1  C   UNL     1      -9.008   9.226  68.470  1.00  0.00    -0.129 C  
HETATM    2  C   UNL     1     -10.332   8.725  67.875  1.00  0.00    -0.224 C  
HETATM    3  O   UNL     1     -11.491   9.552  67.877  1.00  0.00     0.180 OA 
HETATM    4  C   UNL     1     -11.503  10.813  68.555  1.00  0.00    -0.292 C  
HETATM    5  O   UNL     1     -12.654  10.877  69.416  1.00  0.00    -0.335 OA 
HETATM    6  C   UNL     1      -9.042  10.649  68.945  1.00  0.00    -0.176 C  
HETATM    7  C   UNL     1      -6.617  11.109  66.685  1.00  0.00    -0.137 C  
HETATM    8  C   UNL     1     -12.242  10.241  70.628  1.00  0.00    -0.329 C  
HETATM    9  C   UNL     1     -12.818  11.031  71.804  1.00  0.00    -0.496 C  
HETATM   10  O   UNL     1     -10.795  10.201  70.672  1.00  0.00    -0.308 OA 
HETATM   11  C   UNL     1      -8.691  10.438  65.509  1.00  0.00    -0.190 C  
HETATM   12  C   UNL     1     -12.831   8.831  70.648  1.00  0.00     0.404 C  
HETATM   13  O   UNL     1      -7.965   9.244  67.478  1.00  0.00    -0.099 OA 
HETATM   14  C   UNL     1      -8.021  10.545  66.881  1.00  0.00    -0.121 C  
HETATM   15  O   UNL     1      -8.758  11.418  67.757  1.00  0.00    -0.130 OA 
HETATM   16  C   UNL     1     -10.383  11.022  69.550  1.00  0.00    -0.040 C  
ENDROOT
BRANCH   4  17
HETATM   17  C   UNL     1     -11.631  11.936  67.519  1.00  0.00    -0.304 C  
BRANCH  17  18
HETATM   18  O   UNL     1     -12.125  13.107  68.162  1.00  0.00    -0.319 OA 
HETATM   19  H2  UNL     1     -13.009  15.366  69.448  1.00  0.00     0.000 HD 
HETATM   20  O   UNL     1     -10.003  14.326  68.571  1.00  0.00    -0.226 OA 
HETATM   21  N   UNL     1     -12.176  15.536  68.885  1.00  0.00    -0.608 N  
HETATM   22  O   UNL     1     -11.452  14.881  66.567  1.00  0.00    -0.345 OA 
HETATM   23  S   UNL     1     -11.292  14.475  67.937  1.00  0.00    -0.325 S  
HETATM   24  H1  UNL     1     -11.650  16.399  68.743  1.00  0.00     0.000 HD 
ENDBRANCH  17  18
ENDBRANCH   4  17
TORSDOF 2
ENDMDL
MODEL       90
REMARK 921   NORMALIZED FREE ENERGY PREDICTED BY IDOCK:   -4.14 KCAL/MOL
REMARK 922        TOTAL FREE ENERGY PREDICTED BY IDOCK:   -5.05 KCAL/MOL
REMARK 923 INTER-LIGAND FREE ENERGY PREDICTED BY IDOCK:   -4.60 KCAL/MOL
REMARK 924 INTRA-LIGAND FREE ENERGY PREDICTED BY IDOCK:   -0.45 KCAL/MOL
REMARK 927      BINDING AFFINITY PREDICTED BY RF-SCORE:    0.00 PKD
ROOT
HETATM    1  C   UNL     1      -9.988  11.206  69.054  1.00  0.00    -0.137 C  
HETATM    2  C   UNL     1      -8.611  10.718  68.583  1.00  0.00    -0.151 C  
HETATM    3  O   UNL     1      -8.496   9.657  67.640  1.00  0.00    -0.124 OA 
HETATM    4  C   UNL     1      -9.645   8.918  67.211  1.00  0.00    -0.164 C  
HETATM    5  O   UNL     1      -9.383   7.510  67.355  1.00  0.00    -0.136 OA 
HETATM    6  C   UNL     1     -11.147  10.538  68.375  1.00  0.00    -0.281 C  
HETATM    7  C   UNL     1     -11.914  13.638  67.374  1.00  0.00    -0.413 C  
HETATM    8  C   UNL     1      -9.712   7.211  68.713  1.00  0.00    -0.145 C  
HETATM    9  C   UNL     1     -10.421   5.857  68.749  1.00  0.00    -0.314 C  
HETATM   10  O   UNL     1     -10.554   8.267  69.238  1.00  0.00    -0.223 OA 
HETATM   11  C   UNL     1      -9.729  12.999  66.398  1.00  0.00    -0.268 C  
HETATM   12  C   UNL     1      -8.409   7.105  69.504  1.00  0.00    -0.133 C  
HETATM   13  O   UNL     1     -10.187  12.595  68.734  1.00  0.00    -0.185 OA 
HETATM   14  C   UNL     1     -10.787  12.611  67.435  1.00  0.00    -0.243 C  
HETATM   15  O   UNL     1     -11.329  11.305  67.166  1.00  0.00    -0.379 OA 
HETATM   16  C   UNL     1     -10.875   9.075  68.077  1.00  0.00    -0.041 C  
ENDROOT
BRANCH   4  17
HETATM   17  C   UNL     1      -9.893   9.198  65.724  1.00  0.00    -0.178 C  
BRANCH  17  18
HETATM   18  O   UNL     1      -8.753   9.854  65.178  1.00  0.00    -0.145 OA 
HETATM   19  H2  UNL     1      -6.517  11.042  64.117  1.00  0.00     0.000 HD 
HETATM   20  O   UNL     1      -8.008   8.159  63.526  1.00  0.00    -0.149 OA 
HETATM   21  N   UNL     1      -7.007  10.455  63.442  1.00  0.00    -0.302 N  
HETATM   22  O   UNL     1      -9.420  10.138  62.808  1.00  0.00    -0.300 OA 
HETATM   23  S   UNL     1      -8.400   9.545  63.630  1.00  0.00    -0.191 S  
HETATM   24  H1  UNL     1      -6.784  10.261  62.466  1.00  0.00     0.000 HD 
ENDBRANCH  17  18
ENDBRANCH   4  17
TORSDOF 2
ENDMDL
MODEL       91
REMARK 921   NORMALIZED FREE ENERGY PREDICTED BY IDOCK:   -4.11 KCAL/MOL
REMARK 922        TOTAL FREE ENERGY PREDICTED BY IDOCK:   -5.02 KCAL/MOL
REMARK 923 INTER-LIGAND FREE ENERGY PREDICTED BY IDOCK:   -4.56 KCAL/MOL
REMARK 924 INTRA-LIGAND FREE ENERGY PREDICTED BY IDOCK:   -0.46 KCAL/MOL
REMARK 927      BINDING AFFINITY PREDICTED BY RF-SCORE:    0.00 PKD
ROOT
HETATM    1  C   UNL     1     -10.728   9.069  67.472  1.00  0.00    -0.169 C  
HETATM    2  C   UNL     1     -10.678  10.429  68.185  1.00  0.00    -0.236 C  
HETATM    3  O   UNL     1     -10.051  10.564  69.455  1.00  0.00    -0.222 OA 
HETATM    4  C   UNL     1      -9.573   9.421  70.173  1.00  0.00    -0.238 C  
HETATM    5  O   UNL     1     -10.089   9.457  71.516  1.00  0.00    -0.288 OA 
HETATM    6  C   UNL     1      -9.995   7.970  68.185  1.00  0.00    -0.185 C  
HETATM    7  C   UNL     1      -8.170   7.830  65.382  1.00  0.00    -0.140 C  
HETATM    8  C   UNL     1     -11.380   8.851  71.432  1.00  0.00    -0.309 C  
HETATM    9  C   UNL     1     -11.578   7.967  72.664  1.00  0.00    -0.448 C  
HETATM   10  O   UNL     1     -11.461   8.081  70.207  1.00  0.00    -0.205 OA 
HETATM   11  C   UNL     1      -7.844  10.046  66.440  1.00  0.00    -0.113 C  
HETATM   12  C   UNL     1     -12.428   9.963  71.451  1.00  0.00    -0.495 C  
HETATM   13  O   UNL     1     -10.062   9.124  66.197  1.00  0.00    -0.290 OA 
HETATM   14  C   UNL     1      -8.698   8.775  66.457  1.00  0.00    -0.120 C  
HETATM   15  O   UNL     1      -8.630   8.117  67.735  1.00  0.00    -0.130 OA 
HETATM   16  C   UNL     1     -10.105   8.088  69.693  1.00  0.00    -0.198 C  
ENDROOT
BRANCH   4  17
HETATM   17  C   UNL     1      -8.044   9.485  70.257  1.00  0.00    -0.181 C  
BRANCH  17  18
HETATM   18  O   UNL     1      -7.558   8.274  70.828  1.00  0.00    -0.066 OA 
HETATM   19  H2  UNL     1      -6.543   5.963  71.908  1.00  0.00     0.000 HD 
HETATM   20  O   UNL     1      -5.386   9.049  71.745  1.00  0.00    -0.042 OA 
HETATM   21  N   UNL     1      -6.253   6.796  72.420  1.00  0.00    -0.045 N  
HETATM   22  O   UNL     1      -7.430   8.865  73.232  1.00  0.00    -0.362 OA 
HETATM   23  S   UNL     1      -6.618   8.405  72.137  1.00  0.00    -0.081 S  
HETATM   24  H1  UNL     1      -5.660   6.879  73.246  1.00  0.00     0.000 HD 
ENDBRANCH  17  18
ENDBRANCH   4  17
TORSDOF 2
ENDMDL
MODEL       92
REMARK 921   NORMALIZED FREE ENERGY PREDICTED BY IDOCK:   -4.07 KCAL/MOL
REMARK 922        TOTAL FREE ENERGY PREDICTED BY IDOCK:   -4.97 KCAL/MOL
REMARK 923 INTER-LIGAND FREE ENERGY PREDICTED BY IDOCK:   -4.62 KCAL/MOL
REMARK 924 INTRA-LIGAND FREE ENERGY PREDICTED BY IDOCK:   -0.36 KCAL/MOL
REMARK 927      BINDING AFFINITY PREDICTED BY RF-SCORE:    0.00 PKD
ROOT
HETATM    1  C   UNL     1     -10.352  10.207  67.209  1.00  0.00    -0.237 C  
HETATM    2  C   UNL     1     -10.187  11.032  65.924  1.00  0.00    -0.254 C  
HETATM    3  O   UNL     1      -9.711  12.372  65.974  1.00  0.00    -0.250 OA 
HETATM    4  C   UNL     1      -9.508  13.043  67.223  1.00  0.00    -0.224 C  
HETATM    5  O   UNL     1     -10.178  14.316  67.192  1.00  0.00    -0.251 OA 
HETATM    6  C   UNL     1      -9.891  10.905  68.455  1.00  0.00    -0.184 C  
HETATM    7  C   UNL     1      -7.769   8.328  68.708  1.00  0.00    -0.114 C  
HETATM    8  C   UNL     1     -11.525  14.034  67.574  1.00  0.00    -0.343 C  
HETATM    9  C   UNL     1     -12.010  15.157  68.492  1.00  0.00    -0.243 C  
HETATM   10  O   UNL     1     -11.567  12.748  68.241  1.00  0.00    -0.290 OA 
HETATM   11  C   UNL     1      -7.246   9.597  66.646  1.00  0.00    -0.086 C  
HETATM   12  C   UNL     1     -12.385  14.025  66.311  1.00  0.00    -0.482 C  
HETATM   13  O   UNL     1      -9.530   9.026  67.180  1.00  0.00    -0.142 OA 
HETATM   14  C   UNL     1      -8.279   9.410  67.760  1.00  0.00    -0.114 C  
HETATM   15  O   UNL     1      -8.474  10.628  68.502  1.00  0.00    -0.121 OA 
HETATM   16  C   UNL     1     -10.171  12.395  68.419  1.00  0.00    -0.225 C  
ENDROOT
BRANCH   4  17
HETATM   17  C   UNL     1      -8.010  13.306  67.412  1.00  0.00    -0.170 C  
BRANCH  17  18
HETATM   18  O   UNL     1      -7.801  14.704  67.583  1.00  0.00    -0.149 OA 
HETATM   19  H2  UNL     1      -7.405  17.389  67.997  1.00  0.00     0.000 HD 
HETATM   20  O   UNL     1      -6.496  14.710  69.693  1.00  0.00    -0.126 OA 
HETATM   21  N   UNL     1      -6.635  16.820  68.349  1.00  0.00    -0.145 N  
HETATM   22  O   UNL     1      -5.332  14.868  67.448  1.00  0.00    -0.339 OA 
HETATM   23  S   UNL     1      -6.436  15.158  68.322  1.00  0.00    -0.126 S  
HETATM   24  H1  UNL     1      -5.774  17.107  68.815  1.00  0.00     0.000 HD 
ENDBRANCH  17  18
ENDBRANCH   4  17
TORSDOF 2
ENDMDL
MODEL       93
REMARK 921   NORMALIZED FREE ENERGY PREDICTED BY IDOCK:   -4.07 KCAL/MOL
REMARK 922        TOTAL FREE ENERGY PREDICTED BY IDOCK:   -4.97 KCAL/MOL
REMARK 923 INTER-LIGAND FREE ENERGY PREDICTED BY IDOCK:   -4.52 KCAL/MOL
REMARK 924 INTRA-LIGAND FREE ENERGY PREDICTED BY IDOCK:   -0.44 KCAL/MOL
REMARK 927      BINDING AFFINITY PREDICTED BY RF-SCORE:    0.00 PKD
ROOT
HETATM    1  C   UNL     1     -10.116   5.503  69.665  1.00  0.00    -0.239 C  
HETATM    2  C   UNL     1     -11.306   6.305  70.212  1.00  0.00    -0.388 C  
HETATM    3  O   UNL     1     -11.134   7.637  70.682  1.00  0.00    -0.250 OA 
HETATM    4  C   UNL     1      -9.832   8.223  70.794  1.00  0.00    -0.179 C  
HETATM    5  O   UNL     1      -9.675   8.779  72.111  1.00  0.00    -0.307 OA 
HETATM    6  C   UNL     1      -8.830   6.274  69.595  1.00  0.00    -0.136 C  
HETATM    7  C   UNL     1      -9.011   5.628  66.316  1.00  0.00    -0.141 C  
HETATM    8  C   UNL     1      -9.241   7.687  72.924  1.00  0.00    -0.188 C  
HETATM    9  C   UNL     1      -8.172   8.200  73.889  1.00  0.00    -0.311 C  
HETATM   10  O   UNL     1      -8.725   6.638  72.067  1.00  0.00    -0.128 OA 
HETATM   11  C   UNL     1     -10.944   7.036  66.963  1.00  0.00    -0.357 C  
HETATM   12  C   UNL     1     -10.439   7.193  73.734  1.00  0.00    -0.371 C  
HETATM   13  O   UNL     1     -10.333   5.117  68.295  1.00  0.00    -0.146 OA 
HETATM   14  C   UNL     1      -9.794   6.182  67.503  1.00  0.00    -0.125 C  
HETATM   15  O   UNL     1      -8.907   6.960  68.327  1.00  0.00    -0.123 OA 
HETATM   16  C   UNL     1      -8.678   7.245  70.751  1.00  0.00    -0.146 C  
ENDROOT
BRANCH   4  17
HETATM   17  C   UNL     1      -9.711   9.370  69.784  1.00  0.00    -0.199 C  
BRANCH  17  18
HETATM   18  O   UNL     1      -8.629  10.214  70.165  1.00  0.00    -0.104 OA 
HETATM   19  H2  UNL     1      -6.491  11.791  70.857  1.00  0.00     0.000 HD 
HETATM   20  O   UNL     1      -7.238  10.118  68.113  1.00  0.00    -0.079 OA 
HETATM   21  N   UNL     1      -6.704  11.834  69.860  1.00  0.00    -0.346 N  
HETATM   22  O   UNL     1      -8.819  12.056  68.518  1.00  0.00    -0.166 OA 
HETATM   23  S   UNL     1      -7.902  11.053  68.990  1.00  0.00    -0.093 S  
HETATM   24  H1  UNL     1      -6.246  12.364  69.118  1.00  0.00     0.000 HD 
ENDBRANCH  17  18
ENDBRANCH   4  17
TORSDOF 2
ENDMDL
MODEL       94
REMARK 921   NORMALIZED FREE ENERGY PREDICTED BY IDOCK:   -4.06 KCAL/MOL
REMARK 922        TOTAL FREE ENERGY PREDICTED BY IDOCK:   -4.95 KCAL/MOL
REMARK 923 INTER-LIGAND FREE ENERGY PREDICTED BY IDOCK:   -4.63 KCAL/MOL
REMARK 924 INTRA-LIGAND FREE ENERGY PREDICTED BY IDOCK:   -0.33 KCAL/MOL
REMARK 927      BINDING AFFINITY PREDICTED BY RF-SCORE:    0.00 PKD
ROOT
HETATM    1  C   UNL     1     -11.504   6.412  70.207  1.00  0.00    -0.402 C  
HETATM    2  C   UNL     1     -10.265   5.577  70.565  1.00  0.00    -0.242 C  
HETATM    3  O   UNL     1      -8.955   6.086  70.346  1.00  0.00    -0.145 OA 
HETATM    4  C   UNL     1      -8.743   7.324  69.657  1.00  0.00    -0.141 C  
HETATM    5  O   UNL     1      -7.784   7.122  68.604  1.00  0.00    -0.114 OA 
HETATM    6  C   UNL     1     -11.196   7.794  69.711  1.00  0.00    -0.007 C  
HETATM    7  C   UNL     1     -12.991   8.780  72.358  1.00  0.00    -0.442 C  
HETATM    8  C   UNL     1      -8.548   6.647  67.494  1.00  0.00    -0.120 C  
HETATM    9  C   UNL     1      -8.007   7.302  66.223  1.00  0.00    -0.110 C  
HETATM   10  O   UNL     1      -9.943   6.973  67.708  1.00  0.00    -0.140 OA 
HETATM   11  C   UNL     1     -10.980   7.576  73.158  1.00  0.00    -0.420 C  
HETATM   12  C   UNL     1      -8.347   5.135  67.392  1.00  0.00    -0.106 C  
HETATM   13  O   UNL     1     -12.318   6.662  71.368  1.00  0.00    -0.351 OA 
HETATM   14  C   UNL     1     -11.832   7.888  71.924  1.00  0.00    -0.301 C  
HETATM   15  O   UNL     1     -11.063   8.574  70.919  1.00  0.00    -0.243 OA 
HETATM   16  C   UNL     1      -9.931   7.836  68.873  1.00  0.00    -0.182 C  
ENDROOT
BRANCH   4  17
HETATM   17  C   UNL     1      -8.157   8.347  70.636  1.00  0.00    -0.114 C  
BRANCH  17  18
HETATM   18  O   UNL     1      -8.331   9.655  70.100  1.00  0.00    -0.173 OA 
HETATM   19  H2  UNL     1      -8.632  12.209  69.137  1.00  0.00     0.000 HD 
HETATM   20  O   UNL     1      -6.314  10.783  71.003  1.00  0.00    -0.346 OA 
HETATM   21  N   UNL     1      -7.653  11.935  69.225  1.00  0.00    -0.337 N  
HETATM   22  O   UNL     1      -6.341   9.872  68.639  1.00  0.00    -0.046 OA 
HETATM   23  S   UNL     1      -6.990  10.494  69.761  1.00  0.00    -0.146 S  
HETATM   24  H1  UNL     1      -6.807  12.464  69.011  1.00  0.00     0.000 HD 
ENDBRANCH  17  18
ENDBRANCH   4  17
TORSDOF 2
ENDMDL
MODEL       95
REMARK 921   NORMALIZED FREE ENERGY PREDICTED BY IDOCK:   -4.05 KCAL/MOL
REMARK 922        TOTAL FREE ENERGY PREDICTED BY IDOCK:   -4.95 KCAL/MOL
REMARK 923 INTER-LIGAND FREE ENERGY PREDICTED BY IDOCK:   -4.43 KCAL/MOL
REMARK 924 INTRA-LIGAND FREE ENERGY PREDICTED BY IDOCK:   -0.52 KCAL/MOL
REMARK 927      BINDING AFFINITY PREDICTED BY RF-SCORE:    0.00 PKD
ROOT
HETATM    1  C   UNL     1     -11.513  11.253  67.997  1.00  0.00    -0.298 C  
HETATM    2  C   UNL     1     -10.384  11.749  68.912  1.00  0.00    -0.128 C  
HETATM    3  O   UNL     1      -9.078  11.191  68.827  1.00  0.00    -0.177 OA 
HETATM    4  C   UNL     1      -8.806  10.058  67.994  1.00  0.00    -0.125 C  
HETATM    5  O   UNL     1      -8.124   9.054  68.766  1.00  0.00    -0.103 OA 
HETATM    6  C   UNL     1     -11.085  10.228  66.987  1.00  0.00    -0.032 C  
HETATM    7  C   UNL     1     -12.126  12.491  64.750  1.00  0.00    -0.497 C  
HETATM    8  C   UNL     1      -9.162   8.316  69.413  1.00  0.00    -0.155 C  
HETATM    9  C   UNL     1      -8.786   6.835  69.389  1.00  0.00    -0.135 C  
HETATM   10  O   UNL     1     -10.413   8.559  68.723  1.00  0.00    -0.217 OA 
HETATM   11  C   UNL     1     -10.224  13.438  66.023  1.00  0.00    -0.301 C  
HETATM   12  C   UNL     1      -9.239   8.781  70.867  1.00  0.00    -0.261 C  
HETATM   13  O   UNL     1     -12.025  12.318  67.176  1.00  0.00    -0.564 OA 
HETATM   14  C   UNL     1     -11.241  12.295  65.978  1.00  0.00    -0.332 C  
HETATM   15  O   UNL     1     -10.587  11.017  65.884  1.00  0.00    -0.252 OA 
HETATM   16  C   UNL     1     -10.025   9.290  67.532  1.00  0.00    -0.202 C  
ENDROOT
BRANCH   4  17
HETATM   17  C   UNL     1      -7.875  10.486  66.854  1.00  0.00    -0.117 C  
BRANCH  17  18
HETATM   18  O   UNL     1      -7.216   9.336  66.335  1.00  0.00    -0.087 OA 
HETATM   19  H2  UNL     1      -6.019   7.091  65.302  1.00  0.00     0.000 HD 
HETATM   20  O   UNL     1      -8.507   8.983  64.246  1.00  0.00    -0.176 OA 
HETATM   21  N   UNL     1      -6.369   7.717  64.578  1.00  0.00    -0.048 N  
HETATM   22  O   UNL     1      -6.286  10.203  64.207  1.00  0.00    -0.127 OA 
HETATM   23  S   UNL     1      -7.160   9.185  64.725  1.00  0.00    -0.099 S  
HETATM   24  H1  UNL     1      -6.334   7.622  63.562  1.00  0.00     0.000 HD 
ENDBRANCH  17  18
ENDBRANCH   4  17
TORSDOF 2
ENDMDL
MODEL       96
REMARK 921   NORMALIZED FREE ENERGY PREDICTED BY IDOCK:   -4.04 KCAL/MOL
REMARK 922        TOTAL FREE ENERGY PREDICTED BY IDOCK:   -4.94 KCAL/MOL
REMARK 923 INTER-LIGAND FREE ENERGY PREDICTED BY IDOCK:   -4.58 KCAL/MOL
REMARK 924 INTRA-LIGAND FREE ENERGY PREDICTED BY IDOCK:   -0.36 KCAL/MOL
REMARK 927      BINDING AFFINITY PREDICTED BY RF-SCORE:    0.00 PKD
ROOT
HETATM    1  C   UNL     1     -11.687   7.197  70.349  1.00  0.00    -0.230 C  
HETATM    2  C   UNL     1     -10.755   7.271  69.130  1.00  0.00    -0.185 C  
HETATM    3  O   UNL     1      -9.777   8.299  69.021  1.00  0.00    -0.162 OA 
HETATM    4  C   UNL     1      -9.721   9.375  69.964  1.00  0.00    -0.224 C  
HETATM    5  O   UNL     1      -9.697  10.626  69.254  1.00  0.00    -0.209 OA 
HETATM    6  C   UNL     1     -11.404   8.224  71.406  1.00  0.00    -0.262 C  
HETATM    7  C   UNL     1     -10.878   5.564  73.370  1.00  0.00    -0.332 C  
HETATM    8  C   UNL     1     -11.070  10.933  69.001  1.00  0.00    -0.246 C  
HETATM    9  C   UNL     1     -11.273  12.434  69.209  1.00  0.00    -0.264 C  
HETATM   10  O   UNL     1     -11.900  10.154  69.897  1.00  0.00    -0.217 OA 
HETATM   11  C   UNL     1      -9.193   5.565  71.554  1.00  0.00    -0.164 C  
HETATM   12  C   UNL     1     -11.370  10.594  67.541  1.00  0.00    -0.241 C  
HETATM   13  O   UNL     1     -11.523   5.954  71.056  1.00  0.00    -0.237 OA 
HETATM   14  C   UNL     1     -10.504   6.196  72.032  1.00  0.00    -0.211 C  
HETATM   15  O   UNL     1     -10.366   7.618  72.207  1.00  0.00    -0.201 OA 
HETATM   16  C   UNL     1     -10.958   9.549  70.818  1.00  0.00    -0.321 C  
ENDROOT
BRANCH   4  17
HETATM   17  C   UNL     1      -8.421   9.268  70.769  1.00  0.00    -0.195 C  
BRANCH  17  18
HETATM   18  O   UNL     1      -7.640  10.438  70.548  1.00  0.00    -0.130 OA 
HETATM   19  H2  UNL     1      -6.110  12.692  70.201  1.00  0.00     0.000 HD 
HETATM   20  O   UNL     1      -5.739  10.007  72.083  1.00  0.00    -0.293 OA 
HETATM   21  N   UNL     1      -5.550  11.866  70.412  1.00  0.00    -0.141 N  
HETATM   22  O   UNL     1      -5.553   9.483  69.610  1.00  0.00    -0.033 OA 
HETATM   23  S   UNL     1      -6.036  10.290  70.698  1.00  0.00    -0.079 S  
HETATM   24  H1  UNL     1      -4.539  11.772  70.507  1.00  0.00     0.000 HD 
ENDBRANCH  17  18
ENDBRANCH   4  17
TORSDOF 2
ENDMDL
MODEL       97
REMARK 921   NORMALIZED FREE ENERGY PREDICTED BY IDOCK:   -3.95 KCAL/MOL
REMARK 922        TOTAL FREE ENERGY PREDICTED BY IDOCK:   -4.84 KCAL/MOL
REMARK 923 INTER-LIGAND FREE ENERGY PREDICTED BY IDOCK:   -4.46 KCAL/MOL
REMARK 924 INTRA-LIGAND FREE ENERGY PREDICTED BY IDOCK:   -0.38 KCAL/MOL
REMARK 927      BINDING AFFINITY PREDICTED BY RF-SCORE:    0.00 PKD
ROOT
HETATM    1  C   UNL     1      -7.051   8.113  69.665  1.00  0.00    -0.057 C  
HETATM    2  C   UNL     1      -8.316   7.635  68.936  1.00  0.00    -0.129 C  
HETATM    3  O   UNL     1      -9.582   7.651  69.586  1.00  0.00    -0.160 OA 
HETATM    4  C   UNL     1      -9.700   7.976  70.976  1.00  0.00    -0.160 C  
HETATM    5  O   UNL     1     -10.470   6.955  71.637  1.00  0.00    -0.204 OA 
HETATM    6  C   UNL     1      -7.300   8.661  71.040  1.00  0.00    -0.083 C  
HETATM    7  C   UNL     1      -5.983  11.473  69.790  1.00  0.00    -0.116 C  
HETATM    8  C   UNL     1      -9.525   5.935  71.966  1.00  0.00    -0.150 C  
HETATM    9  C   UNL     1      -9.861   5.399  73.358  1.00  0.00    -0.173 C  
HETATM   10  O   UNL     1      -8.190   6.497  71.920  1.00  0.00    -0.108 OA 
HETATM   11  C   UNL     1      -8.075  10.956  68.568  1.00  0.00    -0.137 C  
HETATM   12  C   UNL     1      -9.678   4.802  70.952  1.00  0.00    -0.260 C  
HETATM   13  O   UNL     1      -6.444   9.225  68.981  1.00  0.00    -0.046 OA 
HETATM   14  C   UNL     1      -7.039  10.398  69.547  1.00  0.00    -0.113 C  
HETATM   15  O   UNL     1      -7.644  10.044  70.804  1.00  0.00    -0.265 OA 
HETATM   16  C   UNL     1      -8.409   7.922  71.763  1.00  0.00    -0.118 C  
ENDROOT
BRANCH   4  17
HETATM   17  C   UNL     1     -10.459   9.300  71.118  1.00  0.00    -0.331 C  
BRANCH  17  18
HETATM   18  O   UNL     1     -11.804   9.114  70.688  1.00  0.00    -0.264 OA 
HETATM   19  H2  UNL     1     -14.407   8.700  69.921  1.00  0.00     0.000 HD 
HETATM   20  O   UNL     1     -12.929   8.761  72.870  1.00  0.00    -0.314 OA 
HETATM   21  N   UNL     1     -14.334   9.153  70.832  1.00  0.00    -0.374 N  
HETATM   22  O   UNL     1     -12.947  11.036  71.756  1.00  0.00    -0.455 OA 
HETATM   23  S   UNL     1     -12.971   9.600  71.696  1.00  0.00    -0.439 S  
HETATM   24  H1  UNL     1     -15.070   9.460  71.468  1.00  0.00     0.000 HD 
ENDBRANCH  17  18
ENDBRANCH   4  17
TORSDOF 2
ENDMDL
MODEL       98
REMARK 921   NORMALIZED FREE ENERGY PREDICTED BY IDOCK:   -3.92 KCAL/MOL
REMARK 922        TOTAL FREE ENERGY PREDICTED BY IDOCK:   -4.81 KCAL/MOL
REMARK 923 INTER-LIGAND FREE ENERGY PREDICTED BY IDOCK:   -4.40 KCAL/MOL
REMARK 924 INTRA-LIGAND FREE ENERGY PREDICTED BY IDOCK:   -0.41 KCAL/MOL
REMARK 927      BINDING AFFINITY PREDICTED BY RF-SCORE:    0.00 PKD
ROOT
HETATM    1  C   UNL     1     -10.263  10.534  69.588  1.00  0.00    -0.168 C  
HETATM    2  C   UNL     1     -11.404  10.600  68.562  1.00  0.00    -0.284 C  
HETATM    3  O   UNL     1     -11.396   9.767  67.408  1.00  0.00    -0.030 OA 
HETATM    4  C   UNL     1     -10.264   8.949  67.089  1.00  0.00    -0.269 C  
HETATM    5  O   UNL     1      -9.881   9.183  65.723  1.00  0.00    -0.286 OA 
HETATM    6  C   UNL     1      -9.234   9.480  69.302  1.00  0.00    -0.169 C  
HETATM    7  C   UNL     1     -10.145   8.259  72.282  1.00  0.00    -0.370 C  
HETATM    8  C   UNL     1      -9.027  10.327  65.769  1.00  0.00    -0.161 C  
HETATM    9  C   UNL     1      -7.871  10.105  64.793  1.00  0.00    -0.146 C  
HETATM   10  O   UNL     1      -8.551  10.505  67.126  1.00  0.00    -0.126 OA 
HETATM   11  C   UNL     1     -12.085   8.152  70.746  1.00  0.00    -0.070 C  
HETATM   12  C   UNL     1      -9.834  11.540  65.308  1.00  0.00    -0.286 C  
HETATM   13  O   UNL     1     -10.752  10.160  70.889  1.00  0.00    -0.249 OA 
HETATM   14  C   UNL     1     -10.680   8.731  70.933  1.00  0.00    -0.227 C  
HETATM   15  O   UNL     1      -9.788   8.286  69.895  1.00  0.00    -0.182 OA 
HETATM   16  C   UNL     1      -8.986   9.306  67.815  1.00  0.00    -0.126 C  
ENDROOT
BRANCH   4  17
HETATM   17  C   UNL     1     -10.661   7.474  67.219  1.00  0.00    -0.324 C  
BRANCH  17  18
HETATM   18  O   UNL     1      -9.580   6.661  66.774  1.00  0.00    -0.156 OA 
HETATM   19  H2  UNL     1      -7.490   5.061  65.994  1.00  0.00     0.000 HD 
HETATM   20  O   UNL     1      -9.965   4.619  68.130  1.00  0.00    -0.133 OA 
HETATM   21  N   UNL     1      -8.323   4.527  66.239  1.00  0.00    -0.110 N  
HETATM   22  O   UNL     1     -10.775   4.756  65.733  1.00  0.00    -0.305 OA 
HETATM   23  S   UNL     1      -9.820   5.062  66.763  1.00  0.00    -0.216 S  
HETATM   24  H1  UNL     1      -8.474   3.518  66.232  1.00  0.00     0.000 HD 
ENDBRANCH  17  18
ENDBRANCH   4  17
TORSDOF 2
ENDMDL
MODEL       99
REMARK 921   NORMALIZED FREE ENERGY PREDICTED BY IDOCK:   -3.92 KCAL/MOL
REMARK 922        TOTAL FREE ENERGY PREDICTED BY IDOCK:   -4.80 KCAL/MOL
REMARK 923 INTER-LIGAND FREE ENERGY PREDICTED BY IDOCK:   -4.45 KCAL/MOL
REMARK 924 INTRA-LIGAND FREE ENERGY PREDICTED BY IDOCK:   -0.35 KCAL/MOL
REMARK 927      BINDING AFFINITY PREDICTED BY RF-SCORE:    0.00 PKD
ROOT
HETATM    1  C   UNL     1     -11.989  15.953  69.304  1.00  0.00    -0.242 C  
HETATM    2  C   UNL     1     -12.012  14.983  68.113  1.00  0.00    -0.165 C  
HETATM    3  O   UNL     1     -10.801  14.487  67.554  1.00  0.00    -0.278 OA 
HETATM    4  C   UNL     1      -9.526  14.980  67.983  1.00  0.00    -0.193 C  
HETATM    5  O   UNL     1      -8.755  15.365  66.832  1.00  0.00    -0.215 OA 
HETATM    6  C   UNL     1     -10.618  16.234  69.847  1.00  0.00    -0.280 C  
HETATM    7  C   UNL     1     -11.845  14.947  72.682  1.00  0.00    -0.316 C  
HETATM    8  C   UNL     1      -9.165  16.704  66.544  1.00  0.00    -0.270 C  
HETATM    9  C   UNL     1      -7.928  17.509  66.143  1.00  0.00    -0.261 C  
HETATM   10  O   UNL     1      -9.806  17.262  67.717  1.00  0.00    -0.266 OA 
HETATM   11  C   UNL     1     -11.847  13.188  70.938  1.00  0.00     0.162 C  
HETATM   12  C   UNL     1     -10.129  16.661  65.359  1.00  0.00    -0.049 C  
HETATM   13  O   UNL     1     -12.677  15.400  70.440  1.00  0.00    -0.404 OA 
HETATM   14  C   UNL     1     -11.683  14.690  71.187  1.00  0.00    -0.277 C  
HETATM   15  O   UNL     1     -10.384  15.150  70.771  1.00  0.00    -0.043 OA 
HETATM   16  C   UNL     1      -9.565  16.280  68.756  1.00  0.00    -0.242 C  
ENDROOT
BRANCH   4  17
HETATM   17  C   UNL     1      -8.770  13.855  68.699  1.00  0.00    -0.075 C  
BRANCH  17  18
HETATM   18  O   UNL     1      -8.170  13.006  67.726  1.00  0.00    -0.141 OA 
HETATM   19  H2  UNL     1      -6.972  11.435  65.820  1.00  0.00     0.000 HD 
HETATM   20  O   UNL     1      -5.919  14.034  67.557  1.00  0.00    -0.334 OA 
HETATM   21  N   UNL     1      -6.309  11.792  66.507  1.00  0.00    -0.356 N  
HETATM   22  O   UNL     1      -6.308  11.998  69.013  1.00  0.00    -0.071 OA 
HETATM   23  S   UNL     1      -6.573  12.777  67.834  1.00  0.00    -0.136 S  
HETATM   24  H1  UNL     1      -5.301  11.648  66.575  1.00  0.00     0.000 HD 
ENDBRANCH  17  18
ENDBRANCH   4  17
TORSDOF 2
ENDMDL
MODEL      100
REMARK 921   NORMALIZED FREE ENERGY PREDICTED BY IDOCK:   -3.90 KCAL/MOL
REMARK 922        TOTAL FREE ENERGY PREDICTED BY IDOCK:   -4.78 KCAL/MOL
REMARK 923 INTER-LIGAND FREE ENERGY PREDICTED BY IDOCK:   -4.44 KCAL/MOL
REMARK 924 INTRA-LIGAND FREE ENERGY PREDICTED BY IDOCK:   -0.34 KCAL/MOL
REMARK 927      BINDING AFFINITY PREDICTED BY RF-SCORE:    0.00 PKD
ROOT
HETATM    1  C   UNL     1      -9.599   7.223  70.764  1.00  0.00    -0.171 C  
HETATM    2  C   UNL     1     -10.757   7.052  69.770  1.00  0.00    -0.241 C  
HETATM    3  O   UNL     1     -11.325   8.178  69.111  1.00  0.00     0.245 OA 
HETATM    4  C   UNL     1     -10.937   9.514  69.454  1.00  0.00    -0.170 C  
HETATM    5  O   UNL     1     -12.116  10.299  69.706  1.00  0.00    -0.175 OA 
HETATM    6  C   UNL     1      -9.093   8.631  70.888  1.00  0.00    -0.187 C  
HETATM    7  C   UNL     1      -6.194   7.323  69.846  1.00  0.00    -0.027 C  
HETATM    8  C   UNL     1     -12.438  10.051  71.076  1.00  0.00    -0.362 C  
HETATM    9  C   UNL     1     -12.889  11.367  71.710  1.00  0.00    -0.449 C  
HETATM   10  O   UNL     1     -11.271   9.512  71.745  1.00  0.00    -0.363 OA 
HETATM   11  C   UNL     1      -7.881   7.061  68.052  1.00  0.00    -0.114 C  
HETATM   12  C   UNL     1     -13.601   9.061  71.119  1.00  0.00    -0.143 C  
HETATM   13  O   UNL     1      -8.431   6.500  70.334  1.00  0.00    -0.128 OA 
HETATM   14  C   UNL     1      -7.683   7.416  69.528  1.00  0.00    -0.108 C  
HETATM   15  O   UNL     1      -8.139   8.751  69.810  1.00  0.00    -0.103 OA 
HETATM   16  C   UNL     1     -10.206   9.655  70.771  1.00  0.00    -0.260 C  
ENDROOT
BRANCH   4  17
HETATM   17  C   UNL     1     -10.202  10.142  68.265  1.00  0.00    -0.166 C  
BRANCH  17  18
HETATM   18  O   UNL     1     -11.119  10.933  67.516  1.00  0.00    -0.279 OA 
HETATM   19  H2  UNL     1     -12.840  12.523  66.085  1.00  0.00     0.000 HD 
HETATM   20  O   UNL     1      -9.559  12.533  66.437  1.00  0.00    -0.240 OA 
HETATM   21  N   UNL     1     -11.931  12.424  65.633  1.00  0.00    -0.424 N  
HETATM   22  O   UNL     1     -10.387  10.489  65.190  1.00  0.00    -0.304 OA 
HETATM   23  S   UNL     1     -10.582  11.562  66.126  1.00  0.00    -0.272 S  
HETATM   24  H1  UNL     1     -11.592  12.820  64.757  1.00  0.00     0.000 HD 
ENDBRANCH  17  18
ENDBRANCH   4  17
TORSDOF 2
ENDMDL
MODEL      101
REMARK 921   NORMALIZED FREE ENERGY PREDICTED BY IDOCK:   -3.85 KCAL/MOL
REMARK 922        TOTAL FREE ENERGY PREDICTED BY IDOCK:   -4.73 KCAL/MOL
REMARK 923 INTER-LIGAND FREE ENERGY PREDICTED BY IDOCK:   -4.40 KCAL/MOL
REMARK 924 INTRA-LIGAND FREE ENERGY PREDICTED BY IDOCK:   -0.33 KCAL/MOL
REMARK 927      BINDING AFFINITY PREDICTED BY RF-SCORE:    0.00 PKD
ROOT
HETATM    1  C   UNL     1      -9.522   5.504  72.544  1.00  0.00    -0.145 C  
HETATM    2  C   UNL     1     -10.816   5.599  71.722  1.00  0.00    -0.239 C  
HETATM    3  O   UNL     1     -10.793   6.068  70.379  1.00  0.00    -0.271 OA 
HETATM    4  C   UNL     1      -9.597   6.598  69.796  1.00  0.00    -0.149 C  
HETATM    5  O   UNL     1      -9.885   7.878  69.206  1.00  0.00    -0.171 OA 
HETATM    6  C   UNL     1      -8.277   5.853  71.781  1.00  0.00    -0.119 C  
HETATM    7  C   UNL     1      -7.353   2.721  72.515  1.00  0.00    -0.044 C  
HETATM    8  C   UNL     1      -9.765   8.814  70.278  1.00  0.00    -0.176 C  
HETATM    9  C   UNL     1      -9.076  10.071  69.745  1.00  0.00    -0.219 C  
HETATM   10  O   UNL     1      -9.005   8.207  71.352  1.00  0.00    -0.132 OA 
HETATM   11  C   UNL     1      -9.371   2.645  71.081  1.00  0.00    -0.210 C  
HETATM   12  C   UNL     1     -11.172   9.185  70.744  1.00  0.00    -0.336 C  
HETATM   13  O   UNL     1      -9.270   4.151  72.965  1.00  0.00    -0.110 OA 
HETATM   14  C   UNL     1      -8.482   3.562  71.926  1.00  0.00    -0.081 C  
HETATM   15  O   UNL     1      -7.913   4.617  71.130  1.00  0.00    -0.082 OA 
HETATM   16  C   UNL     1      -8.510   6.969  70.780  1.00  0.00    -0.135 C  
ENDROOT
BRANCH   4  17
HETATM   17  C   UNL     1      -9.127   5.661  68.677  1.00  0.00    -0.118 C  
BRANCH  17  18
HETATM   18  O   UNL     1     -10.176   5.512  67.725  1.00  0.00    -0.168 OA 
HETATM   19  H2  UNL     1     -12.153   5.272  65.835  1.00  0.00     0.000 HD 
HETATM   20  O   UNL     1      -8.865   5.442  65.620  1.00  0.00    -0.148 OA 
HETATM   21  N   UNL     1     -11.288   4.806  65.560  1.00  0.00    -0.947 N  
HETATM   22  O   UNL     1      -9.647   3.304  66.731  1.00  0.00    -0.149 OA 
HETATM   23  S   UNL     1      -9.833   4.685  66.378  1.00  0.00    -0.247 S  
HETATM   24  H1  UNL     1     -11.072   4.284  64.710  1.00  0.00     0.000 HD 
ENDBRANCH  17  18
ENDBRANCH   4  17
TORSDOF 2
ENDMDL
MODEL      102
REMARK 921   NORMALIZED FREE ENERGY PREDICTED BY IDOCK:   -3.81 KCAL/MOL
REMARK 922        TOTAL FREE ENERGY PREDICTED BY IDOCK:   -4.68 KCAL/MOL
REMARK 923 INTER-LIGAND FREE ENERGY PREDICTED BY IDOCK:   -4.29 KCAL/MOL
REMARK 924 INTRA-LIGAND FREE ENERGY PREDICTED BY IDOCK:   -0.39 KCAL/MOL
REMARK 927      BINDING AFFINITY PREDICTED BY RF-SCORE:    0.00 PKD
ROOT
HETATM    1  C   UNL     1      -9.542   5.056  68.769  1.00  0.00    -0.150 C  
HETATM    2  C   UNL     1     -10.781   5.959  68.854  1.00  0.00    -0.300 C  
HETATM    3  O   UNL     1     -10.723   7.318  68.434  1.00  0.00    -0.189 OA 
HETATM    4  C   UNL     1      -9.484   7.927  68.054  1.00  0.00    -0.149 C  
HETATM    5  O   UNL     1      -9.324   9.163  68.773  1.00  0.00    -0.139 OA 
HETATM    6  C   UNL     1      -8.346   5.705  68.137  1.00  0.00    -0.099 C  
HETATM    7  C   UNL     1      -8.609   3.233  65.896  1.00  0.00    -0.120 C  
HETATM    8  C   UNL     1      -8.745   8.790  70.025  1.00  0.00    -0.144 C  
HETATM    9  C   UNL     1      -7.691   9.833  70.397  1.00  0.00    -0.159 C  
HETATM   10  O   UNL     1      -8.165   7.468  69.901  1.00  0.00    -0.126 OA 
HETATM   11  C   UNL     1     -10.642   4.641  65.777  1.00  0.00    -0.264 C  
HETATM   12  C   UNL     1      -9.849   8.808  71.082  1.00  0.00    -0.313 C  
HETATM   13  O   UNL     1      -9.781   3.922  67.914  1.00  0.00    -0.158 OA 
HETATM   14  C   UNL     1      -9.389   4.338  66.601  1.00  0.00    -0.169 C  
HETATM   15  O   UNL     1      -8.548   5.500  66.722  1.00  0.00    -0.111 OA 
HETATM   16  C   UNL     1      -8.240   7.179  68.482  1.00  0.00    -0.125 C  
ENDROOT
BRANCH   4  17
HETATM   17  C   UNL     1      -9.526   8.256  66.558  1.00  0.00    -0.220 C  
BRANCH  17  18
HETATM   18  O   UNL     1      -8.984   9.557  66.353  1.00  0.00    -0.145 OA 
HETATM   19  H2  UNL     1      -7.946  12.054  65.876  1.00  0.00     0.000 HD 
HETATM   20  O   UNL     1     -10.202  10.234  64.300  1.00  0.00    -0.269 OA 
HETATM   21  N   UNL     1      -8.916  11.968  65.573  1.00  0.00    -0.408 N  
HETATM   22  O   UNL     1     -10.997  10.985  66.585  1.00  0.00    -0.258 OA 
HETATM   23  S   UNL     1      -9.949  10.653  65.658  1.00  0.00    -0.282 S  
HETATM   24  H1  UNL     1      -9.525  12.659  65.135  1.00  0.00     0.000 HD 
ENDBRANCH  17  18
ENDBRANCH   4  17
TORSDOF 2
ENDMDL
MODEL      103
REMARK 921   NORMALIZED FREE ENERGY PREDICTED BY IDOCK:   -3.79 KCAL/MOL
REMARK 922        TOTAL FREE ENERGY PREDICTED BY IDOCK:   -4.66 KCAL/MOL
REMARK 923 INTER-LIGAND FREE ENERGY PREDICTED BY IDOCK:   -4.34 KCAL/MOL
REMARK 924 INTRA-LIGAND FREE ENERGY PREDICTED BY IDOCK:   -0.32 KCAL/MOL
REMARK 927      BINDING AFFINITY PREDICTED BY RF-SCORE:    0.00 PKD
ROOT
HETATM    1  C   UNL     1     -10.423  16.587  69.194  1.00  0.00    -0.317 C  
HETATM    2  C   UNL     1     -11.012  17.063  67.858  1.00  0.00    -0.226 C  
HETATM    3  O   UNL     1     -10.479  16.604  66.621  1.00  0.00    -0.298 OA 
HETATM    4  C   UNL     1      -9.294  15.801  66.574  1.00  0.00    -0.283 C  
HETATM    5  O   UNL     1      -8.367  16.379  65.638  1.00  0.00    -0.140 OA 
HETATM    6  C   UNL     1      -9.336  15.561  69.060  1.00  0.00    -0.235 C  
HETATM    7  C   UNL     1     -11.401  13.632  70.854  1.00  0.00     0.861 C  
HETATM    8  C   UNL     1      -7.656  17.367  66.385  1.00  0.00    -0.307 C  
HETATM    9  C   UNL     1      -6.185  17.319  65.969  1.00  0.00    -0.004 C  
HETATM   10  O   UNL     1      -7.817  17.096  67.799  1.00  0.00    -0.177 OA 
HETATM   11  C   UNL     1     -12.484  14.172  68.693  1.00  0.00     0.170 C  
HETATM   12  C   UNL     1      -8.225  18.738  66.021  1.00  0.00    -0.113 C  
HETATM   13  O   UNL     1     -11.412  15.905  69.987  1.00  0.00    -0.313 OA 
HETATM   14  C   UNL     1     -11.318  14.525  69.619  1.00  0.00    -0.273 C  
HETATM   15  O   UNL     1     -10.051  14.310  68.970  1.00  0.00    -0.209 OA 
HETATM   16  C   UNL     1      -8.466  15.800  67.840  1.00  0.00    -0.157 C  
ENDROOT
BRANCH   4  17
HETATM   17  C   UNL     1      -9.658  14.400  66.069  1.00  0.00    -0.262 C  
BRANCH  17  18
HETATM   18  O   UNL     1     -10.353  14.518  64.832  1.00  0.00    -0.417 OA 
HETATM   19  H2  UNL     1     -11.662  14.671  62.424  1.00  0.00     0.000 HD 
HETATM   20  O   UNL     1     -10.944  12.144  64.420  1.00  0.00    -0.292 OA 
HETATM   21  N   UNL     1     -12.018  13.921  63.017  1.00  0.00    -0.488 N  
HETATM   22  O   UNL     1     -12.623  13.737  65.451  1.00  0.00    -0.469 OA 
HETATM   23  S   UNL     1     -11.538  13.453  64.551  1.00  0.00    -0.389 S  
HETATM   24  H1  UNL     1     -12.766  13.250  62.840  1.00  0.00     0.000 HD 
ENDBRANCH  17  18
ENDBRANCH   4  17
TORSDOF 2
ENDMDL
MODEL      104
REMARK 921   NORMALIZED FREE ENERGY PREDICTED BY IDOCK:   -3.78 KCAL/MOL
REMARK 922        TOTAL FREE ENERGY PREDICTED BY IDOCK:   -4.64 KCAL/MOL
REMARK 923 INTER-LIGAND FREE ENERGY PREDICTED BY IDOCK:   -4.21 KCAL/MOL
REMARK 924 INTRA-LIGAND FREE ENERGY PREDICTED BY IDOCK:   -0.44 KCAL/MOL
REMARK 927      BINDING AFFINITY PREDICTED BY RF-SCORE:    0.00 PKD
ROOT
HETATM    1  C   UNL     1     -10.862   7.447  72.917  1.00  0.00    -0.354 C  
HETATM    2  C   UNL     1      -9.333   7.374  72.781  1.00  0.00    -0.156 C  
HETATM    3  O   UNL     1      -8.728   6.541  71.798  1.00  0.00    -0.131 OA 
HETATM    4  C   UNL     1      -9.509   5.641  71.003  1.00  0.00    -0.166 C  
HETATM    5  O   UNL     1      -8.925   4.328  71.064  1.00  0.00    -0.107 OA 
HETATM    6  C   UNL     1     -11.613   6.655  71.887  1.00  0.00    -0.303 C  
HETATM    7  C   UNL     1     -12.917   9.621  71.047  1.00  0.00    -0.325 C  
HETATM    8  C   UNL     1      -9.469   3.737  72.247  1.00  0.00    -0.129 C  
HETATM    9  C   UNL     1      -9.784   2.271  71.951  1.00  0.00    -0.212 C  
HETATM   10  O   UNL     1     -10.658   4.469  72.635  1.00  0.00    -0.194 OA 
HETATM   11  C   UNL     1     -10.477   9.672  70.628  1.00  0.00    -0.379 C  
HETATM   12  C   UNL     1      -8.404   3.801  73.341  1.00  0.00    -0.088 C  
HETATM   13  O   UNL     1     -11.340   8.788  72.702  1.00  0.00    -0.206 OA 
HETATM   14  C   UNL     1     -11.605   8.884  71.299  1.00  0.00    -0.304 C  
HETATM   15  O   UNL     1     -11.705   7.553  70.760  1.00  0.00    -0.291 OA 
HETATM   16  C   UNL     1     -10.903   5.365  71.522  1.00  0.00    -0.148 C  
ENDROOT
BRANCH   4  17
HETATM   17  C   UNL     1      -9.471   6.103  69.542  1.00  0.00    -0.140 C  
BRANCH  17  18
HETATM   18  O   UNL     1      -8.584   7.212  69.428  1.00  0.00    -0.132 OA 
HETATM   19  H2  UNL     1      -6.819   9.299  69.167  1.00  0.00     0.000 HD 
HETATM   20  O   UNL     1      -7.565   6.746  67.214  1.00  0.00    -0.099 OA 
HETATM   21  N   UNL     1      -7.195   8.988  68.271  1.00  0.00    -0.078 N  
HETATM   22  O   UNL     1      -9.488   8.381  67.438  1.00  0.00    -0.140 OA 
HETATM   23  S   UNL     1      -8.288   7.766  67.937  1.00  0.00    -0.123 S  
HETATM   24  H1  UNL     1      -7.008   9.338  67.331  1.00  0.00     0.000 HD 
ENDBRANCH  17  18
ENDBRANCH   4  17
TORSDOF 2
ENDMDL
MODEL      105
REMARK 921   NORMALIZED FREE ENERGY PREDICTED BY IDOCK:   -3.76 KCAL/MOL
REMARK 922        TOTAL FREE ENERGY PREDICTED BY IDOCK:   -4.62 KCAL/MOL
REMARK 923 INTER-LIGAND FREE ENERGY PREDICTED BY IDOCK:   -4.27 KCAL/MOL
REMARK 924 INTRA-LIGAND FREE ENERGY PREDICTED BY IDOCK:   -0.36 KCAL/MOL
REMARK 927      BINDING AFFINITY PREDICTED BY RF-SCORE:    0.00 PKD
ROOT
HETATM    1  C   UNL     1      -9.742  17.021  68.976  1.00  0.00    -0.216 C  
HETATM    2  C   UNL     1      -9.336  15.674  69.591  1.00  0.00    -0.217 C  
HETATM    3  O   UNL     1     -10.164  14.525  69.443  1.00  0.00    -0.158 OA 
HETATM    4  C   UNL     1     -11.462  14.617  68.845  1.00  0.00    -0.298 C  
HETATM    5  O   UNL     1     -12.427  13.993  69.711  1.00  0.00    -0.325 OA 
HETATM    6  C   UNL     1     -11.002  16.974  68.161  1.00  0.00    -0.263 C  
HETATM    7  C   UNL     1      -9.022  17.987  65.660  1.00  0.00     0.662 C  
HETATM    8  C   UNL     1     -12.797  15.011  70.644  1.00  0.00    -0.363 C  
HETATM    9  C   UNL     1     -14.303  14.915  70.888  1.00  0.00     0.022 C  
HETATM   10  O   UNL     1     -12.427  16.303  70.103  1.00  0.00    -0.027 OA 
HETATM   11  C   UNL     1      -8.280  15.747  66.412  1.00  0.00    -0.206 C  
HETATM   12  C   UNL     1     -12.068  14.737  71.958  1.00  0.00    -0.403 C  
HETATM   13  O   UNL     1      -8.763  17.477  68.025  1.00  0.00    -0.241 OA 
HETATM   14  C   UNL     1      -9.171  16.942  66.762  1.00  0.00    -0.247 C  
HETATM   15  O   UNL     1     -10.553  16.554  66.855  1.00  0.00    -0.302 OA 
HETATM   16  C   UNL     1     -12.027  16.016  68.739  1.00  0.00    -0.079 C  
ENDROOT
BRANCH   4  17
HETATM   17  C   UNL     1     -11.457  13.848  67.519  1.00  0.00    -0.340 C  
BRANCH  17  18
HETATM   18  O   UNL     1     -11.561  12.454  67.789  1.00  0.00    -0.311 OA 
HETATM   19  H2  UNL     1     -11.807   9.757  68.241  1.00  0.00     0.000 HD 
HETATM   20  O   UNL     1     -11.522  11.543  65.481  1.00  0.00    -0.171 OA 
HETATM   21  N   UNL     1     -11.252   9.967  67.411  1.00  0.00    -0.319 N  
HETATM   22  O   UNL     1      -9.415  11.602  66.888  1.00  0.00    -0.179 OA 
HETATM   23  S   UNL     1     -10.838  11.448  66.749  1.00  0.00    -0.287 S  
HETATM   24  H1  UNL     1     -10.796   9.332  66.755  1.00  0.00     0.000 HD 
ENDBRANCH  17  18
ENDBRANCH   4  17
TORSDOF 2
ENDMDL
MODEL      106
REMARK 921   NORMALIZED FREE ENERGY PREDICTED BY IDOCK:   -3.76 KCAL/MOL
REMARK 922        TOTAL FREE ENERGY PREDICTED BY IDOCK:   -4.62 KCAL/MOL
REMARK 923 INTER-LIGAND FREE ENERGY PREDICTED BY IDOCK:   -4.23 KCAL/MOL
REMARK 924 INTRA-LIGAND FREE ENERGY PREDICTED BY IDOCK:   -0.39 KCAL/MOL
REMARK 927      BINDING AFFINITY PREDICTED BY RF-SCORE:    0.00 PKD
ROOT
HETATM    1  C   UNL     1     -10.347   6.405  69.541  1.00  0.00    -0.208 C  
HETATM    2  C   UNL     1      -8.879   6.022  69.301  1.00  0.00    -0.123 C  
HETATM    3  O   UNL     1      -8.269   6.234  68.033  1.00  0.00    -0.113 OA 
HETATM    4  C   UNL     1      -9.033   6.673  66.904  1.00  0.00    -0.127 C  
HETATM    5  O   UNL     1      -8.775   5.801  65.789  1.00  0.00    -0.145 OA 
HETATM    6  C   UNL     1     -11.009   7.081  68.376  1.00  0.00    -0.076 C  
HETATM    7  C   UNL     1     -11.425   9.620  70.516  1.00  0.00    -0.352 C  
HETATM    8  C   UNL     1      -9.678   4.707  65.961  1.00  0.00    -0.202 C  
HETATM    9  C   UNL     1     -10.231   4.320  64.588  1.00  0.00    -0.134 C  
HETATM   10  O   UNL     1     -10.736   5.106  66.866  1.00  0.00    -0.230 OA 
HETATM   11  C   UNL     1      -9.000   9.257  70.167  1.00  0.00    -0.239 C  
HETATM   12  C   UNL     1      -8.890   3.525  66.524  1.00  0.00    -0.136 C  
HETATM   13  O   UNL     1     -10.466   7.385  70.589  1.00  0.00    -0.211 OA 
HETATM   14  C   UNL     1     -10.391   8.658  69.939  1.00  0.00    -0.209 C  
HETATM   15  O   UNL     1     -10.656   8.472  68.537  1.00  0.00    -0.193 OA 
HETATM   16  C   UNL     1     -10.532   6.531  67.045  1.00  0.00    -0.295 C  
ENDROOT
BRANCH   4  17
HETATM   17  C   UNL     1      -8.578   8.083  66.510  1.00  0.00    -0.140 C  
BRANCH  17  18
HETATM   18  O   UNL     1      -9.472   8.604  65.532  1.00  0.00    -0.123 OA 
HETATM   19  H2  UNL     1     -11.210   9.676  63.697  1.00  0.00     0.000 HD 
HETATM   20  O   UNL     1      -9.050  11.036  65.787  1.00  0.00    -0.192 OA 
HETATM   21  N   UNL     1     -10.365  10.235  63.809  1.00  0.00    -0.417 N  
HETATM   22  O   UNL     1      -7.910   9.708  63.956  1.00  0.00    -0.123 OA 
HETATM   23  S   UNL     1      -9.040   9.981  64.802  1.00  0.00    -0.245 S  
HETATM   24  H1  UNL     1     -10.092  11.103  63.348  1.00  0.00     0.000 HD 
ENDBRANCH  17  18
ENDBRANCH   4  17
TORSDOF 2
ENDMDL
MODEL      107
REMARK 921   NORMALIZED FREE ENERGY PREDICTED BY IDOCK:   -3.75 KCAL/MOL
REMARK 922        TOTAL FREE ENERGY PREDICTED BY IDOCK:   -4.61 KCAL/MOL
REMARK 923 INTER-LIGAND FREE ENERGY PREDICTED BY IDOCK:   -4.09 KCAL/MOL
REMARK 924 INTRA-LIGAND FREE ENERGY PREDICTED BY IDOCK:   -0.52 KCAL/MOL
REMARK 927      BINDING AFFINITY PREDICTED BY RF-SCORE:    0.00 PKD
ROOT
HETATM    1  C   UNL     1      -7.156  10.740  67.470  1.00  0.00    -0.089 C  
HETATM    2  C   UNL     1      -7.811  11.255  68.760  1.00  0.00    -0.139 C  
HETATM    3  O   UNL     1      -9.188  11.015  69.025  1.00  0.00    -0.151 OA 
HETATM    4  C   UNL     1     -10.040  10.415  68.042  1.00  0.00    -0.163 C  
HETATM    5  O   UNL     1     -11.219  11.223  67.881  1.00  0.00    -0.244 OA 
HETATM    6  C   UNL     1      -8.061   9.914  66.604  1.00  0.00    -0.117 C  
HETATM    7  C   UNL     1      -5.782   7.512  67.094  1.00  0.00    -0.031 C  
HETATM    8  C   UNL     1     -10.851  12.227  66.932  1.00  0.00    -0.251 C  
HETATM    9  C   UNL     1     -12.031  12.451  65.986  1.00  0.00    -0.419 C  
HETATM   10  O   UNL     1      -9.670  11.788  66.216  1.00  0.00    -0.210 OA 
HETATM   11  C   UNL     1      -6.807   8.100  69.271  1.00  0.00    -0.051 C  
HETATM   12  C   UNL     1     -10.579  13.523  67.695  1.00  0.00    -0.246 C  
HETATM   13  O   UNL     1      -6.075   9.834  67.759  1.00  0.00    -0.051 OA 
HETATM   14  C   UNL     1      -6.665   8.531  67.809  1.00  0.00    -0.066 C  
HETATM   15  O   UNL     1      -7.945   8.583  67.152  1.00  0.00    -0.099 OA 
HETATM   16  C   UNL     1      -9.495  10.410  66.631  1.00  0.00    -0.165 C  
ENDROOT
BRANCH   4  17
HETATM   17  C   UNL     1     -10.484   9.035  68.541  1.00  0.00    -0.196 C  
BRANCH  17  18
HETATM   18  O   UNL     1     -10.065   8.872  69.892  1.00  0.00    -0.185 OA 
HETATM   19  H2  UNL     1      -9.292   8.634  72.516  1.00  0.00     0.000 HD 
HETATM   20  O   UNL     1     -11.943   9.976  71.081  1.00  0.00    -0.332 OA 
HETATM   21  N   UNL     1     -10.306   8.614  72.402  1.00  0.00    -0.301 N  
HETATM   22  O   UNL     1     -11.878   7.457  70.817  1.00  0.00    -0.299 OA 
HETATM   23  S   UNL     1     -11.226   8.724  71.008  1.00  0.00    -0.289 S  
HETATM   24  H1  UNL     1     -11.038   8.520  73.106  1.00  0.00     0.000 HD 
ENDBRANCH  17  18
ENDBRANCH   4  17
TORSDOF 2
ENDMDL
MODEL      108
REMARK 921   NORMALIZED FREE ENERGY PREDICTED BY IDOCK:   -3.75 KCAL/MOL
REMARK 922        TOTAL FREE ENERGY PREDICTED BY IDOCK:   -4.61 KCAL/MOL
REMARK 923 INTER-LIGAND FREE ENERGY PREDICTED BY IDOCK:   -4.17 KCAL/MOL
REMARK 924 INTRA-LIGAND FREE ENERGY PREDICTED BY IDOCK:   -0.44 KCAL/MOL
REMARK 927      BINDING AFFINITY PREDICTED BY RF-SCORE:    0.00 PKD
ROOT
HETATM    1  C   UNL     1      -7.680   9.569  68.224  1.00  0.00    -0.086 C  
HETATM    2  C   UNL     1      -8.549  10.530  69.048  1.00  0.00    -0.157 C  
HETATM    3  O   UNL     1      -8.854  11.833  68.565  1.00  0.00    -0.169 OA 
HETATM    4  C   UNL     1      -8.250  12.344  67.370  1.00  0.00    -0.180 C  
HETATM    5  O   UNL     1      -7.688  13.640  67.641  1.00  0.00    -0.148 OA 
HETATM    6  C   UNL     1      -7.284  10.095  66.875  1.00  0.00    -0.092 C  
HETATM    7  C   UNL     1      -8.926   7.416  65.722  1.00  0.00    -0.061 C  
HETATM    8  C   UNL     1      -6.388  13.374  68.172  1.00  0.00    -0.114 C  
HETATM    9  C   UNL     1      -5.414  14.403  67.596  1.00  0.00     0.060 C  
HETATM   10  O   UNL     1      -6.003  12.022  67.821  1.00  0.00    -0.059 OA 
HETATM   11  C   UNL     1     -10.529   8.893  66.898  1.00  0.00    -0.304 C  
HETATM   12  C   UNL     1      -6.450  13.552  69.688  1.00  0.00    -0.072 C  
HETATM   13  O   UNL     1      -8.398   8.364  67.900  1.00  0.00    -0.128 OA 
HETATM   14  C   UNL     1      -9.043   8.622  66.649  1.00  0.00    -0.165 C  
HETATM   15  O   UNL     1      -8.403   9.752  66.029  1.00  0.00    -0.118 OA 
HETATM   16  C   UNL     1      -7.029  11.590  66.892  1.00  0.00    -0.134 C  
ENDROOT
BRANCH   4  17
HETATM   17  C   UNL     1      -9.332  12.517  66.297  1.00  0.00    -0.177 C  
BRANCH  17  18
HETATM   18  O   UNL     1     -10.310  13.438  66.768  1.00  0.00    -0.258 OA 
HETATM   19  H2  UNL     1     -12.226  15.221  67.598  1.00  0.00     0.000 HD 
HETATM   20  O   UNL     1     -12.223  12.852  65.301  1.00  0.00    -0.423 OA 
HETATM   21  N   UNL     1     -12.624  14.337  67.280  1.00  0.00    -0.442 N  
HETATM   22  O   UNL     1     -12.056  11.916  67.650  1.00  0.00    -0.568 OA 
HETATM   23  S   UNL     1     -11.857  12.970  66.693  1.00  0.00    -0.379 S  
HETATM   24  H1  UNL     1     -13.600  14.042  67.232  1.00  0.00     0.000 HD 
ENDBRANCH  17  18
ENDBRANCH   4  17
TORSDOF 2
ENDMDL
MODEL      109
REMARK 921   NORMALIZED FREE ENERGY PREDICTED BY IDOCK:   -3.75 KCAL/MOL
REMARK 922        TOTAL FREE ENERGY PREDICTED BY IDOCK:   -4.61 KCAL/MOL
REMARK 923 INTER-LIGAND FREE ENERGY PREDICTED BY IDOCK:   -4.15 KCAL/MOL
REMARK 924 INTRA-LIGAND FREE ENERGY PREDICTED BY IDOCK:   -0.46 KCAL/MOL
REMARK 927      BINDING AFFINITY PREDICTED BY RF-SCORE:    0.00 PKD
ROOT
HETATM    1  C   UNL     1      -9.067   9.718  65.962  1.00  0.00    -0.162 C  
HETATM    2  C   UNL     1      -8.207  10.442  67.009  1.00  0.00    -0.123 C  
HETATM    3  O   UNL     1      -8.430  10.241  68.400  1.00  0.00    -0.117 OA 
HETATM    4  C   UNL     1      -9.545   9.477  68.872  1.00  0.00    -0.156 C  
HETATM    5  O   UNL     1     -10.255  10.239  69.865  1.00  0.00    -0.246 OA 
HETATM    6  C   UNL     1     -10.059   8.751  66.539  1.00  0.00    -0.279 C  
HETATM    7  C   UNL     1      -8.390   6.482  64.731  1.00  0.00    -0.019 C  
HETATM    8  C   UNL     1     -11.151  11.068  69.123  1.00  0.00    -0.243 C  
HETATM    9  C   UNL     1     -12.487  11.120  69.866  1.00  0.00    -0.257 C  
HETATM   10  O   UNL     1     -11.306  10.521  67.790  1.00  0.00    -0.367 OA 
HETATM   11  C   UNL     1      -6.864   7.426  66.438  1.00  0.00    -0.061 C  
HETATM   12  C   UNL     1     -10.562  12.477  69.073  1.00  0.00    -0.083 C  
HETATM   13  O   UNL     1      -8.261   8.882  65.113  1.00  0.00    -0.124 OA 
HETATM   14  C   UNL     1      -8.221   7.602  65.753  1.00  0.00    -0.133 C  
HETATM   15  O   UNL     1      -9.300   7.534  66.704  1.00  0.00    -0.159 OA 
HETATM   16  C   UNL     1     -10.638   9.235  67.855  1.00  0.00    -0.231 C  
ENDROOT
BRANCH   4  17
HETATM   17  C   UNL     1      -9.028   8.199  69.543  1.00  0.00    -0.151 C  
BRANCH  17  18
HETATM   18  O   UNL     1      -9.838   7.910  70.679  1.00  0.00    -0.184 OA 
HETATM   19  H2  UNL     1     -11.465   7.342  72.816  1.00  0.00     0.000 HD 
HETATM   20  O   UNL     1     -11.374   6.216  69.715  1.00  0.00    -0.411 OA 
HETATM   21  N   UNL     1     -11.331   6.539  72.200  1.00  0.00    -0.268 N  
HETATM   22  O   UNL     1      -9.342   5.511  71.055  1.00  0.00    -0.149 OA 
HETATM   23  S   UNL     1     -10.433   6.410  70.793  1.00  0.00    -0.232 S  
HETATM   24  H1  UNL     1     -11.706   5.593  72.273  1.00  0.00     0.000 HD 
ENDBRANCH  17  18
ENDBRANCH   4  17
TORSDOF 2
ENDMDL
MODEL      110
REMARK 921   NORMALIZED FREE ENERGY PREDICTED BY IDOCK:   -3.73 KCAL/MOL
REMARK 922        TOTAL FREE ENERGY PREDICTED BY IDOCK:   -4.59 KCAL/MOL
REMARK 923 INTER-LIGAND FREE ENERGY PREDICTED BY IDOCK:   -4.07 KCAL/MOL
REMARK 924 INTRA-LIGAND FREE ENERGY PREDICTED BY IDOCK:   -0.52 KCAL/MOL
REMARK 927      BINDING AFFINITY PREDICTED BY RF-SCORE:    0.00 PKD
ROOT
HETATM    1  C   UNL     1     -10.809  10.360  67.870  1.00  0.00    -0.279 C  
HETATM    2  C   UNL     1      -9.846  10.757  68.999  1.00  0.00    -0.194 C  
HETATM    3  O   UNL     1      -8.959   9.801  69.570  1.00  0.00    -0.173 OA 
HETATM    4  C   UNL     1      -9.031   8.415  69.216  1.00  0.00    -0.150 C  
HETATM    5  O   UNL     1      -9.093   7.623  70.415  1.00  0.00    -0.151 OA 
HETATM    6  C   UNL     1     -10.654   8.946  67.394  1.00  0.00    -0.235 C  
HETATM    7  C   UNL     1      -9.963  10.371  64.445  1.00  0.00    -0.388 C  
HETATM    8  C   UNL     1     -10.477   7.594  70.767  1.00  0.00    -0.210 C  
HETATM    9  C   UNL     1     -10.819   6.187  71.258  1.00  0.00    -0.322 C  
HETATM   10  O   UNL     1     -11.266   7.959  69.608  1.00  0.00    -0.097 OA 
HETATM   11  C   UNL     1      -8.224  11.031  66.081  1.00  0.00    -0.155 C  
HETATM   12  C   UNL     1     -10.696   8.581  71.913  1.00  0.00    -0.394 C  
HETATM   13  O   UNL     1     -10.561  11.129  66.679  1.00  0.00    -0.245 OA 
HETATM   14  C   UNL     1      -9.600  10.379  65.927  1.00  0.00    -0.206 C  
HETATM   15  O   UNL     1      -9.595   9.025  66.415  1.00  0.00    -0.201 OA 
HETATM   16  C   UNL     1     -10.306   7.992  68.522  1.00  0.00    -0.199 C  
ENDROOT
BRANCH   4  17
HETATM   17  C   UNL     1      -7.754   8.025  68.462  1.00  0.00    -0.106 C  
BRANCH  17  18
HETATM   18  O   UNL     1      -7.564   6.618  68.568  1.00  0.00    -0.093 OA 
HETATM   19  H2  UNL     1      -7.267   3.893  68.727  1.00  0.00     0.000 HD 
HETATM   20  O   UNL     1      -8.430   5.879  66.363  1.00  0.00    -0.114 OA 
HETATM   21  N   UNL     1      -7.159   4.245  67.775  1.00  0.00    -0.063 N  
HETATM   22  O   UNL     1      -5.944   6.188  66.742  1.00  0.00    -0.023 OA 
HETATM   23  S   UNL     1      -7.255   5.814  67.199  1.00  0.00    -0.076 S  
HETATM   24  H1  UNL     1      -6.964   3.737  66.912  1.00  0.00     0.000 HD 
ENDBRANCH  17  18
ENDBRANCH   4  17
TORSDOF 2
ENDMDL
MODEL      111
REMARK 921   NORMALIZED FREE ENERGY PREDICTED BY IDOCK:   -3.72 KCAL/MOL
REMARK 922        TOTAL FREE ENERGY PREDICTED BY IDOCK:   -4.58 KCAL/MOL
REMARK 923 INTER-LIGAND FREE ENERGY PREDICTED BY IDOCK:   -4.32 KCAL/MOL
REMARK 924 INTRA-LIGAND FREE ENERGY PREDICTED BY IDOCK:   -0.26 KCAL/MOL
REMARK 927      BINDING AFFINITY PREDICTED BY RF-SCORE:    0.00 PKD
ROOT
HETATM    1  C   UNL     1      -9.677   7.074  67.595  1.00  0.00    -0.136 C  
HETATM    2  C   UNL     1      -8.527   7.148  68.610  1.00  0.00    -0.125 C  
HETATM    3  O   UNL     1      -8.659   6.571  69.905  1.00  0.00    -0.136 OA 
HETATM    4  C   UNL     1      -9.908   6.032  70.355  1.00  0.00    -0.179 C  
HETATM    5  O   UNL     1     -10.227   6.589  71.642  1.00  0.00    -0.192 OA 
HETATM    6  C   UNL     1     -10.864   6.284  68.062  1.00  0.00    -0.326 C  
HETATM    7  C   UNL     1     -10.213   4.369  65.395  1.00  0.00    -0.247 C  
HETATM    8  C   UNL     1     -10.877   7.829  71.356  1.00  0.00    -0.228 C  
HETATM    9  C   UNL     1     -12.041   7.999  72.334  1.00  0.00    -0.374 C  
HETATM   10  O   UNL     1     -11.336   7.815  69.981  1.00  0.00    -0.185 OA 
HETATM   11  C   UNL     1      -8.298   4.241  66.960  1.00  0.00    -0.101 C  
HETATM   12  C   UNL     1      -9.872   8.957  71.587  1.00  0.00    -0.387 C  
HETATM   13  O   UNL     1      -9.276   6.376  66.402  1.00  0.00    -0.154 OA 
HETATM   14  C   UNL     1      -9.588   4.999  66.636  1.00  0.00    -0.158 C  
HETATM   15  O   UNL     1     -10.527   4.921  67.724  1.00  0.00    -0.060 OA 
HETATM   16  C   UNL     1     -11.118   6.449  69.549  1.00  0.00    -0.396 C  
ENDROOT
BRANCH   4  17
HETATM   17  C   UNL     1      -9.766   4.515  70.523  1.00  0.00    -0.220 C  
BRANCH  17  18
HETATM   18  O   UNL     1      -9.277   4.236  71.831  1.00  0.00    -0.119 OA 
HETATM   19  H2  UNL     1      -8.395   3.746  74.384  1.00  0.00     0.000 HD 
HETATM   20  O   UNL     1     -11.405   4.176  73.105  1.00  0.00    -0.189 OA 
HETATM   21  N   UNL     1      -9.312   3.341  74.202  1.00  0.00    -0.091 N  
HETATM   22  O   UNL     1     -10.314   2.035  72.301  1.00  0.00    -0.159 OA 
HETATM   23  S   UNL     1     -10.239   3.378  72.808  1.00  0.00    -0.161 S  
HETATM   24  H1  UNL     1      -9.919   2.799  74.818  1.00  0.00     0.000 HD 
ENDBRANCH  17  18
ENDBRANCH   4  17
TORSDOF 2
ENDMDL
MODEL      112
REMARK 921   NORMALIZED FREE ENERGY PREDICTED BY IDOCK:   -3.71 KCAL/MOL
REMARK 922        TOTAL FREE ENERGY PREDICTED BY IDOCK:   -4.57 KCAL/MOL
REMARK 923 INTER-LIGAND FREE ENERGY PREDICTED BY IDOCK:   -5.11 KCAL/MOL
REMARK 924 INTRA-LIGAND FREE ENERGY PREDICTED BY IDOCK:    0.54 KCAL/MOL
REMARK 927      BINDING AFFINITY PREDICTED BY RF-SCORE:    0.00 PKD
ROOT
HETATM    1  C   UNL     1      -8.280  18.155  66.214  1.00  0.00    -0.212 C  
HETATM    2  C   UNL     1      -8.745  18.363  67.663  1.00  0.00    -0.260 C  
HETATM    3  O   UNL     1      -7.910  18.001  68.757  1.00  0.00    -0.301 OA 
HETATM    4  C   UNL     1      -6.676  17.303  68.550  1.00  0.00    -0.185 C  
HETATM    5  O   UNL     1      -6.638  16.147  69.406  1.00  0.00    -0.176 OA 
HETATM    6  C   UNL     1      -6.877  17.638  66.084  1.00  0.00    -0.293 C  
HETATM    7  C   UNL     1      -6.347  20.479  64.396  1.00  0.00    -0.336 C  
HETATM    8  C   UNL     1      -7.324  15.126  68.679  1.00  0.00    -0.121 C  
HETATM    9  C   UNL     1      -6.578  13.807  68.879  1.00  0.00    -0.104 C  
HETATM   10  O   UNL     1      -7.379  15.500  67.280  1.00  0.00    -0.191 OA 
HETATM   11  C   UNL     1      -6.953  21.036  66.732  1.00  0.00    -0.290 C  
HETATM   12  C   UNL     1      -8.729  14.990  69.265  1.00  0.00    -0.161 C  
HETATM   13  O   UNL     1      -8.231  19.402  65.498  1.00  0.00    -0.311 OA 
HETATM   14  C   UNL     1      -6.907  19.910  65.696  1.00  0.00    -0.289 C  
HETATM   15  O   UNL     1      -6.064  18.830  66.136  1.00  0.00    -0.161 OA 
HETATM   16  C   UNL     1      -6.517  16.663  67.189  1.00  0.00    -0.188 C  
ENDROOT
BRANCH   4  17
HETATM   17  C   UNL     1      -5.511  18.218  68.946  1.00  0.00    -0.197 C  
BRANCH  17  18
HETATM   18  O   UNL     1      -5.724  18.695  70.271  1.00  0.00    -0.238 OA 
HETATM   19  H2  UNL     1      -6.073  19.670  72.813  1.00  0.00     0.000 HD 
HETATM   20  O   UNL     1      -5.246  21.109  69.962  1.00  0.00    -0.492 OA 
HETATM   21  N   UNL     1      -6.321  20.350  72.095  1.00  0.00    -0.608 N  
HETATM   22  O   UNL     1      -7.629  20.248  69.949  1.00  0.00     0.244 OA 
HETATM   23  S   UNL     1      -6.273  20.208  70.427  1.00  0.00    -0.245 S  
HETATM   24  H1  UNL     1      -6.668  21.304  72.194  1.00  0.00     0.000 HD 
ENDBRANCH  17  18
ENDBRANCH   4  17
TORSDOF 2
ENDMDL
MODEL      113
REMARK 921   NORMALIZED FREE ENERGY PREDICTED BY IDOCK:   -3.69 KCAL/MOL
REMARK 922        TOTAL FREE ENERGY PREDICTED BY IDOCK:   -4.54 KCAL/MOL
REMARK 923 INTER-LIGAND FREE ENERGY PREDICTED BY IDOCK:   -4.08 KCAL/MOL
REMARK 924 INTRA-LIGAND FREE ENERGY PREDICTED BY IDOCK:   -0.46 KCAL/MOL
REMARK 927      BINDING AFFINITY PREDICTED BY RF-SCORE:    0.00 PKD
ROOT
HETATM    1  C   UNL     1      -9.206   6.980  69.575  1.00  0.00    -0.149 C  
HETATM    2  C   UNL     1      -9.178   7.897  70.808  1.00  0.00    -0.157 C  
HETATM    3  O   UNL     1      -9.886   7.548  71.992  1.00  0.00    -0.160 OA 
HETATM    4  C   UNL     1     -10.759   6.413  72.029  1.00  0.00    -0.227 C  
HETATM    5  O   UNL     1     -12.036   6.816  72.555  1.00  0.00    -0.136 OA 
HETATM    6  C   UNL     1      -9.951   5.693  69.779  1.00  0.00    -0.200 C  
HETATM    7  C   UNL     1      -7.007   4.269  69.066  1.00  0.00    -0.050 C  
HETATM    8  C   UNL     1     -12.757   7.320  71.428  1.00  0.00    -0.389 C  
HETATM    9  C   UNL     1     -14.209   6.854  71.539  1.00  0.00    -0.327 C  
HETATM   10  O   UNL     1     -12.133   6.834  70.214  1.00  0.00    -0.328 OA 
HETATM   11  C   UNL     1      -6.776   5.586  71.151  1.00  0.00    -0.052 C  
HETATM   12  C   UNL     1     -12.724   8.846  71.489  1.00  0.00    -0.386 C  
HETATM   13  O   UNL     1      -7.883   6.534  69.227  1.00  0.00    -0.106 OA 
HETATM   14  C   UNL     1      -7.683   5.314  69.949  1.00  0.00    -0.069 C  
HETATM   15  O   UNL     1      -8.967   4.814  70.366  1.00  0.00    -0.099 OA 
HETATM   16  C   UNL     1     -11.160   5.864  70.678  1.00  0.00    -0.265 C  
ENDROOT
BRANCH   4  17
HETATM   17  C   UNL     1     -10.172   5.362  72.978  1.00  0.00    -0.183 C  
BRANCH  17  18
HETATM   18  O   UNL     1     -11.162   4.374  73.246  1.00  0.00    -0.270 OA 
HETATM   19  H2  UNL     1     -13.059   2.439  73.686  1.00  0.00     0.000 HD 
HETATM   20  O   UNL     1     -10.250   2.461  71.956  1.00  0.00    -0.157 OA 
HETATM   21  N   UNL     1     -12.123   2.051  73.570  1.00  0.00    -0.112 N  
HETATM   22  O   UNL     1      -9.846   2.653  74.450  1.00  0.00    -0.094 OA 
HETATM   23  S   UNL     1     -10.671   2.833  73.286  1.00  0.00    -0.170 S  
HETATM   24  H1  UNL     1     -11.813   1.079  73.595  1.00  0.00     0.000 HD 
ENDBRANCH  17  18
ENDBRANCH   4  17
TORSDOF 2
ENDMDL
MODEL      114
REMARK 921   NORMALIZED FREE ENERGY PREDICTED BY IDOCK:   -3.67 KCAL/MOL
REMARK 922        TOTAL FREE ENERGY PREDICTED BY IDOCK:   -4.52 KCAL/MOL
REMARK 923 INTER-LIGAND FREE ENERGY PREDICTED BY IDOCK:   -4.24 KCAL/MOL
REMARK 924 INTRA-LIGAND FREE ENERGY PREDICTED BY IDOCK:   -0.28 KCAL/MOL
REMARK 927      BINDING AFFINITY PREDICTED BY RF-SCORE:    0.00 PKD
ROOT
HETATM    1  C   UNL     1     -11.513   6.380  70.171  1.00  0.00    -0.417 C  
HETATM    2  C   UNL     1     -10.349   5.474  70.598  1.00  0.00    -0.262 C  
HETATM    3  O   UNL     1      -9.080   5.566  69.960  1.00  0.00    -0.131 OA 
HETATM    4  C   UNL     1      -8.885   6.399  68.811  1.00  0.00    -0.124 C  
HETATM    5  O   UNL     1      -8.260   5.629  67.769  1.00  0.00    -0.101 OA 
HETATM    6  C   UNL     1     -11.156   7.391  69.120  1.00  0.00     0.061 C  
HETATM    7  C   UNL     1     -12.070   9.625  71.439  1.00  0.00    -0.472 C  
HETATM    8  C   UNL     1      -9.338   4.974  67.097  1.00  0.00    -0.125 C  
HETATM    9  C   UNL     1      -9.054   4.997  65.595  1.00  0.00    -0.157 C  
HETATM   10  O   UNL     1     -10.576   5.656  67.415  1.00  0.00    -0.237 OA 
HETATM   11  C   UNL     1     -10.105   8.367  72.270  1.00  0.00    -0.382 C  
HETATM   12  C   UNL     1      -9.376   3.520  67.568  1.00  0.00    -0.249 C  
HETATM   13  O   UNL     1     -11.964   7.200  71.265  1.00  0.00    -0.301 OA 
HETATM   14  C   UNL     1     -11.191   8.403  71.191  1.00  0.00    -0.263 C  
HETATM   15  O   UNL     1     -10.617   8.498  69.875  1.00  0.00    -0.223 OA 
HETATM   16  C   UNL     1     -10.152   6.851  68.119  1.00  0.00    -0.166 C  
ENDROOT
BRANCH   4  17
HETATM   17  C   UNL     1      -7.936   7.545  69.180  1.00  0.00    -0.121 C  
BRANCH  17  18
HETATM   18  O   UNL     1      -7.626   7.464  70.567  1.00  0.00    -0.084 OA 
HETATM   19  H2  UNL     1      -6.951   7.283  73.222  1.00  0.00     0.000 HD 
HETATM   20  O   UNL     1      -5.250   8.178  70.540  1.00  0.00    -0.023 OA 
HETATM   21  N   UNL     1      -6.444   8.025  72.738  1.00  0.00    -0.071 N  
HETATM   22  O   UNL     1      -7.092   9.824  71.105  1.00  0.00    -0.332 OA 
HETATM   23  S   UNL     1      -6.525   8.503  71.136  1.00  0.00    -0.055 S  
HETATM   24  H1  UNL     1      -5.750   8.680  73.097  1.00  0.00     0.000 HD 
ENDBRANCH  17  18
ENDBRANCH   4  17
TORSDOF 2
ENDMDL
MODEL      115
REMARK 921   NORMALIZED FREE ENERGY PREDICTED BY IDOCK:   -3.66 KCAL/MOL
REMARK 922        TOTAL FREE ENERGY PREDICTED BY IDOCK:   -4.51 KCAL/MOL
REMARK 923 INTER-LIGAND FREE ENERGY PREDICTED BY IDOCK:   -4.05 KCAL/MOL
REMARK 924 INTRA-LIGAND FREE ENERGY PREDICTED BY IDOCK:   -0.46 KCAL/MOL
REMARK 927      BINDING AFFINITY PREDICTED BY RF-SCORE:    0.00 PKD
ROOT
HETATM    1  C   UNL     1      -9.349   8.843  70.875  1.00  0.00    -0.238 C  
HETATM    2  C   UNL     1     -10.729   8.482  70.305  1.00  0.00    -0.230 C  
HETATM    3  O   UNL     1     -10.933   7.256  69.611  1.00  0.00    -0.237 OA 
HETATM    4  C   UNL     1      -9.838   6.388  69.297  1.00  0.00    -0.147 C  
HETATM    5  O   UNL     1      -9.884   6.056  67.898  1.00  0.00    -0.112 OA 
HETATM    6  C   UNL     1      -8.312   7.770  70.710  1.00  0.00    -0.116 C  
HETATM    7  C   UNL     1      -8.191   7.842  74.054  1.00  0.00    -0.294 C  
HETATM    8  C   UNL     1      -9.207   7.130  67.241  1.00  0.00    -0.130 C  
HETATM    9  C   UNL     1      -8.350   6.544  66.119  1.00  0.00    -0.129 C  
HETATM   10  O   UNL     1      -8.400   7.842  68.212  1.00  0.00    -0.123 OA 
HETATM   11  C   UNL     1     -10.450   7.111  73.350  1.00  0.00    -0.410 C  
HETATM   12  C   UNL     1     -10.262   8.049  66.625  1.00  0.00    -0.315 C  
HETATM   13  O   UNL     1      -9.404   9.018  72.302  1.00  0.00    -0.333 OA 
HETATM   14  C   UNL     1      -9.137   7.728  72.862  1.00  0.00    -0.197 C  
HETATM   15  O   UNL     1      -8.519   6.911  71.851  1.00  0.00    -0.115 OA 
HETATM   16  C   UNL     1      -8.466   7.017  69.402  1.00  0.00    -0.133 C  
ENDROOT
BRANCH   4  17
HETATM   17  C   UNL     1      -9.988   5.086  70.092  1.00  0.00    -0.258 C  
BRANCH  17  18
HETATM   18  O   UNL     1      -8.805   4.308  69.937  1.00  0.00    -0.074 OA 
HETATM   19  H2  UNL     1      -6.552   2.758  69.698  1.00  0.00     0.000 HD 
HETATM   20  O   UNL     1      -9.689   2.042  70.426  1.00  0.00    -0.081 OA 
HETATM   21  N   UNL     1      -7.400   2.261  69.429  1.00  0.00    -0.043 N  
HETATM   22  O   UNL     1      -9.413   2.838  68.036  1.00  0.00    -0.212 OA 
HETATM   23  S   UNL     1      -8.988   2.790  69.409  1.00  0.00    -0.122 S  
HETATM   24  H1  UNL     1      -7.516   1.303  69.095  1.00  0.00     0.000 HD 
ENDBRANCH  17  18
ENDBRANCH   4  17
TORSDOF 2
ENDMDL
MODEL      116
REMARK 921   NORMALIZED FREE ENERGY PREDICTED BY IDOCK:   -3.65 KCAL/MOL
REMARK 922        TOTAL FREE ENERGY PREDICTED BY IDOCK:   -4.50 KCAL/MOL
REMARK 923 INTER-LIGAND FREE ENERGY PREDICTED BY IDOCK:   -3.99 KCAL/MOL
REMARK 924 INTRA-LIGAND FREE ENERGY PREDICTED BY IDOCK:   -0.51 KCAL/MOL
REMARK 927      BINDING AFFINITY PREDICTED BY RF-SCORE:    0.00 PKD
ROOT
HETATM    1  C   UNL     1     -11.180   6.621  67.424  1.00  0.00    -0.213 C  
HETATM    2  C   UNL     1     -10.651   8.060  67.511  1.00  0.00    -0.232 C  
HETATM    3  O   UNL     1      -9.843   8.476  68.607  1.00  0.00    -0.161 OA 
HETATM    4  C   UNL     1      -9.616   7.617  69.730  1.00  0.00    -0.163 C  
HETATM    5  O   UNL     1      -9.912   8.333  70.942  1.00  0.00    -0.185 OA 
HETATM    6  C   UNL     1     -10.698   5.718  68.522  1.00  0.00    -0.217 C  
HETATM    7  C   UNL     1      -9.387   3.929  66.014  1.00  0.00    -0.173 C  
HETATM    8  C   UNL     1     -11.321   8.182  71.125  1.00  0.00    -0.269 C  
HETATM    9  C   UNL     1     -11.591   7.960  72.614  1.00  0.00    -0.435 C  
HETATM   10  O   UNL     1     -11.783   7.063  70.329  1.00  0.00    -0.295 OA 
HETATM   11  C   UNL     1      -8.306   6.157  66.059  1.00  0.00    -0.136 C  
HETATM   12  C   UNL     1     -11.998   9.481  70.691  1.00  0.00    -0.266 C  
HETATM   13  O   UNL     1     -10.706   5.962  66.235  1.00  0.00    -0.139 OA 
HETATM   14  C   UNL     1      -9.475   5.333  66.606  1.00  0.00    -0.144 C  
HETATM   15  O   UNL     1      -9.422   5.240  68.041  1.00  0.00    -0.114 OA 
HETATM   16  C   UNL     1     -10.563   6.443  69.847  1.00  0.00    -0.243 C  
ENDROOT
BRANCH   4  17
HETATM   17  C   UNL     1      -8.134   7.224  69.768  1.00  0.00    -0.128 C  
BRANCH  17  18
HETATM   18  O   UNL     1      -7.393   8.128  68.954  1.00  0.00    -0.086 OA 
HETATM   19  H2  UNL     1      -6.009   9.934  67.418  1.00  0.00     0.000 HD 
HETATM   20  O   UNL     1      -7.265  10.092  70.465  1.00  0.00    -0.284 OA 
HETATM   21  N   UNL     1      -5.824  10.044  68.415  1.00  0.00    -0.042 N  
HETATM   22  O   UNL     1      -5.339   8.454  70.302  1.00  0.00    -0.022 OA 
HETATM   23  S   UNL     1      -6.432   9.182  69.715  1.00  0.00    -0.040 S  
HETATM   24  H1  UNL     1      -5.217  10.709  68.895  1.00  0.00     0.000 HD 
ENDBRANCH  17  18
ENDBRANCH   4  17
TORSDOF 2
ENDMDL
MODEL      117
REMARK 921   NORMALIZED FREE ENERGY PREDICTED BY IDOCK:   -3.64 KCAL/MOL
REMARK 922        TOTAL FREE ENERGY PREDICTED BY IDOCK:   -4.49 KCAL/MOL
REMARK 923 INTER-LIGAND FREE ENERGY PREDICTED BY IDOCK:   -3.98 KCAL/MOL
REMARK 924 INTRA-LIGAND FREE ENERGY PREDICTED BY IDOCK:   -0.52 KCAL/MOL
REMARK 927      BINDING AFFINITY PREDICTED BY RF-SCORE:    0.00 PKD
ROOT
HETATM    1  C   UNL     1     -10.377   8.579  67.697  1.00  0.00    -0.253 C  
HETATM    2  C   UNL     1      -9.928   9.923  68.291  1.00  0.00    -0.151 C  
HETATM    3  O   UNL     1      -9.649  10.049  69.681  1.00  0.00    -0.214 OA 
HETATM    4  C   UNL     1      -9.912   8.976  70.592  1.00  0.00    -0.233 C  
HETATM    5  O   UNL     1     -10.683   9.473  71.700  1.00  0.00    -0.320 OA 
HETATM    6  C   UNL     1     -10.398   7.445  68.680  1.00  0.00    -0.198 C  
HETATM    7  C   UNL     1      -8.168   6.054  66.607  1.00  0.00    -0.106 C  
HETATM    8  C   UNL     1     -12.041   9.417  71.259  1.00  0.00    -0.345 C  
HETATM    9  C   UNL     1     -12.907   8.943  72.426  1.00  0.00    -0.446 C  
HETATM   10  O   UNL     1     -12.133   8.516  70.128  1.00  0.00     0.254 OA 
HETATM   11  C   UNL     1      -7.198   8.127  67.553  1.00  0.00    -0.091 C  
HETATM   12  C   UNL     1     -12.472  10.831  70.869  1.00  0.00    -0.500 C  
HETATM   13  O   UNL     1      -9.454   8.118  66.694  1.00  0.00    -0.182 OA 
HETATM   14  C   UNL     1      -8.490   7.322  67.392  1.00  0.00    -0.119 C  
HETATM   15  O   UNL     1      -9.040   6.955  68.670  1.00  0.00    -0.133 OA 
HETATM   16  C   UNL     1     -10.825   7.891  70.065  1.00  0.00    -0.238 C  
ENDROOT
BRANCH   4  17
HETATM   17  C   UNL     1      -8.581   8.452  71.145  1.00  0.00    -0.154 C  
BRANCH  17  18
HETATM   18  O   UNL     1      -8.819   7.801  72.389  1.00  0.00    -0.122 OA 
HETATM   19  H2  UNL     1      -9.323   6.489  74.748  1.00  0.00     0.000 HD 
HETATM   20  O   UNL     1      -8.863   5.431  71.657  1.00  0.00    -0.133 OA 
HETATM   21  N   UNL     1      -8.749   5.940  74.108  1.00  0.00    -0.122 N  
HETATM   22  O   UNL     1      -6.763   6.442  72.651  1.00  0.00    -0.063 OA 
HETATM   23  S   UNL     1      -8.193   6.321  72.576  1.00  0.00    -0.105 S  
HETATM   24  H1  UNL     1      -8.354   5.006  74.226  1.00  0.00     0.000 HD 
ENDBRANCH  17  18
ENDBRANCH   4  17
TORSDOF 2
ENDMDL
MODEL      118
REMARK 921   NORMALIZED FREE ENERGY PREDICTED BY IDOCK:   -3.63 KCAL/MOL
REMARK 922        TOTAL FREE ENERGY PREDICTED BY IDOCK:   -4.48 KCAL/MOL
REMARK 923 INTER-LIGAND FREE ENERGY PREDICTED BY IDOCK:   -4.07 KCAL/MOL
REMARK 924 INTRA-LIGAND FREE ENERGY PREDICTED BY IDOCK:   -0.41 KCAL/MOL
REMARK 927      BINDING AFFINITY PREDICTED BY RF-SCORE:    0.00 PKD
ROOT
HETATM    1  C   UNL     1      -9.345   5.015  73.030  1.00  0.00    -0.129 C  
HETATM    2  C   UNL     1     -10.355   4.516  71.986  1.00  0.00    -0.146 C  
HETATM    3  O   UNL     1     -10.549   5.220  70.764  1.00  0.00    -0.245 OA 
HETATM    4  C   UNL     1      -9.921   6.486  70.528  1.00  0.00    -0.184 C  
HETATM    5  O   UNL     1     -10.913   7.433  70.097  1.00  0.00    -0.253 OA 
HETATM    6  C   UNL     1      -8.554   6.216  72.601  1.00  0.00    -0.124 C  
HETATM    7  C   UNL     1      -5.911   4.206  73.014  1.00  0.00    -0.011 C  
HETATM    8  C   UNL     1     -11.478   7.951  71.303  1.00  0.00    -0.265 C  
HETATM    9  C   UNL     1     -11.704   9.453  71.123  1.00  0.00    -0.418 C  
HETATM   10  O   UNL     1     -10.574   7.677  72.402  1.00  0.00    -0.223 OA 
HETATM   11  C   UNL     1      -7.335   3.295  71.203  1.00  0.00    -0.033 C  
HETATM   12  C   UNL     1     -12.830   7.273  71.523  1.00  0.00    -0.430 C  
HETATM   13  O   UNL     1      -8.324   4.031  73.279  1.00  0.00    -0.088 OA 
HETATM   14  C   UNL     1      -7.277   4.315  72.343  1.00  0.00    -0.066 C  
HETATM   15  O   UNL     1      -7.452   5.657  71.854  1.00  0.00    -0.090 OA 
HETATM   16  C   UNL     1      -9.375   7.175  71.759  1.00  0.00    -0.147 C  
ENDROOT
BRANCH   4  17
HETATM   17  C   UNL     1      -8.897   6.332  69.397  1.00  0.00    -0.127 C  
BRANCH  17  18
HETATM   18  O   UNL     1      -9.131   7.340  68.419  1.00  0.00    -0.136 OA 
HETATM   19  H2  UNL     1      -9.511   9.259  66.492  1.00  0.00     0.000 HD 
HETATM   20  O   UNL     1      -8.259   6.208  66.390  1.00  0.00    -0.108 OA 
HETATM   21  N   UNL     1      -9.596   8.311  66.124  1.00  0.00    -0.399 N  
HETATM   22  O   UNL     1     -10.740   6.213  66.907  1.00  0.00    -0.287 OA 
HETATM   23  S   UNL     1      -9.446   6.842  66.913  1.00  0.00    -0.162 S  
HETATM   24  H1  UNL     1      -9.795   7.997  65.174  1.00  0.00     0.000 HD 
ENDBRANCH  17  18
ENDBRANCH   4  17
TORSDOF 2
ENDMDL
MODEL      119
REMARK 921   NORMALIZED FREE ENERGY PREDICTED BY IDOCK:   -3.62 KCAL/MOL
REMARK 922        TOTAL FREE ENERGY PREDICTED BY IDOCK:   -4.47 KCAL/MOL
REMARK 923 INTER-LIGAND FREE ENERGY PREDICTED BY IDOCK:   -4.03 KCAL/MOL
REMARK 924 INTRA-LIGAND FREE ENERGY PREDICTED BY IDOCK:   -0.44 KCAL/MOL
REMARK 927      BINDING AFFINITY PREDICTED BY RF-SCORE:    0.00 PKD
ROOT
HETATM    1  C   UNL     1      -8.882  11.951  68.051  1.00  0.00    -0.177 C  
HETATM    2  C   UNL     1      -8.586  11.859  66.546  1.00  0.00    -0.126 C  
HETATM    3  O   UNL     1      -8.969  12.907  65.663  1.00  0.00     0.341 OA 
HETATM    4  C   UNL     1      -9.763  14.010  66.116  1.00  0.00    -0.280 C  
HETATM    5  O   UNL     1     -10.887  14.179  65.234  1.00  0.00    -0.313 OA 
HETATM    6  C   UNL     1      -9.504  13.248  68.480  1.00  0.00    -0.113 C  
HETATM    7  C   UNL     1      -6.773  13.537  70.394  1.00  0.00     0.489 C  
HETATM    8  C   UNL     1     -11.880  13.276  65.724  1.00  0.00    -0.387 C  
HETATM    9  C   UNL     1     -13.242  13.964  65.636  1.00  0.00     0.019 C  
HETATM   10  O   UNL     1     -11.555  12.913  67.089  1.00  0.00    -0.322 OA 
HETATM   11  C   UNL     1      -6.088  13.542  68.013  1.00  0.00    -0.133 C  
HETATM   12  C   UNL     1     -11.891  12.046  64.817  1.00  0.00    -0.325 C  
HETATM   13  O   UNL     1      -7.669  11.907  68.824  1.00  0.00    -0.127 OA 
HETATM   14  C   UNL     1      -7.252  13.269  68.970  1.00  0.00    -0.007 C  
HETATM   15  O   UNL     1      -8.375  14.123  68.685  1.00  0.00    -0.154 OA 
HETATM   16  C   UNL     1     -10.462  13.799  67.441  1.00  0.00    -0.256 C  
ENDROOT
BRANCH   4  17
HETATM   17  C   UNL     1      -8.922  15.290  66.055  1.00  0.00    -0.116 C  
BRANCH  17  18
HETATM   18  O   UNL     1      -9.600  16.325  66.760  1.00  0.00    -0.223 OA 
HETATM   19  H2  UNL     1     -10.837  18.367  68.117  1.00  0.00     0.000 HD 
HETATM   20  O   UNL     1      -8.562  18.328  65.727  1.00  0.00    -0.462 OA 
HETATM   21  N   UNL     1     -10.599  18.621  67.158  1.00  0.00    -0.421 N  
HETATM   22  O   UNL     1     -10.811  17.476  64.929  1.00  0.00    -0.832 OA 
HETATM   23  S   UNL     1      -9.847  17.714  65.968  1.00  0.00    -0.104 S  
HETATM   24  H1  UNL     1     -10.755  19.496  66.658  1.00  0.00     0.000 HD 
ENDBRANCH  17  18
ENDBRANCH   4  17
TORSDOF 2
ENDMDL
MODEL      120
REMARK 921   NORMALIZED FREE ENERGY PREDICTED BY IDOCK:   -3.59 KCAL/MOL
REMARK 922        TOTAL FREE ENERGY PREDICTED BY IDOCK:   -4.43 KCAL/MOL
REMARK 923 INTER-LIGAND FREE ENERGY PREDICTED BY IDOCK:   -3.99 KCAL/MOL
REMARK 924 INTRA-LIGAND FREE ENERGY PREDICTED BY IDOCK:   -0.45 KCAL/MOL
REMARK 927      BINDING AFFINITY PREDICTED BY RF-SCORE:    0.00 PKD
ROOT
HETATM    1  C   UNL     1     -11.179   8.476  72.021  1.00  0.00    -0.348 C  
HETATM    2  C   UNL     1     -11.946   7.968  70.791  1.00  0.00    -0.121 C  
HETATM    3  O   UNL     1     -11.258   7.620  69.595  1.00  0.00    -0.129 OA 
HETATM    4  C   UNL     1      -9.854   7.865  69.448  1.00  0.00    -0.180 C  
HETATM    5  O   UNL     1      -9.623   8.570  68.215  1.00  0.00    -0.141 OA 
HETATM    6  C   UNL     1      -9.687   8.477  71.863  1.00  0.00    -0.287 C  
HETATM    7  C   UNL     1      -9.747   6.381  74.472  1.00  0.00    -0.329 C  
HETATM    8  C   UNL     1      -9.819   9.949  68.538  1.00  0.00    -0.156 C  
HETATM    9  C   UNL     1      -8.755  10.769  67.807  1.00  0.00    -0.130 C  
HETATM   10  O   UNL     1      -9.724  10.115  69.974  1.00  0.00    -0.213 OA 
HETATM   11  C   UNL     1     -10.916   5.318  72.564  1.00  0.00    -0.298 C  
HETATM   12  C   UNL     1     -11.198  10.365  68.027  1.00  0.00    -0.340 C  
HETATM   13  O   UNL     1     -11.381   7.612  73.155  1.00  0.00    -0.360 OA 
HETATM   14  C   UNL     1     -10.337   6.635  73.088  1.00  0.00    -0.234 C  
HETATM   15  O   UNL     1      -9.301   7.132  72.222  1.00  0.00    -0.139 OA 
HETATM   16  C   UNL     1      -9.258   8.827  70.451  1.00  0.00    -0.180 C  
ENDROOT
BRANCH   4  17
HETATM   17  C   UNL     1      -9.119   6.522  69.363  1.00  0.00    -0.141 C  
BRANCH  17  18
HETATM   18  O   UNL     1      -7.732   6.764  69.149  1.00  0.00    -0.101 OA 
HETATM   19  H2  UNL     1      -5.044   7.215  68.818  1.00  0.00     0.000 HD 
HETATM   20  O   UNL     1      -6.740   5.122  70.723  1.00  0.00    -0.037 OA 
HETATM   21  N   UNL     1      -5.254   6.243  69.045  1.00  0.00    -0.004 N  
HETATM   22  O   UNL     1      -6.969   4.581  68.258  1.00  0.00    -0.054 OA 
HETATM   23  S   UNL     1      -6.730   5.508  69.331  1.00  0.00    -0.061 S  
HETATM   24  H1  UNL     1      -4.622   5.451  69.159  1.00  0.00     0.000 HD 
ENDBRANCH  17  18
ENDBRANCH   4  17
TORSDOF 2
ENDMDL
MODEL      121
REMARK 921   NORMALIZED FREE ENERGY PREDICTED BY IDOCK:   -3.55 KCAL/MOL
REMARK 922        TOTAL FREE ENERGY PREDICTED BY IDOCK:   -4.40 KCAL/MOL
REMARK 923 INTER-LIGAND FREE ENERGY PREDICTED BY IDOCK:   -3.96 KCAL/MOL
REMARK 924 INTRA-LIGAND FREE ENERGY PREDICTED BY IDOCK:   -0.44 KCAL/MOL
REMARK 927      BINDING AFFINITY PREDICTED BY RF-SCORE:    0.00 PKD
ROOT
HETATM    1  C   UNL     1     -10.084   7.234  71.625  1.00  0.00    -0.184 C  
HETATM    2  C   UNL     1      -8.569   7.058  71.446  1.00  0.00    -0.121 C  
HETATM    3  O   UNL     1      -8.038   6.458  70.270  1.00  0.00    -0.116 OA 
HETATM    4  C   UNL     1      -8.894   5.872  69.283  1.00  0.00    -0.118 C  
HETATM    5  O   UNL     1      -8.437   4.540  68.990  1.00  0.00    -0.079 OA 
HETATM    6  C   UNL     1     -10.900   6.810  70.438  1.00  0.00    -0.262 C  
HETATM    7  C   UNL     1     -11.915   9.999  70.421  1.00  0.00    -0.318 C  
HETATM    8  C   UNL     1      -9.041   3.715  69.988  1.00  0.00    -0.127 C  
HETATM    9  C   UNL     1      -9.490   2.411  69.327  1.00  0.00    -0.136 C  
HETATM   10  O   UNL     1     -10.159   4.426  70.575  1.00  0.00    -0.213 OA 
HETATM   11  C   UNL     1      -9.478   9.933  69.985  1.00  0.00    -0.246 C  
HETATM   12  C   UNL     1      -7.982   3.392  71.041  1.00  0.00    -0.058 C  
HETATM   13  O   UNL     1     -10.433   8.623  71.774  1.00  0.00    -0.268 OA 
HETATM   14  C   UNL     1     -10.680   9.105  70.449  1.00  0.00    -0.238 C  
HETATM   15  O   UNL     1     -10.900   7.975  69.585  1.00  0.00    -0.240 OA 
HETATM   16  C   UNL     1     -10.311   5.600  69.738  1.00  0.00    -0.282 C  
ENDROOT
BRANCH   4  17
HETATM   17  C   UNL     1      -8.804   6.693  67.991  1.00  0.00    -0.115 C  
BRANCH  17  18
HETATM   18  O   UNL     1      -9.405   5.958  66.930  1.00  0.00    -0.123 OA 
HETATM   19  H2  UNL     1     -10.563   4.611  64.837  1.00  0.00     0.000 HD 
HETATM   20  O   UNL     1      -8.340   7.045  64.970  1.00  0.00    -0.125 OA 
HETATM   21  N   UNL     1      -9.610   4.912  64.631  1.00  0.00    -0.358 N  
HETATM   22  O   UNL     1      -7.436   4.866  65.893  1.00  0.00    -0.080 OA 
HETATM   23  S   UNL     1      -8.525   5.754  65.588  1.00  0.00    -0.151 S  
HETATM   24  H1  UNL     1      -9.056   4.782  63.785  1.00  0.00     0.000 HD 
ENDBRANCH  17  18
ENDBRANCH   4  17
TORSDOF 2
ENDMDL
MODEL      122
REMARK 921   NORMALIZED FREE ENERGY PREDICTED BY IDOCK:   -3.52 KCAL/MOL
REMARK 922        TOTAL FREE ENERGY PREDICTED BY IDOCK:   -4.35 KCAL/MOL
REMARK 923 INTER-LIGAND FREE ENERGY PREDICTED BY IDOCK:   -3.82 KCAL/MOL
REMARK 924 INTRA-LIGAND FREE ENERGY PREDICTED BY IDOCK:   -0.54 KCAL/MOL
REMARK 927      BINDING AFFINITY PREDICTED BY RF-SCORE:    0.00 PKD
ROOT
HETATM    1  C   UNL     1      -9.105   7.388  66.362  1.00  0.00    -0.160 C  
HETATM    2  C   UNL     1      -8.073   8.042  67.294  1.00  0.00    -0.121 C  
HETATM    3  O   UNL     1      -8.422   8.411  68.623  1.00  0.00    -0.126 OA 
HETATM    4  C   UNL     1      -9.773   8.318  69.091  1.00  0.00    -0.171 C  
HETATM    5  O   UNL     1     -10.154   9.571  69.686  1.00  0.00    -0.188 OA 
HETATM    6  C   UNL     1     -10.431   7.108  67.008  1.00  0.00    -0.322 C  
HETATM    7  C   UNL     1      -9.751   3.922  66.240  1.00  0.00    -0.176 C  
HETATM    8  C   UNL     1     -10.599  10.378  68.594  1.00  0.00    -0.209 C  
HETATM    9  C   UNL     1     -11.829  11.165  69.047  1.00  0.00    -0.418 C  
HETATM   10  O   UNL     1     -10.902   9.520  67.467  1.00  0.00    -0.280 OA 
HETATM   11  C   UNL     1      -8.053   4.738  67.847  1.00  0.00    -0.092 C  
HETATM   12  C   UNL     1      -9.484  11.365  68.249  1.00  0.00    -0.187 C  
HETATM   13  O   UNL     1      -8.672   6.082  65.940  1.00  0.00    -0.148 OA 
HETATM   14  C   UNL     1      -9.188   5.169  66.914  1.00  0.00    -0.118 C  
HETATM   15  O   UNL     1     -10.242   5.824  67.642  1.00  0.00    -0.158 OA 
HETATM   16  C   UNL     1     -10.821   8.178  68.010  1.00  0.00     0.058 C  
ENDROOT
BRANCH   4  17
HETATM   17  C   UNL     1      -9.853   7.239  70.177  1.00  0.00    -0.179 C  
BRANCH  17  18
HETATM   18  O   UNL     1      -8.545   6.985  70.678  1.00  0.00    -0.144 OA 
HETATM   19  H2  UNL     1      -6.011   6.578  71.653  1.00  0.00     0.000 HD 
HETATM   20  O   UNL     1      -8.343   8.805  72.352  1.00  0.00    -0.387 OA 
HETATM   21  N   UNL     1      -6.644   6.963  72.354  1.00  0.00    -0.057 N  
HETATM   22  O   UNL     1      -9.006   6.463  73.056  1.00  0.00    -0.130 OA 
HETATM   23  S   UNL     1      -8.262   7.369  72.223  1.00  0.00    -0.104 S  
HETATM   24  H1  UNL     1      -6.466   7.204  73.329  1.00  0.00     0.000 HD 
ENDBRANCH  17  18
ENDBRANCH   4  17
TORSDOF 2
ENDMDL
MODEL      123
REMARK 921   NORMALIZED FREE ENERGY PREDICTED BY IDOCK:   -3.50 KCAL/MOL
REMARK 922        TOTAL FREE ENERGY PREDICTED BY IDOCK:   -4.33 KCAL/MOL
REMARK 923 INTER-LIGAND FREE ENERGY PREDICTED BY IDOCK:   -3.96 KCAL/MOL
REMARK 924 INTRA-LIGAND FREE ENERGY PREDICTED BY IDOCK:   -0.38 KCAL/MOL
REMARK 927      BINDING AFFINITY PREDICTED BY RF-SCORE:    0.00 PKD
ROOT
HETATM    1  C   UNL     1      -8.467   7.474  67.290  1.00  0.00    -0.118 C  
HETATM    2  C   UNL     1      -9.834   6.793  67.119  1.00  0.00    -0.161 C  
HETATM    3  O   UNL     1     -10.529   6.262  68.241  1.00  0.00    -0.178 OA 
HETATM    4  C   UNL     1      -9.923   6.214  69.537  1.00  0.00    -0.166 C  
HETATM    5  O   UNL     1     -10.043   4.883  70.068  1.00  0.00    -0.244 OA 
HETATM    6  C   UNL     1      -8.011   7.595  68.714  1.00  0.00    -0.126 C  
HETATM    7  C   UNL     1      -8.035  10.883  68.088  1.00  0.00    -0.117 C  
HETATM    8  C   UNL     1      -8.927   4.169  69.531  1.00  0.00    -0.103 C  
HETATM    9  C   UNL     1      -8.367   3.259  70.625  1.00  0.00    -0.084 C  
HETATM   10  O   UNL     1      -7.936   5.121  69.072  1.00  0.00    -0.083 OA 
HETATM   11  C   UNL     1     -10.345  10.013  67.890  1.00  0.00    -0.249 C  
HETATM   12  C   UNL     1      -9.429   3.301  68.378  1.00  0.00    -0.209 C  
HETATM   13  O   UNL     1      -8.508   8.843  66.848  1.00  0.00    -0.111 OA 
HETATM   14  C   UNL     1      -8.873   9.611  68.001  1.00  0.00    -0.119 C  
HETATM   15  O   UNL     1      -8.636   8.813  69.175  1.00  0.00    -0.125 OA 
HETATM   16  C   UNL     1      -8.421   6.400  69.554  1.00  0.00    -0.133 C  
ENDROOT
BRANCH   4  17
HETATM   17  C   UNL     1     -10.676   7.163  70.477  1.00  0.00    -0.238 C  
BRANCH  17  18
HETATM   18  O   UNL     1      -9.876   7.408  71.630  1.00  0.00    -0.166 OA 
HETATM   19  H2  UNL     1      -8.381   7.947  73.868  1.00  0.00     0.000 HD 
HETATM   20  O   UNL     1     -11.582   8.337  73.173  1.00  0.00    -0.197 OA 
HETATM   21  N   UNL     1      -9.342   7.689  74.091  1.00  0.00    -0.411 N  
HETATM   22  O   UNL     1     -10.915   5.896  73.296  1.00  0.00    -0.261 OA 
HETATM   23  S   UNL     1     -10.603   7.281  73.069  1.00  0.00    -0.360 S  
HETATM   24  H1  UNL     1      -9.801   7.609  74.999  1.00  0.00     0.000 HD 
ENDBRANCH  17  18
ENDBRANCH   4  17
TORSDOF 2
ENDMDL
MODEL      124
REMARK 921   NORMALIZED FREE ENERGY PREDICTED BY IDOCK:   -3.49 KCAL/MOL
REMARK 922        TOTAL FREE ENERGY PREDICTED BY IDOCK:   -4.33 KCAL/MOL
REMARK 923 INTER-LIGAND FREE ENERGY PREDICTED BY IDOCK:   -3.96 KCAL/MOL
REMARK 924 INTRA-LIGAND FREE ENERGY PREDICTED BY IDOCK:   -0.37 KCAL/MOL
REMARK 927      BINDING AFFINITY PREDICTED BY RF-SCORE:    0.00 PKD
ROOT
HETATM    1  C   UNL     1      -9.533   4.990  68.266  1.00  0.00    -0.133 C  
HETATM    2  C   UNL     1     -10.815   5.728  67.852  1.00  0.00    -0.165 C  
HETATM    3  O   UNL     1     -10.971   7.119  68.110  1.00  0.00    -0.149 OA 
HETATM    4  C   UNL     1     -10.009   7.845  68.885  1.00  0.00    -0.190 C  
HETATM    5  O   UNL     1     -10.689   8.573  69.922  1.00  0.00    -0.228 OA 
HETATM    6  C   UNL     1      -8.475   5.874  68.860  1.00  0.00    -0.105 C  
HETATM    7  C   UNL     1      -6.619   4.810  66.286  1.00  0.00    -0.049 C  
HETATM    8  C   UNL     1     -10.834   7.640  70.994  1.00  0.00    -0.242 C  
HETATM    9  C   UNL     1     -10.576   8.375  72.310  1.00  0.00    -0.412 C  
HETATM   10  O   UNL     1      -9.897   6.551  70.801  1.00  0.00    -0.182 OA 
HETATM   11  C   UNL     1      -8.553   6.083  65.406  1.00  0.00    -0.127 C  
HETATM   12  C   UNL     1     -12.275   7.131  70.990  1.00  0.00    -0.384 C  
HETATM   13  O   UNL     1      -8.869   4.418  67.125  1.00  0.00    -0.110 OA 
HETATM   14  C   UNL     1      -7.965   5.425  66.657  1.00  0.00    -0.105 C  
HETATM   15  O   UNL     1      -7.767   6.386  67.710  1.00  0.00    -0.100 OA 
HETATM   16  C   UNL     1      -9.063   6.992  69.701  1.00  0.00    -0.144 C  
ENDROOT
BRANCH   4  17
HETATM   17  C   UNL     1      -9.305   8.863  67.981  1.00  0.00    -0.142 C  
BRANCH  17  18
HETATM   18  O   UNL     1      -9.735  10.174  68.335  1.00  0.00    -0.143 OA 
HETATM   19  H2  UNL     1     -10.511  12.699  69.082  1.00  0.00     0.000 HD 
HETATM   20  O   UNL     1      -7.616  11.121  69.213  1.00  0.00    -0.121 OA 
HETATM   21  N   UNL     1      -9.541  12.664  68.768  1.00  0.00    -0.413 N  
HETATM   22  O   UNL     1      -8.354  11.582  66.834  1.00  0.00    -0.155 OA 
HETATM   23  S   UNL     1      -8.641  11.361  68.225  1.00  0.00    -0.160 S  
HETATM   24  H1  UNL     1      -8.852  13.412  68.699  1.00  0.00     0.000 HD 
ENDBRANCH  17  18
ENDBRANCH   4  17
TORSDOF 2
ENDMDL
MODEL      125
REMARK 921   NORMALIZED FREE ENERGY PREDICTED BY IDOCK:   -3.49 KCAL/MOL
REMARK 922        TOTAL FREE ENERGY PREDICTED BY IDOCK:   -4.32 KCAL/MOL
REMARK 923 INTER-LIGAND FREE ENERGY PREDICTED BY IDOCK:   -3.89 KCAL/MOL
REMARK 924 INTRA-LIGAND FREE ENERGY PREDICTED BY IDOCK:   -0.43 KCAL/MOL
REMARK 927      BINDING AFFINITY PREDICTED BY RF-SCORE:    0.00 PKD
ROOT
HETATM    1  C   UNL     1      -9.370   5.335  70.733  1.00  0.00    -0.159 C  
HETATM    2  C   UNL     1     -10.620   5.219  69.848  1.00  0.00    -0.221 C  
HETATM    3  O   UNL     1     -11.283   6.382  69.367  1.00  0.00    -0.359 OA 
HETATM    4  C   UNL     1     -10.899   7.691  69.804  1.00  0.00    -0.217 C  
HETATM    5  O   UNL     1     -12.067   8.402  70.252  1.00  0.00     0.146 OA 
HETATM    6  C   UNL     1      -8.893   6.742  70.948  1.00  0.00    -0.146 C  
HETATM    7  C   UNL     1      -6.082   5.653  69.494  1.00  0.00    -0.025 C  
HETATM    8  C   UNL     1     -12.238   8.009  71.615  1.00  0.00    -0.307 C  
HETATM    9  C   UNL     1     -12.658   9.238  72.422  1.00  0.00    -0.348 C  
HETATM   10  O   UNL     1     -10.994   7.451  72.105  1.00  0.00    -0.228 OA 
HETATM   11  C   UNL     1      -7.938   5.507  67.860  1.00  0.00    -0.097 C  
HETATM   12  C   UNL     1     -13.363   6.975  71.673  1.00  0.00    -0.356 C  
HETATM   13  O   UNL     1      -8.234   4.702  70.117  1.00  0.00    -0.067 OA 
HETATM   14  C   UNL     1      -7.598   5.721  69.337  1.00  0.00    -0.088 C  
HETATM   15  O   UNL     1      -8.060   7.004  69.799  1.00  0.00    -0.121 OA 
HETATM   16  C   UNL     1     -10.040   7.729  71.048  1.00  0.00    -0.185 C  
ENDROOT
BRANCH   4  17
HETATM   17  C   UNL     1     -10.308   8.462  68.618  1.00  0.00    -0.197 C  
BRANCH  17  18
HETATM   18  O   UNL     1      -9.686   9.649  69.098  1.00  0.00    -0.165 OA 
HETATM   19  H2  UNL     1      -8.412  11.900  70.017  1.00  0.00     0.000 HD 
HETATM   20  O   UNL     1      -7.578   9.613  67.790  1.00  0.00    -0.087 OA 
HETATM   21  N   UNL     1      -8.192  11.696  69.042  1.00  0.00    -0.366 N  
HETATM   22  O   UNL     1      -9.548  11.018  67.036  1.00  0.00    -0.174 OA 
HETATM   23  S   UNL     1      -8.726  10.444  68.067  1.00  0.00    -0.125 S  
HETATM   24  H1  UNL     1      -7.587  12.197  68.392  1.00  0.00     0.000 HD 
ENDBRANCH  17  18
ENDBRANCH   4  17
TORSDOF 2
ENDMDL
MODEL      126
REMARK 921   NORMALIZED FREE ENERGY PREDICTED BY IDOCK:   -3.46 KCAL/MOL
REMARK 922        TOTAL FREE ENERGY PREDICTED BY IDOCK:   -4.28 KCAL/MOL
REMARK 923 INTER-LIGAND FREE ENERGY PREDICTED BY IDOCK:   -3.98 KCAL/MOL
REMARK 924 INTRA-LIGAND FREE ENERGY PREDICTED BY IDOCK:   -0.31 KCAL/MOL
REMARK 927      BINDING AFFINITY PREDICTED BY RF-SCORE:    0.00 PKD
ROOT
HETATM    1  C   UNL     1      -6.806   8.275  69.307  1.00  0.00    -0.050 C  
HETATM    2  C   UNL     1      -7.956   8.211  68.291  1.00  0.00    -0.123 C  
HETATM    3  O   UNL     1      -9.306   8.385  68.706  1.00  0.00    -0.143 OA 
HETATM    4  C   UNL     1      -9.651   8.482  70.092  1.00  0.00    -0.169 C  
HETATM    5  O   UNL     1     -10.709   7.551  70.383  1.00  0.00    -0.229 OA 
HETATM    6  C   UNL     1      -7.234   8.617  70.704  1.00  0.00    -0.058 C  
HETATM    7  C   UNL     1      -5.211  11.256  70.316  1.00  0.00    -0.086 C  
HETATM    8  C   UNL     1     -10.048   6.312  70.645  1.00  0.00    -0.189 C  
HETATM    9  C   UNL     1     -10.755   5.627  71.815  1.00  0.00    -0.305 C  
HETATM   10  O   UNL     1      -8.655   6.574  70.945  1.00  0.00    -0.133 OA 
HETATM   11  C   UNL     1      -7.062  11.417  68.677  1.00  0.00    -0.095 C  
HETATM   12  C   UNL     1     -10.185   5.430  69.404  1.00  0.00    -0.334 C  
HETATM   13  O   UNL     1      -5.884   9.332  68.985  1.00  0.00    -0.039 OA 
HETATM   14  C   UNL     1      -6.366  10.489  69.677  1.00  0.00    -0.074 C  
HETATM   15  O   UNL     1      -7.271  10.061  70.710  1.00  0.00    -0.328 OA 
HETATM   16  C   UNL     1      -8.582   8.018  71.057  1.00  0.00    -0.133 C  
ENDROOT
BRANCH   4  17
HETATM   17  C   UNL     1     -10.177   9.893  70.380  1.00  0.00    -0.236 C  
BRANCH  17  18
HETATM   18  O   UNL     1     -10.098  10.670  69.189  1.00  0.00    -0.206 OA 
HETATM   19  H2  UNL     1     -10.011  12.124  66.862  1.00  0.00     0.000 HD 
HETATM   20  O   UNL     1     -12.500  10.806  68.581  1.00  0.00    -0.348 OA 
HETATM   21  N   UNL     1     -10.864  12.290  67.396  1.00  0.00    -0.232 N  
HETATM   22  O   UNL     1     -11.368  12.701  69.825  1.00  0.00    -0.169 OA 
HETATM   23  S   UNL     1     -11.352  11.637  68.858  1.00  0.00    -0.296 S  
HETATM   24  H1  UNL     1     -11.654  12.900  67.188  1.00  0.00     0.000 HD 
ENDBRANCH  17  18
ENDBRANCH   4  17
TORSDOF 2
ENDMDL
MODEL      127
REMARK 921   NORMALIZED FREE ENERGY PREDICTED BY IDOCK:   -3.45 KCAL/MOL
REMARK 922        TOTAL FREE ENERGY PREDICTED BY IDOCK:   -4.28 KCAL/MOL
REMARK 923 INTER-LIGAND FREE ENERGY PREDICTED BY IDOCK:   -3.81 KCAL/MOL
REMARK 924 INTRA-LIGAND FREE ENERGY PREDICTED BY IDOCK:   -0.47 KCAL/MOL
REMARK 927      BINDING AFFINITY PREDICTED BY RF-SCORE:    0.00 PKD
ROOT
HETATM    1  C   UNL     1     -10.442   9.159  69.346  1.00  0.00    -0.219 C  
HETATM    2  C   UNL     1      -9.380   9.347  70.440  1.00  0.00    -0.268 C  
HETATM    3  O   UNL     1      -8.734   8.225  71.030  1.00  0.00    -0.129 OA 
HETATM    4  C   UNL     1      -9.148   6.887  70.731  1.00  0.00    -0.154 C  
HETATM    5  O   UNL     1      -9.365   6.173  71.961  1.00  0.00    -0.150 OA 
HETATM    6  C   UNL     1     -10.646   7.734  68.922  1.00  0.00    -0.150 C  
HETATM    7  C   UNL     1      -9.717   8.853  65.907  1.00  0.00    -0.259 C  
HETATM    8  C   UNL     1     -10.705   6.491  72.341  1.00  0.00    -0.224 C  
HETATM    9  C   UNL     1     -11.362   5.226  72.893  1.00  0.00    -0.368 C  
HETATM   10  O   UNL     1     -11.415   6.998  71.185  1.00  0.00    -0.267 OA 
HETATM   11  C   UNL     1      -7.824   9.125  67.481  1.00  0.00    -0.100 C  
HETATM   12  C   UNL     1     -10.646   7.539  73.452  1.00  0.00    -0.409 C  
HETATM   13  O   UNL     1     -10.050   9.806  68.122  1.00  0.00    -0.152 OA 
HETATM   14  C   UNL     1      -9.321   8.821  67.381  1.00  0.00    -0.137 C  
HETATM   15  O   UNL     1      -9.629   7.523  67.920  1.00  0.00    -0.140 OA 
HETATM   16  C   UNL     1     -10.507   6.763  70.079  1.00  0.00    -0.210 C  
ENDROOT
BRANCH   4  17
HETATM   17  C   UNL     1      -8.026   6.175  69.967  1.00  0.00    -0.111 C  
BRANCH  17  18
HETATM   18  O   UNL     1      -7.757   4.925  70.594  1.00  0.00    -0.064 OA 
HETATM   19  H2  UNL     1      -7.322   2.498  71.801  1.00  0.00     0.000 HD 
HETATM   20  O   UNL     1      -9.477   3.500  69.513  1.00  0.00    -0.167 OA 
HETATM   21  N   UNL     1      -7.656   2.404  70.842  1.00  0.00    -0.033 N  
HETATM   22  O   UNL     1      -7.090   3.522  68.662  1.00  0.00    -0.049 OA 
HETATM   23  S   UNL     1      -8.052   3.590  69.729  1.00  0.00    -0.052 S  
HETATM   24  H1  UNL     1      -7.842   1.563  70.296  1.00  0.00     0.000 HD 
ENDBRANCH  17  18
ENDBRANCH   4  17
TORSDOF 2
ENDMDL
MODEL      128
REMARK 921   NORMALIZED FREE ENERGY PREDICTED BY IDOCK:   -3.45 KCAL/MOL
REMARK 922        TOTAL FREE ENERGY PREDICTED BY IDOCK:   -4.27 KCAL/MOL
REMARK 923 INTER-LIGAND FREE ENERGY PREDICTED BY IDOCK:   -3.82 KCAL/MOL
REMARK 924 INTRA-LIGAND FREE ENERGY PREDICTED BY IDOCK:   -0.46 KCAL/MOL
REMARK 927      BINDING AFFINITY PREDICTED BY RF-SCORE:    0.00 PKD
ROOT
HETATM    1  C   UNL     1     -11.192   6.523  70.173  1.00  0.00    -0.377 C  
HETATM    2  C   UNL     1     -10.101   5.556  70.655  1.00  0.00    -0.223 C  
HETATM    3  O   UNL     1      -8.838   5.496  70.001  1.00  0.00    -0.124 OA 
HETATM    4  C   UNL     1      -8.591   6.224  68.793  1.00  0.00    -0.122 C  
HETATM    5  O   UNL     1      -8.047   5.331  67.805  1.00  0.00    -0.099 OA 
HETATM    6  C   UNL     1     -10.767   7.422  69.048  1.00  0.00    -0.148 C  
HETATM    7  C   UNL     1     -11.460   9.886  71.205  1.00  0.00    -0.459 C  
HETATM    8  C   UNL     1      -9.185   4.722  67.192  1.00  0.00    -0.127 C  
HETATM    9  C   UNL     1      -8.922   4.613  65.690  1.00  0.00    -0.138 C  
HETATM   10  O   UNL     1     -10.357   5.527  67.470  1.00  0.00    -0.196 OA 
HETATM   11  C   UNL     1      -9.594   8.531  72.109  1.00  0.00    -0.382 C  
HETATM   12  C   UNL     1      -9.337   3.314  67.768  1.00  0.00    -0.246 C  
HETATM   13  O   UNL     1     -11.558   7.454  71.207  1.00  0.00    -0.264 OA 
HETATM   14  C   UNL     1     -10.689   8.580  71.040  1.00  0.00    -0.228 C  
HETATM   15  O   UNL     1     -10.128   8.532  69.715  1.00  0.00    -0.188 OA 
HETATM   16  C   UNL     1      -9.826   6.729  68.081  1.00  0.00    -0.137 C  
ENDROOT
BRANCH   4  17
HETATM   17  C   UNL     1      -7.545   7.311  69.069  1.00  0.00    -0.099 C  
BRANCH  17  18
HETATM   18  O   UNL     1      -6.536   7.250  68.067  1.00  0.00    -0.046 OA 
HETATM   19  H2  UNL     1      -4.650   7.132  66.075  1.00  0.00     0.000 HD 
HETATM   20  O   UNL     1      -7.598   8.600  66.276  1.00  0.00    -0.091 OA 
HETATM   21  N   UNL     1      -5.171   8.009  66.071  1.00  0.00    -0.025 N  
HETATM   22  O   UNL     1      -5.899   9.635  67.845  1.00  0.00    -0.041 OA 
HETATM   23  S   UNL     1      -6.402   8.526  67.081  1.00  0.00    -0.058 S  
HETATM   24  H1  UNL     1      -5.086   8.814  65.449  1.00  0.00     0.000 HD 
ENDBRANCH  17  18
ENDBRANCH   4  17
TORSDOF 2
ENDMDL
MODEL      129
REMARK 921   NORMALIZED FREE ENERGY PREDICTED BY IDOCK:   -3.43 KCAL/MOL
REMARK 922        TOTAL FREE ENERGY PREDICTED BY IDOCK:   -4.26 KCAL/MOL
REMARK 923 INTER-LIGAND FREE ENERGY PREDICTED BY IDOCK:   -3.82 KCAL/MOL
REMARK 924 INTRA-LIGAND FREE ENERGY PREDICTED BY IDOCK:   -0.44 KCAL/MOL
REMARK 927      BINDING AFFINITY PREDICTED BY RF-SCORE:    0.00 PKD
ROOT
HETATM    1  C   UNL     1      -9.382   8.191  71.626  1.00  0.00    -0.174 C  
HETATM    2  C   UNL     1     -10.669   7.362  71.499  1.00  0.00    -0.222 C  
HETATM    3  O   UNL     1     -10.627   6.015  71.041  1.00  0.00    -0.225 OA 
HETATM    4  C   UNL     1      -9.413   5.435  70.549  1.00  0.00    -0.165 C  
HETATM    5  O   UNL     1      -9.662   4.834  69.265  1.00  0.00    -0.164 OA 
HETATM    6  C   UNL     1      -8.125   7.431  71.317  1.00  0.00    -0.100 C  
HETATM    7  C   UNL     1      -7.293   8.191  74.468  1.00  0.00    -0.241 C  
HETATM    8  C   UNL     1      -9.520   5.901  68.325  1.00  0.00    -0.116 C  
HETATM    9  C   UNL     1      -8.794   5.362  67.092  1.00  0.00    -0.109 C  
HETATM   10  O   UNL     1      -8.783   6.982  68.947  1.00  0.00    -0.131 OA 
HETATM   11  C   UNL     1      -9.305   6.747  74.497  1.00  0.00    -0.248 C  
HETATM   12  C   UNL     1     -10.919   6.357  67.911  1.00  0.00    -0.416 C  
HETATM   13  O   UNL     1      -9.171   8.622  72.982  1.00  0.00    -0.257 OA 
HETATM   14  C   UNL     1      -8.394   7.590  73.600  1.00  0.00    -0.164 C  
HETATM   15  O   UNL     1      -7.792   6.790  72.567  1.00  0.00    -0.100 OA 
HETATM   16  C   UNL     1      -8.321   6.422  70.201  1.00  0.00    -0.134 C  
ENDROOT
BRANCH   4  17
HETATM   17  C   UNL     1      -8.965   4.325  71.507  1.00  0.00    -0.119 C  
BRANCH  17  18
HETATM   18  O   UNL     1     -10.076   3.920  72.301  1.00  0.00    -0.164 OA 
HETATM   19  H2  UNL     1     -12.241   3.089  73.770  1.00  0.00     0.000 HD 
HETATM   20  O   UNL     1     -10.285   1.547  71.606  1.00  0.00    -0.145 OA 
HETATM   21  N   UNL     1     -11.567   2.342  73.608  1.00  0.00    -0.208 N  
HETATM   22  O   UNL     1      -9.061   2.172  73.735  1.00  0.00    -0.068 OA 
HETATM   23  S   UNL     1     -10.114   2.375  72.777  1.00  0.00    -0.153 S  
HETATM   24  H1  UNL     1     -11.591   1.367  73.909  1.00  0.00     0.000 HD 
ENDBRANCH  17  18
ENDBRANCH   4  17
TORSDOF 2
ENDMDL
MODEL      130
REMARK 921   NORMALIZED FREE ENERGY PREDICTED BY IDOCK:   -3.41 KCAL/MOL
REMARK 922        TOTAL FREE ENERGY PREDICTED BY IDOCK:   -4.23 KCAL/MOL
REMARK 923 INTER-LIGAND FREE ENERGY PREDICTED BY IDOCK:   -3.75 KCAL/MOL
REMARK 924 INTRA-LIGAND FREE ENERGY PREDICTED BY IDOCK:   -0.48 KCAL/MOL
REMARK 927      BINDING AFFINITY PREDICTED BY RF-SCORE:    0.00 PKD
ROOT
HETATM    1  C   UNL     1     -11.087   6.562  67.517  1.00  0.00    -0.308 C  
HETATM    2  C   UNL     1     -10.425   7.926  67.764  1.00  0.00    -0.212 C  
HETATM    3  O   UNL     1      -9.615   8.146  68.913  1.00  0.00    -0.151 OA 
HETATM    4  C   UNL     1      -9.506   7.160  69.946  1.00  0.00    -0.153 C  
HETATM    5  O   UNL     1      -9.769   7.776  71.219  1.00  0.00    -0.157 OA 
HETATM    6  C   UNL     1     -10.728   5.509  68.525  1.00  0.00    -0.091 C  
HETATM    7  C   UNL     1      -9.519   3.863  65.873  1.00  0.00    -0.182 C  
HETATM    8  C   UNL     1     -11.191   7.747  71.356  1.00  0.00    -0.246 C  
HETATM    9  C   UNL     1     -11.527   7.404  72.808  1.00  0.00    -0.312 C  
HETATM   10  O   UNL     1     -11.733   6.766  70.439  1.00  0.00    -0.361 OA 
HETATM   11  C   UNL     1      -8.231   5.957  66.171  1.00  0.00    -0.116 C  
HETATM   12  C   UNL     1     -11.726   9.144  71.045  1.00  0.00    -0.363 C  
HETATM   13  O   UNL     1     -10.642   5.984  66.276  1.00  0.00    -0.102 OA 
HETATM   14  C   UNL     1      -9.489   5.202  66.605  1.00  0.00    -0.144 C  
HETATM   15  O   UNL     1      -9.490   4.959  68.024  1.00  0.00    -0.124 OA 
HETATM   16  C   UNL     1     -10.565   6.080  69.921  1.00  0.00    -0.279 C  
ENDROOT
BRANCH   4  17
HETATM   17  C   UNL     1      -8.071   6.621  69.973  1.00  0.00    -0.121 C  
BRANCH  17  18
HETATM   18  O   UNL     1      -7.751   6.218  71.301  1.00  0.00    -0.099 OA 
HETATM   19  H2  UNL     1      -7.200   5.389  73.860  1.00  0.00     0.000 HD 
HETATM   20  O   UNL     1      -8.398   3.825  71.213  1.00  0.00    -0.070 OA 
HETATM   21  N   UNL     1      -7.067   4.649  73.170  1.00  0.00    -0.076 N  
HETATM   22  O   UNL     1      -5.983   4.527  70.905  1.00  0.00    -0.016 OA 
HETATM   23  S   UNL     1      -7.278   4.686  71.510  1.00  0.00    -0.069 S  
HETATM   24  H1  UNL     1      -6.768   3.682  73.302  1.00  0.00     0.000 HD 
ENDBRANCH  17  18
ENDBRANCH   4  17
TORSDOF 2
ENDMDL
MODEL      131
REMARK 921   NORMALIZED FREE ENERGY PREDICTED BY IDOCK:   -3.39 KCAL/MOL
REMARK 922        TOTAL FREE ENERGY PREDICTED BY IDOCK:   -4.22 KCAL/MOL
REMARK 923 INTER-LIGAND FREE ENERGY PREDICTED BY IDOCK:   -3.82 KCAL/MOL
REMARK 924 INTRA-LIGAND FREE ENERGY PREDICTED BY IDOCK:   -0.40 KCAL/MOL
REMARK 927      BINDING AFFINITY PREDICTED BY RF-SCORE:    0.00 PKD
ROOT
HETATM    1  C   UNL     1      -9.079   6.440  68.206  1.00  0.00    -0.114 C  
HETATM    2  C   UNL     1     -10.459   6.204  68.838  1.00  0.00    -0.238 C  
HETATM    3  O   UNL     1     -10.818   6.834  70.063  1.00  0.00    -0.234 OA 
HETATM    4  C   UNL     1      -9.863   7.591  70.817  1.00  0.00    -0.178 C  
HETATM    5  O   UNL     1      -9.871   7.135  72.182  1.00  0.00    -0.154 OA 
HETATM    6  C   UNL     1      -8.226   7.435  68.938  1.00  0.00    -0.129 C  
HETATM    7  C   UNL     1      -8.317   9.129  66.053  1.00  0.00    -0.125 C  
HETATM    8  C   UNL     1      -8.983   6.015  72.202  1.00  0.00    -0.142 C  
HETATM    9  C   UNL     1      -8.162   6.076  73.490  1.00  0.00    -0.109 C  
HETATM   10  O   UNL     1      -8.135   6.065  71.028  1.00  0.00    -0.117 OA 
HETATM   11  C   UNL     1     -10.614   8.978  66.965  1.00  0.00    -0.270 C  
HETATM   12  C   UNL     1      -9.827   4.741  72.215  1.00  0.00    -0.221 C  
HETATM   13  O   UNL     1      -9.199   7.023  66.895  1.00  0.00    -0.138 OA 
HETATM   14  C   UNL     1      -9.187   8.440  67.100  1.00  0.00    -0.143 C  
HETATM   15  O   UNL     1      -8.648   8.710  68.407  1.00  0.00    -0.133 OA 
HETATM   16  C   UNL     1      -8.416   7.361  70.441  1.00  0.00    -0.142 C  
ENDROOT
BRANCH   4  17
HETATM   17  C   UNL     1     -10.279   9.066  70.813  1.00  0.00    -0.244 C  
BRANCH  17  18
HETATM   18  O   UNL     1     -11.365   9.245  71.717  1.00  0.00    -0.369 OA 
HETATM   19  H2  UNL     1     -13.439   9.673  73.464  1.00  0.00     0.000 HD 
HETATM   20  O   UNL     1     -12.137  11.507  71.050  1.00  0.00    -0.307 OA 
HETATM   21  N   UNL     1     -13.584  10.130  72.563  1.00  0.00    -0.554 N  
HETATM   22  O   UNL     1     -13.289   9.430  70.166  1.00  0.00     0.683 OA 
HETATM   23  S   UNL     1     -12.604  10.150  71.206  1.00  0.00    -0.440 S  
HETATM   24  H1  UNL     1     -14.366  10.700  72.241  1.00  0.00     0.000 HD 
ENDBRANCH  17  18
ENDBRANCH   4  17
TORSDOF 2
ENDMDL
MODEL      132
REMARK 921   NORMALIZED FREE ENERGY PREDICTED BY IDOCK:   -3.33 KCAL/MOL
REMARK 922        TOTAL FREE ENERGY PREDICTED BY IDOCK:   -4.14 KCAL/MOL
REMARK 923 INTER-LIGAND FREE ENERGY PREDICTED BY IDOCK:   -3.98 KCAL/MOL
REMARK 924 INTRA-LIGAND FREE ENERGY PREDICTED BY IDOCK:   -0.16 KCAL/MOL
REMARK 927      BINDING AFFINITY PREDICTED BY RF-SCORE:    0.00 PKD
ROOT
HETATM    1  C   UNL     1      -9.408  13.157  66.945  1.00  0.00    -0.246 C  
HETATM    2  C   UNL     1      -8.546  12.170  66.144  1.00  0.00     0.176 C  
HETATM    3  O   UNL     1      -8.563  10.778  66.442  1.00  0.00    -0.147 OA 
HETATM    4  C   UNL     1      -9.268  10.271  67.581  1.00  0.00    -0.144 C  
HETATM    5  O   UNL     1      -8.388   9.427  68.344  1.00  0.00    -0.116 OA 
HETATM    6  C   UNL     1     -10.299  12.512  67.966  1.00  0.00    -0.222 C  
HETATM    7  C   UNL     1     -12.772  13.913  66.198  1.00  0.00    -0.336 C  
HETATM    8  C   UNL     1      -7.671  10.319  69.199  1.00  0.00    -0.119 C  
HETATM    9  C   UNL     1      -7.533   9.662  70.573  1.00  0.00    -0.147 C  
HETATM   10  O   UNL     1      -8.390  11.575  69.280  1.00  0.00     0.110 OA 
HETATM   11  C   UNL     1     -11.599  12.265  64.768  1.00  0.00    -0.393 C  
HETATM   12  C   UNL     1      -6.276  10.523  68.609  1.00  0.00    -0.046 C  
HETATM   13  O   UNL     1     -10.342  13.844  66.092  1.00  0.00    -0.286 OA 
HETATM   14  C   UNL     1     -11.526  13.039  66.087  1.00  0.00    -0.340 C  
HETATM   15  O   UNL     1     -11.477  12.147  67.215  1.00  0.00    -0.309 OA 
HETATM   16  C   UNL     1      -9.650  11.305  68.616  1.00  0.00    -0.190 C  
ENDROOT
BRANCH   4  17
HETATM   17  C   UNL     1     -10.442   9.410  67.100  1.00  0.00    -0.244 C  
BRANCH  17  18
HETATM   18  O   UNL     1      -9.936   8.312  66.347  1.00  0.00    -0.252 OA 
HETATM   19  H2  UNL     1      -8.907   6.179  64.959  1.00  0.00     0.000 HD 
HETATM   20  O   UNL     1      -9.453   6.701  68.170  1.00  0.00    -0.119 OA 
HETATM   21  N   UNL     1      -9.412   5.894  65.798  1.00  0.00    -0.363 N  
HETATM   22  O   UNL     1     -11.605   6.548  66.841  1.00  0.00    -0.019 OA 
HETATM   23  S   UNL     1     -10.199   6.831  66.941  1.00  0.00    -0.227 S  
HETATM   24  H1  UNL     1      -9.578   4.960  66.172  1.00  0.00     0.000 HD 
ENDBRANCH  17  18
ENDBRANCH   4  17
TORSDOF 2
ENDMDL
MODEL      133
REMARK 921   NORMALIZED FREE ENERGY PREDICTED BY IDOCK:   -3.23 KCAL/MOL
REMARK 922        TOTAL FREE ENERGY PREDICTED BY IDOCK:   -4.03 KCAL/MOL
REMARK 923 INTER-LIGAND FREE ENERGY PREDICTED BY IDOCK:   -3.61 KCAL/MOL
REMARK 924 INTRA-LIGAND FREE ENERGY PREDICTED BY IDOCK:   -0.42 KCAL/MOL
REMARK 927      BINDING AFFINITY PREDICTED BY RF-SCORE:    0.00 PKD
ROOT
HETATM    1  C   UNL     1     -10.504   6.826  70.189  1.00  0.00    -0.209 C  
HETATM    2  C   UNL     1     -11.241   6.761  68.844  1.00  0.00    -0.127 C  
HETATM    3  O   UNL     1     -10.561   7.041  67.625  1.00  0.00    -0.212 OA 
HETATM    4  C   UNL     1      -9.214   7.528  67.620  1.00  0.00    -0.127 C  
HETATM    5  O   UNL     1      -9.139   8.703  66.794  1.00  0.00    -0.136 OA 
HETATM    6  C   UNL     1      -9.034   7.111  70.076  1.00  0.00    -0.142 C  
HETATM    7  C   UNL     1      -8.686   4.145  71.586  1.00  0.00    -0.137 C  
HETATM    8  C   UNL     1      -9.514   9.782  67.652  1.00  0.00    -0.144 C  
HETATM    9  C   UNL     1      -8.610  10.977  67.346  1.00  0.00    -0.132 C  
HETATM   10  O   UNL     1      -9.384   9.355  69.031  1.00  0.00    -0.147 OA 
HETATM   11  C   UNL     1      -9.771   3.800  69.387  1.00  0.00    -0.131 C  
HETATM   12  C   UNL     1     -10.959  10.163  67.330  1.00  0.00    -0.295 C  
HETATM   13  O   UNL     1     -10.533   5.554  70.861  1.00  0.00    -0.233 OA 
HETATM   14  C   UNL     1      -9.364   4.855  70.419  1.00  0.00    -0.151 C  
HETATM   15  O   UNL     1      -8.446   5.811  69.856  1.00  0.00    -0.119 OA 
HETATM   16  C   UNL     1      -8.719   8.069  68.943  1.00  0.00    -0.131 C  
ENDROOT
BRANCH   4  17
HETATM   17  C   UNL     1      -8.300   6.462  67.004  1.00  0.00    -0.112 C  
BRANCH  17  18
HETATM   18  O   UNL     1      -8.540   6.398  65.602  1.00  0.00    -0.150 OA 
HETATM   19  H2  UNL     1      -8.931   6.231  62.890  1.00  0.00     0.000 HD 
HETATM   20  O   UNL     1      -7.588   4.166  65.085  1.00  0.00    -0.079 OA 
HETATM   21  N   UNL     1      -8.979   5.322  63.350  1.00  0.00    -0.344 N  
HETATM   22  O   UNL     1     -10.079   4.462  65.441  1.00  0.00    -0.208 OA 
HETATM   23  S   UNL     1      -8.805   4.934  64.969  1.00  0.00    -0.144 S  
HETATM   24  H1  UNL     1      -9.147   4.399  62.950  1.00  0.00     0.000 HD 
ENDBRANCH  17  18
ENDBRANCH   4  17
TORSDOF 2
ENDMDL
MODEL      134
REMARK 921   NORMALIZED FREE ENERGY PREDICTED BY IDOCK:   -3.23 KCAL/MOL
REMARK 922        TOTAL FREE ENERGY PREDICTED BY IDOCK:   -4.03 KCAL/MOL
REMARK 923 INTER-LIGAND FREE ENERGY PREDICTED BY IDOCK:   -4.17 KCAL/MOL
REMARK 924 INTRA-LIGAND FREE ENERGY PREDICTED BY IDOCK:    0.14 KCAL/MOL
REMARK 927      BINDING AFFINITY PREDICTED BY RF-SCORE:    0.00 PKD
ROOT
HETATM    1  C   UNL     1      -7.908  14.257  66.763  1.00  0.00     0.448 C  
HETATM    2  C   UNL     1      -7.117  15.158  67.723  1.00  0.00    -0.165 C  
HETATM    3  O   UNL     1      -7.781  15.907  68.734  1.00  0.00    -0.157 OA 
HETATM    4  C   UNL     1      -9.211  15.960  68.802  1.00  0.00    -0.218 C  
HETATM    5  O   UNL     1      -9.631  17.334  68.880  1.00  0.00    -0.270 OA 
HETATM    6  C   UNL     1      -9.378  14.184  67.053  1.00  0.00    -0.246 C  
HETATM    7  C   UNL     1      -8.794  10.913  67.455  1.00  0.00    -0.133 C  
HETATM    8  C   UNL     1      -9.689  17.779  67.523  1.00  0.00    -0.284 C  
HETATM    9  C   UNL     1     -10.923  18.667  67.361  1.00  0.00    -0.239 C  
HETATM   10  O   UNL     1      -9.746  16.625  66.650  1.00  0.00    -0.243 OA 
HETATM   11  C   UNL     1      -7.535  12.169  69.178  1.00  0.00     0.121 C  
HETATM   12  C   UNL     1      -8.441  18.617  67.245  1.00  0.00    -0.275 C  
HETATM   13  O   UNL     1      -7.491  12.884  66.873  1.00  0.00     0.024 OA 
HETATM   14  C   UNL     1      -8.330  12.304  67.877  1.00  0.00    -0.163 C  
HETATM   15  O   UNL     1      -9.482  13.148  68.054  1.00  0.00    -0.207 OA 
HETATM   16  C   UNL     1      -9.933  15.505  67.552  1.00  0.00    -0.230 C  
ENDROOT
BRANCH   4  17
HETATM   17  C   UNL     1      -9.678  15.254  70.080  1.00  0.00     0.009 C  
BRANCH  17  18
HETATM   18  O   UNL     1     -10.987  15.707  70.409  1.00  0.00    -0.301 OA 
HETATM   19  H2  UNL     1     -13.531  16.578  70.962  1.00  0.00     0.000 HD 
HETATM   20  O   UNL     1     -12.323  14.502  68.701  1.00  0.00    -0.176 OA 
HETATM   21  N   UNL     1     -13.513  15.626  70.599  1.00  0.00    -0.800 N  
HETATM   22  O   UNL     1     -12.106  13.592  71.056  1.00  0.00    -0.322 OA 
HETATM   23  S   UNL     1     -12.210  14.686  70.128  1.00  0.00    -0.341 S  
HETATM   24  H1  UNL     1     -14.285  14.981  70.422  1.00  0.00     0.000 HD 
ENDBRANCH  17  18
ENDBRANCH   4  17
TORSDOF 2
ENDMDL
MODEL      135
REMARK 921   NORMALIZED FREE ENERGY PREDICTED BY IDOCK:   -3.22 KCAL/MOL
REMARK 922        TOTAL FREE ENERGY PREDICTED BY IDOCK:   -4.03 KCAL/MOL
REMARK 923 INTER-LIGAND FREE ENERGY PREDICTED BY IDOCK:   -3.59 KCAL/MOL
REMARK 924 INTRA-LIGAND FREE ENERGY PREDICTED BY IDOCK:   -0.44 KCAL/MOL
REMARK 927      BINDING AFFINITY PREDICTED BY RF-SCORE:    0.00 PKD
ROOT
HETATM    1  C   UNL     1      -8.039   6.227  65.754  1.00  0.00    -0.126 C  
HETATM    2  C   UNL     1      -7.019   7.199  66.365  1.00  0.00    -0.069 C  
HETATM    3  O   UNL     1      -7.392   8.078  67.420  1.00  0.00    -0.085 OA 
HETATM    4  C   UNL     1      -8.754   8.189  67.850  1.00  0.00    -0.128 C  
HETATM    5  O   UNL     1      -9.131   9.577  67.874  1.00  0.00    -0.126 OA 
HETATM    6  C   UNL     1      -9.382   6.239  66.423  1.00  0.00    -0.151 C  
HETATM    7  C   UNL     1      -8.732   3.013  67.035  1.00  0.00    -0.138 C  
HETATM    8  C   UNL     1      -9.539   9.872  66.537  1.00  0.00    -0.190 C  
HETATM    9  C   UNL     1     -10.768  10.780  66.598  1.00  0.00    -0.268 C  
HETATM   10  O   UNL     1      -9.829   8.631  65.848  1.00  0.00    -0.192 OA 
HETATM   11  C   UNL     1      -7.058   4.406  68.215  1.00  0.00    -0.060 C  
HETATM   12  C   UNL     1      -8.403  10.629  65.849  1.00  0.00    -0.161 C  
HETATM   13  O   UNL     1      -7.615   4.860  65.910  1.00  0.00    -0.087 OA 
HETATM   14  C   UNL     1      -8.165   4.425  67.158  1.00  0.00    -0.101 C  
HETATM   15  O   UNL     1      -9.226   5.324  67.529  1.00  0.00    -0.112 OA 
HETATM   16  C   UNL     1      -9.780   7.626  66.892  1.00  0.00    -0.213 C  
ENDROOT
BRANCH   4  17
HETATM   17  C   UNL     1      -8.874   7.646  69.278  1.00  0.00    -0.136 C  
BRANCH  17  18
HETATM   18  O   UNL     1     -10.008   8.236  69.906  1.00  0.00    -0.185 OA 
HETATM   19  H2  UNL     1     -12.243   9.315  71.079  1.00  0.00     0.000 HD 
HETATM   20  O   UNL     1     -11.391   6.219  70.322  1.00  0.00    -0.357 OA 
HETATM   21  N   UNL     1     -12.034   8.377  71.422  1.00  0.00    -0.291 N  
HETATM   22  O   UNL     1      -9.939   7.196  72.155  1.00  0.00    -0.165 OA 
HETATM   23  S   UNL     1     -10.788   7.340  71.003  1.00  0.00    -0.243 S  
HETATM   24  H1  UNL     1     -12.526   7.813  72.114  1.00  0.00     0.000 HD 
ENDBRANCH  17  18
ENDBRANCH   4  17
TORSDOF 2
ENDMDL
MODEL      136
REMARK 921   NORMALIZED FREE ENERGY PREDICTED BY IDOCK:   -3.21 KCAL/MOL
REMARK 922        TOTAL FREE ENERGY PREDICTED BY IDOCK:   -4.01 KCAL/MOL
REMARK 923 INTER-LIGAND FREE ENERGY PREDICTED BY IDOCK:   -3.57 KCAL/MOL
REMARK 924 INTRA-LIGAND FREE ENERGY PREDICTED BY IDOCK:   -0.44 KCAL/MOL
REMARK 927      BINDING AFFINITY PREDICTED BY RF-SCORE:    0.00 PKD
ROOT
HETATM    1  C   UNL     1     -10.474   8.169  66.830  1.00  0.00    -0.309 C  
HETATM    2  C   UNL     1     -11.135   6.853  67.264  1.00  0.00    -0.285 C  
HETATM    3  O   UNL     1     -10.353   5.772  67.761  1.00  0.00    -0.175 OA 
HETATM    4  C   UNL     1      -8.921   5.820  67.740  1.00  0.00    -0.107 C  
HETATM    5  O   UNL     1      -8.417   4.620  67.127  1.00  0.00    -0.105 OA 
HETATM    6  C   UNL     1      -8.992   8.223  67.064  1.00  0.00    -0.140 C  
HETATM    7  C   UNL     1      -9.736  10.836  69.020  1.00  0.00    -0.201 C  
HETATM    8  C   UNL     1      -8.436   4.887  65.723  1.00  0.00    -0.121 C  
HETATM    9  C   UNL     1      -7.167   4.298  65.105  1.00  0.00    -0.071 C  
HETATM   10  O   UNL     1      -8.513   6.318  65.516  1.00  0.00    -0.147 OA 
HETATM   11  C   UNL     1     -10.785   8.802  69.967  1.00  0.00    -0.236 C  
HETATM   12  C   UNL     1      -9.649   4.179  65.123  1.00  0.00    -0.185 C  
HETATM   13  O   UNL     1     -10.962   9.278  67.607  1.00  0.00    -0.204 OA 
HETATM   14  C   UNL     1     -10.084   9.378  68.734  1.00  0.00    -0.193 C  
HETATM   15  O   UNL     1      -8.874   8.658  68.436  1.00  0.00    -0.140 OA 
HETATM   16  C   UNL     1      -8.324   6.880  66.840  1.00  0.00    -0.114 C  
ENDROOT
BRANCH   4  17
HETATM   17  C   UNL     1      -8.401   5.865  69.181  1.00  0.00    -0.106 C  
BRANCH  17  18
HETATM   18  O   UNL     1      -8.717   4.636  69.828  1.00  0.00    -0.079 OA 
HETATM   19  H2  UNL     1      -9.271   2.286  71.135  1.00  0.00     0.000 HD 
HETATM   20  O   UNL     1      -8.522   5.316  72.206  1.00  0.00    -0.123 OA 
HETATM   21  N   UNL     1      -9.573   3.107  71.659  1.00  0.00    -0.148 N  
HETATM   22  O   UNL     1     -10.782   5.231  71.063  1.00  0.00    -0.213 OA 
HETATM   23  S   UNL     1      -9.449   4.730  71.267  1.00  0.00    -0.165 S  
HETATM   24  H1  UNL     1     -10.035   3.167  72.567  1.00  0.00     0.000 HD 
ENDBRANCH  17  18
ENDBRANCH   4  17
TORSDOF 2
ENDMDL
MODEL      137
REMARK 921   NORMALIZED FREE ENERGY PREDICTED BY IDOCK:   -3.21 KCAL/MOL
REMARK 922        TOTAL FREE ENERGY PREDICTED BY IDOCK:   -4.01 KCAL/MOL
REMARK 923 INTER-LIGAND FREE ENERGY PREDICTED BY IDOCK:   -3.72 KCAL/MOL
REMARK 924 INTRA-LIGAND FREE ENERGY PREDICTED BY IDOCK:   -0.29 KCAL/MOL
REMARK 927      BINDING AFFINITY PREDICTED BY RF-SCORE:    0.00 PKD
ROOT
HETATM    1  C   UNL     1     -10.008   5.109  68.423  1.00  0.00    -0.149 C  
HETATM    2  C   UNL     1     -10.818   6.405  68.575  1.00  0.00    -0.314 C  
HETATM    3  O   UNL     1     -10.491   7.356  69.582  1.00  0.00    -0.221 OA 
HETATM    4  C   UNL     1      -9.496   7.076  70.574  1.00  0.00    -0.166 C  
HETATM    5  O   UNL     1     -10.040   7.339  71.879  1.00  0.00    -0.178 OA 
HETATM    6  C   UNL     1      -8.832   5.003  69.349  1.00  0.00    -0.091 C  
HETATM    7  C   UNL     1      -7.050   4.828  66.521  1.00  0.00    -0.075 C  
HETATM    8  C   UNL     1     -10.724   6.138  72.242  1.00  0.00    -0.229 C  
HETATM    9  C   UNL     1     -10.468   5.868  73.725  1.00  0.00    -0.288 C  
HETATM   10  O   UNL     1     -10.243   5.052  71.413  1.00  0.00    -0.198 OA 
HETATM   11  C   UNL     1      -8.164   7.038  66.630  1.00  0.00    -0.112 C  
HETATM   12  C   UNL     1     -12.222   6.364  72.035  1.00  0.00    -0.320 C  
HETATM   13  O   UNL     1      -9.401   5.023  67.121  1.00  0.00    -0.117 OA 
HETATM   14  C   UNL     1      -8.115   5.640  67.253  1.00  0.00    -0.102 C  
HETATM   15  O   UNL     1      -7.778   5.701  68.650  1.00  0.00    -0.089 OA 
HETATM   16  C   UNL     1      -9.110   5.619  70.707  1.00  0.00    -0.147 C  
ENDROOT
BRANCH   4  17
HETATM   17  C   UNL     1      -8.303   8.017  70.365  1.00  0.00    -0.120 C  
BRANCH  17  18
HETATM   18  O   UNL     1      -7.210   7.564  71.156  1.00  0.00    -0.061 OA 
HETATM   19  H2  UNL     1      -5.056   6.756  72.654  1.00  0.00     0.000 HD 
HETATM   20  O   UNL     1      -6.224   9.733  71.846  1.00  0.00    -0.301 OA 
HETATM   21  N   UNL     1      -5.453   7.636  72.981  1.00  0.00    -0.043 N  
HETATM   22  O   UNL     1      -7.789   8.471  73.388  1.00  0.00    -0.355 OA 
HETATM   23  S   UNL     1      -6.755   8.506  72.390  1.00  0.00    -0.043 S  
HETATM   24  H1  UNL     1      -5.166   8.230  73.760  1.00  0.00     0.000 HD 
ENDBRANCH  17  18
ENDBRANCH   4  17
TORSDOF 2
ENDMDL
MODEL      138
REMARK 921   NORMALIZED FREE ENERGY PREDICTED BY IDOCK:   -3.20 KCAL/MOL
REMARK 922        TOTAL FREE ENERGY PREDICTED BY IDOCK:   -3.99 KCAL/MOL
REMARK 923 INTER-LIGAND FREE ENERGY PREDICTED BY IDOCK:   -3.56 KCAL/MOL
REMARK 924 INTRA-LIGAND FREE ENERGY PREDICTED BY IDOCK:   -0.44 KCAL/MOL
REMARK 927      BINDING AFFINITY PREDICTED BY RF-SCORE:    0.00 PKD
ROOT
HETATM    1  C   UNL     1      -9.125   9.380  70.659  1.00  0.00    -0.233 C  
HETATM    2  C   UNL     1     -10.529   9.002  70.164  1.00  0.00    -0.214 C  
HETATM    3  O   UNL     1     -10.760   8.684  68.796  1.00  0.00    -0.174 OA 
HETATM    4  C   UNL     1      -9.731   8.842  67.813  1.00  0.00    -0.158 C  
HETATM    5  O   UNL     1     -10.245   9.606  66.708  1.00  0.00    -0.227 OA 
HETATM    6  C   UNL     1      -8.055   9.290  69.610  1.00  0.00    -0.116 C  
HETATM    7  C   UNL     1      -6.686   7.045  71.680  1.00  0.00    -0.056 C  
HETATM    8  C   UNL     1     -10.073  10.972  67.092  1.00  0.00    -0.193 C  
HETATM    9  C   UNL     1      -9.617  11.762  65.865  1.00  0.00    -0.249 C  
HETATM   10  O   UNL     1      -9.099  11.041  68.162  1.00  0.00    -0.143 OA 
HETATM   11  C   UNL     1      -8.873   6.184  70.899  1.00  0.00    -0.136 C  
HETATM   12  C   UNL     1     -11.428  11.510  67.548  1.00  0.00    -0.355 C  
HETATM   13  O   UNL     1      -8.663   8.463  71.667  1.00  0.00    -0.149 OA 
HETATM   14  C   UNL     1      -7.977   7.424  70.961  1.00  0.00    -0.097 C  
HETATM   15  O   UNL     1      -7.655   7.903  69.642  1.00  0.00    -0.093 OA 
HETATM   16  C   UNL     1      -8.558   9.698  68.238  1.00  0.00    -0.119 C  
ENDROOT
BRANCH   4  17
HETATM   17  C   UNL     1      -9.331   7.461  67.281  1.00  0.00    -0.133 C  
BRANCH  17  18
HETATM   18  O   UNL     1      -9.306   7.499  65.858  1.00  0.00    -0.065 OA 
HETATM   19  H2  UNL     1      -9.215   7.646  63.118  1.00  0.00     0.000 HD 
HETATM   20  O   UNL     1      -7.068   8.498  65.474  1.00  0.00    -0.079 OA 
HETATM   21  N   UNL     1      -8.296   7.494  63.533  1.00  0.00    -0.367 N  
HETATM   22  O   UNL     1      -7.408   5.991  65.343  1.00  0.00    -0.072 OA 
HETATM   23  S   UNL     1      -7.864   7.340  65.144  1.00  0.00    -0.129 S  
HETATM   24  H1  UNL     1      -7.386   7.393  63.083  1.00  0.00     0.000 HD 
ENDBRANCH  17  18
ENDBRANCH   4  17
TORSDOF 2
ENDMDL
MODEL      139
REMARK 921   NORMALIZED FREE ENERGY PREDICTED BY IDOCK:   -3.19 KCAL/MOL
REMARK 922        TOTAL FREE ENERGY PREDICTED BY IDOCK:   -3.98 KCAL/MOL
REMARK 923 INTER-LIGAND FREE ENERGY PREDICTED BY IDOCK:   -3.45 KCAL/MOL
REMARK 924 INTRA-LIGAND FREE ENERGY PREDICTED BY IDOCK:   -0.54 KCAL/MOL
REMARK 927      BINDING AFFINITY PREDICTED BY RF-SCORE:    0.00 PKD
ROOT
HETATM    1  C   UNL     1     -10.061   7.294  68.497  1.00  0.00    -0.172 C  
HETATM    2  C   UNL     1     -10.604   7.731  67.129  1.00  0.00    -0.331 C  
HETATM    3  O   UNL     1      -9.925   8.714  66.355  1.00  0.00    -0.267 OA 
HETATM    4  C   UNL     1      -8.801   9.429  66.882  1.00  0.00    -0.127 C  
HETATM    5  O   UNL     1      -9.010  10.841  66.700  1.00  0.00    -0.148 OA 
HETATM    6  C   UNL     1      -8.748   7.918  68.870  1.00  0.00    -0.135 C  
HETATM    7  C   UNL     1      -7.653   4.757  68.957  1.00  0.00    -0.067 C  
HETATM    8  C   UNL     1      -9.784  11.247  67.830  1.00  0.00    -0.173 C  
HETATM    9  C   UNL     1      -9.268  12.607  68.303  1.00  0.00    -0.184 C  
HETATM   10  O   UNL     1      -9.667  10.244  68.868  1.00  0.00    -0.171 OA 
HETATM   11  C   UNL     1      -8.352   5.298  66.644  1.00  0.00    -0.108 C  
HETATM   12  C   UNL     1     -11.236  11.403  67.378  1.00  0.00    -0.370 C  
HETATM   13  O   UNL     1      -9.762   5.886  68.514  1.00  0.00    -0.119 OA 
HETATM   14  C   UNL     1      -8.397   5.775  68.098  1.00  0.00    -0.107 C  
HETATM   15  O   UNL     1      -7.768   7.061  68.246  1.00  0.00    -0.111 OA 
HETATM   16  C   UNL     1      -8.633   9.351  68.383  1.00  0.00    -0.124 C  
ENDROOT
BRANCH   4  17
HETATM   17  C   UNL     1      -7.545   9.036  66.095  1.00  0.00    -0.095 C  
BRANCH  17  18
HETATM   18  O   UNL     1      -7.936   8.469  64.849  1.00  0.00    -0.120 OA 
HETATM   19  H2  UNL     1      -8.737   7.443  62.432  1.00  0.00     0.000 HD 
HETATM   20  O   UNL     1      -8.144  10.519  63.467  1.00  0.00    -0.146 OA 
HETATM   21  N   UNL     1      -8.170   8.284  62.332  1.00  0.00    -0.181 N  
HETATM   22  O   UNL     1      -6.040   9.108  63.386  1.00  0.00    -0.087 OA 
HETATM   23  S   UNL     1      -7.466   9.244  63.510  1.00  0.00    -0.105 S  
HETATM   24  H1  UNL     1      -7.873   8.773  61.487  1.00  0.00     0.000 HD 
ENDBRANCH  17  18
ENDBRANCH   4  17
TORSDOF 2
ENDMDL
MODEL      140
REMARK 921   NORMALIZED FREE ENERGY PREDICTED BY IDOCK:   -3.15 KCAL/MOL
REMARK 922        TOTAL FREE ENERGY PREDICTED BY IDOCK:   -3.94 KCAL/MOL
REMARK 923 INTER-LIGAND FREE ENERGY PREDICTED BY IDOCK:   -3.55 KCAL/MOL
REMARK 924 INTRA-LIGAND FREE ENERGY PREDICTED BY IDOCK:   -0.39 KCAL/MOL
REMARK 927      BINDING AFFINITY PREDICTED BY RF-SCORE:    0.00 PKD
ROOT
HETATM    1  C   UNL     1     -10.509   9.476  69.383  1.00  0.00    -0.217 C  
HETATM    2  C   UNL     1     -10.848   9.552  67.887  1.00  0.00    -0.180 C  
HETATM    3  O   UNL     1      -9.817   9.560  66.906  1.00  0.00    -0.178 OA 
HETATM    4  C   UNL     1      -8.436   9.640  67.278  1.00  0.00    -0.132 C  
HETATM    5  O   UNL     1      -7.806  10.698  66.535  1.00  0.00    -0.127 OA 
HETATM    6  C   UNL     1      -9.046   9.322  69.679  1.00  0.00    -0.167 C  
HETATM    7  C   UNL     1      -9.987   6.466  71.148  1.00  0.00    -0.203 C  
HETATM    8  C   UNL     1      -8.067  11.884  67.288  1.00  0.00    -0.171 C  
HETATM    9  C   UNL     1      -6.808  12.752  67.270  1.00  0.00    -0.087 C  
HETATM   10  O   UNL     1      -8.438  11.513  68.638  1.00  0.00    -0.158 OA 
HETATM   11  C   UNL     1     -10.499   6.328  68.728  1.00  0.00    -0.279 C  
HETATM   12  C   UNL     1      -9.199  12.645  66.598  1.00  0.00    -0.218 C  
HETATM   13  O   UNL     1     -11.084   8.303  69.988  1.00  0.00    -0.235 OA 
HETATM   14  C   UNL     1     -10.094   7.277  69.860  1.00  0.00    -0.194 C  
HETATM   15  O   UNL     1      -8.823   7.898  69.592  1.00  0.00    -0.137 OA 
HETATM   16  C   UNL     1      -8.177  10.088  68.699  1.00  0.00    -0.111 C  
ENDROOT
BRANCH   4  17
HETATM   17  C   UNL     1      -7.740   8.326  66.904  1.00  0.00    -0.095 C  
BRANCH  17  18
HETATM   18  O   UNL     1      -8.360   7.786  65.741  1.00  0.00    -0.124 OA 
HETATM   19  H2  UNL     1      -9.490   6.773  63.453  1.00  0.00     0.000 HD 
HETATM   20  O   UNL     1      -6.362   7.057  64.464  1.00  0.00    -0.036 OA 
HETATM   21  N   UNL     1      -8.627   6.293  63.711  1.00  0.00    -0.313 N  
HETATM   22  O   UNL     1      -7.679   5.406  65.864  1.00  0.00    -0.089 OA 
HETATM   23  S   UNL     1      -7.603   6.559  65.008  1.00  0.00    -0.099 S  
HETATM   24  H1  UNL     1      -8.150   5.519  63.248  1.00  0.00     0.000 HD 
ENDBRANCH  17  18
ENDBRANCH   4  17
TORSDOF 2
ENDMDL
MODEL      141
REMARK 921   NORMALIZED FREE ENERGY PREDICTED BY IDOCK:   -3.14 KCAL/MOL
REMARK 922        TOTAL FREE ENERGY PREDICTED BY IDOCK:   -3.93 KCAL/MOL
REMARK 923 INTER-LIGAND FREE ENERGY PREDICTED BY IDOCK:   -3.54 KCAL/MOL
REMARK 924 INTRA-LIGAND FREE ENERGY PREDICTED BY IDOCK:   -0.39 KCAL/MOL
REMARK 927      BINDING AFFINITY PREDICTED BY RF-SCORE:    0.00 PKD
ROOT
HETATM    1  C   UNL     1      -9.739   4.486  68.448  1.00  0.00    -0.122 C  
HETATM    2  C   UNL     1     -10.781   5.522  68.000  1.00  0.00    -0.086 C  
HETATM    3  O   UNL     1     -10.411   6.876  67.768  1.00  0.00    -0.171 OA 
HETATM    4  C   UNL     1      -9.095   7.351  68.079  1.00  0.00    -0.130 C  
HETATM    5  O   UNL     1      -9.199   8.540  68.882  1.00  0.00    -0.146 OA 
HETATM    6  C   UNL     1      -8.336   5.013  68.520  1.00  0.00    -0.088 C  
HETATM    7  C   UNL     1      -7.691   2.650  66.239  1.00  0.00    -0.076 C  
HETATM    8  C   UNL     1      -9.334   8.069  70.224  1.00  0.00    -0.159 C  
HETATM    9  C   UNL     1      -8.507   8.974  71.137  1.00  0.00    -0.234 C  
HETATM   10  O   UNL     1      -8.883   6.693  70.289  1.00  0.00    -0.149 OA 
HETATM   11  C   UNL     1      -9.282   4.283  65.272  1.00  0.00    -0.153 C  
HETATM   12  C   UNL     1     -10.806   8.182  70.620  1.00  0.00    -0.246 C  
HETATM   13  O   UNL     1      -9.630   3.412  67.496  1.00  0.00    -0.208 OA 
HETATM   14  C   UNL     1      -8.617   3.817  66.569  1.00  0.00    -0.113 C  
HETATM   15  O   UNL     1      -7.844   4.872  67.169  1.00  0.00    -0.094 OA 
HETATM   16  C   UNL     1      -8.285   6.455  68.989  1.00  0.00    -0.115 C  
ENDROOT
BRANCH   4  17
HETATM   17  C   UNL     1      -8.378   7.725  66.777  1.00  0.00    -0.125 C  
BRANCH  17  18
HETATM   18  O   UNL     1      -9.299   8.382  65.911  1.00  0.00    -0.200 OA 
HETATM   19  H2  UNL     1     -11.060   9.719  64.285  1.00  0.00     0.000 HD 
HETATM   20  O   UNL     1      -8.268  10.635  65.785  1.00  0.00    -0.158 OA 
HETATM   21  N   UNL     1     -10.101  10.049  64.180  1.00  0.00    -0.447 N  
HETATM   22  O   UNL     1      -7.864   8.921  63.963  1.00  0.00    -0.122 OA 
HETATM   23  S   UNL     1      -8.705   9.540  64.952  1.00  0.00    -0.201 S  
HETATM   24  H1  UNL     1      -9.727  10.780  63.574  1.00  0.00     0.000 HD 
ENDBRANCH  17  18
ENDBRANCH   4  17
TORSDOF 2
ENDMDL
MODEL      142
REMARK 921   NORMALIZED FREE ENERGY PREDICTED BY IDOCK:   -3.05 KCAL/MOL
REMARK 922        TOTAL FREE ENERGY PREDICTED BY IDOCK:   -3.83 KCAL/MOL
REMARK 923 INTER-LIGAND FREE ENERGY PREDICTED BY IDOCK:   -3.37 KCAL/MOL
REMARK 924 INTRA-LIGAND FREE ENERGY PREDICTED BY IDOCK:   -0.46 KCAL/MOL
REMARK 927      BINDING AFFINITY PREDICTED BY RF-SCORE:    0.00 PKD
ROOT
HETATM    1  C   UNL     1      -9.024   9.006  66.273  1.00  0.00    -0.162 C  
HETATM    2  C   UNL     1     -10.471   8.538  66.485  1.00  0.00    -0.034 C  
HETATM    3  O   UNL     1     -10.818   7.725  67.600  1.00  0.00    -0.187 OA 
HETATM    4  C   UNL     1      -9.816   7.199  68.478  1.00  0.00    -0.153 C  
HETATM    5  O   UNL     1     -10.013   5.782  68.627  1.00  0.00    -0.136 OA 
HETATM    6  C   UNL     1      -8.078   8.609  67.368  1.00  0.00    -0.102 C  
HETATM    7  C   UNL     1      -7.642  11.908  67.728  1.00  0.00    -0.130 C  
HETATM    8  C   UNL     1      -9.332   5.196  67.515  1.00  0.00    -0.121 C  
HETATM    9  C   UNL     1      -8.622   3.931  67.999  1.00  0.00    -0.112 C  
HETATM   10  O   UNL     1      -8.394   6.159  66.976  1.00  0.00    -0.106 OA 
HETATM   11  C   UNL     1     -10.000  11.350  68.244  1.00  0.00    -0.203 C  
HETATM   12  C   UNL     1     -10.377   4.805  66.472  1.00  0.00    -0.284 C  
HETATM   13  O   UNL     1      -8.934  10.442  66.277  1.00  0.00    -0.150 OA 
HETATM   14  C   UNL     1      -8.700  10.811  67.640  1.00  0.00    -0.126 C  
HETATM   15  O   UNL     1      -8.234   9.652  68.354  1.00  0.00    -0.104 OA 
HETATM   16  C   UNL     1      -8.402   7.242  67.941  1.00  0.00    -0.119 C  
ENDROOT
BRANCH   4  17
HETATM   17  C   UNL     1      -9.974   7.842  69.861  1.00  0.00    -0.191 C  
BRANCH  17  18
HETATM   18  O   UNL     1      -9.224   7.092  70.811  1.00  0.00    -0.156 OA 
HETATM   19  H2  UNL     1      -7.709   5.693  72.623  1.00  0.00     0.000 HD 
HETATM   20  O   UNL     1      -7.701   8.852  71.671  1.00  0.00    -0.260 OA 
HETATM   21  N   UNL     1      -7.842   6.668  72.892  1.00  0.00    -0.100 N  
HETATM   22  O   UNL     1      -9.810   8.233  72.932  1.00  0.00    -0.276 OA 
HETATM   23  S   UNL     1      -8.681   7.887  72.110  1.00  0.00    -0.157 S  
HETATM   24  H1  UNL     1      -7.500   7.170  73.713  1.00  0.00     0.000 HD 
ENDBRANCH  17  18
ENDBRANCH   4  17
TORSDOF 2
ENDMDL
MODEL      143
REMARK 921   NORMALIZED FREE ENERGY PREDICTED BY IDOCK:   -3.04 KCAL/MOL
REMARK 922        TOTAL FREE ENERGY PREDICTED BY IDOCK:   -3.82 KCAL/MOL
REMARK 923 INTER-LIGAND FREE ENERGY PREDICTED BY IDOCK:   -3.27 KCAL/MOL
REMARK 924 INTRA-LIGAND FREE ENERGY PREDICTED BY IDOCK:   -0.55 KCAL/MOL
REMARK 927      BINDING AFFINITY PREDICTED BY RF-SCORE:    0.00 PKD
ROOT
HETATM    1  C   UNL     1      -9.049   4.235  70.749  1.00  0.00    -0.112 C  
HETATM    2  C   UNL     1      -7.855   5.129  70.381  1.00  0.00    -0.075 C  
HETATM    3  O   UNL     1      -7.999   6.184  69.436  1.00  0.00    -0.101 OA 
HETATM    4  C   UNL     1      -9.212   6.359  68.695  1.00  0.00    -0.125 C  
HETATM    5  O   UNL     1      -8.901   6.462  67.295  1.00  0.00    -0.110 OA 
HETATM    6  C   UNL     1     -10.344   4.636  70.106  1.00  0.00     0.007 C  
HETATM    7  C   UNL     1     -11.406   5.007  73.258  1.00  0.00    -0.393 C  
HETATM    8  C   UNL     1      -8.826   5.111  66.833  1.00  0.00    -0.110 C  
HETATM    9  C   UNL     1      -9.477   5.038  65.452  1.00  0.00    -0.099 C  
HETATM   10  O   UNL     1      -9.499   4.250  67.784  1.00  0.00    -0.150 OA 
HETATM   11  C   UNL     1      -9.580   6.625  72.833  1.00  0.00    -0.162 C  
HETATM   12  C   UNL     1      -7.350   4.737  66.702  1.00  0.00    -0.082 C  
HETATM   13  O   UNL     1      -9.349   4.320  72.154  1.00  0.00    -0.120 OA 
HETATM   14  C   UNL     1     -10.295   5.387  72.285  1.00  0.00    -0.209 C  
HETATM   15  O   UNL     1     -10.872   5.646  70.992  1.00  0.00    -0.260 OA 
HETATM   16  C   UNL     1     -10.147   5.169  68.699  1.00  0.00    -0.150 C  
ENDROOT
BRANCH   4  17
HETATM   17  C   UNL     1      -9.877   7.671  69.126  1.00  0.00    -0.171 C  
BRANCH  17  18
HETATM   18  O   UNL     1      -8.921   8.472  69.814  1.00  0.00    -0.142 OA 
HETATM   19  H2  UNL     1      -7.025  10.002  71.078  1.00  0.00     0.000 HD 
HETATM   20  O   UNL     1      -7.765   9.540  67.896  1.00  0.00    -0.087 OA 
HETATM   21  N   UNL     1      -7.348  10.420  70.206  1.00  0.00    -0.257 N  
HETATM   22  O   UNL     1      -9.602  10.759  69.144  1.00  0.00    -0.204 OA 
HETATM   23  S   UNL     1      -8.481   9.859  69.109  1.00  0.00    -0.160 S  
HETATM   24  H1  UNL     1      -7.071  11.295  69.761  1.00  0.00     0.000 HD 
ENDBRANCH  17  18
ENDBRANCH   4  17
TORSDOF 2
ENDMDL
MODEL      144
REMARK 921   NORMALIZED FREE ENERGY PREDICTED BY IDOCK:   -3.02 KCAL/MOL
REMARK 922        TOTAL FREE ENERGY PREDICTED BY IDOCK:   -3.80 KCAL/MOL
REMARK 923 INTER-LIGAND FREE ENERGY PREDICTED BY IDOCK:   -3.31 KCAL/MOL
REMARK 924 INTRA-LIGAND FREE ENERGY PREDICTED BY IDOCK:   -0.48 KCAL/MOL
REMARK 927      BINDING AFFINITY PREDICTED BY RF-SCORE:    0.00 PKD
ROOT
HETATM    1  C   UNL     1      -9.493   5.800  66.113  1.00  0.00    -0.124 C  
HETATM    2  C   UNL     1      -8.445   6.541  66.957  1.00  0.00    -0.113 C  
HETATM    3  O   UNL     1      -8.309   6.276  68.348  1.00  0.00    -0.114 OA 
HETATM    4  C   UNL     1      -9.231   5.423  69.036  1.00  0.00    -0.120 C  
HETATM    5  O   UNL     1      -9.718   6.100  70.209  1.00  0.00    -0.161 OA 
HETATM    6  C   UNL     1     -10.259   4.749  66.862  1.00  0.00    -0.186 C  
HETATM    7  C   UNL     1      -8.958   2.663  64.590  1.00  0.00    -0.124 C  
HETATM    8  C   UNL     1     -10.813   6.894  69.749  1.00  0.00    -0.259 C  
HETATM    9  C   UNL     1     -11.926   6.830  70.794  1.00  0.00    -0.433 C  
HETATM   10  O   UNL     1     -11.258   6.386  68.467  1.00  0.00    -0.328 OA 
HETATM   11  C   UNL     1      -7.116   3.644  65.924  1.00  0.00    -0.063 C  
HETATM   12  C   UNL     1     -10.333   8.340  69.630  1.00  0.00    -0.218 C  
HETATM   13  O   UNL     1      -8.874   5.051  65.052  1.00  0.00    -0.152 OA 
HETATM   14  C   UNL     1      -8.608   3.754  65.598  1.00  0.00    -0.112 C  
HETATM   15  O   UNL     1      -9.415   3.580  66.776  1.00  0.00    -0.196 OA 
HETATM   16  C   UNL     1     -10.524   5.146  68.302  1.00  0.00    -0.011 C  
ENDROOT
BRANCH   4  17
HETATM   17  C   UNL     1      -8.495   4.159  69.496  1.00  0.00    -0.068 C  
BRANCH  17  18
HETATM   18  O   UNL     1      -9.421   3.293  70.145  1.00  0.00    -0.166 OA 
HETATM   19  H2  UNL     1     -11.150   1.560  71.388  1.00  0.00     0.000 HD 
HETATM   20  O   UNL     1      -7.859   1.791  71.353  1.00  0.00    -0.039 OA 
HETATM   21  N   UNL     1     -10.298   1.717  71.926  1.00  0.00    -0.132 N  
HETATM   22  O   UNL     1      -8.948   3.749  72.535  1.00  0.00    -0.102 OA 
HETATM   23  S   UNL     1      -8.974   2.680  71.574  1.00  0.00    -0.094 S  
HETATM   24  H1  UNL     1     -10.016   1.330  72.827  1.00  0.00     0.000 HD 
ENDBRANCH  17  18
ENDBRANCH   4  17
TORSDOF 2
ENDMDL
MODEL      145
REMARK 921   NORMALIZED FREE ENERGY PREDICTED BY IDOCK:   -3.02 KCAL/MOL
REMARK 922        TOTAL FREE ENERGY PREDICTED BY IDOCK:   -3.79 KCAL/MOL
REMARK 923 INTER-LIGAND FREE ENERGY PREDICTED BY IDOCK:   -3.43 KCAL/MOL
REMARK 924 INTRA-LIGAND FREE ENERGY PREDICTED BY IDOCK:   -0.36 KCAL/MOL
REMARK 927      BINDING AFFINITY PREDICTED BY RF-SCORE:    0.00 PKD
ROOT
HETATM    1  C   UNL     1     -10.152   9.535  70.731  1.00  0.00    -0.282 C  
HETATM    2  C   UNL     1     -10.621   9.230  69.301  1.00  0.00    -0.222 C  
HETATM    3  O   UNL     1      -9.806   8.474  68.412  1.00  0.00    -0.163 OA 
HETATM    4  C   UNL     1      -8.471   8.096  68.767  1.00  0.00    -0.126 C  
HETATM    5  O   UNL     1      -7.574   8.473  67.707  1.00  0.00    -0.096 OA 
HETATM    6  C   UNL     1      -8.844   8.899  71.102  1.00  0.00    -0.237 C  
HETATM    7  C   UNL     1     -10.642   7.381  73.482  1.00  0.00    -0.388 C  
HETATM    8  C   UNL     1      -7.246   9.839  67.971  1.00  0.00    -0.080 C  
HETATM    9  C   UNL     1      -5.760  10.043  67.673  1.00  0.00    -0.042 C  
HETATM   10  O   UNL     1      -7.558  10.141  69.353  1.00  0.00    -0.103 OA 
HETATM   11  C   UNL     1     -11.471   6.652  71.265  1.00  0.00    -0.360 C  
HETATM   12  C   UNL     1      -8.063  10.715  67.021  1.00  0.00    -0.120 C  
HETATM   13  O   UNL     1     -11.061   8.990  71.705  1.00  0.00    -0.334 OA 
HETATM   14  C   UNL     1     -10.583   7.670  71.985  1.00  0.00    -0.220 C  
HETATM   15  O   UNL     1      -9.216   7.576  71.544  1.00  0.00    -0.136 OA 
HETATM   16  C   UNL     1      -7.876   8.851  69.935  1.00  0.00    -0.092 C  
ENDROOT
BRANCH   4  17
HETATM   17  C   UNL     1      -8.405   6.571  68.915  1.00  0.00    -0.122 C  
BRANCH  17  18
HETATM   18  O   UNL     1      -7.263   6.085  68.217  1.00  0.00    -0.079 OA 
HETATM   19  H2  UNL     1      -5.038   5.107  66.940  1.00  0.00     0.000 HD 
HETATM   20  O   UNL     1      -7.040   3.832  69.233  1.00  0.00    -0.045 OA 
HETATM   21  N   UNL     1      -5.706   4.374  67.181  1.00  0.00    -0.021 N  
HETATM   22  O   UNL     1      -8.203   4.140  67.003  1.00  0.00    -0.100 OA 
HETATM   23  S   UNL     1      -7.186   4.491  67.956  1.00  0.00    -0.065 S  
HETATM   24  H1  UNL     1      -5.657   3.369  67.016  1.00  0.00     0.000 HD 
ENDBRANCH  17  18
ENDBRANCH   4  17
TORSDOF 2
ENDMDL
MODEL      146
REMARK 921   NORMALIZED FREE ENERGY PREDICTED BY IDOCK:   -2.96 KCAL/MOL
REMARK 922        TOTAL FREE ENERGY PREDICTED BY IDOCK:   -3.73 KCAL/MOL
REMARK 923 INTER-LIGAND FREE ENERGY PREDICTED BY IDOCK:   -3.41 KCAL/MOL
REMARK 924 INTRA-LIGAND FREE ENERGY PREDICTED BY IDOCK:   -0.32 KCAL/MOL
REMARK 927      BINDING AFFINITY PREDICTED BY RF-SCORE:    0.00 PKD
ROOT
HETATM    1  C   UNL     1      -8.228  11.303  67.887  1.00  0.00    -0.123 C  
HETATM    2  C   UNL     1      -8.849  12.079  69.058  1.00  0.00     0.360 C  
HETATM    3  O   UNL     1      -9.100  13.476  68.955  1.00  0.00     0.028 OA 
HETATM    4  C   UNL     1      -8.656  14.230  67.820  1.00  0.00    -0.177 C  
HETATM    5  O   UNL     1      -7.931  15.386  68.275  1.00  0.00    -0.124 OA 
HETATM    6  C   UNL     1      -8.012  12.121  66.648  1.00  0.00     0.058 C  
HETATM    7  C   UNL     1     -10.079   9.903  65.230  1.00  0.00    -0.227 C  
HETATM    8  C   UNL     1      -6.593  14.927  68.480  1.00  0.00    -0.093 C  
HETATM    9  C   UNL     1      -5.632  16.009  67.988  1.00  0.00    -0.129 C  
HETATM   10  O   UNL     1      -6.407  13.683  67.761  1.00  0.00    -0.148 OA 
HETATM   11  C   UNL     1     -11.311  11.134  66.991  1.00  0.00    -0.216 C  
HETATM   12  C   UNL     1      -6.385  14.729  69.981  1.00  0.00    -0.164 C  
HETATM   13  O   UNL     1      -9.105  10.256  67.432  1.00  0.00    -0.138 OA 
HETATM   14  C   UNL     1      -9.921  10.850  66.416  1.00  0.00    -0.221 C  
HETATM   15  O   UNL     1      -9.284  12.060  65.967  1.00  0.00    -0.221 OA 
HETATM   16  C   UNL     1      -7.611  13.550  66.963  1.00  0.00     0.228 C  
ENDROOT
BRANCH   4  17
HETATM   17  C   UNL     1      -9.878  14.721  67.036  1.00  0.00    -0.239 C  
BRANCH  17  18
HETATM   18  O   UNL     1     -10.034  16.121  67.247  1.00  0.00    -0.239 OA 
HETATM   19  H2  UNL     1     -10.251  18.829  67.642  1.00  0.00     0.000 HD 
HETATM   20  O   UNL     1      -8.327  17.005  65.678  1.00  0.00    -0.417 OA 
HETATM   21  N   UNL     1      -9.984  18.592  66.686  1.00  0.00    -0.343 N  
HETATM   22  O   UNL     1     -10.768  16.891  65.009  1.00  0.00    -0.700 OA 
HETATM   23  S   UNL     1      -9.734  17.091  65.988  1.00  0.00    -0.167 S  
HETATM   24  H1  UNL     1      -9.796  19.204  65.892  1.00  0.00     0.000 HD 
ENDBRANCH  17  18
ENDBRANCH   4  17
TORSDOF 2
ENDMDL
MODEL      147
REMARK 921   NORMALIZED FREE ENERGY PREDICTED BY IDOCK:   -2.95 KCAL/MOL
REMARK 922        TOTAL FREE ENERGY PREDICTED BY IDOCK:   -3.72 KCAL/MOL
REMARK 923 INTER-LIGAND FREE ENERGY PREDICTED BY IDOCK:   -3.39 KCAL/MOL
REMARK 924 INTRA-LIGAND FREE ENERGY PREDICTED BY IDOCK:   -0.33 KCAL/MOL
REMARK 927      BINDING AFFINITY PREDICTED BY RF-SCORE:    0.00 PKD
ROOT
HETATM    1  C   UNL     1      -9.919   8.886  68.949  1.00  0.00    -0.190 C  
HETATM    2  C   UNL     1     -10.863   8.646  67.761  1.00  0.00    -0.005 C  
HETATM    3  O   UNL     1     -10.630   7.579  66.849  1.00  0.00    -0.332 OA 
HETATM    4  C   UNL     1      -9.440   6.785  66.921  1.00  0.00    -0.156 C  
HETATM    5  O   UNL     1      -8.828   6.731  65.620  1.00  0.00    -0.125 OA 
HETATM    6  C   UNL     1      -8.830   7.863  69.089  1.00  0.00    -0.142 C  
HETATM    7  C   UNL     1     -10.221   7.284  72.078  1.00  0.00    -0.212 C  
HETATM    8  C   UNL     1      -8.024   7.910  65.541  1.00  0.00    -0.119 C  
HETATM    9  C   UNL     1      -6.709   7.551  64.849  1.00  0.00    -0.047 C  
HETATM   10  O   UNL     1      -7.799   8.418  66.880  1.00  0.00    -0.094 OA 
HETATM   11  C   UNL     1     -11.856   6.710  70.309  1.00  0.00    -0.378 C  
HETATM   12  C   UNL     1      -8.767   8.934  64.684  1.00  0.00    -0.138 C  
HETATM   13  O   UNL     1     -10.620   8.781  70.202  1.00  0.00    -0.211 OA 
HETATM   14  C   UNL     1     -10.521   7.406  70.587  1.00  0.00    -0.215 C  
HETATM   15  O   UNL     1      -9.450   6.799  69.843  1.00  0.00    -0.156 OA 
HETATM   16  C   UNL     1      -8.319   7.378  67.746  1.00  0.00    -0.118 C  
ENDROOT
BRANCH   4  17
HETATM   17  C   UNL     1      -9.816   5.354  67.322  1.00  0.00    -0.156 C  
BRANCH  17  18
HETATM   18  O   UNL     1      -8.633   4.645  67.677  1.00  0.00    -0.103 OA 
HETATM   19  H2  UNL     1      -6.366   3.300  68.443  1.00  0.00     0.000 HD 
HETATM   20  O   UNL     1      -9.268   3.812  69.927  1.00  0.00    -0.115 OA 
HETATM   21  N   UNL     1      -7.215   2.886  68.826  1.00  0.00    -0.048 N  
HETATM   22  O   UNL     1      -9.479   2.324  67.886  1.00  0.00    -0.200 OA 
HETATM   23  S   UNL     1      -8.811   3.354  68.635  1.00  0.00    -0.128 S  
HETATM   24  H1  UNL     1      -7.327   2.072  69.430  1.00  0.00     0.000 HD 
ENDBRANCH  17  18
ENDBRANCH   4  17
TORSDOF 2
ENDMDL
MODEL      148
REMARK 921   NORMALIZED FREE ENERGY PREDICTED BY IDOCK:   -2.86 KCAL/MOL
REMARK 922        TOTAL FREE ENERGY PREDICTED BY IDOCK:   -3.62 KCAL/MOL
REMARK 923 INTER-LIGAND FREE ENERGY PREDICTED BY IDOCK:   -3.27 KCAL/MOL
REMARK 924 INTRA-LIGAND FREE ENERGY PREDICTED BY IDOCK:   -0.35 KCAL/MOL
REMARK 927      BINDING AFFINITY PREDICTED BY RF-SCORE:    0.00 PKD
ROOT
HETATM    1  C   UNL     1      -9.247  11.143  68.217  1.00  0.00    -0.169 C  
HETATM    2  C   UNL     1     -10.513  10.390  67.782  1.00  0.00    -0.226 C  
HETATM    3  O   UNL     1     -10.480   9.478  66.690  1.00  0.00    -0.231 OA 
HETATM    4  C   UNL     1      -9.313   9.339  65.872  1.00  0.00    -0.236 C  
HETATM    5  O   UNL     1      -9.686   9.463  64.488  1.00  0.00     0.050 OA 
HETATM    6  C   UNL     1      -8.009  10.760  67.458  1.00  0.00    -0.110 C  
HETATM    7  C   UNL     1      -6.850   9.863  70.467  1.00  0.00    -0.122 C  
HETATM    8  C   UNL     1      -9.686  10.869  64.231  1.00  0.00    -0.294 C  
HETATM    9  C   UNL     1      -9.087  11.103  62.844  1.00  0.00    -0.324 C  
HETATM   10  O   UNL     1      -8.917  11.537  65.262  1.00  0.00    -0.090 OA 
HETATM   11  C   UNL     1      -8.799   8.443  69.904  1.00  0.00    -0.137 C  
HETATM   12  C   UNL     1     -11.136  11.351  64.228  1.00  0.00    -0.356 C  
HETATM   13  O   UNL     1      -8.897  10.833  69.578  1.00  0.00    -0.040 OA 
HETATM   14  C   UNL     1      -8.023   9.701  69.506  1.00  0.00    -0.125 C  
HETATM   15  O   UNL     1      -7.517   9.600  68.162  1.00  0.00    -0.081 OA 
HETATM   16  C   UNL     1      -8.298  10.454  66.001  1.00  0.00    -0.149 C  
ENDROOT
BRANCH   4  17
HETATM   17  C   UNL     1      -8.724   7.938  66.075  1.00  0.00    -0.158 C  
BRANCH  17  18
HETATM   18  O   UNL     1      -8.753   7.238  64.835  1.00  0.00     0.085 OA 
HETATM   19  H2  UNL     1      -8.727   5.870  62.455  1.00  0.00     0.000 HD 
HETATM   20  O   UNL     1      -7.173   5.389  65.325  1.00  0.00    -0.065 OA 
HETATM   21  N   UNL     1      -8.587   5.259  63.260  1.00  0.00    -0.265 N  
HETATM   22  O   UNL     1      -9.675   5.040  65.516  1.00  0.00    -0.144 OA 
HETATM   23  S   UNL     1      -8.527   5.637  64.890  1.00  0.00    -0.083 S  
HETATM   24  H1  UNL     1      -8.444   4.250  63.294  1.00  0.00     0.000 HD 
ENDBRANCH  17  18
ENDBRANCH   4  17
TORSDOF 2
ENDMDL
MODEL      149
REMARK 921   NORMALIZED FREE ENERGY PREDICTED BY IDOCK:   -2.86 KCAL/MOL
REMARK 922        TOTAL FREE ENERGY PREDICTED BY IDOCK:   -3.61 KCAL/MOL
REMARK 923 INTER-LIGAND FREE ENERGY PREDICTED BY IDOCK:   -3.19 KCAL/MOL
REMARK 924 INTRA-LIGAND FREE ENERGY PREDICTED BY IDOCK:   -0.42 KCAL/MOL
REMARK 927      BINDING AFFINITY PREDICTED BY RF-SCORE:    0.00 PKD
ROOT
HETATM    1  C   UNL     1      -8.015  14.585  69.765  1.00  0.00     0.335 C  
HETATM    2  C   UNL     1      -7.140  13.704  68.861  1.00  0.00    -0.102 C  
HETATM    3  O   UNL     1      -7.688  13.065  67.714  1.00  0.00    -0.122 OA 
HETATM    4  C   UNL     1      -9.094  13.103  67.442  1.00  0.00    -0.208 C  
HETATM    5  O   UNL     1      -9.566  11.766  67.204  1.00  0.00    -0.178 OA 
HETATM    6  C   UNL     1      -9.422  14.766  69.275  1.00  0.00    -0.055 C  
HETATM    7  C   UNL     1      -8.622  18.015  69.204  1.00  0.00     0.121 C  
HETATM    8  C   UNL     1      -9.843  11.236  68.502  1.00  0.00    -0.197 C  
HETATM    9  C   UNL     1     -11.131  10.415  68.422  1.00  0.00    -0.322 C  
HETATM   10  O   UNL     1      -9.967  12.331  69.441  1.00  0.00     0.377 OA 
HETATM   11  C   UNL     1      -7.191  16.802  67.587  1.00  0.00    -0.163 C  
HETATM   12  C   UNL     1      -8.692  10.308  68.890  1.00  0.00    -0.152 C  
HETATM   13  O   UNL     1      -7.518  15.935  69.816  1.00  0.00    -0.133 OA 
HETATM   14  C   UNL     1      -8.172  16.630  68.749  1.00  0.00    -0.249 C  
HETATM   15  O   UNL     1      -9.328  15.870  68.350  1.00  0.00    -0.193 OA 
HETATM   16  C   UNL     1      -9.965  13.517  68.607  1.00  0.00    -0.145 C  
ENDROOT
BRANCH   4  17
HETATM   17  C   UNL     1      -9.334  13.919  66.166  1.00  0.00    -0.098 C  
BRANCH  17  18
HETATM   18  O   UNL     1      -9.911  13.074  65.176  1.00  0.00    -0.184 OA 
HETATM   19  H2  UNL     1     -11.073  11.413  63.325  1.00  0.00     0.000 HD 
HETATM   20  O   UNL     1     -12.264  13.002  65.960  1.00  0.00    -0.434 OA 
HETATM   21  N   UNL     1     -11.719  12.119  63.678  1.00  0.00    -0.478 N  
HETATM   22  O   UNL     1     -11.560  14.590  64.115  1.00  0.00    -0.269 OA 
HETATM   23  S   UNL     1     -11.463  13.331  64.804  1.00  0.00    -0.344 S  
HETATM   24  H1  UNL     1     -12.698  12.281  63.443  1.00  0.00     0.000 HD 
ENDBRANCH  17  18
ENDBRANCH   4  17
TORSDOF 2
ENDMDL
MODEL      150
REMARK 921   NORMALIZED FREE ENERGY PREDICTED BY IDOCK:   -2.85 KCAL/MOL
REMARK 922        TOTAL FREE ENERGY PREDICTED BY IDOCK:   -3.60 KCAL/MOL
REMARK 923 INTER-LIGAND FREE ENERGY PREDICTED BY IDOCK:   -3.19 KCAL/MOL
REMARK 924 INTRA-LIGAND FREE ENERGY PREDICTED BY IDOCK:   -0.42 KCAL/MOL
REMARK 927      BINDING AFFINITY PREDICTED BY RF-SCORE:    0.00 PKD
ROOT
HETATM    1  C   UNL     1      -6.774   8.802  68.699  1.00  0.00    -0.059 C  
HETATM    2  C   UNL     1      -6.386   7.321  68.823  1.00  0.00    -0.035 C  
HETATM    3  O   UNL     1      -7.216   6.301  68.279  1.00  0.00    -0.080 OA 
HETATM    4  C   UNL     1      -8.503   6.605  67.727  1.00  0.00    -0.122 C  
HETATM    5  O   UNL     1      -9.487   5.734  68.313  1.00  0.00    -0.115 OA 
HETATM    6  C   UNL     1      -8.019   9.050  67.898  1.00  0.00    -0.102 C  
HETATM    7  C   UNL     1      -5.988  10.834  65.925  1.00  0.00    -0.135 C  
HETATM    8  C   UNL     1      -9.869   6.376  69.531  1.00  0.00    -0.154 C  
HETATM    9  C   UNL     1     -11.380   6.219  69.704  1.00  0.00    -0.492 C  
HETATM   10  O   UNL     1      -9.483   7.771  69.471  1.00  0.00    -0.160 OA 
HETATM   11  C   UNL     1      -5.271   8.464  65.878  1.00  0.00    -0.031 C  
HETATM   12  C   UNL     1      -9.166   5.661  70.684  1.00  0.00    -0.176 C  
HETATM   13  O   UNL     1      -5.775   9.544  67.977  1.00  0.00    -0.041 OA 
HETATM   14  C   UNL     1      -6.162   9.477  66.600  1.00  0.00    -0.065 C  
HETATM   15  O   UNL     1      -7.548   9.096  66.533  1.00  0.00    -0.092 OA 
HETATM   16  C   UNL     1      -9.059   7.963  68.098  1.00  0.00    -0.133 C  
ENDROOT
BRANCH   4  17
HETATM   17  C   UNL     1      -8.477   6.336  66.218  1.00  0.00    -0.133 C  
BRANCH  17  18
HETATM   18  O   UNL     1      -9.646   5.607  65.856  1.00  0.00    -0.128 OA 
HETATM   19  H2  UNL     1     -11.882   4.219  65.077  1.00  0.00     0.000 HD 
HETATM   20  O   UNL     1      -8.896   4.585  63.724  1.00  0.00    -0.135 OA 
HETATM   21  N   UNL     1     -11.017   3.768  64.779  1.00  0.00    -0.499 N  
HETATM   22  O   UNL     1      -8.816   3.272  65.889  1.00  0.00    -0.125 OA 
HETATM   23  S   UNL     1      -9.429   4.240  65.020  1.00  0.00    -0.177 S  
HETATM   24  H1  UNL     1     -10.880   2.905  64.252  1.00  0.00     0.000 HD 
ENDBRANCH  17  18
ENDBRANCH   4  17
TORSDOF 2
ENDMDL
MODEL      151
REMARK 921   NORMALIZED FREE ENERGY PREDICTED BY IDOCK:   -2.83 KCAL/MOL
REMARK 922        TOTAL FREE ENERGY PREDICTED BY IDOCK:   -3.58 KCAL/MOL
REMARK 923 INTER-LIGAND FREE ENERGY PREDICTED BY IDOCK:   -3.36 KCAL/MOL
REMARK 924 INTRA-LIGAND FREE ENERGY PREDICTED BY IDOCK:   -0.22 KCAL/MOL
REMARK 927      BINDING AFFINITY PREDICTED BY RF-SCORE:    0.00 PKD
ROOT
HETATM    1  C   UNL     1     -11.078  16.240  69.968  1.00  0.00    -0.348 C  
HETATM    2  C   UNL     1     -11.728  16.073  68.587  1.00  0.00    -0.270 C  
HETATM    3  O   UNL     1     -11.753  14.805  67.941  1.00  0.00    -0.342 OA 
HETATM    4  C   UNL     1     -11.053  13.680  68.485  1.00  0.00    -0.275 C  
HETATM    5  O   UNL     1     -10.232  13.092  67.461  1.00  0.00    -0.222 OA 
HETATM    6  C   UNL     1     -10.578  14.962  70.575  1.00  0.00     0.098 C  
HETATM    7  C   UNL     1     -12.743  15.674  73.027  1.00  0.00    -0.581 C  
HETATM    8  C   UNL     1      -9.018  13.845  67.484  1.00  0.00    -0.197 C  
HETATM    9  C   UNL     1      -7.848  12.879  67.292  1.00  0.00    -0.134 C  
HETATM   10  O   UNL     1      -8.923  14.549  68.747  1.00  0.00    -0.188 OA 
HETATM   11  C   UNL     1     -14.003  15.312  70.926  1.00  0.00    -0.250 C  
HETATM   12  C   UNL     1      -9.044  14.824  66.311  1.00  0.00    -0.231 C  
HETATM   13  O   UNL     1     -12.032  16.706  70.941  1.00  0.00     0.183 OA 
HETATM   14  C   UNL     1     -12.606  15.526  71.514  1.00  0.00    -0.418 C  
HETATM   15  O   UNL     1     -11.742  14.412  71.229  1.00  0.00    -0.289 OA 
HETATM   16  C   UNL     1     -10.015  14.012  69.535  1.00  0.00     0.475 C  
ENDROOT
BRANCH   4  17
HETATM   17  C   UNL     1     -12.072  12.625  68.932  1.00  0.00    -0.123 C  
BRANCH  17  18
HETATM   18  O   UNL     1     -11.458  11.757  69.879  1.00  0.00    -0.272 OA 
HETATM   19  H2  UNL     1     -10.342  10.091  71.753  1.00  0.00     0.000 HD 
HETATM   20  O   UNL     1     -13.450  10.566  70.755  1.00  0.00    -0.175 OA 
HETATM   21  N   UNL     1     -11.170   9.689  71.315  1.00  0.00    -0.370 N  
HETATM   22  O   UNL     1     -12.008   9.526  68.950  1.00  0.00     0.686 OA 
HETATM   23  S   UNL     1     -12.169  10.327  70.133  1.00  0.00    -0.121 S  
HETATM   24  H1  UNL     1     -11.618   8.786  71.475  1.00  0.00     0.000 HD 
ENDBRANCH  17  18
ENDBRANCH   4  17
TORSDOF 2
ENDMDL
MODEL      152
REMARK 921   NORMALIZED FREE ENERGY PREDICTED BY IDOCK:   -2.78 KCAL/MOL
REMARK 922        TOTAL FREE ENERGY PREDICTED BY IDOCK:   -3.53 KCAL/MOL
REMARK 923 INTER-LIGAND FREE ENERGY PREDICTED BY IDOCK:   -3.12 KCAL/MOL
REMARK 924 INTRA-LIGAND FREE ENERGY PREDICTED BY IDOCK:   -0.41 KCAL/MOL
REMARK 927      BINDING AFFINITY PREDICTED BY RF-SCORE:    0.00 PKD
ROOT
HETATM    1  C   UNL     1      -8.700   9.527  70.207  1.00  0.00    -0.235 C  
HETATM    2  C   UNL     1      -9.888   9.156  69.308  1.00  0.00    -0.175 C  
HETATM    3  O   UNL     1      -9.865   9.441  67.914  1.00  0.00    -0.154 OA 
HETATM    4  C   UNL     1      -8.804  10.205  67.329  1.00  0.00    -0.132 C  
HETATM    5  O   UNL     1      -9.367  11.270  66.542  1.00  0.00    -0.175 OA 
HETATM    6  C   UNL     1      -7.528  10.110  69.473  1.00  0.00    -0.133 C  
HETATM    7  C   UNL     1      -5.873   7.476  70.708  1.00  0.00    -0.031 C  
HETATM    8  C   UNL     1      -9.603  12.330  67.472  1.00  0.00    -0.184 C  
HETATM    9  C   UNL     1      -9.228  13.651  66.800  1.00  0.00    -0.251 C  
HETATM   10  O   UNL     1      -8.814  12.096  68.664  1.00  0.00    -0.121 OA 
HETATM   11  C   UNL     1      -7.652   6.664  69.188  1.00  0.00    -0.100 C  
HETATM   12  C   UNL     1     -11.096  12.350  67.798  1.00  0.00    -0.292 C  
HETATM   13  O   UNL     1      -8.137   8.361  70.835  1.00  0.00    -0.092 OA 
HETATM   14  C   UNL     1      -7.125   7.889  69.939  1.00  0.00    -0.061 C  
HETATM   15  O   UNL     1      -6.786   8.953  69.031  1.00  0.00    -0.050 OA 
HETATM   16  C   UNL     1      -7.954  10.984  68.309  1.00  0.00    -0.124 C  
ENDROOT
BRANCH   4  17
HETATM   17  C   UNL     1      -7.998   9.303  66.388  1.00  0.00    -0.107 C  
BRANCH  17  18
HETATM   18  O   UNL     1      -7.661  10.038  65.215  1.00  0.00    -0.125 OA 
HETATM   19  H2  UNL     1      -6.953  11.496  62.999  1.00  0.00     0.000 HD 
HETATM   20  O   UNL     1      -5.216  10.310  65.542  1.00  0.00    -0.052 OA 
HETATM   21  N   UNL     1      -6.210  10.869  63.310  1.00  0.00    -0.354 N  
HETATM   22  O   UNL     1      -6.129   8.470  64.058  1.00  0.00    -0.070 OA 
HETATM   23  S   UNL     1      -6.184   9.801  64.599  1.00  0.00    -0.104 S  
HETATM   24  H1  UNL     1      -5.279  10.719  62.921  1.00  0.00     0.000 HD 
ENDBRANCH  17  18
ENDBRANCH   4  17
TORSDOF 2
ENDMDL
MODEL      153
REMARK 921   NORMALIZED FREE ENERGY PREDICTED BY IDOCK:   -2.78 KCAL/MOL
REMARK 922        TOTAL FREE ENERGY PREDICTED BY IDOCK:   -3.53 KCAL/MOL
REMARK 923 INTER-LIGAND FREE ENERGY PREDICTED BY IDOCK:   -2.98 KCAL/MOL
REMARK 924 INTRA-LIGAND FREE ENERGY PREDICTED BY IDOCK:   -0.55 KCAL/MOL
REMARK 927      BINDING AFFINITY PREDICTED BY RF-SCORE:    0.00 PKD
ROOT
HETATM    1  C   UNL     1      -7.248  10.884  67.671  1.00  0.00    -0.093 C  
HETATM    2  C   UNL     1      -7.609  11.457  69.050  1.00  0.00    -0.084 C  
HETATM    3  O   UNL     1      -8.157  12.765  69.175  1.00  0.00     0.264 OA 
HETATM    4  C   UNL     1      -8.256  13.641  68.046  1.00  0.00    -0.162 C  
HETATM    5  O   UNL     1      -7.674  14.913  68.382  1.00  0.00    -0.106 OA 
HETATM    6  C   UNL     1      -7.605  11.776  66.518  1.00  0.00     0.072 C  
HETATM    7  C   UNL     1      -9.523   9.205  65.561  1.00  0.00    -0.276 C  
HETATM    8  C   UNL     1      -6.276  14.758  68.125  1.00  0.00    -0.140 C  
HETATM    9  C   UNL     1      -5.759  16.046  67.484  1.00  0.00    -0.157 C  
HETATM   10  O   UNL     1      -6.080  13.616  67.256  1.00  0.00    -0.324 OA 
HETATM   11  C   UNL     1     -10.355  10.061  67.732  1.00  0.00    -0.261 C  
HETATM   12  C   UNL     1      -5.568  14.557  69.464  1.00  0.00    -0.092 C  
HETATM   13  O   UNL     1      -7.994   9.686  67.393  1.00  0.00    -0.105 OA 
HETATM   14  C   UNL     1      -9.191  10.118  66.738  1.00  0.00    -0.151 C  
HETATM   15  O   UNL     1      -8.987  11.456  66.249  1.00  0.00    -0.192 OA 
HETATM   16  C   UNL     1      -7.422  13.246  66.848  1.00  0.00     0.437 C  
ENDROOT
BRANCH   4  17
HETATM   17  C   UNL     1      -9.736  13.874  67.723  1.00  0.00    -0.225 C  
BRANCH  17  18
HETATM   18  O   UNL     1     -10.524  13.481  68.842  1.00  0.00    -0.212 OA 
HETATM   19  H2  UNL     1     -11.991  12.768  71.050  1.00  0.00     0.000 HD 
HETATM   20  O   UNL     1     -10.341  15.512  70.256  1.00  0.00    -0.306 OA 
HETATM   21  N   UNL     1     -12.038  13.768  70.854  1.00  0.00    -0.465 N  
HETATM   22  O   UNL     1     -12.363  15.142  68.774  1.00  0.00    -0.115 OA 
HETATM   23  S   UNL     1     -11.316  14.651  69.629  1.00  0.00    -0.286 S  
HETATM   24  H1  UNL     1     -12.538  14.506  71.351  1.00  0.00     0.000 HD 
ENDBRANCH  17  18
ENDBRANCH   4  17
TORSDOF 2
ENDMDL
MODEL      154
REMARK 921   NORMALIZED FREE ENERGY PREDICTED BY IDOCK:   -2.76 KCAL/MOL
REMARK 922        TOTAL FREE ENERGY PREDICTED BY IDOCK:   -3.51 KCAL/MOL
REMARK 923 INTER-LIGAND FREE ENERGY PREDICTED BY IDOCK:   -3.75 KCAL/MOL
REMARK 924 INTRA-LIGAND FREE ENERGY PREDICTED BY IDOCK:    0.24 KCAL/MOL
REMARK 927      BINDING AFFINITY PREDICTED BY RF-SCORE:    0.00 PKD
ROOT
HETATM    1  C   UNL     1     -11.519  11.416  68.298  1.00  0.00    -0.299 C  
HETATM    2  C   UNL     1     -11.718  12.202  66.993  1.00  0.00    -0.303 C  
HETATM    3  O   UNL     1     -10.648  12.944  66.418  1.00  0.00    -0.266 OA 
HETATM    4  C   UNL     1      -9.400  13.101  67.103  1.00  0.00    -0.235 C  
HETATM    5  O   UNL     1      -9.052  14.497  67.139  1.00  0.00    -0.204 OA 
HETATM    6  C   UNL     1     -10.113  11.439  68.825  1.00  0.00    -0.188 C  
HETATM    7  C   UNL     1     -10.280   8.117  68.458  1.00  0.00    -0.233 C  
HETATM    8  C   UNL     1      -9.733  15.017  68.283  1.00  0.00    -0.215 C  
HETATM    9  C   UNL     1      -8.802  16.003  68.989  1.00  0.00    -0.244 C  
HETATM   10  O   UNL     1     -10.103  13.918  69.152  1.00  0.00    -0.084 OA 
HETATM   11  C   UNL     1     -10.489   9.180  66.231  1.00  0.00    -0.035 C  
HETATM   12  C   UNL     1     -10.970  15.771  67.796  1.00  0.00    -0.314 C  
HETATM   13  O   UNL     1     -11.765  10.012  68.104  1.00  0.00    -0.096 OA 
HETATM   14  C   UNL     1     -10.502   9.444  67.739  1.00  0.00    -0.254 C  
HETATM   15  O   UNL     1      -9.461  10.362  68.118  1.00  0.00    -0.141 OA 
HETATM   16  C   UNL     1      -9.428  12.770  68.579  1.00  0.00    -0.092 C  
ENDROOT
BRANCH   4  17
HETATM   17  C   UNL     1      -8.305  12.366  66.322  1.00  0.00     0.341 C  
BRANCH  17  18
HETATM   18  O   UNL     1      -7.438  11.711  67.242  1.00  0.00    -0.126 OA 
HETATM   19  H2  UNL     1      -5.730  10.409  68.952  1.00  0.00     0.000 HD 
HETATM   20  O   UNL     1      -5.380  11.529  65.869  1.00  0.00    -0.285 OA 
HETATM   21  N   UNL     1      -5.244  11.049  68.325  1.00  0.00    -0.040 N  
HETATM   22  O   UNL     1      -5.654  13.406  67.548  1.00  0.00    -0.304 OA 
HETATM   23  S   UNL     1      -5.859  12.046  67.129  1.00  0.00    -0.129 S  
HETATM   24  H1  UNL     1      -4.248  11.261  68.253  1.00  0.00     0.000 HD 
ENDBRANCH  17  18
ENDBRANCH   4  17
TORSDOF 2
ENDMDL
MODEL      155
REMARK 921   NORMALIZED FREE ENERGY PREDICTED BY IDOCK:   -2.75 KCAL/MOL
REMARK 922        TOTAL FREE ENERGY PREDICTED BY IDOCK:   -3.49 KCAL/MOL
REMARK 923 INTER-LIGAND FREE ENERGY PREDICTED BY IDOCK:   -3.40 KCAL/MOL
REMARK 924 INTRA-LIGAND FREE ENERGY PREDICTED BY IDOCK:   -0.09 KCAL/MOL
REMARK 927      BINDING AFFINITY PREDICTED BY RF-SCORE:    0.00 PKD
ROOT
HETATM    1  C   UNL     1     -10.456  12.092  64.589  1.00  0.00    -0.299 C  
HETATM    2  C   UNL     1     -11.299  11.108  65.414  1.00  0.00     0.194 C  
HETATM    3  O   UNL     1     -11.041  10.911  66.799  1.00  0.00    -0.237 OA 
HETATM    4  C   UNL     1      -9.906  11.509  67.437  1.00  0.00    -0.186 C  
HETATM    5  O   UNL     1      -9.181  10.497  68.158  1.00  0.00    -0.142 OA 
HETATM    6  C   UNL     1      -9.440  12.856  65.386  1.00  0.00     0.208 C  
HETATM    7  C   UNL     1     -11.128  15.546  64.328  1.00  0.00     0.009 C  
HETATM    8  C   UNL     1      -8.312   9.905  67.190  1.00  0.00    -0.121 C  
HETATM    9  C   UNL     1      -6.960   9.642  67.855  1.00  0.00    -0.079 C  
HETATM   10  O   UNL     1      -8.184  10.802  66.060  1.00  0.00    -0.158 OA 
HETATM   11  C   UNL     1     -12.622  14.169  65.743  1.00  0.00    -0.475 C  
HETATM   12  C   UNL     1      -8.918   8.568  66.764  1.00  0.00    -0.173 C  
HETATM   13  O   UNL     1     -11.274  13.136  64.028  1.00  0.00    -0.382 OA 
HETATM   14  C   UNL     1     -11.283  14.186  65.001  1.00  0.00    -0.356 C  
HETATM   15  O   UNL     1     -10.182  13.981  65.904  1.00  0.00    -0.299 OA 
HETATM   16  C   UNL     1      -8.835  12.021  66.499  1.00  0.00    -0.172 C  
ENDROOT
BRANCH   4  17
HETATM   17  C   UNL     1     -10.392  12.550  68.451  1.00  0.00    -0.230 C  
BRANCH  17  18
HETATM   18  O   UNL     1      -9.272  13.277  68.944  1.00  0.00     0.064 OA 
HETATM   19  H2  UNL     1      -7.112  14.726  69.825  1.00  0.00     0.000 HD 
HETATM   20  O   UNL     1      -9.763  15.533  68.035  1.00  0.00    -0.207 OA 
HETATM   21  N   UNL     1      -7.961  15.288  69.759  1.00  0.00    -0.300 N  
HETATM   22  O   UNL     1     -10.360  14.940  70.425  1.00  0.00    -0.003 OA 
HETATM   23  S   UNL     1      -9.501  14.844  69.276  1.00  0.00    -0.056 S  
HETATM   24  H1  UNL     1      -8.105  16.276  69.968  1.00  0.00     0.000 HD 
ENDBRANCH  17  18
ENDBRANCH   4  17
TORSDOF 2
ENDMDL
MODEL      156
REMARK 921   NORMALIZED FREE ENERGY PREDICTED BY IDOCK:   -2.75 KCAL/MOL
REMARK 922        TOTAL FREE ENERGY PREDICTED BY IDOCK:   -3.49 KCAL/MOL
REMARK 923 INTER-LIGAND FREE ENERGY PREDICTED BY IDOCK:   -3.25 KCAL/MOL
REMARK 924 INTRA-LIGAND FREE ENERGY PREDICTED BY IDOCK:   -0.24 KCAL/MOL
REMARK 927      BINDING AFFINITY PREDICTED BY RF-SCORE:    0.00 PKD
ROOT
HETATM    1  C   UNL     1     -10.897   6.295  69.069  1.00  0.00    -0.337 C  
HETATM    2  C   UNL     1     -10.800   7.671  69.745  1.00  0.00    -0.217 C  
HETATM    3  O   UNL     1      -9.731   7.971  70.636  1.00  0.00    -0.172 OA 
HETATM    4  C   UNL     1      -8.797   6.965  71.043  1.00  0.00    -0.140 C  
HETATM    5  O   UNL     1      -8.696   6.964  72.478  1.00  0.00    -0.125 OA 
HETATM    6  C   UNL     1      -9.746   5.379  69.363  1.00  0.00    -0.165 C  
HETATM    7  C   UNL     1      -9.279   5.449  66.050  1.00  0.00    -0.166 C  
HETATM    8  C   UNL     1      -9.769   6.133  72.923  1.00  0.00    -0.158 C  
HETATM    9  C   UNL     1      -9.266   5.281  74.089  1.00  0.00    -0.118 C  
HETATM   10  O   UNL     1     -10.217   5.309  71.818  1.00  0.00    -0.196 OA 
HETATM   11  C   UNL     1      -8.947   7.731  66.954  1.00  0.00    -0.153 C  
HETATM   12  C   UNL     1     -10.894   7.038  73.424  1.00  0.00    -0.332 C  
HETATM   13  O   UNL     1     -10.853   6.415  67.635  1.00  0.00    -0.269 OA 
HETATM   14  C   UNL     1      -9.468   6.329  67.282  1.00  0.00    -0.119 C  
HETATM   15  O   UNL     1      -8.750   5.749  68.386  1.00  0.00    -0.112 OA 
HETATM   16  C   UNL     1      -9.230   5.539  70.781  1.00  0.00    -0.150 C  
ENDROOT
BRANCH   4  17
HETATM   17  C   UNL     1      -7.414   7.307  70.476  1.00  0.00    -0.083 C  
BRANCH  17  18
HETATM   18  O   UNL     1      -7.531   8.439  69.619  1.00  0.00    -0.070 OA 
HETATM   19  H2  UNL     1      -7.721  10.669  68.028  1.00  0.00     0.000 HD 
HETATM   20  O   UNL     1      -5.491   9.698  70.257  1.00  0.00    -0.037 OA 
HETATM   21  N   UNL     1      -6.755  10.397  68.209  1.00  0.00    -0.060 N  
HETATM   22  O   UNL     1      -5.508   8.213  68.204  1.00  0.00    -0.032 OA 
HETATM   23  S   UNL     1      -6.155   9.121  69.112  1.00  0.00    -0.042 S  
HETATM   24  H1  UNL     1      -5.887  10.827  67.889  1.00  0.00     0.000 HD 
ENDBRANCH  17  18
ENDBRANCH   4  17
TORSDOF 2
ENDMDL
MODEL      157
REMARK 921   NORMALIZED FREE ENERGY PREDICTED BY IDOCK:   -2.58 KCAL/MOL
REMARK 922        TOTAL FREE ENERGY PREDICTED BY IDOCK:   -3.31 KCAL/MOL
REMARK 923 INTER-LIGAND FREE ENERGY PREDICTED BY IDOCK:   -2.87 KCAL/MOL
REMARK 924 INTRA-LIGAND FREE ENERGY PREDICTED BY IDOCK:   -0.44 KCAL/MOL
REMARK 927      BINDING AFFINITY PREDICTED BY RF-SCORE:    0.00 PKD
ROOT
HETATM    1  C   UNL     1      -9.321   8.092  72.566  1.00  0.00    -0.260 C  
HETATM    2  C   UNL     1      -9.944   8.144  71.163  1.00  0.00    -0.180 C  
HETATM    3  O   UNL     1      -9.167   7.845  70.009  1.00  0.00    -0.152 OA 
HETATM    4  C   UNL     1      -7.755   7.627  70.099  1.00  0.00    -0.091 C  
HETATM    5  O   UNL     1      -7.085   8.457  69.134  1.00  0.00    -0.061 OA 
HETATM    6  C   UNL     1      -7.896   7.623  72.593  1.00  0.00    -0.101 C  
HETATM    7  C   UNL     1      -9.093   5.170  74.529  1.00  0.00    -0.114 C  
HETATM    8  C   UNL     1      -6.921   9.720  69.783  1.00  0.00    -0.087 C  
HETATM    9  C   UNL     1      -5.539  10.268  69.427  1.00  0.00    -0.037 C  
HETATM   10  O   UNL     1      -7.068   9.537  71.213  1.00  0.00    -0.313 OA 
HETATM   11  C   UNL     1     -10.122   4.992  72.284  1.00  0.00    -0.245 C  
HETATM   12  C   UNL     1      -7.983  10.674  69.239  1.00  0.00    -0.139 C  
HETATM   13  O   UNL     1      -9.992   7.129  73.399  1.00  0.00    -0.217 OA 
HETATM   14  C   UNL     1      -9.294   5.894  73.202  1.00  0.00    -0.139 C  
HETATM   15  O   UNL     1      -8.006   6.184  72.627  1.00  0.00    -0.103 OA 
HETATM   16  C   UNL     1      -7.110   8.098  71.385  1.00  0.00    -0.068 C  
ENDROOT
BRANCH   4  17
HETATM   17  C   UNL     1      -7.451   6.165  69.752  1.00  0.00    -0.081 C  
BRANCH  17  18
HETATM   18  O   UNL     1      -8.534   5.632  68.996  1.00  0.00    -0.102 OA 
HETATM   19  H2  UNL     1     -10.575   4.611  67.471  1.00  0.00     0.000 HD 
HETATM   20  O   UNL     1      -7.294   4.313  67.300  1.00  0.00    -0.068 OA 
HETATM   21  N   UNL     1      -9.769   3.987  67.516  1.00  0.00    -0.164 N  
HETATM   22  O   UNL     1      -8.256   3.197  69.362  1.00  0.00    -0.054 OA 
HETATM   23  S   UNL     1      -8.312   4.182  68.316  1.00  0.00    -0.093 S  
HETATM   24  H1  UNL     1      -9.629   3.072  67.088  1.00  0.00     0.000 HD 
ENDBRANCH  17  18
ENDBRANCH   4  17
TORSDOF 2
ENDMDL
MODEL      158
REMARK 921   NORMALIZED FREE ENERGY PREDICTED BY IDOCK:   -2.56 KCAL/MOL
REMARK 922        TOTAL FREE ENERGY PREDICTED BY IDOCK:   -3.28 KCAL/MOL
REMARK 923 INTER-LIGAND FREE ENERGY PREDICTED BY IDOCK:   -2.89 KCAL/MOL
REMARK 924 INTRA-LIGAND FREE ENERGY PREDICTED BY IDOCK:   -0.39 KCAL/MOL
REMARK 927      BINDING AFFINITY PREDICTED BY RF-SCORE:    0.00 PKD
ROOT
HETATM    1  C   UNL     1     -11.621  15.645  67.914  1.00  0.00    -0.190 C  
HETATM    2  C   UNL     1     -10.546  15.487  69.000  1.00  0.00    -0.246 C  
HETATM    3  O   UNL     1      -9.844  14.260  69.158  1.00  0.00    -0.125 OA 
HETATM    4  C   UNL     1     -10.211  13.092  68.413  1.00  0.00    -0.247 C  
HETATM    5  O   UNL     1     -10.375  11.986  69.318  1.00  0.00     0.001 OA 
HETATM    6  C   UNL     1     -11.777  14.449  67.020  1.00  0.00    -0.399 C  
HETATM    7  C   UNL     1     -10.952  16.588  64.581  1.00  0.00    -0.096 C  
HETATM    8  C   UNL     1     -11.719  12.092  69.791  1.00  0.00    -0.310 C  
HETATM    9  C   UNL     1     -12.314  10.686  69.870  1.00  0.00    -0.304 C  
HETATM   10  O   UNL     1     -12.471  12.938  68.887  1.00  0.00     0.067 OA 
HETATM   11  C   UNL     1      -9.041  16.378  66.142  1.00  0.00    -0.362 C  
HETATM   12  C   UNL     1     -11.680  12.689  71.197  1.00  0.00     1.040 C  
HETATM   13  O   UNL     1     -11.279  16.694  66.990  1.00  0.00     0.056 OA 
HETATM   14  C   UNL     1     -10.526  16.062  65.949  1.00  0.00    -0.359 C  
HETATM   15  O   UNL     1     -10.771  14.645  66.003  1.00  0.00    -0.296 OA 
HETATM   16  C   UNL     1     -11.576  13.143  67.765  1.00  0.00    -0.337 C  
ENDROOT
BRANCH   4  17
HETATM   17  C   UNL     1      -9.076  12.741  67.444  1.00  0.00    -0.192 C  
BRANCH  17  18
HETATM   18  O   UNL     1      -8.400  11.582  67.921  1.00  0.00    -0.125 OA 
HETATM   19  H2  UNL     1      -7.163   9.301  68.819  1.00  0.00     0.000 HD 
HETATM   20  O   UNL     1      -9.246   9.880  66.327  1.00  0.00    -0.156 OA 
HETATM   21  N   UNL     1      -7.313   9.295  67.810  1.00  0.00    -0.083 N  
HETATM   22  O   UNL     1      -6.992  10.980  65.972  1.00  0.00    -0.107 OA 
HETATM   23  S   UNL     1      -8.019  10.452  66.828  1.00  0.00    -0.120 S  
HETATM   24  H1  UNL     1      -7.072   8.582  67.121  1.00  0.00     0.000 HD 
ENDBRANCH  17  18
ENDBRANCH   4  17
TORSDOF 2
ENDMDL
MODEL      159
REMARK 921   NORMALIZED FREE ENERGY PREDICTED BY IDOCK:   -2.51 KCAL/MOL
REMARK 922        TOTAL FREE ENERGY PREDICTED BY IDOCK:   -3.22 KCAL/MOL
REMARK 923 INTER-LIGAND FREE ENERGY PREDICTED BY IDOCK:   -2.68 KCAL/MOL
REMARK 924 INTRA-LIGAND FREE ENERGY PREDICTED BY IDOCK:   -0.54 KCAL/MOL
REMARK 927      BINDING AFFINITY PREDICTED BY RF-SCORE:    0.00 PKD
ROOT
HETATM    1  C   UNL     1      -9.090  15.534  68.206  1.00  0.00    -0.186 C  
HETATM    2  C   UNL     1      -8.634  14.982  66.846  1.00  0.00    -0.249 C  
HETATM    3  O   UNL     1      -8.299  13.608  66.692  1.00  0.00     0.023 OA 
HETATM    4  C   UNL     1      -8.237  12.727  67.820  1.00  0.00    -0.176 C  
HETATM    5  O   UNL     1      -6.981  12.026  67.804  1.00  0.00    -0.086 OA 
HETATM    6  C   UNL     1      -9.226  14.495  69.280  1.00  0.00     0.110 C  
HETATM    7  C   UNL     1     -12.425  15.476  69.354  1.00  0.00    -0.030 C  
HETATM    8  C   UNL     1      -6.060  12.905  68.453  1.00  0.00    -0.074 C  
HETATM    9  C   UNL     1      -5.142  12.068  69.345  1.00  0.00    -0.060 C  
HETATM   10  O   UNL     1      -6.803  13.882  69.223  1.00  0.00    -0.115 OA 
HETATM   11  C   UNL     1     -11.938  14.501  67.130  1.00  0.00    -0.373 C  
HETATM   12  C   UNL     1      -5.213  13.584  67.377  1.00  0.00     0.238 C  
HETATM   13  O   UNL     1     -10.416  16.088  68.126  1.00  0.00    -0.252 OA 
HETATM   14  C   UNL     1     -11.306  15.009  68.429  1.00  0.00    -0.309 C  
HETATM   15  O   UNL     1     -10.558  13.970  69.087  1.00  0.00    -0.214 OA 
HETATM   16  C   UNL     1      -8.173  13.409  69.169  1.00  0.00     0.467 C  
ENDROOT
BRANCH   4  17
HETATM   17  C   UNL     1      -9.356  11.685  67.704  1.00  0.00    -0.178 C  
BRANCH  17  18
HETATM   18  O   UNL     1      -9.874  11.706  66.378  1.00  0.00    -0.199 OA 
HETATM   19  H2  UNL     1     -10.793  11.746  63.791  1.00  0.00     0.000 HD 
HETATM   20  O   UNL     1      -8.141  10.379  65.198  1.00  0.00    -0.153 OA 
HETATM   21  N   UNL     1     -10.291  10.887  64.016  1.00  0.00    -0.392 N  
HETATM   22  O   UNL     1     -10.301   9.299  65.965  1.00  0.00    -0.205 OA 
HETATM   23  S   UNL     1      -9.562  10.419  65.448  1.00  0.00    -0.270 S  
HETATM   24  H1  UNL     1     -10.095  10.076  63.429  1.00  0.00     0.000 HD 
ENDBRANCH  17  18
ENDBRANCH   4  17
TORSDOF 2
ENDMDL
MODEL      160
REMARK 921   NORMALIZED FREE ENERGY PREDICTED BY IDOCK:   -2.47 KCAL/MOL
REMARK 922        TOTAL FREE ENERGY PREDICTED BY IDOCK:   -3.18 KCAL/MOL
REMARK 923 INTER-LIGAND FREE ENERGY PREDICTED BY IDOCK:   -2.82 KCAL/MOL
REMARK 924 INTRA-LIGAND FREE ENERGY PREDICTED BY IDOCK:   -0.36 KCAL/MOL
REMARK 927      BINDING AFFINITY PREDICTED BY RF-SCORE:    0.00 PKD
ROOT
HETATM    1  C   UNL     1      -8.139   4.545  72.584  1.00  0.00    -0.099 C  
HETATM    2  C   UNL     1      -6.904   4.530  71.670  1.00  0.00    -0.035 C  
HETATM    3  O   UNL     1      -7.043   4.608  70.256  1.00  0.00    -0.046 OA 
HETATM    4  C   UNL     1      -8.331   4.559  69.632  1.00  0.00    -0.069 C  
HETATM    5  O   UNL     1      -8.317   3.562  68.595  1.00  0.00    -0.074 OA 
HETATM    6  C   UNL     1      -9.440   4.737  71.862  1.00  0.00    -0.143 C  
HETATM    7  C   UNL     1      -9.701   7.482  73.759  1.00  0.00    -0.303 C  
HETATM    8  C   UNL     1      -8.606   2.332  69.262  1.00  0.00    -0.068 C  
HETATM    9  C   UNL     1      -9.543   1.511  68.375  1.00  0.00    -0.203 C  
HETATM   10  O   UNL     1      -9.210   2.623  70.547  1.00  0.00    -0.111 OA 
HETATM   11  C   UNL     1      -7.734   7.719  72.273  1.00  0.00    -0.115 C  
HETATM   12  C   UNL     1      -7.295   1.565  69.433  1.00  0.00    -0.036 C  
HETATM   13  O   UNL     1      -8.105   5.666  73.487  1.00  0.00    -0.112 OA 
HETATM   14  C   UNL     1      -8.775   6.732  72.806  1.00  0.00    -0.121 C  
HETATM   15  O   UNL     1      -9.559   6.171  71.737  1.00  0.00    -0.152 OA 
HETATM   16  C   UNL     1      -9.454   4.052  70.509  1.00  0.00    -0.178 C  
ENDROOT
BRANCH   4  17
HETATM   17  C   UNL     1      -8.620   5.914  68.975  1.00  0.00    -0.114 C  
BRANCH  17  18
HETATM   18  O   UNL     1      -8.830   5.719  67.580  1.00  0.00    -0.109 OA 
HETATM   19  H2  UNL     1      -9.299   5.395  64.894  1.00  0.00     0.000 HD 
HETATM   20  O   UNL     1      -9.632   7.974  66.926  1.00  0.00    -0.173 OA 
HETATM   21  N   UNL     1      -9.004   6.343  65.129  1.00  0.00    -0.358 N  
HETATM   22  O   UNL     1      -7.208   7.314  66.597  1.00  0.00    -0.076 OA 
HETATM   23  S   UNL     1      -8.611   7.000  66.618  1.00  0.00    -0.130 S  
HETATM   24  H1  UNL     1      -8.865   7.151  64.523  1.00  0.00     0.000 HD 
ENDBRANCH  17  18
ENDBRANCH   4  17
TORSDOF 2
ENDMDL
MODEL      161
REMARK 921   NORMALIZED FREE ENERGY PREDICTED BY IDOCK:   -2.37 KCAL/MOL
REMARK 922        TOTAL FREE ENERGY PREDICTED BY IDOCK:   -3.08 KCAL/MOL
REMARK 923 INTER-LIGAND FREE ENERGY PREDICTED BY IDOCK:   -2.65 KCAL/MOL
REMARK 924 INTRA-LIGAND FREE ENERGY PREDICTED BY IDOCK:   -0.43 KCAL/MOL
REMARK 927      BINDING AFFINITY PREDICTED BY RF-SCORE:    0.00 PKD
ROOT
HETATM    1  C   UNL     1      -7.019  14.851  68.513  1.00  0.00    -0.107 C  
HETATM    2  C   UNL     1      -8.212  14.838  69.481  1.00  0.00     0.051 C  
HETATM    3  O   UNL     1      -9.523  14.534  69.018  1.00  0.00    -0.179 OA 
HETATM    4  C   UNL     1      -9.800  14.373  67.622  1.00  0.00    -0.224 C  
HETATM    5  O   UNL     1     -10.923  15.199  67.264  1.00  0.00    -0.313 OA 
HETATM    6  C   UNL     1      -7.357  14.438  67.110  1.00  0.00     0.124 C  
HETATM    7  C   UNL     1      -5.129  12.000  67.653  1.00  0.00    -0.076 C  
HETATM    8  C   UNL     1     -10.363  16.485  66.993  1.00  0.00    -0.301 C  
HETATM    9  C   UNL     1     -11.078  17.075  65.777  1.00  0.00     0.272 C  
HETATM   10  O   UNL     1      -8.941  16.340  66.756  1.00  0.00    -0.199 OA 
HETATM   11  C   UNL     1      -7.025  11.716  69.221  1.00  0.00    -0.083 C  
HETATM   12  C   UNL     1     -10.628  17.382  68.202  1.00  0.00    -0.376 C  
HETATM   13  O   UNL     1      -6.022  13.888  68.900  1.00  0.00    -0.079 OA 
HETATM   14  C   UNL     1      -6.372  12.676  68.224  1.00  0.00    -0.072 C  
HETATM   15  O   UNL     1      -7.268  12.997  67.144  1.00  0.00    -0.095 OA 
HETATM   16  C   UNL     1      -8.737  14.906  66.688  1.00  0.00    -0.227 C  
ENDROOT
BRANCH   4  17
HETATM   17  C   UNL     1     -10.188  12.914  67.355  1.00  0.00    -0.230 C  
BRANCH  17  18
HETATM   18  O   UNL     1     -11.361  12.601  68.099  1.00  0.00    -0.249 OA 
HETATM   19  H2  UNL     1     -13.638  11.934  69.480  1.00  0.00     0.000 HD 
HETATM   20  O   UNL     1     -11.409  10.133  67.844  1.00  0.00    -0.252 OA 
HETATM   21  N   UNL     1     -12.923  11.207  69.527  1.00  0.00     0.248 N  
HETATM   22  O   UNL     1     -10.441  11.202  69.927  1.00  0.00     0.025 OA 
HETATM   23  S   UNL     1     -11.393  11.169  68.850  1.00  0.00    -0.308 S  
HETATM   24  H1  UNL     1     -12.944  10.304  70.002  1.00  0.00     0.000 HD 
ENDBRANCH  17  18
ENDBRANCH   4  17
TORSDOF 2
ENDMDL
MODEL      162
REMARK 921   NORMALIZED FREE ENERGY PREDICTED BY IDOCK:   -2.33 KCAL/MOL
REMARK 922        TOTAL FREE ENERGY PREDICTED BY IDOCK:   -3.03 KCAL/MOL
REMARK 923 INTER-LIGAND FREE ENERGY PREDICTED BY IDOCK:   -2.58 KCAL/MOL
REMARK 924 INTRA-LIGAND FREE ENERGY PREDICTED BY IDOCK:   -0.45 KCAL/MOL
REMARK 927      BINDING AFFINITY PREDICTED BY RF-SCORE:    0.00 PKD
ROOT
HETATM    1  C   UNL     1     -10.773   7.949  67.648  1.00  0.00    -0.145 C  
HETATM    2  C   UNL     1     -10.559   7.089  68.903  1.00  0.00    -0.215 C  
HETATM    3  O   UNL     1      -9.274   6.564  69.216  1.00  0.00    -0.139 OA 
HETATM    4  C   UNL     1      -8.175   6.695  68.306  1.00  0.00    -0.114 C  
HETATM    5  O   UNL     1      -7.574   5.405  68.101  1.00  0.00    -0.079 OA 
HETATM    6  C   UNL     1      -9.520   8.238  66.875  1.00  0.00    -0.186 C  
HETATM    7  C   UNL     1     -10.262  11.437  67.520  1.00  0.00    -0.210 C  
HETATM    8  C   UNL     1      -8.347   4.799  67.063  1.00  0.00    -0.106 C  
HETATM    9  C   UNL     1      -7.394   4.055  66.125  1.00  0.00    -0.072 C  
HETATM   10  O   UNL     1      -9.085   5.830  66.362  1.00  0.00    -0.138 OA 
HETATM   11  C   UNL     1      -9.824  10.269  69.660  1.00  0.00    -0.230 C  
HETATM   12  C   UNL     1      -9.294   3.786  67.706  1.00  0.00    -0.237 C  
HETATM   13  O   UNL     1     -11.249   9.263  67.991  1.00  0.00     0.009 OA 
HETATM   14  C   UNL     1     -10.076  10.066  68.164  1.00  0.00    -0.159 C  
HETATM   15  O   UNL     1      -8.968   9.399  67.533  1.00  0.00    -0.122 OA 
HETATM   16  C   UNL     1      -8.552   7.070  66.890  1.00  0.00    -0.120 C  
ENDROOT
BRANCH   4  17
HETATM   17  C   UNL     1      -7.116   7.612  68.930  1.00  0.00    -0.079 C  
BRANCH  17  18
HETATM   18  O   UNL     1      -7.379   7.744  70.323  1.00  0.00    -0.065 OA 
HETATM   19  H2  UNL     1      -7.845   7.928  73.023  1.00  0.00     0.000 HD 
HETATM   20  O   UNL     1      -5.304   6.767  71.268  1.00  0.00    -0.026 OA 
HETATM   21  N   UNL     1      -6.857   8.016  72.789  1.00  0.00    -0.078 N  
HETATM   22  O   UNL     1      -5.566   9.276  71.037  1.00  0.00    -0.037 OA 
HETATM   23  S   UNL     1      -6.105   7.968  71.293  1.00  0.00    -0.035 S  
HETATM   24  H1  UNL     1      -6.053   8.157  73.400  1.00  0.00     0.000 HD 
ENDBRANCH  17  18
ENDBRANCH   4  17
TORSDOF 2
ENDMDL
MODEL      163
REMARK 921   NORMALIZED FREE ENERGY PREDICTED BY IDOCK:   -2.27 KCAL/MOL
REMARK 922        TOTAL FREE ENERGY PREDICTED BY IDOCK:   -2.96 KCAL/MOL
REMARK 923 INTER-LIGAND FREE ENERGY PREDICTED BY IDOCK:   -2.51 KCAL/MOL
REMARK 924 INTRA-LIGAND FREE ENERGY PREDICTED BY IDOCK:   -0.45 KCAL/MOL
REMARK 927      BINDING AFFINITY PREDICTED BY RF-SCORE:    0.00 PKD
ROOT
HETATM    1  C   UNL     1      -8.794  11.819  68.166  1.00  0.00    -0.169 C  
HETATM    2  C   UNL     1      -9.091  11.986  66.668  1.00  0.00    -0.205 C  
HETATM    3  O   UNL     1      -9.222  13.279  66.089  1.00  0.00    -0.131 OA 
HETATM    4  C   UNL     1      -9.224  14.460  66.901  1.00  0.00    -0.254 C  
HETATM    5  O   UNL     1     -10.368  15.265  66.562  1.00  0.00    -0.271 OA 
HETATM    6  C   UNL     1      -8.575  13.110  68.899  1.00  0.00     0.283 C  
HETATM    7  C   UNL     1      -5.553  11.831  69.559  1.00  0.00    -0.071 C  
HETATM    8  C   UNL     1     -11.437  14.735  67.348  1.00  0.00    -0.363 C  
HETATM    9  C   UNL     1     -12.277  15.903  67.866  1.00  0.00     0.798 C  
HETATM   10  O   UNL     1     -10.882  13.956  68.436  1.00  0.00    -0.240 OA 
HETATM   11  C   UNL     1      -5.774  12.142  67.112  1.00  0.00    -0.131 C  
HETATM   12  C   UNL     1     -12.308  13.868  66.441  1.00  0.00    -0.468 C  
HETATM   13  O   UNL     1      -7.557  11.116  68.377  1.00  0.00    -0.097 OA 
HETATM   14  C   UNL     1      -6.543  12.125  68.436  1.00  0.00    -0.059 C  
HETATM   15  O   UNL     1      -7.174  13.393  68.689  1.00  0.00    -0.101 OA 
HETATM   16  C   UNL     1      -9.459  14.227  68.377  1.00  0.00    -0.213 C  
ENDROOT
BRANCH   4  17
HETATM   17  C   UNL     1      -7.966  15.280  66.594  1.00  0.00     0.042 C  
BRANCH  17  18
HETATM   18  O   UNL     1      -8.043  16.524  67.282  1.00  0.00    -0.154 OA 
HETATM   19  H2  UNL     1      -8.160  18.885  68.679  1.00  0.00     0.000 HD 
HETATM   20  O   UNL     1      -6.048  16.350  68.748  1.00  0.00    -0.123 OA 
HETATM   21  N   UNL     1      -7.203  18.564  68.530  1.00  0.00    -0.278 N  
HETATM   22  O   UNL     1      -5.945  17.630  66.564  1.00  0.00    -0.158 OA 
HETATM   23  S   UNL     1      -6.646  17.197  67.742  1.00  0.00    -0.149 S  
HETATM   24  H1  UNL     1      -6.322  18.989  68.820  1.00  0.00     0.000 HD 
ENDBRANCH  17  18
ENDBRANCH   4  17
TORSDOF 2
ENDMDL
MODEL      164
REMARK 921   NORMALIZED FREE ENERGY PREDICTED BY IDOCK:   -1.52 KCAL/MOL
REMARK 922        TOTAL FREE ENERGY PREDICTED BY IDOCK:   -2.12 KCAL/MOL
REMARK 923 INTER-LIGAND FREE ENERGY PREDICTED BY IDOCK:   -2.20 KCAL/MOL
REMARK 924 INTRA-LIGAND FREE ENERGY PREDICTED BY IDOCK:    0.08 KCAL/MOL
REMARK 927      BINDING AFFINITY PREDICTED BY RF-SCORE:    0.00 PKD
ROOT
HETATM    1  C   UNL     1     -10.626  12.072  64.774  1.00  0.00    -0.297 C  
HETATM    2  C   UNL     1     -11.058  10.613  64.985  1.00  0.00     0.471 C  
HETATM    3  O   UNL     1     -10.251   9.716  65.738  1.00  0.00    -0.261 OA 
HETATM    4  C   UNL     1      -8.950  10.096  66.202  1.00  0.00    -0.150 C  
HETATM    5  O   UNL     1      -7.998   9.087  65.820  1.00  0.00    -0.099 OA 
HETATM    6  C   UNL     1      -9.366  12.454  65.494  1.00  0.00     0.118 C  
HETATM    7  C   UNL     1     -11.322  14.694  67.030  1.00  0.00    -0.362 C  
HETATM    8  C   UNL     1      -7.612   9.429  64.488  1.00  0.00    -0.110 C  
HETATM    9  C   UNL     1      -6.108   9.192  64.347  1.00  0.00    -0.071 C  
HETATM   10  O   UNL     1      -7.957  10.814  64.238  1.00  0.00     0.023 OA 
HETATM   11  C   UNL     1     -12.106  12.416  67.607  1.00  0.00    -0.076 C  
HETATM   12  C   UNL     1      -8.349   8.498  63.526  1.00  0.00    -0.086 C  
HETATM   13  O   UNL     1     -11.596  12.987  65.317  1.00  0.00    -0.308 OA 
HETATM   14  C   UNL     1     -11.195  13.216  66.672  1.00  0.00    -0.304 C  
HETATM   15  O   UNL     1      -9.819  12.817  66.816  1.00  0.00    -0.230 OA 
HETATM   16  C   UNL     1      -8.360  11.319  65.536  1.00  0.00     0.140 C  
ENDROOT
BRANCH   4  17
HETATM   17  C   UNL     1      -8.966  10.169  67.733  1.00  0.00    -0.128 C  
BRANCH  17  18
HETATM   18  O   UNL     1      -8.132  11.243  68.155  1.00  0.00    -0.121 OA 
HETATM   19  H2  UNL     1      -6.538  13.291  69.050  1.00  0.00     0.000 HD 
HETATM   20  O   UNL     1      -7.090  10.237  70.170  1.00  0.00    -0.147 OA 
HETATM   21  N   UNL     1      -6.147  12.372  69.255  1.00  0.00    -0.087 N  
HETATM   22  O   UNL     1      -5.874  10.242  67.946  1.00  0.00    -0.042 OA 
HETATM   23  S   UNL     1      -6.754  10.851  68.907  1.00  0.00    -0.074 S  
HETATM   24  H1  UNL     1      -5.278  12.125  69.729  1.00  0.00     0.000 HD 
ENDBRANCH  17  18
ENDBRANCH   4  17
TORSDOF 2
ENDMDL
MODEL      165
REMARK 921   NORMALIZED FREE ENERGY PREDICTED BY IDOCK:   -1.37 KCAL/MOL
REMARK 922        TOTAL FREE ENERGY PREDICTED BY IDOCK:   -1.96 KCAL/MOL
REMARK 923 INTER-LIGAND FREE ENERGY PREDICTED BY IDOCK:   -1.60 KCAL/MOL
REMARK 924 INTRA-LIGAND FREE ENERGY PREDICTED BY IDOCK:   -0.36 KCAL/MOL
REMARK 927      BINDING AFFINITY PREDICTED BY RF-SCORE:    0.00 PKD
ROOT
HETATM    1  C   UNL     1      -6.328  20.088  67.038  1.00  0.00    -0.188 C  
HETATM    2  C   UNL     1      -6.278  19.237  68.315  1.00  0.00    -0.224 C  
HETATM    3  O   UNL     1      -7.353  18.368  68.655  1.00  0.00    -0.279 OA 
HETATM    4  C   UNL     1      -8.571  18.363  67.901  1.00  0.00    -0.272 C  
HETATM    5  O   UNL     1      -9.685  18.496  68.801  1.00  0.00    -0.357 OA 
HETATM    6  C   UNL     1      -7.535  19.846  66.180  1.00  0.00    -0.311 C  
HETATM    7  C   UNL     1      -5.291  18.962  63.860  1.00  0.00    -0.252 C  
HETATM    8  C   UNL     1      -9.829  19.904  69.004  1.00  0.00    -0.262 C  
HETATM    9  C   UNL     1     -11.321  20.237  69.024  1.00  0.00     2.167 C  
HETATM   10  O   UNL     1      -9.142  20.606  67.939  1.00  0.00    -0.131 OA 
HETATM   11  C   UNL     1      -5.134  17.388  65.766  1.00  0.00     0.047 C  
HETATM   12  C   UNL     1      -9.230  20.251  70.366  1.00  0.00     1.405 C  
HETATM   13  O   UNL     1      -5.237  19.769  66.155  1.00  0.00    -0.163 OA 
HETATM   14  C   UNL     1      -5.722  18.724  65.304  1.00  0.00    -0.223 C  
HETATM   15  O   UNL     1      -7.160  18.713  65.367  1.00  0.00    -0.517 OA 
HETATM   16  C   UNL     1      -8.778  19.561  67.001  1.00  0.00    -0.305 C  
ENDROOT
BRANCH   4  17
HETATM   17  C   UNL     1      -8.709  17.015  67.182  1.00  0.00    -0.210 C  
BRANCH  17  18
HETATM   18  O   UNL     1      -9.835  16.321  67.709  1.00  0.00    -0.233 OA 
HETATM   19  H2  UNL     1     -12.054  15.019  68.667  1.00  0.00     0.000 HD 
HETATM   20  O   UNL     1     -11.148  15.955  65.636  1.00  0.00    -0.233 OA 
HETATM   21  N   UNL     1     -11.808  14.730  67.720  1.00  0.00    -0.478 N  
HETATM   22  O   UNL     1      -9.657  14.129  66.565  1.00  0.00    -0.276 OA 
HETATM   23  S   UNL     1     -10.551  15.241  66.740  1.00  0.00    -0.307 S  
HETATM   24  H1  UNL     1     -12.260  14.049  67.110  1.00  0.00     0.000 HD 
ENDBRANCH  17  18
ENDBRANCH   4  17
TORSDOF 2
ENDMDL
MODEL      166
REMARK 921   NORMALIZED FREE ENERGY PREDICTED BY IDOCK:    1.91 KCAL/MOL
REMARK 922        TOTAL FREE ENERGY PREDICTED BY IDOCK:    1.70 KCAL/MOL
REMARK 923 INTER-LIGAND FREE ENERGY PREDICTED BY IDOCK:   -0.46 KCAL/MOL
REMARK 924 INTRA-LIGAND FREE ENERGY PREDICTED BY IDOCK:    2.16 KCAL/MOL
REMARK 927      BINDING AFFINITY PREDICTED BY RF-SCORE:    0.00 PKD
ROOT
HETATM    1  C   UNL     1      -7.514  10.409  68.658  1.00  0.00    -0.088 C  
HETATM    2  C   UNL     1      -9.029  10.504  68.422  1.00  0.00    -0.141 C  
HETATM    3  O   UNL     1      -9.549  11.216  67.305  1.00  0.00    -0.164 OA 
HETATM    4  C   UNL     1      -8.695  11.984  66.449  1.00  0.00    -0.088 C  
HETATM    5  O   UNL     1      -9.237  13.309  66.305  1.00  0.00    -0.179 OA 
HETATM    6  C   UNL     1      -6.680  11.041  67.582  1.00  0.00    -0.073 C  
HETATM    7  C   UNL     1      -5.429   7.958  67.211  1.00  0.00    -0.036 C  
HETATM    8  C   UNL     1      -8.742  14.035  67.432  1.00  0.00    -0.207 C  
HETATM    9  C   UNL     1      -8.362  15.442  66.970  1.00  0.00    -0.268 C  
HETATM   10  O   UNL     1      -7.602  13.330  67.983  1.00  0.00    -0.116 OA 
HETATM   11  C   UNL     1      -7.842   7.916  66.656  1.00  0.00    -0.102 C  
HETATM   12  C   UNL     1      -9.869  14.142  68.459  1.00  0.00    -0.230 C  
HETATM   13  O   UNL     1      -7.069   9.040  68.647  1.00  0.00    -0.069 OA 
HETATM   14  C   UNL     1      -6.728   8.755  67.286  1.00  0.00    -0.063 C  
HETATM   15  O   UNL     1      -6.554  10.002  66.588  1.00  0.00    -0.069 OA 
HETATM   16  C   UNL     1      -7.325  12.290  67.012  1.00  0.00    -0.050 C  
ENDROOT
BRANCH   4  17
HETATM   17  C   UNL     1      -8.666  11.337  65.060  1.00  0.00     0.135 C  
BRANCH  17  18
HETATM   18  O   UNL     1      -7.406  11.599  64.451  1.00  0.00     1.836 OA 
HETATM   19  H2  UNL     1      -4.942  12.047  63.327  1.00  0.00     0.000 HD 
HETATM   20  O   UNL     1      -6.421   9.322  64.454  1.00  0.00    -0.078 OA 
HETATM   21  N   UNL     1      -5.310  11.121  63.109  1.00  0.00    -0.321 N  
HETATM   22  O   UNL     1      -7.551  10.244  62.382  1.00  0.00    -0.125 OA 
HETATM   23  S   UNL     1      -6.755  10.411  63.567  1.00  0.00     0.042 S  
HETATM   24  H1  UNL     1      -4.900  10.372  62.551  1.00  0.00     0.000 HD 
ENDBRANCH  17  18
ENDBRANCH   4  17
TORSDOF 2
ENDMDL
MODEL      167
REMARK 921   NORMALIZED FREE ENERGY PREDICTED BY IDOCK:    5.17 KCAL/MOL
REMARK 922        TOTAL FREE ENERGY PREDICTED BY IDOCK:    5.35 KCAL/MOL
REMARK 923 INTER-LIGAND FREE ENERGY PREDICTED BY IDOCK:    1.99 KCAL/MOL
REMARK 924 INTRA-LIGAND FREE ENERGY PREDICTED BY IDOCK:    3.36 KCAL/MOL
REMARK 927      BINDING AFFINITY PREDICTED BY RF-SCORE:    0.00 PKD
ROOT
HETATM    1  C   UNL     1      -7.226  13.827  66.885  1.00  0.00     0.797 C  
HETATM    2  C   UNL     1      -5.836  14.291  67.343  1.00  0.00     0.321 C  
HETATM    3  O   UNL     1      -5.659  15.555  67.973  1.00  0.00    -0.115 OA 
HETATM    4  C   UNL     1      -6.737  16.493  68.073  1.00  0.00    -0.137 C  
HETATM    5  O   UNL     1      -6.298  17.772  67.584  1.00  0.00    -0.158 OA 
HETATM    6  C   UNL     1      -8.340  14.767  67.242  1.00  0.00    -0.212 C  
HETATM    7  C   UNL     1      -9.543  12.156  68.956  1.00  0.00     0.270 C  
HETATM    8  C   UNL     1      -6.494  17.713  66.169  1.00  0.00    -0.249 C  
HETATM    9  C   UNL     1      -7.030  19.067  65.702  1.00  0.00    -0.281 C  
HETATM   10  O   UNL     1      -7.419  16.641  65.866  1.00  0.00     0.023 OA 
HETATM   11  C   UNL     1      -7.370  12.825  69.937  1.00  0.00     1.084 C  
HETATM   12  C   UNL     1      -5.136  17.469  65.513  1.00  0.00     0.116 C  
HETATM   13  O   UNL     1      -7.613  12.607  67.545  1.00  0.00    -0.137 OA 
HETATM   14  C   UNL     1      -8.299  13.011  68.735  1.00  0.00     0.134 C  
HETATM   15  O   UNL     1      -8.696  14.387  68.589  1.00  0.00    -0.177 OA 
HETATM   16  C   UNL     1      -7.914  16.221  67.162  1.00  0.00    -0.187 C  
ENDROOT
BRANCH   4  17
HETATM   17  C   UNL     1      -7.119  16.661  69.548  1.00  0.00    -0.063 C  
BRANCH  17  18
HETATM   18  O   UNL     1      -8.511  16.948  69.638  1.00  0.00     0.315 OA 
HETATM   19  H2  UNL     1     -11.178  17.558  69.870  1.00  0.00     0.000 HD 
HETATM   20  O   UNL     1      -8.439  19.382  70.111  1.00  0.00     0.799 OA 
HETATM   21  N   UNL     1     -10.629  18.332  69.494  1.00  0.00    -0.086 N  
HETATM   22  O   UNL     1      -8.824  18.530  67.756  1.00  0.00    -0.269 OA 
HETATM   23  S   UNL     1      -8.988  18.424  69.181  1.00  0.00     0.205 S  
HETATM   24  H1  UNL     1     -10.930  19.263  69.206  1.00  0.00     0.000 HD 
ENDBRANCH  17  18
ENDBRANCH   4  17
TORSDOF 2
ENDMDL
MODEL      168
REMARK 921   NORMALIZED FREE ENERGY PREDICTED BY IDOCK:   12.74 KCAL/MOL
REMARK 922        TOTAL FREE ENERGY PREDICTED BY IDOCK:   13.81 KCAL/MOL
REMARK 923 INTER-LIGAND FREE ENERGY PREDICTED BY IDOCK:    6.31 KCAL/MOL
REMARK 924 INTRA-LIGAND FREE ENERGY PREDICTED BY IDOCK:    7.50 KCAL/MOL
REMARK 927      BINDING AFFINITY PREDICTED BY RF-SCORE:    0.00 PKD
ROOT
HETATM    1  C   UNL     1      -6.880  10.352  66.826  1.00  0.00    -0.091 C  
HETATM    2  C   UNL     1      -5.869  10.747  67.912  1.00  0.00    -0.042 C  
HETATM    3  O   UNL     1      -6.260  11.561  69.012  1.00  0.00    -0.051 OA 
HETATM    4  C   UNL     1      -7.563  12.154  69.071  1.00  0.00     0.081 C  
HETATM    5  O   UNL     1      -7.430  13.562  69.338  1.00  0.00     0.128 OA 
HETATM    6  C   UNL     1      -8.282  10.818  67.088  1.00  0.00    -0.123 C  
HETATM    7  C   UNL     1      -9.019   7.554  67.028  1.00  0.00    -0.143 C  
HETATM    8  C   UNL     1      -7.226  14.162  68.057  1.00  0.00    -0.143 C  
HETATM    9  C   UNL     1      -8.014  15.472  68.009  1.00  0.00    -0.138 C  
HETATM   10  O   UNL     1      -7.663  13.240  67.029  1.00  0.00    -0.059 OA 
HETATM   11  C   UNL     1      -7.489   7.995  68.926  1.00  0.00    -0.093 C  
HETATM   12  C   UNL     1      -5.738  14.479  67.914  1.00  0.00    -0.123 C  
HETATM   13  O   UNL     1      -7.027   8.923  66.745  1.00  0.00    -0.075 OA 
HETATM   14  C   UNL     1      -8.087   8.591  67.648  1.00  0.00    -0.107 C  
HETATM   15  O   UNL     1      -8.838   9.786  67.930  1.00  0.00    -0.122 OA 
HETATM   16  C   UNL     1      -8.321  12.177  67.762  1.00  0.00    -0.159 C  
ENDROOT
BRANCH   4  17
HETATM   17  C   UNL     1      -8.345  11.529  70.231  1.00  0.00     3.140 C  
BRANCH  17  18
HETATM   18  O   UNL     1      -7.439  11.199  71.279  1.00  0.00     2.853 OA 
HETATM   19  H2  UNL     1      -5.638  10.531  73.241  1.00  0.00     0.000 HD 
HETATM   20  O   UNL     1      -5.271  11.572  70.131  1.00  0.00    -0.069 OA 
HETATM   21  N   UNL     1      -5.287  11.259  72.618  1.00  0.00     0.556 N  
HETATM   22  O   UNL     1      -6.267  13.355  71.631  1.00  0.00     0.002 OA 
HETATM   23  S   UNL     1      -6.021  11.978  71.296  1.00  0.00     1.088 S  
HETATM   24  H1  UNL     1      -4.394  11.751  72.629  1.00  0.00     0.000 HD 
ENDBRANCH  17  18
ENDBRANCH   4  17
TORSDOF 2
ENDMDL
MODEL      169
REMARK 921   NORMALIZED FREE ENERGY PREDICTED BY IDOCK:   18.53 KCAL/MOL
REMARK 922        TOTAL FREE ENERGY PREDICTED BY IDOCK:   20.28 KCAL/MOL
REMARK 923 INTER-LIGAND FREE ENERGY PREDICTED BY IDOCK:   19.12 KCAL/MOL
REMARK 924 INTRA-LIGAND FREE ENERGY PREDICTED BY IDOCK:    1.15 KCAL/MOL
REMARK 927      BINDING AFFINITY PREDICTED BY RF-SCORE:    0.00 PKD
ROOT
HETATM    1  C   UNL     1      -6.444  19.897  66.538  1.00  0.00    -0.188 C  
HETATM    2  C   UNL     1      -5.619  18.638  66.841  1.00  0.00    -0.143 C  
HETATM    3  O   UNL     1      -6.241  17.464  67.351  1.00  0.00    -0.132 OA 
HETATM    4  C   UNL     1      -7.622  17.460  67.733  1.00  0.00    -0.194 C  
HETATM    5  O   UNL     1      -7.744  16.921  69.061  1.00  0.00    -0.243 OA 
HETATM    6  C   UNL     1      -7.921  19.732  66.741  1.00  0.00    -0.296 C  
HETATM    7  C   UNL     1      -8.112  20.491  63.487  1.00  0.00     4.002 C  
HETATM    8  C   UNL     1      -7.517  18.031  69.932  1.00  0.00     1.021 C  
HETATM    9  C   UNL     1      -8.498  17.934  71.101  1.00  0.00     7.906 C  
HETATM   10  O   UNL     1      -7.699  19.260  69.187  1.00  0.00    -0.328 OA 
HETATM   11  C   UNL     1      -6.864  18.367  63.742  1.00  0.00     5.213 C  
HETATM   12  C   UNL     1      -6.093  17.924  70.476  1.00  0.00     0.343 C  
HETATM   13  O   UNL     1      -6.349  20.261  65.149  1.00  0.00    -0.239 OA 
HETATM   14  C   UNL     1      -7.424  19.576  64.496  1.00  0.00     1.910 C  
HETATM   15  O   UNL     1      -8.382  19.174  65.492  1.00  0.00    -0.261 OA 
HETATM   16  C   UNL     1      -8.244  18.827  67.915  1.00  0.00    -0.269 C  
ENDROOT
BRANCH   4  17
HETATM   17  C   UNL     1      -8.401  16.545  66.782  1.00  0.00    -0.239 C  
BRANCH  17  18
HETATM   18  O   UNL     1      -7.553  15.481  66.362  1.00  0.00     0.064 OA 
HETATM   19  H2  UNL     1      -5.862  13.452  65.611  1.00  0.00     0.000 HD 
HETATM   20  O   UNL     1      -6.543  14.827  68.532  1.00  0.00    -0.086 OA 
HETATM   21  N   UNL     1      -6.237  13.323  66.550  1.00  0.00     1.478 N  
HETATM   22  O   UNL     1      -8.517  13.552  67.584  1.00  0.00    -0.158 OA 
HETATM   23  S   UNL     1      -7.292  14.287  67.422  1.00  0.00    -0.041 S  
HETATM   24  H1  UNL     1      -6.072  12.570  67.219  1.00  0.00     0.000 HD 
ENDBRANCH  17  18
ENDBRANCH   4  17
TORSDOF 2
ENDMDL
MODEL      170
REMARK 921   NORMALIZED FREE ENERGY PREDICTED BY IDOCK:   20.25 KCAL/MOL
REMARK 922        TOTAL FREE ENERGY PREDICTED BY IDOCK:   22.19 KCAL/MOL
REMARK 923 INTER-LIGAND FREE ENERGY PREDICTED BY IDOCK:   18.17 KCAL/MOL
REMARK 924 INTRA-LIGAND FREE ENERGY PREDICTED BY IDOCK:    4.03 KCAL/MOL
REMARK 927      BINDING AFFINITY PREDICTED BY RF-SCORE:    0.00 PKD
ROOT
HETATM    1  C   UNL     1     -11.446  15.627  70.238  1.00  0.00    -0.349 C  
HETATM    2  C   UNL     1     -10.078  15.322  69.607  1.00  0.00    -0.237 C  
HETATM    3  O   UNL     1      -9.493  16.216  68.668  1.00  0.00    -0.210 OA 
HETATM    4  C   UNL     1     -10.214  17.350  68.171  1.00  0.00    -0.350 C  
HETATM    5  O   UNL     1     -10.158  17.354  66.734  1.00  0.00    -0.289 OA 
HETATM    6  C   UNL     1     -12.026  16.954  69.843  1.00  0.00     1.741 C  
HETATM    7  C   UNL     1     -11.904  17.602  73.125  1.00  0.00     1.441 C  
HETATM    8  C   UNL     1     -11.231  16.505  66.321  1.00  0.00     0.411 C  
HETATM    9  C   UNL     1     -11.898  17.133  65.097  1.00  0.00     2.190 C  
HETATM   10  O   UNL     1     -12.165  16.358  67.419  1.00  0.00     1.067 OA 
HETATM   11  C   UNL     1      -9.597  17.275  72.287  1.00  0.00    10.281 C  
HETATM   12  C   UNL     1     -10.639  15.154  65.919  1.00  0.00    -0.347 C  
HETATM   13  O   UNL     1     -11.348  15.733  71.670  1.00  0.00    -0.384 OA 
HETATM   14  C   UNL     1     -11.078  17.113  71.939  1.00  0.00     1.470 C  
HETATM   15  O   UNL     1     -11.429  17.883  70.775  1.00  0.00     2.415 OA 
HETATM   16  C   UNL     1     -11.708  17.317  68.405  1.00  0.00     1.083 C  
ENDROOT
BRANCH   4  17
HETATM   17  C   UNL     1      -9.535  18.632  68.670  1.00  0.00    -0.359 C  
BRANCH  17  18
HETATM   18  O   UNL     1      -8.810  19.221  67.596  1.00  0.00    -0.290 OA 
HETATM   19  H2  UNL     1      -7.340  20.352  65.571  1.00  0.00     0.000 HD 
HETATM   20  O   UNL     1      -6.656  18.004  67.786  1.00  0.00    -0.182 OA 
HETATM   21  N   UNL     1      -7.096  19.375  65.734  1.00  0.00    -0.286 N  
HETATM   22  O   UNL     1      -8.418  17.270  66.119  1.00  0.00    -0.418 OA 
HETATM   23  S   UNL     1      -7.717  18.291  66.850  1.00  0.00    -0.232 S  
HETATM   24  H1  UNL     1      -6.408  18.788  65.263  1.00  0.00     0.000 HD 
ENDBRANCH  17  18
ENDBRANCH   4  17
TORSDOF 2
ENDMDL
MODEL      171
REMARK 921   NORMALIZED FREE ENERGY PREDICTED BY IDOCK:   25.26 KCAL/MOL
REMARK 922        TOTAL FREE ENERGY PREDICTED BY IDOCK:   27.79 KCAL/MOL
REMARK 923 INTER-LIGAND FREE ENERGY PREDICTED BY IDOCK:   28.22 KCAL/MOL
REMARK 924 INTRA-LIGAND FREE ENERGY PREDICTED BY IDOCK:   -0.44 KCAL/MOL
REMARK 927      BINDING AFFINITY PREDICTED BY RF-SCORE:    0.00 PKD
ROOT
HETATM    1  C   UNL     1      -8.183  14.476  69.481  1.00  0.00     0.225 C  
HETATM    2  C   UNL     1      -9.489  15.088  70.009  1.00  0.00     0.281 C  
HETATM    3  O   UNL     1     -10.746  14.493  69.711  1.00  0.00    -0.170 OA 
HETATM    4  C   UNL     1     -10.851  13.395  68.797  1.00  0.00    -0.246 C  
HETATM    5  O   UNL     1     -11.861  13.691  67.816  1.00  0.00    -0.340 OA 
HETATM    6  C   UNL     1      -8.363  13.189  68.729  1.00  0.00     0.120 C  
HETATM    7  C   UNL     1      -6.390  11.912  71.112  1.00  0.00     1.516 C  
HETATM    8  C   UNL     1     -11.186  14.449  66.810  1.00  0.00    -0.337 C  
HETATM    9  C   UNL     1     -11.698  13.997  65.442  1.00  0.00    -0.344 C  
HETATM   10  O   UNL     1      -9.759  14.240  66.939  1.00  0.00    -0.247 OA 
HETATM   11  C   UNL     1      -8.487  12.718  72.155  1.00  0.00    18.559 C  
HETATM   12  C   UNL     1     -11.545  15.922  67.006  1.00  0.00     0.344 C  
HETATM   13  O   UNL     1      -7.310  14.097  70.560  1.00  0.00     0.608 OA 
HETATM   14  C   UNL     1      -7.649  12.741  70.874  1.00  0.00     5.562 C  
HETATM   15  O   UNL     1      -8.375  12.183  69.764  1.00  0.00     1.348 OA 
HETATM   16  C   UNL     1      -9.643  13.173  67.914  1.00  0.00    -0.218 C  
ENDROOT
BRANCH   4  17
HETATM   17  C   UNL     1     -11.297  12.146  69.565  1.00  0.00    -0.207 C  
BRANCH  17  18
HETATM   18  O   UNL     1     -12.036  12.546  70.715  1.00  0.00    -0.253 OA 
HETATM   19  H2  UNL     1     -13.530  13.282  72.897  1.00  0.00     0.000 HD 
HETATM   20  O   UNL     1     -13.619  10.646  70.915  1.00  0.00     0.010 OA 
HETATM   21  N   UNL     1     -13.429  12.271  72.814  1.00  0.00    -0.054 N  
HETATM   22  O   UNL     1     -11.508  10.727  72.314  1.00  0.00     2.204 OA 
HETATM   23  S   UNL     1     -12.617  11.369  71.661  1.00  0.00    -0.138 S  
HETATM   24  H1  UNL     1     -13.795  11.529  73.411  1.00  0.00     0.000 HD 
ENDBRANCH  17  18
ENDBRANCH   4  17
TORSDOF 2
ENDMDL
MODEL      172
REMARK 921   NORMALIZED FREE ENERGY PREDICTED BY IDOCK:   31.25 KCAL/MOL
REMARK 922        TOTAL FREE ENERGY PREDICTED BY IDOCK:   34.48 KCAL/MOL
REMARK 923 INTER-LIGAND FREE ENERGY PREDICTED BY IDOCK:   34.83 KCAL/MOL
REMARK 924 INTRA-LIGAND FREE ENERGY PREDICTED BY IDOCK:   -0.36 KCAL/MOL
REMARK 927      BINDING AFFINITY PREDICTED BY RF-SCORE:    0.00 PKD
ROOT
HETATM    1  C   UNL     1     -10.632  17.930  70.487  1.00  0.00     1.741 C  
HETATM    2  C   UNL     1      -9.216  17.359  70.648  1.00  0.00     4.221 C  
HETATM    3  O   UNL     1      -8.969  15.966  70.495  1.00  0.00     1.084 OA 
HETATM    4  C   UNL     1     -10.044  15.034  70.329  1.00  0.00     0.165 C  
HETATM    5  O   UNL     1      -9.892  13.962  71.276  1.00  0.00     4.485 OA 
HETATM    6  C   UNL     1     -11.663  16.919  70.078  1.00  0.00     1.160 C  
HETATM    7  C   UNL     1     -12.046  18.891  67.400  1.00  0.00     2.925 C  
HETATM    8  C   UNL     1     -10.505  14.440  72.476  1.00  0.00     4.147 C  
HETATM    9  C   UNL     1     -11.278  13.285  73.114  1.00  0.00     7.161 C  
HETATM   10  O   UNL     1     -11.379  15.548  72.150  1.00  0.00    -0.417 OA 
HETATM   11  C   UNL     1      -9.745  17.973  67.397  1.00  0.00    -0.296 C  
HETATM   12  C   UNL     1      -9.397  14.878  73.432  1.00  0.00     8.737 C  
HETATM   13  O   UNL     1     -10.688  18.894  69.420  1.00  0.00     0.559 OA 
HETATM   14  C   UNL     1     -11.011  18.149  68.241  1.00  0.00     0.164 C  
HETATM   15  O   UNL     1     -11.555  16.878  68.638  1.00  0.00    -0.010 OA 
HETATM   16  C   UNL     1     -11.414  15.558  70.700  1.00  0.00    -0.358 C  
ENDROOT
BRANCH   4  17
HETATM   17  C   UNL     1      -9.971  14.431  68.922  1.00  0.00    -0.182 C  
BRANCH  17  18
HETATM   18  O   UNL     1      -9.256  13.201  68.981  1.00  0.00     0.214 OA 
HETATM   19  H2  UNL     1      -7.926  10.799  69.033  1.00  0.00     0.000 HD 
HETATM   20  O   UNL     1      -9.288  12.546  66.588  1.00  0.00    -0.227 OA 
HETATM   21  N   UNL     1      -7.780  11.310  68.162  1.00  0.00    -0.106 N  
HETATM   22  O   UNL     1      -7.268  13.704  67.588  1.00  0.00    -0.146 OA 
HETATM   23  S   UNL     1      -8.380  12.797  67.682  1.00  0.00    -0.189 S  
HETATM   24  H1  UNL     1      -7.227  11.055  67.343  1.00  0.00     0.000 HD 
ENDBRANCH  17  18
ENDBRANCH   4  17
TORSDOF 2
ENDMDL
MODEL      173
REMARK 921   NORMALIZED FREE ENERGY PREDICTED BY IDOCK:   32.31 KCAL/MOL
REMARK 922        TOTAL FREE ENERGY PREDICTED BY IDOCK:   35.67 KCAL/MOL
REMARK 923 INTER-LIGAND FREE ENERGY PREDICTED BY IDOCK:   33.36 KCAL/MOL
REMARK 924 INTRA-LIGAND FREE ENERGY PREDICTED BY IDOCK:    2.31 KCAL/MOL
REMARK 927      BINDING AFFINITY PREDICTED BY RF-SCORE:    0.00 PKD
ROOT
HETATM    1  C   UNL     1     -10.632  17.930  70.487  1.00  0.00     1.741 C  
HETATM    2  C   UNL     1      -9.218  17.356  70.660  1.00  0.00     4.221 C  
HETATM    3  O   UNL     1      -8.977  15.960  70.522  1.00  0.00     1.084 OA 
HETATM    4  C   UNL     1     -10.055  15.031  70.360  1.00  0.00     0.284 C  
HETATM    5  O   UNL     1      -9.911  13.967  71.318  1.00  0.00     3.949 OA 
HETATM    6  C   UNL     1     -11.665  16.919  70.083  1.00  0.00     1.180 C  
HETATM    7  C   UNL     1     -12.028  18.866  67.385  1.00  0.00     2.411 C  
HETATM    8  C   UNL     1     -10.527  14.459  72.510  1.00  0.00     4.147 C  
HETATM    9  C   UNL     1     -11.307  13.313  73.156  1.00  0.00     6.427 C  
HETATM   10  O   UNL     1     -11.395  15.567  72.169  1.00  0.00    -0.417 OA 
HETATM   11  C   UNL     1      -9.731  17.939  67.401  1.00  0.00    -0.288 C  
HETATM   12  C   UNL     1      -9.421  14.902  73.468  1.00  0.00     8.601 C  
HETATM   13  O   UNL     1     -10.679  18.884  69.410  1.00  0.00     0.559 OA 
HETATM   14  C   UNL     1     -11.000  18.128  68.237  1.00  0.00     0.164 C  
HETATM   15  O   UNL     1     -11.551  16.863  68.645  1.00  0.00    -0.010 OA 
HETATM   16  C   UNL     1     -11.424  15.563  70.720  1.00  0.00    -0.367 C  
ENDROOT
BRANCH   4  17
HETATM   17  C   UNL     1      -9.977  14.413  68.959  1.00  0.00    -0.129 C  
BRANCH  17  18
HETATM   18  O   UNL     1     -10.827  15.144  68.081  1.00  0.00    -0.251 OA 
HETATM   19  H2  UNL     1     -12.411  16.539  66.325  1.00  0.00     0.000 HD 
HETATM   20  O   UNL     1     -10.497  13.874  65.975  1.00  0.00    -0.285 OA 
HETATM   21  N   UNL     1     -12.361  15.544  66.104  1.00  0.00     0.853 N  
HETATM   22  O   UNL     1     -12.504  13.430  67.457  1.00  0.00    -0.135 OA 
HETATM   23  S   UNL     1     -11.530  14.317  66.882  1.00  0.00    -0.379 S  
HETATM   24  H1  UNL     1     -12.805  15.023  65.348  1.00  0.00     0.000 HD 
ENDBRANCH  17  18
ENDBRANCH   4  17
TORSDOF 2
ENDMDL
MODEL      174
REMARK 921   NORMALIZED FREE ENERGY PREDICTED BY IDOCK:   48.62 KCAL/MOL
REMARK 922        TOTAL FREE ENERGY PREDICTED BY IDOCK:   53.88 KCAL/MOL
REMARK 923 INTER-LIGAND FREE ENERGY PREDICTED BY IDOCK:   54.28 KCAL/MOL
REMARK 924 INTRA-LIGAND FREE ENERGY PREDICTED BY IDOCK:   -0.40 KCAL/MOL
REMARK 927      BINDING AFFINITY PREDICTED BY RF-SCORE:    0.00 PKD
ROOT
HETATM    1  C   UNL     1     -11.132  13.049  62.775  1.00  0.00     2.038 C  
HETATM    2  C   UNL     1      -9.958  12.151  62.360  1.00  0.00     2.134 C  
HETATM    3  O   UNL     1      -9.092  11.584  63.337  1.00  0.00    -0.119 OA 
HETATM    4  C   UNL     1      -9.196  11.943  64.720  1.00  0.00     0.276 C  
HETATM    5  O   UNL     1      -7.898  12.323  65.209  1.00  0.00     1.922 OA 
HETATM    6  C   UNL     1     -11.315  13.182  64.258  1.00  0.00    -0.388 C  
HETATM    7  C   UNL     1     -14.329  11.851  63.666  1.00  0.00     3.650 C  
HETATM    8  C   UNL     1      -7.767  13.705  64.872  1.00  0.00     9.696 C  
HETATM    9  C   UNL     1      -7.088  14.423  66.039  1.00  0.00     4.925 C  
HETATM   10  O   UNL     1      -9.081  14.252  64.603  1.00  0.00     1.557 OA 
HETATM   11  C   UNL     1     -12.589  10.197  63.056  1.00  0.00     7.326 C  
HETATM   12  C   UNL     1      -6.867  13.809  63.641  1.00  0.00    21.666 C  
HETATM   13  O   UNL     1     -12.389  12.496  62.345  1.00  0.00     1.187 OA 
HETATM   14  C   UNL     1     -12.834  11.664  63.422  1.00  0.00    -0.023 C  
HETATM   15  O   UNL     1     -12.115  12.033  64.612  1.00  0.00    -0.319 OA 
HETATM   16  C   UNL     1      -9.993  13.197  65.002  1.00  0.00    -0.142 C  
ENDROOT
BRANCH   4  17
HETATM   17  C   UNL     1      -9.660  10.720  65.520  1.00  0.00    -0.222 C  
BRANCH  17  18
HETATM   18  O   UNL     1      -9.006  10.718  66.785  1.00  0.00    -0.144 OA 
HETATM   19  H2  UNL     1      -7.802  10.768  69.252  1.00  0.00     0.000 HD 
HETATM   20  O   UNL     1     -10.953  10.994  68.298  1.00  0.00    -0.198 OA 
HETATM   21  N   UNL     1      -8.736  10.358  69.280  1.00  0.00    -0.220 N  
HETATM   22  O   UNL     1      -9.974   8.700  67.851  1.00  0.00    -0.170 OA 
HETATM   23  S   UNL     1      -9.834  10.119  68.039  1.00  0.00    -0.151 S  
HETATM   24  H1  UNL     1      -9.258   9.981  70.070  1.00  0.00     0.000 HD 
ENDBRANCH  17  18
ENDBRANCH   4  17
TORSDOF 2
ENDMDL
