MODEL        1
REMARK 921   NORMALIZED FREE ENERGY PREDICTED BY IDOCK:   -8.76 KCAL/MOL
REMARK 922        TOTAL FREE ENERGY PREDICTED BY IDOCK:  -10.94 KCAL/MOL
REMARK 923 INTER-LIGAND FREE ENERGY PREDICTED BY IDOCK:  -10.29 KCAL/MOL
REMARK 924 INTRA-LIGAND FREE ENERGY PREDICTED BY IDOCK:   -0.65 KCAL/MOL
REMARK 927      BINDING AFFINITY PREDICTED BY RF-SCORE:    0.00 PKD
ROOT
HETATM    1  C   UNL     1      -8.667  17.468  68.572  1.00  0.00    -0.282 C  
HETATM    2  C   UNL     1      -9.801  17.771  67.613  1.00  0.00    -0.299 C  
ENDROOT
BRANCH   2   3
HETATM    3  C   UNL     1     -10.195  16.656  66.622  1.00  0.00    -0.303 C  
HETATM    4  C   UNL     1     -10.756  17.402  65.351  1.00  0.00    -0.035 C  
HETATM    5  O   UNL     1      -8.933  16.073  66.185  1.00  0.00    -0.317 OA 
HETATM    6  H   UNL     1      -9.176  15.386  65.574  1.00  0.00     0.000 HD 
HETATM    7  O   UNL     1     -11.056  16.616  64.294  1.00  0.00    -1.029 OA 
HETATM    8  O   UNL     1     -10.768  18.627  65.221  1.00  0.00    -0.559 OA 
HETATM    9  C   UNL     1     -11.832  15.454  64.555  1.00  0.00    -0.256 C  
HETATM   10  C   UNL     1     -11.534  14.795  65.851  1.00  0.00    -0.319 C  
HETATM   11  C   UNL     1     -11.073  15.425  66.961  1.00  0.00    -0.273 C  
HETATM   12  C   UNL     1     -11.275  14.661  68.247  1.00  0.00    -0.301 C  
HETATM   13  C   UNL     1     -11.325  13.299  68.213  1.00  0.00    -0.300 C  
HETATM   14  N   UNL     1     -11.039  12.731  66.982  1.00  0.00    -0.267 N  
HETATM   15  C   UNL     1     -10.561  11.375  67.093  1.00  0.00    -0.243 C  
HETATM   16  C   UNL     1     -11.202  13.349  65.776  1.00  0.00    -0.290 C  
HETATM   17  C   UNL     1     -11.007  11.014  68.453  1.00  0.00    -0.281 A  
HETATM   18  O   UNL     1     -11.029  12.791  64.706  1.00  0.00    -0.284 OA 
HETATM   19  C   UNL     1     -10.976   9.758  69.007  1.00  0.00    -0.193 A  
HETATM   20  C   UNL     1     -11.577   9.541  70.240  1.00  0.00    -0.219 A  
HETATM   21  C   UNL     1     -12.335  10.623  70.778  1.00  0.00    -0.376 A  
HETATM   22  C   UNL     1     -13.154  10.261  71.863  1.00  0.00    -0.568 A  
HETATM   23  N   UNL     1     -12.280  11.920  70.251  1.00  0.00    -0.299 NA 
HETATM   24  C   UNL     1     -13.159   8.972  72.449  1.00  0.00    -0.487 A  
HETATM   25  C   UNL     1     -11.541  12.106  69.133  1.00  0.00    -0.319 A  
HETATM   26  C   UNL     1     -12.275   8.005  71.987  1.00  0.00    -0.331 A  
HETATM   27  C   UNL     1     -11.449   8.276  70.896  1.00  0.00    -0.296 A  
HETATM   28  O   UNL     1     -12.193   6.784  72.591  1.00  0.00    -0.492 OA 
HETATM   29  H   UNL     1     -11.589   6.123  72.275  1.00  0.00     0.000 HD 
BRANCH  27  30
HETATM   30  C   UNL     1     -10.365   7.271  70.499  1.00  0.00    -0.206 C  
BRANCH  30  31
HETATM   31  N   UNL     1     -10.923   6.036  69.897  1.00  0.00    -0.362 NA 
HETATM   32  C   UNL     1     -11.112   6.163  68.450  1.00  0.00    -0.248 C  
HETATM   33  C   UNL     1     -10.072   4.880  70.178  1.00  0.00    -0.261 C  
ENDBRANCH  30  31
ENDBRANCH  27  30
ENDBRANCH   2   3
TORSDOF 3
ENDMDL
MODEL        2
REMARK 921   NORMALIZED FREE ENERGY PREDICTED BY IDOCK:   -8.28 KCAL/MOL
REMARK 922        TOTAL FREE ENERGY PREDICTED BY IDOCK:  -10.38 KCAL/MOL
REMARK 923 INTER-LIGAND FREE ENERGY PREDICTED BY IDOCK:   -9.78 KCAL/MOL
REMARK 924 INTRA-LIGAND FREE ENERGY PREDICTED BY IDOCK:   -0.60 KCAL/MOL
REMARK 927      BINDING AFFINITY PREDICTED BY RF-SCORE:    0.00 PKD
ROOT
HETATM    1  C   UNL     1     -10.692  17.742  68.145  1.00  0.00    -0.293 C  
HETATM    2  C   UNL     1      -9.782  17.271  67.029  1.00  0.00    -0.267 C  
ENDROOT
BRANCH   2   3
HETATM    3  C   UNL     1     -10.299  16.116  66.146  1.00  0.00    -0.339 C  
HETATM    4  C   UNL     1     -11.014  16.809  64.924  1.00  0.00    -0.087 C  
HETATM    5  O   UNL     1      -9.102  15.506  65.580  1.00  0.00    -0.346 OA 
HETATM    6  H   UNL     1      -9.420  14.795  65.037  1.00  0.00     0.000 HD 
HETATM    7  O   UNL     1     -11.446  15.979  63.949  1.00  0.00    -0.601 OA 
HETATM    8  O   UNL     1     -11.041  18.026  64.742  1.00  0.00    -0.708 OA 
HETATM    9  C   UNL     1     -12.184  14.834  64.357  1.00  0.00    -0.428 C  
HETATM   10  C   UNL     1     -11.726  14.232  65.634  1.00  0.00    -0.358 C  
HETATM   11  C   UNL     1     -11.128  14.907  66.648  1.00  0.00    -0.329 C  
HETATM   12  C   UNL     1     -11.167  14.202  67.982  1.00  0.00    -0.302 C  
HETATM   13  C   UNL     1     -11.223  12.840  68.015  1.00  0.00    -0.270 C  
HETATM   14  N   UNL     1     -11.094  12.217  66.784  1.00  0.00    -0.283 N  
HETATM   15  C   UNL     1     -10.607  10.863  66.895  1.00  0.00    -0.261 C  
HETATM   16  C   UNL     1     -11.407  12.782  65.583  1.00  0.00    -0.319 C  
HETATM   17  C   UNL     1     -10.879  10.566  68.316  1.00  0.00    -0.293 A  
HETATM   18  O   UNL     1     -11.371  12.176  64.525  1.00  0.00    -0.313 OA 
HETATM   19  C   UNL     1     -10.780   9.336  68.917  1.00  0.00    -0.182 A  
HETATM   20  C   UNL     1     -11.222   9.178  70.224  1.00  0.00    -0.249 A  
HETATM   21  C   UNL     1     -11.905  10.288  70.804  1.00  0.00    -0.365 A  
HETATM   22  C   UNL     1     -12.581   9.979  71.998  1.00  0.00    -0.379 A  
HETATM   23  N   UNL     1     -11.916  11.559  70.217  1.00  0.00    -0.355 NA 
HETATM   24  C   UNL     1     -12.514   8.718  72.638  1.00  0.00    -0.270 A  
HETATM   25  C   UNL     1     -11.323  11.691  69.007  1.00  0.00    -0.275 A  
HETATM   26  C   UNL     1     -11.696   7.725  72.112  1.00  0.00    -0.320 A  
HETATM   27  C   UNL     1     -11.014   7.943  70.915  1.00  0.00    -0.256 A  
HETATM   28  O   UNL     1     -11.540   6.532  72.755  1.00  0.00    -0.452 OA 
HETATM   29  H   UNL     1     -10.981   5.853  72.396  1.00  0.00     0.000 HD 
BRANCH  27  30
HETATM   30  C   UNL     1      -9.989   6.914  70.430  1.00  0.00    -0.179 C  
BRANCH  30  31
HETATM   31  N   UNL     1     -10.622   5.685  69.891  1.00  0.00    -0.309 NA 
HETATM   32  C   UNL     1     -10.596   5.648  68.427  1.00  0.00    -0.179 C  
HETATM   33  C   UNL     1      -9.980   4.484  70.421  1.00  0.00    -0.213 C  
ENDBRANCH  30  31
ENDBRANCH  27  30
ENDBRANCH   2   3
TORSDOF 3
ENDMDL
MODEL        3
REMARK 921   NORMALIZED FREE ENERGY PREDICTED BY IDOCK:   -8.26 KCAL/MOL
REMARK 922        TOTAL FREE ENERGY PREDICTED BY IDOCK:  -10.36 KCAL/MOL
REMARK 923 INTER-LIGAND FREE ENERGY PREDICTED BY IDOCK:   -9.72 KCAL/MOL
REMARK 924 INTRA-LIGAND FREE ENERGY PREDICTED BY IDOCK:   -0.64 KCAL/MOL
REMARK 927      BINDING AFFINITY PREDICTED BY RF-SCORE:    0.00 PKD
ROOT
HETATM    1  C   UNL     1      -8.442  17.979  68.299  1.00  0.00    -0.293 C  
HETATM    2  C   UNL     1      -9.874  17.837  67.825  1.00  0.00    -0.295 C  
ENDROOT
BRANCH   2   3
HETATM    3  C   UNL     1     -10.168  16.706  66.817  1.00  0.00    -0.301 C  
HETATM    4  C   UNL     1     -10.683  17.428  65.514  1.00  0.00    -0.078 C  
HETATM    5  O   UNL     1      -8.862  16.171  66.455  1.00  0.00    -0.237 OA 
HETATM    6  H   UNL     1      -9.043  15.475  65.835  1.00  0.00     0.000 HD 
HETATM    7  O   UNL     1     -10.892  16.629  64.444  1.00  0.00    -0.833 OA 
HETATM    8  O   UNL     1     -10.734  18.651  65.378  1.00  0.00    -0.572 OA 
HETATM    9  C   UNL     1     -11.637  15.439  64.664  1.00  0.00    -0.311 C  
HETATM   10  C   UNL     1     -11.389  14.794  65.978  1.00  0.00    -0.332 C  
HETATM   11  C   UNL     1     -11.016  15.443  67.110  1.00  0.00    -0.317 C  
HETATM   12  C   UNL     1     -11.263  14.674  68.385  1.00  0.00    -0.290 C  
HETATM   13  C   UNL     1     -11.259  13.311  68.354  1.00  0.00    -0.280 C  
HETATM   14  N   UNL     1     -10.881  12.753  67.143  1.00  0.00    -0.252 N  
HETATM   15  C   UNL     1     -10.359  11.415  67.286  1.00  0.00    -0.198 C  
HETATM   16  C   UNL     1     -10.998  13.362  65.928  1.00  0.00    -0.274 C  
HETATM   17  C   UNL     1     -10.869  11.040  68.621  1.00  0.00    -0.256 A  
HETATM   18  O   UNL     1     -10.743  12.809  64.871  1.00  0.00    -0.283 OA 
HETATM   19  C   UNL     1     -10.822   9.787  69.180  1.00  0.00    -0.231 A  
HETATM   20  C   UNL     1     -11.484   9.550  70.378  1.00  0.00    -0.297 A  
HETATM   21  C   UNL     1     -12.312  10.603  70.867  1.00  0.00    -0.401 A  
HETATM   22  C   UNL     1     -13.178  10.211  71.904  1.00  0.00    -0.557 A  
HETATM   23  N   UNL     1     -12.277  11.900  70.339  1.00  0.00    -0.338 NA 
HETATM   24  C   UNL     1     -13.168   8.925  72.495  1.00  0.00    -0.438 A  
HETATM   25  C   UNL     1     -11.482  12.112  69.264  1.00  0.00    -0.302 A  
HETATM   26  C   UNL     1     -12.223   7.991  72.088  1.00  0.00    -0.331 A  
HETATM   27  C   UNL     1     -11.346   8.292  71.045  1.00  0.00    -0.299 A  
HETATM   28  O   UNL     1     -12.129   6.776  72.700  1.00  0.00    -0.498 OA 
HETATM   29  H   UNL     1     -11.483   6.137  72.422  1.00  0.00     0.000 HD 
BRANCH  27  30
HETATM   30  C   UNL     1     -10.204   7.328  70.714  1.00  0.00    -0.197 C  
BRANCH  30  31
HETATM   31  N   UNL     1      -9.337   7.046  71.883  1.00  0.00    -0.141 NA 
HETATM   32  C   UNL     1      -8.526   5.841  71.691  1.00  0.00    -0.128 C  
HETATM   33  C   UNL     1      -8.462   8.180  72.179  1.00  0.00    -0.161 C  
ENDBRANCH  30  31
ENDBRANCH  27  30
ENDBRANCH   2   3
TORSDOF 3
ENDMDL
MODEL        4
REMARK 921   NORMALIZED FREE ENERGY PREDICTED BY IDOCK:   -8.24 KCAL/MOL
REMARK 922        TOTAL FREE ENERGY PREDICTED BY IDOCK:  -10.33 KCAL/MOL
REMARK 923 INTER-LIGAND FREE ENERGY PREDICTED BY IDOCK:   -9.73 KCAL/MOL
REMARK 924 INTRA-LIGAND FREE ENERGY PREDICTED BY IDOCK:   -0.59 KCAL/MOL
REMARK 927      BINDING AFFINITY PREDICTED BY RF-SCORE:    0.00 PKD
ROOT
HETATM    1  C   UNL     1      -9.470   6.098  69.881  1.00  0.00    -0.170 C  
HETATM    2  C   UNL     1      -9.205   6.937  71.114  1.00  0.00    -0.154 C  
ENDROOT
BRANCH   2   3
HETATM    3  C   UNL     1     -10.338   7.877  71.578  1.00  0.00    -0.201 C  
HETATM    4  C   UNL     1     -11.237   7.009  72.539  1.00  0.00    -0.275 C  
HETATM    5  O   UNL     1      -9.691   8.849  72.450  1.00  0.00    -0.239 OA 
HETATM    6  H   UNL     1     -10.389   9.428  72.736  1.00  0.00     0.000 HD 
HETATM    7  O   UNL     1     -12.236   7.670  73.164  1.00  0.00     0.179 OA 
HETATM    8  O   UNL     1     -10.976   5.850  72.866  1.00  0.00    -0.240 OA 
HETATM    9  C   UNL     1     -13.056   8.508  72.360  1.00  0.00    -0.297 C  
HETATM   10  C   UNL     1     -12.334   9.207  71.268  1.00  0.00    -0.382 C  
HETATM   11  C   UNL     1     -11.219   8.746  70.646  1.00  0.00    -0.294 C  
HETATM   12  C   UNL     1     -10.939   9.379  69.305  1.00  0.00    -0.137 C  
HETATM   13  C   UNL     1     -11.373  10.650  69.064  1.00  0.00    -0.277 C  
HETATM   14  N   UNL     1     -11.922  11.300  70.158  1.00  0.00    -0.340 N  
HETATM   15  C   UNL     1     -11.848  12.736  70.045  1.00  0.00    -0.281 C  
HETATM   16  C   UNL     1     -12.499  10.682  71.229  1.00  0.00    -0.410 C  
HETATM   17  C   UNL     1     -11.619  12.908  68.596  1.00  0.00    -0.353 A  
HETATM   18  O   UNL     1     -13.056  11.284  72.132  1.00  0.00    -0.458 OA 
HETATM   19  C   UNL     1     -11.657  14.095  67.908  1.00  0.00    -0.370 A  
HETATM   20  C   UNL     1     -11.579  14.082  66.521  1.00  0.00    -0.389 A  
HETATM   21  C   UNL     1     -11.625  12.803  65.893  1.00  0.00    -0.382 A  
HETATM   22  C   UNL     1     -11.841  12.858  64.504  1.00  0.00    -0.429 A  
HETATM   23  N   UNL     1     -11.493  11.605  66.606  1.00  0.00    -0.467 NA 
HETATM   24  C   UNL     1     -11.900  14.064  63.764  1.00  0.00    -0.160 A  
HETATM   25  C   UNL     1     -11.408  11.690  67.954  1.00  0.00    -0.299 A  
HETATM   26  C   UNL     1     -11.681  15.275  64.408  1.00  0.00    -0.285 A  
HETATM   27  C   UNL     1     -11.489  15.308  65.789  1.00  0.00    -0.101 A  
HETATM   28  O   UNL     1     -11.642  16.445  63.707  1.00  0.00    -1.605 OA 
HETATM   29  H   UNL     1     -11.493  17.273  64.147  1.00  0.00     0.000 HD 
BRANCH  27  30
HETATM   30  C   UNL     1     -11.083  16.620  66.466  1.00  0.00     0.263 C  
BRANCH  30  31
HETATM   31  N   UNL     1      -9.821  17.178  65.923  1.00  0.00    -0.532 NA 
HETATM   32  C   UNL     1      -9.591  18.556  66.365  1.00  0.00    -0.316 C  
HETATM   33  C   UNL     1      -8.674  16.350  66.294  1.00  0.00    -0.334 C  
ENDBRANCH  30  31
ENDBRANCH  27  30
ENDBRANCH   2   3
TORSDOF 3
ENDMDL
MODEL        5
REMARK 921   NORMALIZED FREE ENERGY PREDICTED BY IDOCK:   -8.23 KCAL/MOL
REMARK 922        TOTAL FREE ENERGY PREDICTED BY IDOCK:  -10.32 KCAL/MOL
REMARK 923 INTER-LIGAND FREE ENERGY PREDICTED BY IDOCK:   -9.67 KCAL/MOL
REMARK 924 INTRA-LIGAND FREE ENERGY PREDICTED BY IDOCK:   -0.66 KCAL/MOL
REMARK 927      BINDING AFFINITY PREDICTED BY RF-SCORE:    0.00 PKD
ROOT
HETATM    1  C   UNL     1      -9.089  17.215  68.491  1.00  0.00    -0.265 C  
HETATM    2  C   UNL     1     -10.046  17.486  67.347  1.00  0.00    -0.325 C  
ENDROOT
BRANCH   2   3
HETATM    3  C   UNL     1     -10.361  16.306  66.404  1.00  0.00    -0.314 C  
HETATM    4  C   UNL     1     -10.927  16.961  65.087  1.00  0.00    -0.053 C  
HETATM    5  O   UNL     1      -9.062  15.766  66.024  1.00  0.00    -0.336 OA 
HETATM    6  H   UNL     1      -9.256  15.040  65.444  1.00  0.00     0.000 HD 
HETATM    7  O   UNL     1     -11.163  16.110  64.064  1.00  0.00    -0.609 OA 
HETATM    8  O   UNL     1     -10.996  18.175  64.896  1.00  0.00    -0.718 OA 
HETATM    9  C   UNL     1     -11.887  14.925  64.365  1.00  0.00    -0.360 C  
HETATM   10  C   UNL     1     -11.589  14.345  65.698  1.00  0.00    -0.347 C  
HETATM   11  C   UNL     1     -11.186  15.050  66.785  1.00  0.00    -0.322 C  
HETATM   12  C   UNL     1     -11.381  14.341  68.103  1.00  0.00    -0.313 C  
HETATM   13  C   UNL     1     -11.364  12.978  68.135  1.00  0.00    -0.294 C  
HETATM   14  N   UNL     1     -11.021  12.366  66.940  1.00  0.00    -0.255 N  
HETATM   15  C   UNL     1     -10.480  11.042  67.128  1.00  0.00    -0.232 C  
HETATM   16  C   UNL     1     -11.185  12.916  65.702  1.00  0.00    -0.295 C  
HETATM   17  C   UNL     1     -10.940  10.726  68.495  1.00  0.00    -0.291 A  
HETATM   18  O   UNL     1     -10.959  12.316  64.665  1.00  0.00    -0.284 OA 
HETATM   19  C   UNL     1     -10.861   9.501  69.111  1.00  0.00    -0.194 A  
HETATM   20  C   UNL     1     -11.481   9.315  70.341  1.00  0.00    -0.255 A  
HETATM   21  C   UNL     1     -12.303  10.383  70.808  1.00  0.00    -0.367 A  
HETATM   22  C   UNL     1     -13.130  10.032  71.891  1.00  0.00    -0.563 A  
HETATM   23  N   UNL     1     -12.300  11.653  70.218  1.00  0.00    -0.285 NA 
HETATM   24  C   UNL     1     -13.086   8.776  72.540  1.00  0.00    -0.392 A  
HETATM   25  C   UNL     1     -11.544  11.821  69.108  1.00  0.00    -0.310 A  
HETATM   26  C   UNL     1     -12.145   7.832  72.146  1.00  0.00    -0.304 A  
HETATM   27  C   UNL     1     -11.307   8.091  71.061  1.00  0.00    -0.294 A  
HETATM   28  O   UNL     1     -12.018   6.648  72.811  1.00  0.00    -0.483 OA 
HETATM   29  H   UNL     1     -11.375   6.003  72.542  1.00  0.00     0.000 HD 
BRANCH  27  30
HETATM   30  C   UNL     1     -10.166   7.124  70.737  1.00  0.00    -0.197 C  
BRANCH  30  31
HETATM   31  N   UNL     1      -9.207   6.974  71.859  1.00  0.00    -0.141 NA 
HETATM   32  C   UNL     1      -8.454   5.720  71.778  1.00  0.00    -0.131 C  
HETATM   33  C   UNL     1      -8.275   8.100  71.910  1.00  0.00    -0.141 C  
ENDBRANCH  30  31
ENDBRANCH  27  30
ENDBRANCH   2   3
TORSDOF 3
ENDMDL
MODEL        6
REMARK 921   NORMALIZED FREE ENERGY PREDICTED BY IDOCK:   -8.00 KCAL/MOL
REMARK 922        TOTAL FREE ENERGY PREDICTED BY IDOCK:  -10.04 KCAL/MOL
REMARK 923 INTER-LIGAND FREE ENERGY PREDICTED BY IDOCK:   -9.51 KCAL/MOL
REMARK 924 INTRA-LIGAND FREE ENERGY PREDICTED BY IDOCK:   -0.53 KCAL/MOL
REMARK 927      BINDING AFFINITY PREDICTED BY RF-SCORE:    0.00 PKD
ROOT
HETATM    1  C   UNL     1      -8.958  17.229  66.812  1.00  0.00    -0.269 C  
HETATM    2  C   UNL     1     -10.390  16.737  66.775  1.00  0.00    -0.293 C  
ENDROOT
BRANCH   2   3
HETATM    3  C   UNL     1     -10.671  15.462  65.951  1.00  0.00    -0.336 C  
HETATM    4  C   UNL     1     -11.327  15.965  64.609  1.00  0.00    -0.322 C  
HETATM    5  O   UNL     1      -9.358  14.965  65.561  1.00  0.00    -0.467 OA 
HETATM    6  H   UNL     1      -9.531  14.181  65.054  1.00  0.00     0.000 HD 
HETATM    7  O   UNL     1     -11.552  15.016  63.674  1.00  0.00     0.187 OA 
HETATM    8  O   UNL     1     -11.476  17.153  64.318  1.00  0.00    -1.062 OA 
HETATM    9  C   UNL     1     -12.191  13.823  64.108  1.00  0.00    -0.396 C  
HETATM   10  C   UNL     1     -11.806  13.381  65.471  1.00  0.00    -0.394 C  
HETATM   11  C   UNL     1     -11.403  14.201  66.475  1.00  0.00    -0.348 C  
HETATM   12  C   UNL     1     -11.504  13.600  67.856  1.00  0.00    -0.348 C  
HETATM   13  C   UNL     1     -11.404  12.248  68.004  1.00  0.00    -0.293 C  
HETATM   14  N   UNL     1     -11.072  11.554  66.851  1.00  0.00    -0.296 N  
HETATM   15  C   UNL     1     -10.445  10.284  67.128  1.00  0.00    -0.254 C  
HETATM   16  C   UNL     1     -11.317  11.983  65.580  1.00  0.00    -0.328 C  
HETATM   17  C   UNL     1     -10.832  10.064  68.536  1.00  0.00    -0.270 A  
HETATM   18  O   UNL     1     -11.097  11.307  64.588  1.00  0.00    -0.264 OA 
HETATM   19  C   UNL     1     -10.656   8.905  69.250  1.00  0.00    -0.219 A  
HETATM   20  C   UNL     1     -11.214   8.793  70.518  1.00  0.00    -0.278 A  
HETATM   21  C   UNL     1     -12.080   9.850  70.928  1.00  0.00    -0.341 A  
HETATM   22  C   UNL     1     -12.840   9.550  72.072  1.00  0.00    -0.499 A  
HETATM   23  N   UNL     1     -12.176  11.062  70.232  1.00  0.00    -0.340 NA 
HETATM   24  C   UNL     1     -12.696   8.360  72.825  1.00  0.00    -0.067 A  
HETATM   25  C   UNL     1     -11.475  11.174  69.079  1.00  0.00    -0.296 A  
HETATM   26  C   UNL     1     -11.716   7.440  72.471  1.00  0.00    -0.234 A  
HETATM   27  C   UNL     1     -10.939   7.649  71.332  1.00  0.00    -0.257 A  
HETATM   28  O   UNL     1     -11.493   6.328  73.229  1.00  0.00    -0.458 OA 
HETATM   29  H   UNL     1     -10.823   5.699  72.987  1.00  0.00     0.000 HD 
BRANCH  27  30
HETATM   30  C   UNL     1      -9.756   6.723  71.042  1.00  0.00    -0.174 C  
BRANCH  30  31
HETATM   31  N   UNL     1     -10.171   5.442  70.419  1.00  0.00    -0.241 NA 
HETATM   32  C   UNL     1     -10.009   5.459  68.963  1.00  0.00    -0.190 C  
HETATM   33  C   UNL     1      -9.425   4.316  70.979  1.00  0.00    -0.166 C  
ENDBRANCH  30  31
ENDBRANCH  27  30
ENDBRANCH   2   3
TORSDOF 3
ENDMDL
MODEL        7
REMARK 921   NORMALIZED FREE ENERGY PREDICTED BY IDOCK:   -7.88 KCAL/MOL
REMARK 922        TOTAL FREE ENERGY PREDICTED BY IDOCK:   -9.91 KCAL/MOL
REMARK 923 INTER-LIGAND FREE ENERGY PREDICTED BY IDOCK:   -9.53 KCAL/MOL
REMARK 924 INTRA-LIGAND FREE ENERGY PREDICTED BY IDOCK:   -0.38 KCAL/MOL
REMARK 927      BINDING AFFINITY PREDICTED BY RF-SCORE:    0.00 PKD
ROOT
HETATM    1  C   UNL     1     -10.761  16.759  68.238  1.00  0.00    -0.364 C  
HETATM    2  C   UNL     1     -10.258  16.726  66.809  1.00  0.00    -0.304 C  
ENDROOT
BRANCH   2   3
HETATM    3  C   UNL     1     -10.601  15.473  65.975  1.00  0.00    -0.325 C  
HETATM    4  C   UNL     1     -11.276  16.017  64.659  1.00  0.00    -0.330 C  
HETATM    5  O   UNL     1      -9.315  14.942  65.542  1.00  0.00    -0.467 OA 
HETATM    6  H   UNL     1      -9.526  14.171  65.029  1.00  0.00     0.000 HD 
HETATM    7  O   UNL     1     -11.556  15.090  63.717  1.00  0.00     0.032 OA 
HETATM    8  O   UNL     1     -11.396  17.213  64.389  1.00  0.00    -1.115 OA 
HETATM    9  C   UNL     1     -12.221  13.911  64.151  1.00  0.00    -0.393 C  
HETATM   10  C   UNL     1     -11.813  13.436  65.497  1.00  0.00    -0.394 C  
HETATM   11  C   UNL     1     -11.357  14.228  66.501  1.00  0.00    -0.351 C  
HETATM   12  C   UNL     1     -11.439  13.610  67.875  1.00  0.00    -0.348 C  
HETATM   13  C   UNL     1     -11.378  12.253  68.001  1.00  0.00    -0.293 C  
HETATM   14  N   UNL     1     -11.099  11.567  66.830  1.00  0.00    -0.296 N  
HETATM   15  C   UNL     1     -10.506  10.274  67.072  1.00  0.00    -0.244 C  
HETATM   16  C   UNL     1     -11.366  12.022  65.572  1.00  0.00    -0.328 C  
HETATM   17  C   UNL     1     -10.861  10.045  68.487  1.00  0.00    -0.270 A  
HETATM   18  O   UNL     1     -11.194  11.355  64.565  1.00  0.00    -0.283 OA 
HETATM   19  C   UNL     1     -10.702   8.870  69.179  1.00  0.00    -0.162 A  
HETATM   20  C   UNL     1     -11.229   8.757  70.460  1.00  0.00    -0.278 A  
HETATM   21  C   UNL     1     -12.049   9.833  70.908  1.00  0.00    -0.321 A  
HETATM   22  C   UNL     1     -12.787   9.540  72.069  1.00  0.00    -0.499 A  
HETATM   23  N   UNL     1     -12.126  11.058  70.233  1.00  0.00    -0.331 NA 
HETATM   24  C   UNL     1     -12.660   8.335  72.800  1.00  0.00    -0.053 A  
HETATM   25  C   UNL     1     -11.454  11.166  69.063  1.00  0.00    -0.296 A  
HETATM   26  C   UNL     1     -11.720   7.390  72.407  1.00  0.00    -0.264 A  
HETATM   27  C   UNL     1     -10.968   7.593  71.249  1.00  0.00    -0.260 A  
HETATM   28  O   UNL     1     -11.511   6.261  73.142  1.00  0.00    -0.468 OA 
HETATM   29  H   UNL     1     -10.869   5.615  72.873  1.00  0.00     0.000 HD 
BRANCH  27  30
HETATM   30  C   UNL     1      -9.823   6.634  70.914  1.00  0.00    -0.183 C  
BRANCH  30  31
HETATM   31  N   UNL     1      -8.883   6.447  72.046  1.00  0.00    -0.134 NA 
HETATM   32  C   UNL     1      -8.270   5.116  72.041  1.00  0.00    -0.117 C  
HETATM   33  C   UNL     1      -7.834   7.466  72.036  1.00  0.00    -0.090 C  
ENDBRANCH  30  31
ENDBRANCH  27  30
ENDBRANCH   2   3
TORSDOF 3
ENDMDL
MODEL        8
REMARK 921   NORMALIZED FREE ENERGY PREDICTED BY IDOCK:   -7.23 KCAL/MOL
REMARK 922        TOTAL FREE ENERGY PREDICTED BY IDOCK:   -9.15 KCAL/MOL
REMARK 923 INTER-LIGAND FREE ENERGY PREDICTED BY IDOCK:   -8.59 KCAL/MOL
REMARK 924 INTRA-LIGAND FREE ENERGY PREDICTED BY IDOCK:   -0.56 KCAL/MOL
REMARK 927      BINDING AFFINITY PREDICTED BY RF-SCORE:    0.00 PKD
ROOT
HETATM    1  C   UNL     1      -7.117   6.254  70.121  1.00  0.00    -0.074 C  
HETATM    2  C   UNL     1      -8.351   5.476  70.530  1.00  0.00    -0.116 C  
ENDROOT
BRANCH   2   3
HETATM    3  C   UNL     1      -9.543   6.290  71.077  1.00  0.00    -0.175 C  
HETATM    4  C   UNL     1     -10.397   5.269  71.922  1.00  0.00    -0.215 C  
HETATM    5  O   UNL     1      -8.964   7.196  72.060  1.00  0.00    -0.130 OA 
HETATM    6  H   UNL     1      -9.698   7.697  72.397  1.00  0.00     0.000 HD 
HETATM    7  O   UNL     1     -11.440   5.797  72.599  1.00  0.00    -0.296 OA 
HETATM    8  O   UNL     1     -10.070   4.099  72.124  1.00  0.00    -0.177 OA 
HETATM    9  C   UNL     1     -12.301   6.670  71.880  1.00  0.00    -0.318 C  
HETATM   10  C   UNL     1     -11.613   7.526  70.883  1.00  0.00    -0.309 C  
HETATM   11  C   UNL     1     -10.467   7.203  70.232  1.00  0.00    -0.232 C  
HETATM   12  C   UNL     1     -10.213   7.997  68.973  1.00  0.00    -0.217 C  
HETATM   13  C   UNL     1     -10.720   9.258  68.867  1.00  0.00    -0.156 C  
HETATM   14  N   UNL     1     -11.318   9.750  70.016  1.00  0.00    -0.239 N  
HETATM   15  C   UNL     1     -11.330  11.192  70.063  1.00  0.00    -0.243 C  
HETATM   16  C   UNL     1     -11.866   8.985  71.004  1.00  0.00    -0.285 C  
HETATM   17  C   UNL     1     -11.098  11.536  68.646  1.00  0.00    -0.291 A  
HETATM   18  O   UNL     1     -12.467   9.449  71.959  1.00  0.00    -0.369 OA 
HETATM   19  C   UNL     1     -11.201  12.788  68.092  1.00  0.00    -0.310 A  
HETATM   20  C   UNL     1     -11.110  12.933  66.713  1.00  0.00    -0.315 A  
HETATM   21  C   UNL     1     -11.073  11.731  65.947  1.00  0.00    -0.302 A  
HETATM   22  C   UNL     1     -11.279  11.927  64.570  1.00  0.00    -0.380 A  
HETATM   23  N   UNL     1     -10.876  10.471  66.527  1.00  0.00    -0.120 NA 
HETATM   24  C   UNL     1     -11.404  13.201  63.966  1.00  0.00    -0.437 A  
HETATM   25  C   UNL     1     -10.808  10.411  67.878  1.00  0.00    -0.279 A  
HETATM   26  C   UNL     1     -11.264  14.344  64.743  1.00  0.00    -0.387 A  
HETATM   27  C   UNL     1     -11.087  14.236  66.122  1.00  0.00    -0.324 A  
HETATM   28  O   UNL     1     -11.290  15.585  64.175  1.00  0.00    -0.720 OA 
HETATM   29  H   UNL     1     -11.194  16.367  64.706  1.00  0.00     0.000 HD 
BRANCH  27  30
HETATM   30  C   UNL     1     -10.768  15.486  66.945  1.00  0.00    -0.317 C  
BRANCH  30  31
HETATM   31  N   UNL     1      -9.715  16.326  66.325  1.00  0.00    -0.283 NA 
HETATM   32  C   UNL     1      -9.714  17.692  66.855  1.00  0.00    -0.292 C  
HETATM   33  C   UNL     1      -8.390  15.733  66.506  1.00  0.00    -0.278 C  
ENDBRANCH  30  31
ENDBRANCH  27  30
ENDBRANCH   2   3
TORSDOF 3
ENDMDL
MODEL        9
REMARK 921   NORMALIZED FREE ENERGY PREDICTED BY IDOCK:   -7.21 KCAL/MOL
REMARK 922        TOTAL FREE ENERGY PREDICTED BY IDOCK:   -9.12 KCAL/MOL
REMARK 923 INTER-LIGAND FREE ENERGY PREDICTED BY IDOCK:   -8.45 KCAL/MOL
REMARK 924 INTRA-LIGAND FREE ENERGY PREDICTED BY IDOCK:   -0.67 KCAL/MOL
REMARK 927      BINDING AFFINITY PREDICTED BY RF-SCORE:    0.00 PKD
ROOT
HETATM    1  C   UNL     1      -7.764   5.097  66.703  1.00  0.00    -0.092 C  
HETATM    2  C   UNL     1      -9.109   4.935  67.381  1.00  0.00    -0.124 C  
ENDROOT
BRANCH   2   3
HETATM    3  C   UNL     1      -9.433   5.910  68.533  1.00  0.00    -0.121 C  
HETATM    4  C   UNL     1      -9.960   5.005  69.713  1.00  0.00    -0.249 C  
HETATM    5  O   UNL     1      -8.140   6.402  68.989  1.00  0.00    -0.109 OA 
HETATM    6  H   UNL     1      -8.340   7.002  69.699  1.00  0.00     0.000 HD 
HETATM    7  O   UNL     1     -10.196   5.643  70.880  1.00  0.00    -0.201 OA 
HETATM    8  O   UNL     1      -9.997   3.775  69.673  1.00  0.00    -0.086 OA 
HETATM    9  C   UNL     1     -10.952   6.845  70.817  1.00  0.00    -0.259 C  
HETATM   10  C   UNL     1     -10.692   7.671  69.611  1.00  0.00    -0.230 C  
HETATM   11  C   UNL     1     -10.293   7.192  68.406  1.00  0.00    -0.220 C  
HETATM   12  C   UNL     1     -10.529   8.130  67.248  1.00  0.00    -0.379 C  
HETATM   13  C   UNL     1     -10.544   9.476  67.471  1.00  0.00    -0.275 C  
HETATM   14  N   UNL     1     -10.193   9.861  68.755  1.00  0.00    -0.181 N  
HETATM   15  C   UNL     1      -9.686  11.211  68.810  1.00  0.00    -0.185 C  
HETATM   16  C   UNL     1     -10.321   9.086  69.870  1.00  0.00    -0.207 C  
HETATM   17  C   UNL     1     -10.179  11.765  67.533  1.00  0.00    -0.214 A  
HETATM   18  O   UNL     1     -10.089   9.487  70.998  1.00  0.00    -0.286 OA 
HETATM   19  C   UNL     1     -10.139  13.085  67.157  1.00  0.00    -0.244 A  
HETATM   20  C   UNL     1     -10.786  13.481  65.993  1.00  0.00    -0.282 A  
HETATM   21  C   UNL     1     -11.592  12.499  65.346  1.00  0.00    -0.375 A  
HETATM   22  C   UNL     1     -12.446  13.024  64.359  1.00  0.00    -0.406 A  
HETATM   23  N   UNL     1     -11.549  11.142  65.687  1.00  0.00     0.121 NA 
HETATM   24  C   UNL     1     -12.444  14.381  63.956  1.00  0.00    -0.136 A  
HETATM   25  C   UNL     1     -10.768  10.788  66.735  1.00  0.00    -0.231 A  
HETATM   26  C   UNL     1     -11.517  15.258  64.507  1.00  0.00    -0.315 A  
HETATM   27  C   UNL     1     -10.654  14.823  65.512  1.00  0.00    -0.374 A  
HETATM   28  O   UNL     1     -11.430  16.549  64.074  1.00  0.00    -1.513 OA 
HETATM   29  H   UNL     1     -10.797  17.149  64.451  1.00  0.00     0.000 HD 
BRANCH  27  30
HETATM   30  C   UNL     1      -9.529  15.742  65.995  1.00  0.00    -0.357 C  
BRANCH  30  31
HETATM   31  N   UNL     1     -10.037  17.000  66.597  1.00  0.00    -0.296 NA 
HETATM   32  C   UNL     1     -10.606  16.784  67.929  1.00  0.00    -0.350 C  
HETATM   33  C   UNL     1      -8.983  18.010  66.675  1.00  0.00    -0.273 C  
ENDBRANCH  30  31
ENDBRANCH  27  30
ENDBRANCH   2   3
TORSDOF 3
ENDMDL
MODEL       10
REMARK 921   NORMALIZED FREE ENERGY PREDICTED BY IDOCK:   -7.18 KCAL/MOL
REMARK 922        TOTAL FREE ENERGY PREDICTED BY IDOCK:   -9.08 KCAL/MOL
REMARK 923 INTER-LIGAND FREE ENERGY PREDICTED BY IDOCK:   -8.60 KCAL/MOL
REMARK 924 INTRA-LIGAND FREE ENERGY PREDICTED BY IDOCK:   -0.48 KCAL/MOL
REMARK 927      BINDING AFFINITY PREDICTED BY RF-SCORE:    0.00 PKD
ROOT
HETATM    1  C   UNL     1     -12.583  12.082  63.206  1.00  0.00    -0.512 C  
HETATM    2  C   UNL     1     -12.205  13.525  63.471  1.00  0.00    -0.410 C  
ENDROOT
BRANCH   2   3
HETATM    3  C   UNL     1     -11.858  13.902  64.927  1.00  0.00    -0.387 C  
HETATM    4  C   UNL     1     -11.403  15.411  64.873  1.00  0.00    -0.363 C  
HETATM    5  O   UNL     1     -13.135  13.922  65.628  1.00  0.00    -0.625 OA 
HETATM    6  H   UNL     1     -12.921  14.155  66.524  1.00  0.00     0.000 HD 
HETATM    7  O   UNL     1     -11.161  15.993  66.067  1.00  0.00    -0.157 OA 
HETATM    8  O   UNL     1     -11.426  16.101  63.853  1.00  0.00    -0.774 OA 
HETATM    9  C   UNL     1     -10.345  15.273  66.982  1.00  0.00    -0.277 C  
HETATM   10  C   UNL     1     -10.538  13.802  66.950  1.00  0.00    -0.276 C  
HETATM   11  C   UNL     1     -10.933  13.088  65.866  1.00  0.00    -0.292 C  
HETATM   12  C   UNL     1     -10.625  11.612  65.939  1.00  0.00    -0.318 C  
HETATM   13  C   UNL     1     -10.549  11.006  67.158  1.00  0.00    -0.250 C  
HETATM   14  N   UNL     1     -10.909  11.803  68.233  1.00  0.00    -0.208 N  
HETATM   15  C   UNL     1     -11.350  11.034  69.372  1.00  0.00    -0.284 C  
HETATM   16  C   UNL     1     -10.844  13.165  68.256  1.00  0.00    -0.253 C  
HETATM   17  C   UNL     1     -10.802   9.699  69.057  1.00  0.00    -0.206 A  
HETATM   18  O   UNL     1     -11.079  13.833  69.250  1.00  0.00    -0.251 OA 
HETATM   19  C   UNL     1     -10.768   8.620  69.905  1.00  0.00    -0.227 A  
HETATM   20  C   UNL     1     -10.077   7.476  69.525  1.00  0.00    -0.189 A  
HETATM   21  C   UNL     1      -9.306   7.565  68.329  1.00  0.00    -0.141 A  
HETATM   22  C   UNL     1      -8.406   6.499  68.151  1.00  0.00    -0.116 A  
HETATM   23  N   UNL     1      -9.425   8.634  67.431  1.00  0.00    -0.146 NA 
HETATM   24  C   UNL     1      -8.333   5.378  69.012  1.00  0.00    -0.100 A  
HETATM   25  C   UNL     1     -10.244   9.652  67.782  1.00  0.00    -0.205 A  
HETATM   26  C   UNL     1      -9.226   5.267  70.071  1.00  0.00    -0.138 A  
HETATM   27  C   UNL     1     -10.132   6.295  70.332  1.00  0.00    -0.226 A  
HETATM   28  O   UNL     1      -9.240   4.157  70.863  1.00  0.00    -0.112 OA 
HETATM   29  H   UNL     1      -9.851   4.081  71.587  1.00  0.00     0.000 HD 
BRANCH  27  30
HETATM   30  C   UNL     1     -11.220   6.096  71.390  1.00  0.00    -0.287 C  
BRANCH  30  31
HETATM   31  N   UNL     1     -10.664   5.872  72.747  1.00  0.00    -0.224 NA 
HETATM   32  C   UNL     1     -10.670   7.094  73.555  1.00  0.00    -0.333 C  
HETATM   33  C   UNL     1     -11.396   4.820  73.451  1.00  0.00    -0.312 C  
ENDBRANCH  30  31
ENDBRANCH  27  30
ENDBRANCH   2   3
TORSDOF 3
ENDMDL
MODEL       11
REMARK 921   NORMALIZED FREE ENERGY PREDICTED BY IDOCK:   -6.98 KCAL/MOL
REMARK 922        TOTAL FREE ENERGY PREDICTED BY IDOCK:   -8.85 KCAL/MOL
REMARK 923 INTER-LIGAND FREE ENERGY PREDICTED BY IDOCK:   -8.22 KCAL/MOL
REMARK 924 INTRA-LIGAND FREE ENERGY PREDICTED BY IDOCK:   -0.62 KCAL/MOL
REMARK 927      BINDING AFFINITY PREDICTED BY RF-SCORE:    0.00 PKD
ROOT
HETATM    1  C   UNL     1     -10.532  17.957  68.676  1.00  0.00    -0.269 C  
HETATM    2  C   UNL     1      -9.582  17.798  67.506  1.00  0.00    -0.268 C  
ENDROOT
BRANCH   2   3
HETATM    3  C   UNL     1      -9.996  16.805  66.400  1.00  0.00    -0.304 C  
HETATM    4  C   UNL     1     -10.767  17.667  65.328  1.00  0.00     0.156 C  
HETATM    5  O   UNL     1      -8.750  16.424  65.746  1.00  0.00    -0.432 OA 
HETATM    6  H   UNL     1      -9.005  15.813  65.065  1.00  0.00     0.000 HD 
HETATM    7  O   UNL     1     -11.124  17.017  64.199  1.00  0.00    -0.941 OA 
HETATM    8  O   UNL     1     -10.899  18.889  65.394  1.00  0.00    -0.553 OA 
HETATM    9  C   UNL     1     -11.761  15.755  64.355  1.00  0.00    -0.201 C  
HETATM   10  C   UNL     1     -11.254  14.949  65.493  1.00  0.00    -0.348 C  
HETATM   11  C   UNL     1     -10.718  15.454  66.633  1.00  0.00    -0.309 C  
HETATM   12  C   UNL     1     -10.698  14.494  67.798  1.00  0.00    -0.256 C  
HETATM   13  C   UNL     1     -10.636  13.153  67.556  1.00  0.00    -0.235 C  
HETATM   14  N   UNL     1     -10.452  12.804  66.228  1.00  0.00    -0.253 N  
HETATM   15  C   UNL     1      -9.850  11.502  66.074  1.00  0.00    -0.225 C  
HETATM   16  C   UNL     1     -10.811  13.571  65.158  1.00  0.00    -0.330 C  
HETATM   17  C   UNL     1     -10.097  10.903  67.401  1.00  0.00    -0.223 A  
HETATM   18  O   UNL     1     -10.721  13.196  64.001  1.00  0.00    -0.399 OA 
HETATM   19  C   UNL     1      -9.893   9.590  67.745  1.00  0.00    -0.196 A  
HETATM   20  C   UNL     1     -10.321   9.135  68.986  1.00  0.00    -0.229 A  
HETATM   21  C   UNL     1     -11.098  10.043  69.763  1.00  0.00    -0.274 A  
HETATM   22  C   UNL     1     -11.746   9.444  70.858  1.00  0.00    -0.378 A  
HETATM   23  N   UNL     1     -11.218  11.401  69.443  1.00  0.00    -0.259 NA 
HETATM   24  C   UNL     1     -11.571   8.091  71.233  1.00  0.00    -0.306 A  
HETATM   25  C   UNL     1     -10.637  11.823  68.296  1.00  0.00    -0.211 A  
HETATM   26  C   UNL     1     -10.670   7.297  70.535  1.00  0.00    -0.232 A  
HETATM   27  C   UNL     1     -10.007   7.808  69.418  1.00  0.00    -0.188 A  
HETATM   28  O   UNL     1     -10.412   6.016  70.928  1.00  0.00    -0.215 OA 
HETATM   29  H   UNL     1      -9.796   5.473  70.450  1.00  0.00     0.000 HD 
BRANCH  27  30
HETATM   30  C   UNL     1      -8.897   6.988  68.756  1.00  0.00    -0.129 C  
BRANCH  30  31
HETATM   31  N   UNL     1      -7.736   6.767  69.652  1.00  0.00    -0.108 NA 
HETATM   32  C   UNL     1      -7.050   5.505  69.366  1.00  0.00    -0.064 C  
HETATM   33  C   UNL     1      -6.782   7.872  69.562  1.00  0.00    -0.042 C  
ENDBRANCH  30  31
ENDBRANCH  27  30
ENDBRANCH   2   3
TORSDOF 3
ENDMDL
MODEL       12
REMARK 921   NORMALIZED FREE ENERGY PREDICTED BY IDOCK:   -6.92 KCAL/MOL
REMARK 922        TOTAL FREE ENERGY PREDICTED BY IDOCK:   -8.78 KCAL/MOL
REMARK 923 INTER-LIGAND FREE ENERGY PREDICTED BY IDOCK:   -8.19 KCAL/MOL
REMARK 924 INTRA-LIGAND FREE ENERGY PREDICTED BY IDOCK:   -0.60 KCAL/MOL
REMARK 927      BINDING AFFINITY PREDICTED BY RF-SCORE:    0.00 PKD
ROOT
HETATM    1  C   UNL     1      -9.809  16.844  66.293  1.00  0.00    -0.320 C  
HETATM    2  C   UNL     1     -11.035  15.962  66.411  1.00  0.00    -0.115 C  
ENDROOT
BRANCH   2   3
HETATM    3  C   UNL     1     -10.998  14.611  65.665  1.00  0.00    -0.335 C  
HETATM    4  C   UNL     1     -11.724  14.870  64.290  1.00  0.00    -0.247 C  
HETATM    5  O   UNL     1      -9.598  14.408  65.316  1.00  0.00    -0.533 OA 
HETATM    6  H   UNL     1      -9.576  13.577  64.857  1.00  0.00     0.000 HD 
HETATM    7  O   UNL     1     -11.706  13.842  63.414  1.00  0.00    -0.100 OA 
HETATM    8  O   UNL     1     -12.136  15.972  63.926  1.00  0.00    -0.880 OA 
HETATM    9  C   UNL     1     -12.062  12.561  63.916  1.00  0.00    -0.498 C  
HETATM   10  C   UNL     1     -11.614  12.300  65.307  1.00  0.00    -0.405 C  
HETATM   11  C   UNL     1     -11.431  13.247  66.261  1.00  0.00    -0.358 C  
HETATM   12  C   UNL     1     -11.420  12.722  67.675  1.00  0.00    -0.387 C  
HETATM   13  C   UNL     1     -11.015  11.440  67.907  1.00  0.00    -0.240 C  
HETATM   14  N   UNL     1     -10.509  10.775  66.802  1.00  0.00    -0.243 N  
HETATM   15  C   UNL     1      -9.613   9.703  67.161  1.00  0.00    -0.166 C  
HETATM   16  C   UNL     1     -10.820  11.061  65.504  1.00  0.00    -0.088 C  
HETATM   17  C   UNL     1      -9.968   9.482  68.577  1.00  0.00    -0.184 A  
HETATM   18  O   UNL     1     -10.430  10.398  64.558  1.00  0.00    -0.249 OA 
HETATM   19  C   UNL     1      -9.545   8.439  69.362  1.00  0.00    -0.170 A  
HETATM   20  C   UNL     1     -10.088   8.275  70.630  1.00  0.00    -0.212 A  
HETATM   21  C   UNL     1     -11.182   9.126  70.969  1.00  0.00    -0.312 A  
HETATM   22  C   UNL     1     -11.877   8.727  72.125  1.00  0.00    -0.436 A  
HETATM   23  N   UNL     1     -11.539  10.240  70.199  1.00  0.00    -0.280 NA 
HETATM   24  C   UNL     1     -11.478   7.648  72.950  1.00  0.00    -0.342 A  
HETATM   25  C   UNL     1     -10.860  10.443  69.046  1.00  0.00    -0.234 A  
HETATM   26  C   UNL     1     -10.306   6.959  72.660  1.00  0.00    -0.203 A  
HETATM   27  C   UNL     1      -9.575   7.275  71.515  1.00  0.00    -0.164 A  
HETATM   28  O   UNL     1      -9.849   5.975  73.487  1.00  0.00    -0.157 OA 
HETATM   29  H   UNL     1      -9.048   5.504  73.289  1.00  0.00     0.000 HD 
BRANCH  27  30
HETATM   30  C   UNL     1      -8.204   6.631  71.291  1.00  0.00    -0.120 C  
BRANCH  30  31
HETATM   31  N   UNL     1      -7.262   6.887  72.407  1.00  0.00    -0.077 NA 
HETATM   32  C   UNL     1      -6.129   5.958  72.397  1.00  0.00    -0.041 C  
HETATM   33  C   UNL     1      -6.765   8.261  72.375  1.00  0.00    -0.087 C  
ENDBRANCH  30  31
ENDBRANCH  27  30
ENDBRANCH   2   3
TORSDOF 3
ENDMDL
MODEL       13
REMARK 921   NORMALIZED FREE ENERGY PREDICTED BY IDOCK:   -6.66 KCAL/MOL
REMARK 922        TOTAL FREE ENERGY PREDICTED BY IDOCK:   -8.48 KCAL/MOL
REMARK 923 INTER-LIGAND FREE ENERGY PREDICTED BY IDOCK:   -7.93 KCAL/MOL
REMARK 924 INTRA-LIGAND FREE ENERGY PREDICTED BY IDOCK:   -0.55 KCAL/MOL
REMARK 927      BINDING AFFINITY PREDICTED BY RF-SCORE:    0.00 PKD
ROOT
HETATM    1  C   UNL     1      -9.353   7.243  71.383  1.00  0.00    -0.153 C  
HETATM    2  C   UNL     1     -10.497   7.618  70.462  1.00  0.00    -0.221 C  
ENDROOT
BRANCH   2   3
HETATM    3  C   UNL     1     -11.545   8.608  71.016  1.00  0.00    -0.281 C  
HETATM    4  C   UNL     1     -12.723   7.712  71.559  1.00  0.00    -0.345 C  
HETATM    5  O   UNL     1     -10.932   9.181  72.207  1.00  0.00    -0.205 OA 
HETATM    6  H   UNL     1     -11.577   9.790  72.548  1.00  0.00     0.000 HD 
HETATM    7  O   UNL     1     -13.711   8.370  72.204  1.00  0.00    -0.353 OA 
HETATM    8  O   UNL     1     -12.700   6.481  71.576  1.00  0.00    -0.257 OA 
HETATM    9  C   UNL     1     -14.236   9.528  71.568  1.00  0.00     0.105 C  
HETATM   10  C   UNL     1     -13.231  10.331  70.827  1.00  0.00    -0.283 C  
HETATM   11  C   UNL     1     -12.102   9.839  70.258  1.00  0.00    -0.104 C  
HETATM   12  C   UNL     1     -11.491  10.729  69.203  1.00  0.00    -0.368 C  
HETATM   13  C   UNL     1     -11.680  12.077  69.277  1.00  0.00    -0.330 C  
HETATM   14  N   UNL     1     -12.318  12.518  70.424  1.00  0.00    -0.279 N  
HETATM   15  C   UNL     1     -12.014  13.894  70.735  1.00  0.00    -0.272 C  
HETATM   16  C   UNL     1     -13.166  11.770  71.187  1.00  0.00     0.114 C  
HETATM   17  C   UNL     1     -11.500  14.384  69.441  1.00  0.00    -0.330 A  
HETATM   18  O   UNL     1     -13.785  12.216  72.140  1.00  0.00    -0.345 OA 
HETATM   19  C   UNL     1     -11.236  15.692  69.119  1.00  0.00    -0.315 A  
HETATM   20  C   UNL     1     -10.907  16.019  67.809  1.00  0.00    -0.324 A  
HETATM   21  C   UNL     1     -11.026  14.977  66.843  1.00  0.00    -0.324 A  
HETATM   22  C   UNL     1     -10.973  15.427  65.512  1.00  0.00    -0.350 A  
HETATM   23  N   UNL     1     -11.205  13.634  67.199  1.00  0.00    -0.300 NA 
HETATM   24  C   UNL     1     -10.717  16.770  65.144  1.00  0.00    -0.159 A  
HETATM   25  C   UNL     1     -11.357  13.354  68.514  1.00  0.00    -0.289 A  
HETATM   26  C   UNL     1     -10.443  17.710  66.129  1.00  0.00    -0.295 A  
HETATM   27  C   UNL     1     -10.504  17.351  67.475  1.00  0.00    -0.354 A  
HETATM   28  O   UNL     1     -10.104  18.990  65.801  1.00  0.00    -0.499 OA 
HETATM   29  H   UNL     1      -9.917  19.634  66.474  1.00  0.00     0.000 HD 
BRANCH  27  30
HETATM   30  C   UNL     1     -10.041  18.343  68.545  1.00  0.00    -0.384 C  
BRANCH  30  31
HETATM   31  N   UNL     1      -8.583  18.612  68.483  1.00  0.00    -0.338 NA 
HETATM   32  C   UNL     1      -8.196  19.751  69.319  1.00  0.00     0.106 C  
HETATM   33  C   UNL     1      -7.811  17.435  68.876  1.00  0.00    -0.196 C  
ENDBRANCH  30  31
ENDBRANCH  27  30
ENDBRANCH   2   3
TORSDOF 3
ENDMDL
MODEL       14
REMARK 921   NORMALIZED FREE ENERGY PREDICTED BY IDOCK:   -6.66 KCAL/MOL
REMARK 922        TOTAL FREE ENERGY PREDICTED BY IDOCK:   -8.47 KCAL/MOL
REMARK 923 INTER-LIGAND FREE ENERGY PREDICTED BY IDOCK:   -7.99 KCAL/MOL
REMARK 924 INTRA-LIGAND FREE ENERGY PREDICTED BY IDOCK:   -0.48 KCAL/MOL
REMARK 927      BINDING AFFINITY PREDICTED BY RF-SCORE:    0.00 PKD
ROOT
HETATM    1  C   UNL     1     -12.602  12.183  63.430  1.00  0.00    -0.584 C  
HETATM    2  C   UNL     1     -12.156  13.629  63.509  1.00  0.00    -0.341 C  
ENDROOT
BRANCH   2   3
HETATM    3  C   UNL     1     -11.885  14.202  64.916  1.00  0.00    -0.402 C  
HETATM    4  C   UNL     1     -11.530  15.721  64.691  1.00  0.00    -0.282 C  
HETATM    5  O   UNL     1     -13.183  14.216  65.577  1.00  0.00    -0.688 OA 
HETATM    6  H   UNL     1     -13.016  14.569  66.443  1.00  0.00     0.000 HD 
HETATM    7  O   UNL     1     -11.368  16.459  65.811  1.00  0.00     0.160 OA 
HETATM    8  O   UNL     1     -11.564  16.281  63.594  1.00  0.00    -0.836 OA 
HETATM    9  C   UNL     1     -10.537  15.913  66.827  1.00  0.00    -0.309 C  
HETATM   10  C   UNL     1     -10.630  14.439  66.970  1.00  0.00    -0.274 C  
HETATM   11  C   UNL     1     -10.940  13.574  65.972  1.00  0.00    -0.281 C  
HETATM   12  C   UNL     1     -10.537  12.143  66.232  1.00  0.00    -0.285 C  
HETATM   13  C   UNL     1     -10.462  11.694  67.518  1.00  0.00    -0.200 C  
HETATM   14  N   UNL     1     -10.911  12.587  68.478  1.00  0.00    -0.235 N  
HETATM   15  C   UNL     1     -11.338  11.931  69.690  1.00  0.00    -0.195 C  
HETATM   16  C   UNL     1     -10.937  13.944  68.336  1.00  0.00    -0.253 C  
HETATM   17  C   UNL     1     -10.692  10.610  69.555  1.00  0.00    -0.290 A  
HETATM   18  O   UNL     1     -11.251  14.707  69.234  1.00  0.00    -0.257 OA 
HETATM   19  C   UNL     1     -10.615   9.646  70.529  1.00  0.00    -0.369 A  
HETATM   20  C   UNL     1      -9.837   8.516  70.310  1.00  0.00    -0.194 A  
HETATM   21  C   UNL     1      -9.033   8.514  69.132  1.00  0.00    -0.146 A  
HETATM   22  C   UNL     1      -8.058   7.501  69.109  1.00  0.00    -0.123 A  
HETATM   23  N   UNL     1      -9.192   9.457  68.108  1.00  0.00    -0.130 NA 
HETATM   24  C   UNL     1      -7.940   6.499  70.102  1.00  0.00    -0.112 A  
HETATM   25  C   UNL     1     -10.089  10.450  68.310  1.00  0.00    -0.153 A  
HETATM   26  C   UNL     1      -8.860   6.454  71.143  1.00  0.00    -0.138 A  
HETATM   27  C   UNL     1      -9.840   7.440  71.253  1.00  0.00    -0.182 A  
HETATM   28  O   UNL     1      -8.826   5.448  72.064  1.00  0.00    -0.133 OA 
HETATM   29  H   UNL     1      -9.455   5.417  72.776  1.00  0.00     0.000 HD 
BRANCH  27  30
HETATM   30  C   UNL     1     -10.948   7.292  72.300  1.00  0.00    -0.249 C  
BRANCH  30  31
HETATM   31  N   UNL     1     -11.993   6.321  71.894  1.00  0.00    -0.320 NA 
HETATM   32  C   UNL     1     -12.140   5.232  72.862  1.00  0.00     0.118 C  
HETATM   33  C   UNL     1     -13.283   6.983  71.704  1.00  0.00    -0.307 C  
ENDBRANCH  30  31
ENDBRANCH  27  30
ENDBRANCH   2   3
TORSDOF 3
ENDMDL
MODEL       15
REMARK 921   NORMALIZED FREE ENERGY PREDICTED BY IDOCK:   -6.57 KCAL/MOL
REMARK 922        TOTAL FREE ENERGY PREDICTED BY IDOCK:   -8.37 KCAL/MOL
REMARK 923 INTER-LIGAND FREE ENERGY PREDICTED BY IDOCK:   -8.56 KCAL/MOL
REMARK 924 INTRA-LIGAND FREE ENERGY PREDICTED BY IDOCK:    0.19 KCAL/MOL
REMARK 927      BINDING AFFINITY PREDICTED BY RF-SCORE:    0.00 PKD
ROOT
HETATM    1  C   UNL     1     -14.411   7.665  71.349  1.00  0.00    -0.537 C  
HETATM    2  C   UNL     1     -13.176   7.170  72.075  1.00  0.00    -0.170 C  
ENDROOT
BRANCH   2   3
HETATM    3  C   UNL     1     -11.862   7.121  71.266  1.00  0.00    -0.318 C  
HETATM    4  C   UNL     1     -10.957   6.058  71.998  1.00  0.00    -0.263 C  
HETATM    5  O   UNL     1     -12.220   6.497  69.998  1.00  0.00    -0.525 OA 
HETATM    6  H   UNL     1     -11.411   6.466  69.501  1.00  0.00     0.000 HD 
HETATM    7  O   UNL     1      -9.789   5.761  71.387  1.00  0.00    -0.164 OA 
HETATM    8  O   UNL     1     -11.326   5.387  72.963  1.00  0.00    -0.302 OA 
HETATM    9  C   UNL     1      -8.994   6.856  70.951  1.00  0.00    -0.149 C  
HETATM   10  C   UNL     1      -9.770   8.015  70.447  1.00  0.00    -0.178 C  
HETATM   11  C   UNL     1     -11.022   8.353  70.846  1.00  0.00    -0.279 C  
HETATM   12  C   UNL     1     -11.414   9.780  70.548  1.00  0.00    -0.370 C  
HETATM   13  C   UNL     1     -10.847  10.419  69.485  1.00  0.00    -0.255 C  
HETATM   14  N   UNL     1     -10.047   9.624  68.680  1.00  0.00    -0.172 N  
HETATM   15  C   UNL     1      -9.932  10.132  67.335  1.00  0.00    -0.195 C  
HETATM   16  C   UNL     1      -9.405   8.491  69.088  1.00  0.00    -0.153 C  
HETATM   17  C   UNL     1     -10.357  11.535  67.512  1.00  0.00    -0.220 A  
HETATM   18  O   UNL     1      -8.633   7.864  68.381  1.00  0.00    -0.127 OA 
HETATM   19  C   UNL     1     -10.258  12.534  66.575  1.00  0.00    -0.255 A  
HETATM   20  C   UNL     1     -10.552  13.842  66.938  1.00  0.00    -0.276 A  
HETATM   21  C   UNL     1     -10.786  14.081  68.324  1.00  0.00    -0.255 A  
HETATM   22  C   UNL     1     -10.784  15.442  68.675  1.00  0.00    -0.246 A  
HETATM   23  N   UNL     1     -10.975  13.045  69.248  1.00  0.00    -0.132 NA 
HETATM   24  C   UNL     1     -10.669  16.497  67.738  1.00  0.00    -0.329 A  
HETATM   25  C   UNL     1     -10.836  11.776  68.797  1.00  0.00    -0.227 A  
HETATM   26  C   UNL     1     -10.611  16.206  66.381  1.00  0.00    -0.269 A  
HETATM   27  C   UNL     1     -10.579  14.878  65.952  1.00  0.00    -0.334 A  
HETATM   28  O   UNL     1     -10.591  17.202  65.450  1.00  0.00    -0.618 OA 
HETATM   29  H   UNL     1     -10.551  17.003  64.522  1.00  0.00     0.000 HD 
BRANCH  27  30
HETATM   30  C   UNL     1     -10.683  14.563  64.458  1.00  0.00    -0.174 C  
BRANCH  30  31
HETATM   31  N   UNL     1     -12.065  14.223  64.039  1.00  0.00    -0.486 NA 
HETATM   32  C   UNL     1     -12.161  12.862  63.505  1.00  0.00    -0.555 C  
HETATM   33  C   UNL     1     -13.006  14.379  65.147  1.00  0.00    -0.026 C  
ENDBRANCH  30  31
ENDBRANCH  27  30
ENDBRANCH   2   3
TORSDOF 3
ENDMDL
MODEL       16
REMARK 921   NORMALIZED FREE ENERGY PREDICTED BY IDOCK:   -6.37 KCAL/MOL
REMARK 922        TOTAL FREE ENERGY PREDICTED BY IDOCK:   -8.14 KCAL/MOL
REMARK 923 INTER-LIGAND FREE ENERGY PREDICTED BY IDOCK:   -7.74 KCAL/MOL
REMARK 924 INTRA-LIGAND FREE ENERGY PREDICTED BY IDOCK:   -0.40 KCAL/MOL
REMARK 927      BINDING AFFINITY PREDICTED BY RF-SCORE:    0.00 PKD
ROOT
HETATM    1  C   UNL     1      -5.812   8.421  71.865  1.00  0.00    -0.046 C  
HETATM    2  C   UNL     1      -6.683   7.219  71.560  1.00  0.00    -0.051 C  
ENDROOT
BRANCH   2   3
HETATM    3  C   UNL     1      -8.206   7.395  71.735  1.00  0.00    -0.103 C  
HETATM    4  C   UNL     1      -8.673   6.169  72.609  1.00  0.00    -0.124 C  
HETATM    5  O   UNL     1      -8.356   8.554  72.606  1.00  0.00    -0.316 OA 
HETATM    6  H   UNL     1      -9.294   8.662  72.714  1.00  0.00     0.000 HD 
HETATM    7  O   UNL     1      -9.969   6.181  72.991  1.00  0.00    -0.170 OA 
HETATM    8  O   UNL     1      -7.906   5.331  73.085  1.00  0.00    -0.096 OA 
HETATM    9  C   UNL     1     -10.935   6.454  71.985  1.00  0.00    -0.250 C  
HETATM   10  C   UNL     1     -10.499   7.443  70.968  1.00  0.00    -0.223 C  
HETATM   11  C   UNL     1      -9.214   7.661  70.589  1.00  0.00    -0.162 C  
HETATM   12  C   UNL     1      -9.060   8.360  69.260  1.00  0.00    -0.150 C  
HETATM   13  C   UNL     1     -10.046   9.199  68.830  1.00  0.00    -0.197 C  
HETATM   14  N   UNL     1     -11.055   9.439  69.748  1.00  0.00    -0.211 N  
HETATM   15  C   UNL     1     -11.734  10.690  69.512  1.00  0.00    -0.284 C  
HETATM   16  C   UNL     1     -11.410   8.597  70.761  1.00  0.00    -0.263 C  
HETATM   17  C   UNL     1     -11.356  10.973  68.113  1.00  0.00    -0.374 A  
HETATM   18  O   UNL     1     -12.364   8.794  71.496  1.00  0.00    -0.305 OA 
HETATM   19  C   UNL     1     -11.885  11.960  67.318  1.00  0.00    -0.222 A  
HETATM   20  C   UNL     1     -11.545  12.005  65.971  1.00  0.00    -0.371 A  
HETATM   21  C   UNL     1     -10.784  10.908  65.469  1.00  0.00    -0.112 A  
HETATM   22  C   UNL     1     -10.723  10.853  64.065  1.00  0.00    -0.208 A  
HETATM   23  N   UNL     1     -10.177   9.964  66.307  1.00  0.00    -0.235 NA 
HETATM   24  C   UNL     1     -11.269  11.844  63.214  1.00  0.00    -0.382 A  
HETATM   25  C   UNL     1     -10.413  10.067  67.635  1.00  0.00    -0.246 A  
HETATM   26  C   UNL     1     -11.855  12.976  63.767  1.00  0.00    -0.502 A  
HETATM   27  C   UNL     1     -11.980  13.094  65.151  1.00  0.00    -0.431 A  
HETATM   28  O   UNL     1     -12.308  13.989  62.974  1.00  0.00    -1.101 OA 
HETATM   29  H   UNL     1     -12.709  14.763  63.352  1.00  0.00     0.000 HD 
BRANCH  27  30
HETATM   30  C   UNL     1     -12.472  14.410  65.758  1.00  0.00    -0.319 C  
BRANCH  30  31
HETATM   31  N   UNL     1     -11.360  15.304  66.163  1.00  0.00    -0.231 NA 
HETATM   32  C   UNL     1     -11.078  16.328  65.154  1.00  0.00    -0.212 C  
HETATM   33  C   UNL     1     -11.641  15.949  67.445  1.00  0.00     0.159 C  
ENDBRANCH  30  31
ENDBRANCH  27  30
ENDBRANCH   2   3
TORSDOF 3
ENDMDL
MODEL       17
REMARK 921   NORMALIZED FREE ENERGY PREDICTED BY IDOCK:   -6.37 KCAL/MOL
REMARK 922        TOTAL FREE ENERGY PREDICTED BY IDOCK:   -8.13 KCAL/MOL
REMARK 923 INTER-LIGAND FREE ENERGY PREDICTED BY IDOCK:   -7.52 KCAL/MOL
REMARK 924 INTRA-LIGAND FREE ENERGY PREDICTED BY IDOCK:   -0.62 KCAL/MOL
REMARK 927      BINDING AFFINITY PREDICTED BY RF-SCORE:    0.00 PKD
ROOT
HETATM    1  C   UNL     1     -11.022   9.196  71.567  1.00  0.00    -0.434 C  
HETATM    2  C   UNL     1      -9.946   8.849  70.557  1.00  0.00    -0.243 C  
ENDROOT
BRANCH   2   3
HETATM    3  C   UNL     1     -10.240   9.185  69.079  1.00  0.00    -0.207 C  
HETATM    4  C   UNL     1     -10.400   7.793  68.357  1.00  0.00    -0.196 C  
HETATM    5  O   UNL     1     -11.579   9.760  69.080  1.00  0.00    -0.468 OA 
HETATM    6  H   UNL     1     -11.760   9.966  68.170  1.00  0.00     0.000 HD 
HETATM    7  O   UNL     1     -10.782   7.845  67.062  1.00  0.00    -0.339 OA 
HETATM    8  O   UNL     1     -10.364   6.707  68.937  1.00  0.00    -0.170 OA 
HETATM    9  C   UNL     1     -10.082   8.751  66.219  1.00  0.00    -0.184 C  
HETATM   10  C   UNL     1      -9.682  10.018  66.879  1.00  0.00    -0.237 C  
HETATM   11  C   UNL     1      -9.418  10.162  68.202  1.00  0.00    -0.151 C  
HETATM   12  C   UNL     1      -8.613  11.389  68.553  1.00  0.00    -0.150 C  
HETATM   13  C   UNL     1      -8.695  12.492  67.755  1.00  0.00    -0.178 C  
HETATM   14  N   UNL     1      -9.646  12.419  66.750  1.00  0.00    -0.219 N  
HETATM   15  C   UNL     1     -10.092  13.719  66.311  1.00  0.00    -0.300 C  
HETATM   16  C   UNL     1     -10.113  11.264  66.195  1.00  0.00    -0.236 C  
HETATM   17  C   UNL     1      -9.011  14.589  66.815  1.00  0.00    -0.270 A  
HETATM   18  O   UNL     1     -10.881  11.235  65.247  1.00  0.00    -0.266 OA 
HETATM   19  C   UNL     1      -8.835  15.917  66.514  1.00  0.00    -0.340 A  
HETATM   20  C   UNL     1      -7.681  16.565  66.935  1.00  0.00    -0.266 A  
HETATM   21  C   UNL     1      -6.671  15.749  67.524  1.00  0.00    -0.190 A  
HETATM   22  C   UNL     1      -5.427  16.391  67.658  1.00  0.00    -0.163 A  
HETATM   23  N   UNL     1      -6.901  14.422  67.908  1.00  0.00    -0.150 NA 
HETATM   24  C   UNL     1      -5.206  17.753  67.343  1.00  0.00    -0.143 A  
HETATM   25  C   UNL     1      -8.110  13.890  67.615  1.00  0.00    -0.177 A  
HETATM   26  C   UNL     1      -6.272  18.543  66.930  1.00  0.00    -0.173 A  
HETATM   27  C   UNL     1      -7.532  17.975  66.745  1.00  0.00    -0.242 A  
HETATM   28  O   UNL     1      -6.109  19.879  66.706  1.00  0.00    -0.172 OA 
HETATM   29  H   UNL     1      -6.837  20.419  66.423  1.00  0.00     0.000 HD 
BRANCH  27  30
HETATM   30  C   UNL     1      -8.734  18.878  66.452  1.00  0.00    -0.303 C  
BRANCH  30  31
HETATM   31  N   UNL     1      -9.127  19.704  67.620  1.00  0.00    -0.320 NA 
HETATM   32  C   UNL     1      -9.782  20.952  67.218  1.00  0.00    -0.221 C  
HETATM   33  C   UNL     1     -10.005  18.961  68.521  1.00  0.00    -0.406 C  
ENDBRANCH  30  31
ENDBRANCH  27  30
ENDBRANCH   2   3
TORSDOF 3
ENDMDL
MODEL       18
REMARK 921   NORMALIZED FREE ENERGY PREDICTED BY IDOCK:   -6.29 KCAL/MOL
REMARK 922        TOTAL FREE ENERGY PREDICTED BY IDOCK:   -8.04 KCAL/MOL
REMARK 923 INTER-LIGAND FREE ENERGY PREDICTED BY IDOCK:   -7.44 KCAL/MOL
REMARK 924 INTRA-LIGAND FREE ENERGY PREDICTED BY IDOCK:   -0.60 KCAL/MOL
REMARK 927      BINDING AFFINITY PREDICTED BY RF-SCORE:    0.00 PKD
ROOT
HETATM    1  C   UNL     1     -11.309  11.862  63.457  1.00  0.00    -0.516 C  
HETATM    2  C   UNL     1     -10.469  12.707  64.393  1.00  0.00    -0.398 C  
ENDROOT
BRANCH   2   3
HETATM    3  C   UNL     1     -11.109  13.104  65.741  1.00  0.00    -0.273 C  
HETATM    4  C   UNL     1     -11.442  14.640  65.611  1.00  0.00    -0.340 C  
HETATM    5  O   UNL     1     -12.406  12.441  65.755  1.00  0.00    -0.644 OA 
HETATM    6  H   UNL     1     -12.800  12.685  66.585  1.00  0.00     0.000 HD 
HETATM    7  O   UNL     1     -12.125  15.181  66.643  1.00  0.00    -0.001 OA 
HETATM    8  O   UNL     1     -11.272  15.297  64.583  1.00  0.00    -0.396 OA 
HETATM    9  C   UNL     1     -11.645  14.899  67.951  1.00  0.00    -0.344 C  
HETATM   10  C   UNL     1     -11.093  13.532  68.121  1.00  0.00    -0.283 C  
HETATM   11  C   UNL     1     -10.518  12.793  67.139  1.00  0.00    -0.240 C  
HETATM   12  C   UNL     1      -9.648  11.662  67.631  1.00  0.00    -0.184 C  
HETATM   13  C   UNL     1      -9.916  11.091  68.839  1.00  0.00    -0.188 C  
HETATM   14  N   UNL     1     -11.081  11.528  69.449  1.00  0.00    -0.244 N  
HETATM   15  C   UNL     1     -11.615  10.564  70.382  1.00  0.00    -0.342 C  
HETATM   16  C   UNL     1     -11.672  12.738  69.235  1.00  0.00    -0.319 C  
HETATM   17  C   UNL     1     -10.441   9.702  70.621  1.00  0.00    -0.379 A  
HETATM   18  O   UNL     1     -12.646  13.130  69.856  1.00  0.00    -0.080 OA 
HETATM   19  C   UNL     1     -10.339   8.726  71.581  1.00  0.00    -0.391 A  
HETATM   20  C   UNL     1      -9.115   8.103  71.793  1.00  0.00    -0.229 A  
HETATM   21  C   UNL     1      -7.995   8.645  71.095  1.00  0.00    -0.138 A  
HETATM   22  C   UNL     1      -6.753   8.180  71.563  1.00  0.00    -0.058 A  
HETATM   23  N   UNL     1      -8.130   9.574  70.056  1.00  0.00    -0.148 NA 
HETATM   24  C   UNL     1      -6.610   7.186  72.561  1.00  0.00    -0.052 A  
HETATM   25  C   UNL     1      -9.377  10.026  69.783  1.00  0.00    -0.202 A  
HETATM   26  C   UNL     1      -7.741   6.574  73.087  1.00  0.00    -0.096 A  
HETATM   27  C   UNL     1      -9.011   6.998  72.696  1.00  0.00    -0.141 A  
HETATM   28  O   UNL     1      -7.632   5.551  73.982  1.00  0.00    -0.092 OA 
HETATM   29  H   UNL     1      -8.405   5.133  74.342  1.00  0.00     0.000 HD 
BRANCH  27  30
HETATM   30  C   UNL     1     -10.244   6.213  73.149  1.00  0.00    -0.199 C  
BRANCH  30  31
HETATM   31  N   UNL     1     -10.189   4.783  72.757  1.00  0.00    -0.175 NA 
HETATM   32  C   UNL     1     -11.261   3.999  73.375  1.00  0.00    -0.217 C  
HETATM   33  C   UNL     1     -10.250   4.632  71.304  1.00  0.00    -0.135 C  
ENDBRANCH  30  31
ENDBRANCH  27  30
ENDBRANCH   2   3
TORSDOF 3
ENDMDL
MODEL       19
REMARK 921   NORMALIZED FREE ENERGY PREDICTED BY IDOCK:   -6.22 KCAL/MOL
REMARK 922        TOTAL FREE ENERGY PREDICTED BY IDOCK:   -7.96 KCAL/MOL
REMARK 923 INTER-LIGAND FREE ENERGY PREDICTED BY IDOCK:   -7.33 KCAL/MOL
REMARK 924 INTRA-LIGAND FREE ENERGY PREDICTED BY IDOCK:   -0.63 KCAL/MOL
REMARK 927      BINDING AFFINITY PREDICTED BY RF-SCORE:    0.00 PKD
ROOT
HETATM    1  C   UNL     1     -10.599  19.592  66.969  1.00  0.00    -0.607 C  
HETATM    2  C   UNL     1      -9.375  19.689  66.080  1.00  0.00    -0.416 C  
ENDROOT
BRANCH   2   3
HETATM    3  C   UNL     1      -8.106  18.951  66.555  1.00  0.00    -0.287 C  
HETATM    4  C   UNL     1      -6.896  19.815  66.029  1.00  0.00    -0.253 C  
HETATM    5  O   UNL     1      -8.086  19.122  68.002  1.00  0.00    -0.280 OA 
HETATM    6  H   UNL     1      -7.304  18.668  68.294  1.00  0.00     0.000 HD 
HETATM    7  O   UNL     1      -5.671  19.415  66.433  1.00  0.00    -0.158 OA 
HETATM    8  O   UNL     1      -7.022  20.888  65.439  1.00  0.00    -0.068 OA 
HETATM    9  C   UNL     1      -5.369  18.032  66.306  1.00  0.00    -0.172 C  
HETATM   10  C   UNL     1      -6.517  17.127  66.563  1.00  0.00    -0.268 C  
HETATM   11  C   UNL     1      -7.821  17.440  66.358  1.00  0.00    -0.337 C  
HETATM   12  C   UNL     1      -8.745  16.251  66.255  1.00  0.00    -0.370 C  
HETATM   13  C   UNL     1      -8.419  15.096  66.902  1.00  0.00    -0.244 C  
HETATM   14  N   UNL     1      -7.309  15.178  67.727  1.00  0.00    -0.147 N  
HETATM   15  C   UNL     1      -7.321  14.186  68.775  1.00  0.00    -0.128 C  
HETATM   16  C   UNL     1      -6.287  16.069  67.580  1.00  0.00    -0.170 C  
HETATM   17  C   UNL     1      -8.298  13.212  68.249  1.00  0.00    -0.152 A  
HETATM   18  O   UNL     1      -5.279  16.056  68.266  1.00  0.00    -0.093 OA 
HETATM   19  C   UNL     1      -8.554  11.966  68.766  1.00  0.00     0.046 A  
HETATM   20  C   UNL     1      -9.386  11.097  68.071  1.00  0.00    -0.166 A  
HETATM   21  C   UNL     1      -9.794  11.511  66.769  1.00  0.00    -0.203 A  
HETATM   22  C   UNL     1     -10.377  10.486  66.003  1.00  0.00    -0.279 A  
HETATM   23  N   UNL     1      -9.602  12.815  66.296  1.00  0.00    -0.258 NA 
HETATM   24  C   UNL     1     -10.643   9.186  66.498  1.00  0.00    -0.096 A  
HETATM   25  C   UNL     1      -8.922  13.672  67.092  1.00  0.00    -0.231 A  
HETATM   26  C   UNL     1     -10.375   8.892  67.829  1.00  0.00    -0.242 A  
HETATM   27  C   UNL     1      -9.770   9.845  68.648  1.00  0.00    -0.163 A  
HETATM   28  O   UNL     1     -10.704   7.678  68.358  1.00  0.00    -0.354 OA 
HETATM   29  H   UNL     1     -10.520   7.477  69.268  1.00  0.00     0.000 HD 
BRANCH  27  30
HETATM   30  C   UNL     1      -9.631   9.576  70.148  1.00  0.00    -0.248 C  
BRANCH  30  31
HETATM   31  N   UNL     1     -10.916   9.198  70.784  1.00  0.00    -0.249 NA 
HETATM   32  C   UNL     1     -10.722   8.576  72.096  1.00  0.00    -0.356 C  
HETATM   33  C   UNL     1     -11.799  10.356  70.919  1.00  0.00    -0.377 C  
ENDBRANCH  30  31
ENDBRANCH  27  30
ENDBRANCH   2   3
TORSDOF 3
ENDMDL
MODEL       20
REMARK 921   NORMALIZED FREE ENERGY PREDICTED BY IDOCK:   -6.20 KCAL/MOL
REMARK 922        TOTAL FREE ENERGY PREDICTED BY IDOCK:   -7.93 KCAL/MOL
REMARK 923 INTER-LIGAND FREE ENERGY PREDICTED BY IDOCK:   -7.44 KCAL/MOL
REMARK 924 INTRA-LIGAND FREE ENERGY PREDICTED BY IDOCK:   -0.49 KCAL/MOL
REMARK 927      BINDING AFFINITY PREDICTED BY RF-SCORE:    0.00 PKD
ROOT
HETATM    1  C   UNL     1     -10.799   4.288  64.750  1.00  0.00    -0.108 C  
HETATM    2  C   UNL     1     -10.509   4.729  66.171  1.00  0.00    -0.332 C  
ENDROOT
BRANCH   2   3
HETATM    3  C   UNL     1      -9.298   5.662  66.380  1.00  0.00    -0.154 C  
HETATM    4  C   UNL     1      -8.054   4.705  66.540  1.00  0.00    -0.103 C  
HETATM    5  O   UNL     1      -9.099   6.320  65.095  1.00  0.00    -0.365 OA 
HETATM    6  H   UNL     1      -8.353   6.894  65.224  1.00  0.00     0.000 HD 
HETATM    7  O   UNL     1      -6.851   5.315  66.617  1.00  0.00    -0.060 OA 
HETATM    8  O   UNL     1      -8.109   3.480  66.426  1.00  0.00    -0.094 OA 
HETATM    9  C   UNL     1      -6.740   6.409  67.518  1.00  0.00    -0.070 C  
HETATM   10  C   UNL     1      -7.957   7.253  67.612  1.00  0.00    -0.114 C  
HETATM   11  C   UNL     1      -9.227   6.822  67.405  1.00  0.00    -0.130 C  
HETATM   12  C   UNL     1     -10.297   7.713  67.986  1.00  0.00    -0.257 C  
HETATM   13  C   UNL     1     -10.049   9.047  68.128  1.00  0.00    -0.191 C  
HETATM   14  N   UNL     1      -8.854   9.484  67.579  1.00  0.00    -0.125 N  
HETATM   15  C   UNL     1      -8.876  10.888  67.248  1.00  0.00    -0.134 C  
HETATM   16  C   UNL     1      -7.751   8.706  67.381  1.00  0.00    -0.098 C  
HETATM   17  C   UNL     1     -10.018  11.365  68.053  1.00  0.00    -0.192 A  
HETATM   18  O   UNL     1      -6.684   9.141  66.982  1.00  0.00    -0.070 OA 
HETATM   19  C   UNL     1     -10.369  12.676  68.259  1.00  0.00    -0.246 A  
HETATM   20  C   UNL     1     -11.373  12.977  69.171  1.00  0.00    -0.328 A  
HETATM   21  C   UNL     1     -11.865  11.895  69.958  1.00  0.00    -0.328 A  
HETATM   22  C   UNL     1     -12.652  12.298  71.052  1.00  0.00    -0.352 A  
HETATM   23  N   UNL     1     -11.566  10.556  69.673  1.00  0.00    -0.266 NA 
HETATM   24  C   UNL     1     -13.021  13.641  71.303  1.00  0.00    -0.399 A  
HETATM   25  C   UNL     1     -10.701  10.314  68.661  1.00  0.00    -0.224 A  
HETATM   26  C   UNL     1     -12.650  14.634  70.406  1.00  0.00    -0.343 A  
HETATM   27  C   UNL     1     -11.845  14.321  69.310  1.00  0.00    -0.372 A  
HETATM   28  O   UNL     1     -13.067  15.922  70.573  1.00  0.00    -0.714 OA 
HETATM   29  H   UNL     1     -12.813  16.601  69.959  1.00  0.00     0.000 HD 
BRANCH  27  30
HETATM   30  C   UNL     1     -11.578  15.381  68.239  1.00  0.00    -0.348 C  
BRANCH  30  31
HETATM   31  N   UNL     1     -10.817  16.542  68.759  1.00  0.00    -0.328 NA 
HETATM   32  C   UNL     1      -9.525  16.146  69.326  1.00  0.00    -0.224 C  
HETATM   33  C   UNL     1     -10.605  17.546  67.717  1.00  0.00    -0.375 C  
ENDBRANCH  30  31
ENDBRANCH  27  30
ENDBRANCH   2   3
TORSDOF 3
ENDMDL
MODEL       21
REMARK 921   NORMALIZED FREE ENERGY PREDICTED BY IDOCK:   -6.19 KCAL/MOL
REMARK 922        TOTAL FREE ENERGY PREDICTED BY IDOCK:   -7.92 KCAL/MOL
REMARK 923 INTER-LIGAND FREE ENERGY PREDICTED BY IDOCK:   -7.88 KCAL/MOL
REMARK 924 INTRA-LIGAND FREE ENERGY PREDICTED BY IDOCK:   -0.04 KCAL/MOL
REMARK 927      BINDING AFFINITY PREDICTED BY RF-SCORE:    0.00 PKD
ROOT
HETATM    1  C   UNL     1     -11.509   9.743  70.855  1.00  0.00    -0.447 C  
HETATM    2  C   UNL     1     -10.646   9.031  69.833  1.00  0.00    -0.240 C  
ENDROOT
BRANCH   2   3
HETATM    3  C   UNL     1     -10.577   9.653  68.422  1.00  0.00    -0.225 C  
HETATM    4  C   UNL     1     -10.462   8.432  67.430  1.00  0.00    -0.283 C  
HETATM    5  O   UNL     1     -11.905  10.203  68.184  1.00  0.00    -0.686 OA 
HETATM    6  H   UNL     1     -11.862  10.585  67.315  1.00  0.00     0.000 HD 
HETATM    7  O   UNL     1     -10.506   8.738  66.115  1.00  0.00    -0.038 OA 
HETATM    8  O   UNL     1     -10.507   7.252  67.782  1.00  0.00    -0.201 OA 
HETATM    9  C   UNL     1      -9.674   9.802  65.672  1.00  0.00    -0.288 C  
HETATM   10  C   UNL     1      -9.533  10.915  66.643  1.00  0.00    -0.204 C  
HETATM   11  C   UNL     1      -9.621  10.794  67.992  1.00  0.00    -0.172 C  
HETATM   12  C   UNL     1      -9.008  11.935  68.767  1.00  0.00     0.045 C  
HETATM   13  C   UNL     1      -8.955  13.174  68.200  1.00  0.00    -0.195 C  
HETATM   14  N   UNL     1      -9.614  13.294  66.988  1.00  0.00    -0.235 N  
HETATM   15  C   UNL     1     -10.014  14.651  66.705  1.00  0.00    -0.274 C  
HETATM   16  C   UNL     1      -9.853  12.268  66.120  1.00  0.00    -0.243 C  
HETATM   17  C   UNL     1      -9.151  15.413  67.629  1.00  0.00    -0.183 A  
HETATM   18  O   UNL     1     -10.353  12.422  65.019  1.00  0.00    -0.281 OA 
HETATM   19  C   UNL     1      -8.987  16.776  67.642  1.00  0.00    -0.210 A  
HETATM   20  C   UNL     1      -8.020  17.339  68.465  1.00  0.00    -0.261 A  
HETATM   21  C   UNL     1      -7.143  16.432  69.129  1.00  0.00    -0.224 A  
HETATM   22  C   UNL     1      -6.015  17.047  69.702  1.00  0.00    -0.227 A  
HETATM   23  N   UNL     1      -7.379  15.052  69.180  1.00  0.00    -0.151 NA 
HETATM   24  C   UNL     1      -5.806  18.447  69.721  1.00  0.00    -0.252 A  
HETATM   25  C   UNL     1      -8.440  14.577  68.487  1.00  0.00    -0.166 A  
HETATM   26  C   UNL     1      -6.780  19.292  69.204  1.00  0.00    -0.327 A  
HETATM   27  C   UNL     1      -7.915  18.760  68.592  1.00  0.00    -0.369 A  
HETATM   28  O   UNL     1      -6.649  20.647  69.289  1.00  0.00    -0.146 OA 
HETATM   29  H   UNL     1      -7.314  21.226  68.935  1.00  0.00     0.000 HD 
BRANCH  27  30
HETATM   30  C   UNL     1      -9.057  19.690  68.175  1.00  0.00    -0.329 C  
BRANCH  30  31
HETATM   31  N   UNL     1      -8.867  20.256  66.817  1.00  0.00    -0.300 NA 
HETATM   32  C   UNL     1      -7.715  19.667  66.129  1.00  0.00    -0.321 C  
HETATM   33  C   UNL     1     -10.066  20.080  65.999  1.00  0.00    -0.450 C  
ENDBRANCH  30  31
ENDBRANCH  27  30
ENDBRANCH   2   3
TORSDOF 3
ENDMDL
MODEL       22
REMARK 921   NORMALIZED FREE ENERGY PREDICTED BY IDOCK:   -6.13 KCAL/MOL
REMARK 922        TOTAL FREE ENERGY PREDICTED BY IDOCK:   -7.85 KCAL/MOL
REMARK 923 INTER-LIGAND FREE ENERGY PREDICTED BY IDOCK:   -7.53 KCAL/MOL
REMARK 924 INTRA-LIGAND FREE ENERGY PREDICTED BY IDOCK:   -0.32 KCAL/MOL
REMARK 927      BINDING AFFINITY PREDICTED BY RF-SCORE:    0.00 PKD
ROOT
HETATM    1  C   UNL     1     -12.585  12.161  63.515  1.00  0.00    -0.621 C  
HETATM    2  C   UNL     1     -12.249  13.634  63.629  1.00  0.00    -0.376 C  
ENDROOT
BRANCH   2   3
HETATM    3  C   UNL     1     -11.647  14.113  64.968  1.00  0.00    -0.362 C  
HETATM    4  C   UNL     1     -11.212  15.608  64.722  1.00  0.00    -0.382 C  
HETATM    5  O   UNL     1     -12.778  14.199  65.883  1.00  0.00    -0.487 OA 
HETATM    6  H   UNL     1     -12.407  14.494  66.706  1.00  0.00     0.000 HD 
HETATM    7  O   UNL     1     -10.761  16.274  65.807  1.00  0.00    -0.318 OA 
HETATM    8  O   UNL     1     -11.418  16.222  63.674  1.00  0.00    -0.773 OA 
HETATM    9  C   UNL     1      -9.793  15.614  66.612  1.00  0.00    -0.244 C  
HETATM   10  C   UNL     1      -9.985  14.146  66.724  1.00  0.00    -0.267 C  
HETATM   11  C   UNL     1     -10.567  13.359  65.785  1.00  0.00    -0.286 C  
HETATM   12  C   UNL     1     -10.249  11.889  65.910  1.00  0.00    -0.270 C  
HETATM   13  C   UNL     1      -9.954  11.374  67.138  1.00  0.00    -0.192 C  
HETATM   14  N   UNL     1     -10.117  12.251  68.198  1.00  0.00    -0.206 N  
HETATM   15  C   UNL     1     -10.345  11.573  69.451  1.00  0.00     0.121 C  
HETATM   16  C   UNL     1     -10.051  13.611  68.108  1.00  0.00    -0.245 C  
HETATM   17  C   UNL     1      -9.860  10.212  69.143  1.00  0.00    -0.225 A  
HETATM   18  O   UNL     1     -10.106  14.352  69.075  1.00  0.00    -0.221 OA 
HETATM   19  C   UNL     1      -9.672   9.198  70.049  1.00  0.00    -0.217 A  
HETATM   20  C   UNL     1      -9.059   8.021  69.638  1.00  0.00    -0.152 A  
HETATM   21  C   UNL     1      -8.516   8.013  68.319  1.00  0.00    -0.123 A  
HETATM   22  C   UNL     1      -7.660   6.927  68.063  1.00  0.00    -0.108 A  
HETATM   23  N   UNL     1      -8.795   9.015  67.381  1.00  0.00    -0.119 NA 
HETATM   24  C   UNL     1      -7.432   5.871  68.978  1.00  0.00    -0.085 A  
HETATM   25  C   UNL     1      -9.540  10.065  67.796  1.00  0.00    -0.148 A  
HETATM   26  C   UNL     1      -8.121   5.848  70.184  1.00  0.00    -0.110 A  
HETATM   27  C   UNL     1      -8.967   6.904  70.526  1.00  0.00    -0.155 A  
HETATM   28  O   UNL     1      -7.990   4.799  71.046  1.00  0.00    -0.080 OA 
HETATM   29  H   UNL     1      -8.461   4.784  71.871  1.00  0.00     0.000 HD 
BRANCH  27  30
HETATM   30  C   UNL     1      -9.847   6.794  71.774  1.00  0.00    -0.163 C  
BRANCH  30  31
HETATM   31  N   UNL     1     -11.126   6.091  71.512  1.00  0.00    -0.278 NA 
HETATM   32  C   UNL     1     -11.451   5.126  72.566  1.00  0.00    -0.075 C  
HETATM   33  C   UNL     1     -12.229   7.038  71.362  1.00  0.00    -0.366 C  
ENDBRANCH  30  31
ENDBRANCH  27  30
ENDBRANCH   2   3
TORSDOF 3
ENDMDL
MODEL       23
REMARK 921   NORMALIZED FREE ENERGY PREDICTED BY IDOCK:   -6.12 KCAL/MOL
REMARK 922        TOTAL FREE ENERGY PREDICTED BY IDOCK:   -7.84 KCAL/MOL
REMARK 923 INTER-LIGAND FREE ENERGY PREDICTED BY IDOCK:   -7.36 KCAL/MOL
REMARK 924 INTRA-LIGAND FREE ENERGY PREDICTED BY IDOCK:   -0.48 KCAL/MOL
REMARK 927      BINDING AFFINITY PREDICTED BY RF-SCORE:    0.00 PKD
ROOT
HETATM    1  C   UNL     1      -6.626   4.689  72.969  1.00  0.00    -0.055 C  
HETATM    2  C   UNL     1      -7.801   4.399  72.057  1.00  0.00    -0.090 C  
ENDROOT
BRANCH   2   3
HETATM    3  C   UNL     1      -9.086   5.223  72.287  1.00  0.00    -0.138 C  
HETATM    4  C   UNL     1     -10.053   4.275  73.094  1.00  0.00    -0.148 C  
HETATM    5  O   UNL     1      -8.705   6.262  73.235  1.00  0.00    -0.126 OA 
HETATM    6  H   UNL     1      -9.496   6.769  73.376  1.00  0.00     0.000 HD 
HETATM    7  O   UNL     1     -11.209   4.836  73.514  1.00  0.00    -0.318 OA 
HETATM    8  O   UNL     1      -9.743   3.152  73.492  1.00  0.00    -0.101 OA 
HETATM    9  C   UNL     1     -11.949   5.580  72.555  1.00  0.00    -0.016 C  
HETATM   10  C   UNL     1     -11.114   6.340  71.591  1.00  0.00    -0.325 C  
HETATM   11  C   UNL     1      -9.866   5.990  71.190  1.00  0.00    -0.214 C  
HETATM   12  C   UNL     1      -9.414   6.638  69.905  1.00  0.00    -0.159 C  
HETATM   13  C   UNL     1      -9.920   7.857  69.558  1.00  0.00    -0.189 C  
HETATM   14  N   UNL     1     -10.718   8.456  70.519  1.00  0.00    -0.223 N  
HETATM   15  C   UNL     1     -10.767   9.891  70.384  1.00  0.00    -0.318 C  
HETATM   16  C   UNL     1     -11.414   7.791  71.486  1.00  0.00    -0.264 C  
HETATM   17  C   UNL     1     -10.299  10.075  68.996  1.00  0.00    -0.223 A  
HETATM   18  O   UNL     1     -12.182   8.340  72.259  1.00  0.00    -0.344 OA 
HETATM   19  C   UNL     1     -10.330  11.246  68.281  1.00  0.00    -0.200 A  
HETATM   20  C   UNL     1     -10.003  11.230  66.931  1.00  0.00    -0.238 A  
HETATM   21  C   UNL     1      -9.809   9.948  66.338  1.00  0.00    -0.227 A  
HETATM   22  C   UNL     1      -9.776   9.971  64.932  1.00  0.00    -0.377 A  
HETATM   23  N   UNL     1      -9.690   8.775  67.094  1.00  0.00    -0.176 NA 
HETATM   24  C   UNL     1      -9.820  11.158  64.162  1.00  0.00    -0.340 A  
HETATM   25  C   UNL     1      -9.858   8.879  68.433  1.00  0.00    -0.174 A  
HETATM   26  C   UNL     1      -9.840  12.391  64.803  1.00  0.00    -0.079 A  
HETATM   27  C   UNL     1      -9.903  12.454  66.195  1.00  0.00    -0.263 A  
HETATM   28  O   UNL     1      -9.791  13.552  64.090  1.00  0.00    -0.727 OA 
HETATM   29  H   UNL     1      -9.806  14.395  64.529  1.00  0.00     0.000 HD 
BRANCH  27  30
HETATM   30  C   UNL     1      -9.758  13.805  66.900  1.00  0.00    -0.265 C  
BRANCH  30  31
HETATM   31  N   UNL     1     -10.834  14.759  66.536  1.00  0.00    -0.313 NA 
HETATM   32  C   UNL     1     -12.164  14.154  66.633  1.00  0.00    -0.418 C  
HETATM   33  C   UNL     1     -10.781  15.958  67.371  1.00  0.00    -0.313 C  
ENDBRANCH  30  31
ENDBRANCH  27  30
ENDBRANCH   2   3
TORSDOF 3
ENDMDL
MODEL       24
REMARK 921   NORMALIZED FREE ENERGY PREDICTED BY IDOCK:   -6.09 KCAL/MOL
REMARK 922        TOTAL FREE ENERGY PREDICTED BY IDOCK:   -7.80 KCAL/MOL
REMARK 923 INTER-LIGAND FREE ENERGY PREDICTED BY IDOCK:   -7.14 KCAL/MOL
REMARK 924 INTRA-LIGAND FREE ENERGY PREDICTED BY IDOCK:   -0.66 KCAL/MOL
REMARK 927      BINDING AFFINITY PREDICTED BY RF-SCORE:    0.00 PKD
ROOT
HETATM    1  C   UNL     1     -10.753  19.572  65.984  1.00  0.00    -0.529 C  
HETATM    2  C   UNL     1      -9.308  20.020  66.059  1.00  0.00    -0.351 C  
ENDROOT
BRANCH   2   3
HETATM    3  C   UNL     1      -8.407  19.307  67.090  1.00  0.00    -0.280 C  
HETATM    4  C   UNL     1      -7.148  20.240  67.264  1.00  0.00    -0.280 C  
HETATM    5  O   UNL     1      -9.124  19.409  68.355  1.00  0.00    -0.336 OA 
HETATM    6  H   UNL     1      -8.569  18.970  68.989  1.00  0.00     0.000 HD 
HETATM    7  O   UNL     1      -6.269  19.867  68.219  1.00  0.00    -0.234 OA 
HETATM    8  O   UNL     1      -7.022  21.336  66.716  1.00  0.00    -0.356 OA 
HETATM    9  C   UNL     1      -5.866  18.504  68.228  1.00  0.00    -0.193 C  
HETATM   10  C   UNL     1      -6.936  17.546  67.852  1.00  0.00    -0.185 C  
HETATM   11  C   UNL     1      -7.977  17.820  67.027  1.00  0.00    -0.238 C  
HETATM   12  C   UNL     1      -8.656  16.604  66.445  1.00  0.00    -0.345 C  
HETATM   13  C   UNL     1      -8.634  15.431  67.141  1.00  0.00    -0.210 C  
HETATM   14  N   UNL     1      -8.093  15.514  68.414  1.00  0.00    -0.132 N  
HETATM   15  C   UNL     1      -8.571  14.473  69.291  1.00  0.00     0.109 C  
HETATM   16  C   UNL     1      -7.186  16.449  68.822  1.00  0.00    -0.191 C  
HETATM   17  C   UNL     1      -9.097  13.489  68.322  1.00  0.00    -0.189 A  
HETATM   18  O   UNL     1      -6.658  16.439  69.921  1.00  0.00    -0.180 OA 
HETATM   19  C   UNL     1      -9.507  12.211  68.611  1.00  0.00    -0.052 A  
HETATM   20  C   UNL     1      -9.828  11.347  67.572  1.00  0.00    -0.194 A  
HETATM   21  C   UNL     1      -9.552  11.808  66.251  1.00  0.00    -0.225 A  
HETATM   22  C   UNL     1      -9.614  10.801  65.272  1.00  0.00    -0.278 A  
HETATM   23  N   UNL     1      -9.223  13.141  65.969  1.00  0.00     0.001 NA 
HETATM   24  C   UNL     1     -10.018   9.470  65.535  1.00  0.00    -0.209 A  
HETATM   25  C   UNL     1      -9.083  13.982  67.020  1.00  0.00    -0.246 A  
HETATM   26  C   UNL     1     -10.437   9.121  66.813  1.00  0.00    -0.196 A  
HETATM   27  C   UNL     1     -10.378  10.055  67.848  1.00  0.00    -0.249 A  
HETATM   28  O   UNL     1     -10.917   7.872  67.077  1.00  0.00    -0.465 OA 
HETATM   29  H   UNL     1     -11.203   7.633  67.951  1.00  0.00     0.000 HD 
BRANCH  27  30
HETATM   30  C   UNL     1     -10.994   9.718  69.208  1.00  0.00    -0.193 C  
BRANCH  30  31
HETATM   31  N   UNL     1     -10.312   8.586  69.880  1.00  0.00    -0.205 NA 
HETATM   32  C   UNL     1      -9.241   9.037  70.773  1.00  0.00    -0.245 C  
HETATM   33  C   UNL     1     -11.262   7.768  70.633  1.00  0.00    -0.268 C  
ENDBRANCH  30  31
ENDBRANCH  27  30
ENDBRANCH   2   3
TORSDOF 3
ENDMDL
MODEL       25
REMARK 921   NORMALIZED FREE ENERGY PREDICTED BY IDOCK:   -6.05 KCAL/MOL
REMARK 922        TOTAL FREE ENERGY PREDICTED BY IDOCK:   -7.75 KCAL/MOL
REMARK 923 INTER-LIGAND FREE ENERGY PREDICTED BY IDOCK:   -7.87 KCAL/MOL
REMARK 924 INTRA-LIGAND FREE ENERGY PREDICTED BY IDOCK:    0.11 KCAL/MOL
REMARK 927      BINDING AFFINITY PREDICTED BY RF-SCORE:    0.00 PKD
ROOT
HETATM    1  C   UNL     1     -13.567   7.099  71.552  1.00  0.00    -0.408 C  
HETATM    2  C   UNL     1     -12.269   6.573  72.131  1.00  0.00    -0.277 C  
ENDROOT
BRANCH   2   3
HETATM    3  C   UNL     1     -11.040   6.562  71.197  1.00  0.00    -0.282 C  
HETATM    4  C   UNL     1     -10.027   5.545  71.848  1.00  0.00    -0.180 C  
HETATM    5  O   UNL     1     -11.496   5.906  69.978  1.00  0.00    -0.300 OA 
HETATM    6  H   UNL     1     -10.739   5.899  69.404  1.00  0.00     0.000 HD 
HETATM    7  O   UNL     1      -8.914   5.284  71.129  1.00  0.00    -0.136 OA 
HETATM    8  O   UNL     1     -10.273   4.875  72.852  1.00  0.00    -0.160 OA 
HETATM    9  C   UNL     1      -8.209   6.401  70.605  1.00  0.00    -0.125 C  
HETATM   10  C   UNL     1      -9.075   7.523  70.166  1.00  0.00    -0.147 C  
HETATM   11  C   UNL     1     -10.294   7.819  70.684  1.00  0.00    -0.202 C  
HETATM   12  C   UNL     1     -10.769   9.225  70.410  1.00  0.00    -0.300 C  
HETATM   13  C   UNL     1     -10.335   9.869  69.289  1.00  0.00    -0.219 C  
HETATM   14  N   UNL     1      -9.587   9.093  68.418  1.00  0.00    -0.150 N  
HETATM   15  C   UNL     1      -9.624   9.586  67.063  1.00  0.00    -0.164 C  
HETATM   16  C   UNL     1      -8.864   7.992  68.773  1.00  0.00    -0.138 C  
HETATM   17  C   UNL     1     -10.085  10.975  67.265  1.00  0.00    -0.222 A  
HETATM   18  O   UNL     1      -8.141   7.385  68.000  1.00  0.00    -0.120 OA 
HETATM   19  C   UNL     1     -10.117  11.962  66.312  1.00  0.00    -0.249 A  
HETATM   20  C   UNL     1     -10.426  13.263  66.688  1.00  0.00    -0.279 A  
HETATM   21  C   UNL     1     -10.532  13.513  68.088  1.00  0.00    -0.244 A  
HETATM   22  C   UNL     1     -10.549  14.879  68.423  1.00  0.00    -0.244 A  
HETATM   23  N   UNL     1     -10.589  12.485  69.037  1.00  0.00    -0.113 NA 
HETATM   24  C   UNL     1     -10.568  15.924  67.467  1.00  0.00    -0.315 A  
HETATM   25  C   UNL     1     -10.445  11.216  68.589  1.00  0.00    -0.197 A  
HETATM   26  C   UNL     1     -10.632  15.614  66.114  1.00  0.00    -0.320 A  
HETATM   27  C   UNL     1     -10.590  14.283  65.699  1.00  0.00    -0.328 A  
HETATM   28  O   UNL     1     -10.742  16.597  65.175  1.00  0.00    -0.621 OA 
HETATM   29  H   UNL     1     -10.785  16.386  64.250  1.00  0.00     0.000 HD 
BRANCH  27  30
HETATM   30  C   UNL     1     -10.828  13.943  64.225  1.00  0.00    -0.165 C  
BRANCH  30  31
HETATM   31  N   UNL     1     -12.251  13.652  63.927  1.00  0.00    -0.641 NA 
HETATM   32  C   UNL     1     -12.451  12.270  63.483  1.00  0.00    -0.534 C  
HETATM   33  C   UNL     1     -13.099  13.918  65.088  1.00  0.00    -0.088 C  
ENDBRANCH  30  31
ENDBRANCH  27  30
ENDBRANCH   2   3
TORSDOF 3
ENDMDL
MODEL       26
REMARK 921   NORMALIZED FREE ENERGY PREDICTED BY IDOCK:   -6.03 KCAL/MOL
REMARK 922        TOTAL FREE ENERGY PREDICTED BY IDOCK:   -7.73 KCAL/MOL
REMARK 923 INTER-LIGAND FREE ENERGY PREDICTED BY IDOCK:   -7.34 KCAL/MOL
REMARK 924 INTRA-LIGAND FREE ENERGY PREDICTED BY IDOCK:   -0.39 KCAL/MOL
REMARK 927      BINDING AFFINITY PREDICTED BY RF-SCORE:    0.00 PKD
ROOT
HETATM    1  C   UNL     1     -10.339  16.330  66.584  1.00  0.00    -0.302 C  
HETATM    2  C   UNL     1     -11.532  15.420  66.371  1.00  0.00     0.001 C  
ENDROOT
BRANCH   2   3
HETATM    3  C   UNL     1     -11.320  14.190  65.463  1.00  0.00    -0.319 C  
HETATM    4  C   UNL     1     -12.140  14.492  64.150  1.00  0.00    -0.350 C  
HETATM    5  O   UNL     1      -9.923  14.256  65.054  1.00  0.00    -0.542 OA 
HETATM    6  H   UNL     1      -9.793  13.499  64.495  1.00  0.00     0.000 HD 
HETATM    7  O   UNL     1     -12.002  13.591  63.153  1.00  0.00    -0.338 OA 
HETATM    8  O   UNL     1     -12.733  15.549  63.936  1.00  0.00    -0.665 OA 
HETATM    9  C   UNL     1     -12.132  12.219  63.501  1.00  0.00    -0.553 C  
HETATM   10  C   UNL     1     -11.586  11.870  64.836  1.00  0.00    -0.290 C  
HETATM   11  C   UNL     1     -11.509  12.714  65.895  1.00  0.00    -0.407 C  
HETATM   12  C   UNL     1     -11.352  12.033  67.232  1.00  0.00    -0.394 C  
HETATM   13  C   UNL     1     -10.743  10.814  67.292  1.00  0.00    -0.274 C  
HETATM   14  N   UNL     1     -10.191  10.374  66.100  1.00  0.00    -0.235 N  
HETATM   15  C   UNL     1      -9.124   9.423  66.299  1.00  0.00    -0.163 C  
HETATM   16  C   UNL     1     -10.601  10.758  64.857  1.00  0.00    -0.188 C  
HETATM   17  C   UNL     1      -9.375   8.982  67.686  1.00  0.00    -0.154 A  
HETATM   18  O   UNL     1     -10.156  10.283  63.825  1.00  0.00    -0.197 OA 
HETATM   19  C   UNL     1      -8.760   7.934  68.324  1.00  0.00    -0.130 A  
HETATM   20  C   UNL     1      -9.214   7.537  69.576  1.00  0.00    -0.146 A  
HETATM   21  C   UNL     1     -10.410   8.156  70.046  1.00  0.00    -0.215 A  
HETATM   22  C   UNL     1     -10.980   7.517  71.161  1.00  0.00    -0.264 A  
HETATM   23  N   UNL     1     -10.970   9.282  69.430  1.00  0.00    -0.174 NA 
HETATM   24  C   UNL     1     -10.382   6.425  71.835  1.00  0.00    -0.228 A  
HETATM   25  C   UNL     1     -10.383   9.727  68.294  1.00  0.00    -0.198 A  
HETATM   26  C   UNL     1      -9.132   5.972  71.431  1.00  0.00    -0.143 A  
HETATM   27  C   UNL     1      -8.512   6.534  70.316  1.00  0.00    -0.135 A  
HETATM   28  O   UNL     1      -8.491   4.982  72.117  1.00  0.00    -0.121 OA 
HETATM   29  H   UNL     1      -7.636   4.672  71.840  1.00  0.00     0.000 HD 
BRANCH  27  30
HETATM   30  C   UNL     1      -7.070   6.148  69.977  1.00  0.00    -0.072 C  
BRANCH  30  31
HETATM   31  N   UNL     1      -6.965   4.796  69.375  1.00  0.00    -0.049 NA 
HETATM   32  C   UNL     1      -7.850   4.637  68.218  1.00  0.00    -0.081 C  
HETATM   33  C   UNL     1      -5.589   4.498  68.980  1.00  0.00    -0.012 C  
ENDBRANCH  30  31
ENDBRANCH  27  30
ENDBRANCH   2   3
TORSDOF 3
ENDMDL
MODEL       27
REMARK 921   NORMALIZED FREE ENERGY PREDICTED BY IDOCK:   -5.97 KCAL/MOL
REMARK 922        TOTAL FREE ENERGY PREDICTED BY IDOCK:   -7.67 KCAL/MOL
REMARK 923 INTER-LIGAND FREE ENERGY PREDICTED BY IDOCK:   -7.06 KCAL/MOL
REMARK 924 INTRA-LIGAND FREE ENERGY PREDICTED BY IDOCK:   -0.61 KCAL/MOL
REMARK 927      BINDING AFFINITY PREDICTED BY RF-SCORE:    0.00 PKD
ROOT
HETATM    1  C   UNL     1      -9.451   7.955  73.112  1.00  0.00    -0.344 C  
HETATM    2  C   UNL     1     -10.820   7.927  72.463  1.00  0.00    -0.403 C  
ENDROOT
BRANCH   2   3
HETATM    3  C   UNL     1     -10.862   7.829  70.923  1.00  0.00    -0.237 C  
HETATM    4  C   UNL     1     -10.838   6.287  70.599  1.00  0.00    -0.280 C  
HETATM    5  O   UNL     1     -12.201   8.268  70.552  1.00  0.00    -0.491 OA 
HETATM    6  H   UNL     1     -12.227   8.208  69.604  1.00  0.00     0.000 HD 
HETATM    7  O   UNL     1     -10.989   5.958  69.297  1.00  0.00    -0.334 OA 
HETATM    8  O   UNL     1     -10.863   5.402  71.456  1.00  0.00    -0.224 OA 
HETATM    9  C   UNL     1     -10.187   6.663  68.358  1.00  0.00    -0.171 C  
HETATM   10  C   UNL     1      -9.958   8.090  68.695  1.00  0.00    -0.200 C  
HETATM   11  C   UNL     1      -9.937   8.604  69.951  1.00  0.00    -0.189 C  
HETATM   12  C   UNL     1      -9.253   9.944  70.070  1.00  0.00    -0.224 C  
HETATM   13  C   UNL     1      -9.237  10.782  68.995  1.00  0.00    -0.146 C  
HETATM   14  N   UNL     1      -9.993  10.363  67.912  1.00  0.00    -0.163 N  
HETATM   15  C   UNL     1     -10.405  11.456  67.065  1.00  0.00    -0.223 C  
HETATM   16  C   UNL     1     -10.310   9.066  67.633  1.00  0.00    -0.257 C  
HETATM   17  C   UNL     1      -9.463  12.518  67.473  1.00  0.00    -0.185 A  
HETATM   18  O   UNL     1     -10.898   8.721  66.621  1.00  0.00    -0.079 OA 
HETATM   19  C   UNL     1      -9.288  13.727  66.846  1.00  0.00    -0.267 A  
HETATM   20  C   UNL     1      -8.252  14.560  67.248  1.00  0.00    -0.230 A  
HETATM   21  C   UNL     1      -7.330  14.020  68.193  1.00  0.00    -0.128 A  
HETATM   22  C   UNL     1      -6.155  14.778  68.339  1.00  0.00    -0.100 A  
HETATM   23  N   UNL     1      -7.572  12.828  68.889  1.00  0.00    -0.010 NA 
HETATM   24  C   UNL     1      -5.935  16.021  67.697  1.00  0.00    -0.176 A  
HETATM   25  C   UNL     1      -8.690  12.137  68.567  1.00  0.00    -0.079 A  
HETATM   26  C   UNL     1      -6.941  16.578  66.918  1.00  0.00    -0.223 A  
HETATM   27  C   UNL     1      -8.126  15.876  66.700  1.00  0.00    -0.298 A  
HETATM   28  O   UNL     1      -6.793  17.814  66.361  1.00  0.00    -0.199 OA 
HETATM   29  H   UNL     1      -7.480  18.195  65.828  1.00  0.00     0.000 HD 
BRANCH  27  30
HETATM   30  C   UNL     1      -9.291  16.562  65.982  1.00  0.00    -0.267 C  
BRANCH  30  31
HETATM   31  N   UNL     1      -9.721  17.813  66.654  1.00  0.00    -0.300 NA 
HETATM   32  C   UNL     1     -10.553  18.649  65.785  1.00  0.00    -0.249 C  
HETATM   33  C   UNL     1     -10.444  17.526  67.892  1.00  0.00    -0.384 C  
ENDBRANCH  30  31
ENDBRANCH  27  30
ENDBRANCH   2   3
TORSDOF 3
ENDMDL
MODEL       28
REMARK 921   NORMALIZED FREE ENERGY PREDICTED BY IDOCK:   -5.96 KCAL/MOL
REMARK 922        TOTAL FREE ENERGY PREDICTED BY IDOCK:   -7.65 KCAL/MOL
REMARK 923 INTER-LIGAND FREE ENERGY PREDICTED BY IDOCK:   -7.08 KCAL/MOL
REMARK 924 INTRA-LIGAND FREE ENERGY PREDICTED BY IDOCK:   -0.57 KCAL/MOL
REMARK 927      BINDING AFFINITY PREDICTED BY RF-SCORE:    0.00 PKD
ROOT
HETATM    1  C   UNL     1     -10.587   5.171  74.159  1.00  0.00    -0.322 C  
HETATM    2  C   UNL     1     -10.552   4.287  72.929  1.00  0.00    -0.255 C  
ENDROOT
BRANCH   2   3
HETATM    3  C   UNL     1      -9.497   4.624  71.855  1.00  0.00    -0.145 C  
HETATM    4  C   UNL     1      -8.181   3.886  72.313  1.00  0.00    -0.092 C  
HETATM    5  O   UNL     1      -9.929   3.908  70.661  1.00  0.00    -0.173 OA 
HETATM    6  H   UNL     1      -9.279   4.115  70.000  1.00  0.00     0.000 HD 
HETATM    7  O   UNL     1      -7.144   3.946  71.449  1.00  0.00    -0.031 OA 
HETATM    8  O   UNL     1      -8.112   3.146  73.295  1.00  0.00    -0.070 OA 
HETATM    9  C   UNL     1      -6.823   5.223  70.915  1.00  0.00    -0.048 C  
HETATM   10  C   UNL     1      -7.997   6.093  70.656  1.00  0.00    -0.111 C  
HETATM   11  C   UNL     1      -9.171   6.046  71.335  1.00  0.00    -0.152 C  
HETATM   12  C   UNL     1     -10.020   7.288  71.210  1.00  0.00    -0.191 C  
HETATM   13  C   UNL     1      -9.917   8.056  70.087  1.00  0.00    -0.191 C  
HETATM   14  N   UNL     1      -9.119   7.527  69.085  1.00  0.00    -0.138 N  
HETATM   15  C   UNL     1      -9.461   8.033  67.778  1.00  0.00    -0.145 C  
HETATM   16  C   UNL     1      -8.099   6.642  69.279  1.00  0.00    -0.116 C  
HETATM   17  C   UNL     1     -10.229   9.247  68.122  1.00  0.00    -0.246 A  
HETATM   18  O   UNL     1      -7.356   6.267  68.388  1.00  0.00    -0.082 OA 
HETATM   19  C   UNL     1     -10.638  10.219  67.244  1.00  0.00    -0.324 A  
HETATM   20  C   UNL     1     -11.214  11.384  67.735  1.00  0.00    -0.346 A  
HETATM   21  C   UNL     1     -11.193  11.556  69.151  1.00  0.00    -0.274 A  
HETATM   22  C   UNL     1     -11.512  12.860  69.570  1.00  0.00    -0.292 A  
HETATM   23  N   UNL     1     -10.859  10.521  70.033  1.00  0.00    -0.279 NA 
HETATM   24  C   UNL     1     -11.923  13.891  68.692  1.00  0.00    -0.401 A  
HETATM   25  C   UNL     1     -10.458   9.347  69.492  1.00  0.00    -0.218 A  
HETATM   26  C   UNL     1     -12.085  13.616  67.340  1.00  0.00    -0.337 A  
HETATM   27  C   UNL     1     -11.763  12.355  66.839  1.00  0.00    -0.432 A  
HETATM   28  O   UNL     1     -12.567  14.564  66.485  1.00  0.00    -0.461 OA 
HETATM   29  H   UNL     1     -12.678  14.376  65.560  1.00  0.00     0.000 HD 
BRANCH  27  30
HETATM   30  C   UNL     1     -12.100  12.008  65.387  1.00  0.00    -0.020 C  
BRANCH  30  31
HETATM   31  N   UNL     1     -11.290  12.777  64.412  1.00  0.00    -0.327 NA 
HETATM   32  C   UNL     1     -10.217  11.969  63.825  1.00  0.00    -0.422 C  
HETATM   33  C   UNL     1     -12.126  13.324  63.345  1.00  0.00    -0.439 C  
ENDBRANCH  30  31
ENDBRANCH  27  30
ENDBRANCH   2   3
TORSDOF 3
ENDMDL
MODEL       29
REMARK 921   NORMALIZED FREE ENERGY PREDICTED BY IDOCK:   -5.92 KCAL/MOL
REMARK 922        TOTAL FREE ENERGY PREDICTED BY IDOCK:   -7.60 KCAL/MOL
REMARK 923 INTER-LIGAND FREE ENERGY PREDICTED BY IDOCK:   -7.03 KCAL/MOL
REMARK 924 INTRA-LIGAND FREE ENERGY PREDICTED BY IDOCK:   -0.57 KCAL/MOL
REMARK 927      BINDING AFFINITY PREDICTED BY RF-SCORE:    0.00 PKD
ROOT
HETATM    1  C   UNL     1     -10.006   8.874  71.485  1.00  0.00    -0.391 C  
HETATM    2  C   UNL     1      -9.702   8.027  70.266  1.00  0.00    -0.175 C  
ENDROOT
BRANCH   2   3
HETATM    3  C   UNL     1     -10.009   8.650  68.888  1.00  0.00    -0.189 C  
HETATM    4  C   UNL     1     -10.044   7.439  67.879  1.00  0.00    -0.178 C  
HETATM    5  O   UNL     1     -11.391   9.104  68.975  1.00  0.00    -0.434 OA 
HETATM    6  H   UNL     1     -11.579   9.487  68.127  1.00  0.00     0.000 HD 
HETATM    7  O   UNL     1     -10.417   7.740  66.615  1.00  0.00    -0.292 OA 
HETATM    8  O   UNL     1      -9.924   6.260  68.213  1.00  0.00    -0.129 OA 
HETATM    9  C   UNL     1      -9.787   8.859  66.006  1.00  0.00    -0.207 C  
HETATM   10  C   UNL     1      -9.501   9.982  66.934  1.00  0.00    -0.203 C  
HETATM   11  C   UNL     1      -9.262   9.856  68.264  1.00  0.00    -0.130 C  
HETATM   12  C   UNL     1      -8.565  11.038  68.892  1.00  0.00    -0.122 C  
HETATM   13  C   UNL     1      -8.732  12.277  68.348  1.00  0.00    -0.139 C  
HETATM   14  N   UNL     1      -9.664  12.348  67.325  1.00  0.00    -0.198 N  
HETATM   15  C   UNL     1     -10.213  13.673  67.164  1.00  0.00    -0.244 C  
HETATM   16  C   UNL     1     -10.028  11.307  66.522  1.00  0.00    -0.212 C  
HETATM   17  C   UNL     1      -9.212  14.496  67.872  1.00  0.00    -0.196 A  
HETATM   18  O   UNL     1     -10.782  11.424  65.570  1.00  0.00    -0.276 OA 
HETATM   19  C   UNL     1      -9.145  15.867  67.868  1.00  0.00    -0.190 A  
HETATM   20  C   UNL     1      -8.053  16.499  68.450  1.00  0.00    -0.196 A  
HETATM   21  C   UNL     1      -6.984  15.657  68.878  1.00  0.00    -0.130 A  
HETATM   22  C   UNL     1      -5.799  16.352  69.180  1.00  0.00    -0.142 A  
HETATM   23  N   UNL     1      -7.106  14.264  68.961  1.00  0.00    -0.113 NA 
HETATM   24  C   UNL     1      -5.689  17.763  69.172  1.00  0.00    -0.201 A  
HETATM   25  C   UNL     1      -8.264  13.714  68.528  1.00  0.00    -0.112 A  
HETATM   26  C   UNL     1      -6.813  18.536  68.909  1.00  0.00    -0.278 A  
HETATM   27  C   UNL     1      -8.020  17.924  68.571  1.00  0.00    -0.302 A  
HETATM   28  O   UNL     1      -6.760  19.898  68.982  1.00  0.00    -0.310 OA 
HETATM   29  H   UNL     1      -7.528  20.427  68.802  1.00  0.00     0.000 HD 
BRANCH  27  30
HETATM   30  C   UNL     1      -9.290  18.770  68.447  1.00  0.00    -0.343 C  
BRANCH  30  31
HETATM   31  N   UNL     1      -9.396  19.453  67.135  1.00  0.00    -0.311 NA 
HETATM   32  C   UNL     1     -10.487  18.914  66.318  1.00  0.00    -0.445 C  
HETATM   33  C   UNL     1      -9.579  20.894  67.302  1.00  0.00    -0.246 C  
ENDBRANCH  30  31
ENDBRANCH  27  30
ENDBRANCH   2   3
TORSDOF 3
ENDMDL
MODEL       30
REMARK 921   NORMALIZED FREE ENERGY PREDICTED BY IDOCK:   -5.90 KCAL/MOL
REMARK 922        TOTAL FREE ENERGY PREDICTED BY IDOCK:   -7.58 KCAL/MOL
REMARK 923 INTER-LIGAND FREE ENERGY PREDICTED BY IDOCK:   -7.06 KCAL/MOL
REMARK 924 INTRA-LIGAND FREE ENERGY PREDICTED BY IDOCK:   -0.52 KCAL/MOL
REMARK 927      BINDING AFFINITY PREDICTED BY RF-SCORE:    0.00 PKD
ROOT
HETATM    1  C   UNL     1     -11.656  14.621  66.829  1.00  0.00    -0.370 C  
HETATM    2  C   UNL     1     -12.080  13.424  66.002  1.00  0.00    -0.487 C  
ENDROOT
BRANCH   2   3
HETATM    3  C   UNL     1     -10.962  12.475  65.522  1.00  0.00    -0.287 C  
HETATM    4  C   UNL     1     -11.003  12.541  63.947  1.00  0.00    -0.424 C  
HETATM    5  O   UNL     1      -9.718  13.136  65.891  1.00  0.00    -0.375 OA 
HETATM    6  H   UNL     1      -9.030  12.552  65.595  1.00  0.00     0.000 HD 
HETATM    7  O   UNL     1     -10.022  11.870  63.306  1.00  0.00    -0.426 OA 
HETATM    8  O   UNL     1     -11.749  13.285  63.308  1.00  0.00    -0.381 OA 
HETATM    9  C   UNL     1      -9.771  10.536  63.728  1.00  0.00    -0.326 C  
HETATM   10  C   UNL     1      -9.930  10.314  65.186  1.00  0.00    -0.395 C  
HETATM   11  C   UNL     1     -10.760  11.014  65.999  1.00  0.00    -0.242 C  
HETATM   12  C   UNL     1     -11.085  10.333  67.306  1.00  0.00    -0.215 C  
HETATM   13  C   UNL     1     -10.184   9.463  67.846  1.00  0.00    -0.211 C  
HETATM   14  N   UNL     1      -8.965   9.397  67.189  1.00  0.00    -0.130 N  
HETATM   15  C   UNL     1      -7.896   8.942  68.045  1.00  0.00    -0.102 C  
HETATM   16  C   UNL     1      -8.766   9.697  65.873  1.00  0.00    -0.144 C  
HETATM   17  C   UNL     1      -8.649   8.310  69.147  1.00  0.00    -0.138 A  
HETATM   18  O   UNL     1      -7.700   9.540  65.301  1.00  0.00    -0.105 OA 
HETATM   19  C   UNL     1      -8.115   7.544  70.154  1.00  0.00    -0.119 A  
HETATM   20  C   UNL     1      -8.965   6.882  71.031  1.00  0.00    -0.151 A  
HETATM   21  C   UNL     1     -10.356   6.920  70.720  1.00  0.00    -0.203 A  
HETATM   22  C   UNL     1     -11.129   6.004  71.456  1.00  0.00    -0.336 A  
HETATM   23  N   UNL     1     -10.891   7.777  69.750  1.00  0.00    -0.239 NA 
HETATM   24  C   UNL     1     -10.610   5.188  72.490  1.00  0.00    -0.275 A  
HETATM   25  C   UNL     1     -10.020   8.524  69.032  1.00  0.00    -0.193 A  
HETATM   26  C   UNL     1      -9.277   5.317  72.862  1.00  0.00    -0.131 A  
HETATM   27  C   UNL     1      -8.437   6.183  72.162  1.00  0.00    -0.116 A  
HETATM   28  O   UNL     1      -8.772   4.611  73.913  1.00  0.00    -0.105 OA 
HETATM   29  H   UNL     1      -7.860   4.698  74.167  1.00  0.00     0.000 HD 
BRANCH  27  30
HETATM   30  C   UNL     1      -7.020   6.444  72.678  1.00  0.00    -0.074 C  
BRANCH  30  31
HETATM   31  N   UNL     1      -7.007   7.074  74.021  1.00  0.00    -0.084 NA 
HETATM   32  C   UNL     1      -5.646   7.352  74.488  1.00  0.00    -0.070 C  
HETATM   33  C   UNL     1      -7.788   8.310  74.033  1.00  0.00    -0.205 C  
ENDBRANCH  30  31
ENDBRANCH  27  30
ENDBRANCH   2   3
TORSDOF 3
ENDMDL
MODEL       31
REMARK 921   NORMALIZED FREE ENERGY PREDICTED BY IDOCK:   -5.87 KCAL/MOL
REMARK 922        TOTAL FREE ENERGY PREDICTED BY IDOCK:   -7.54 KCAL/MOL
REMARK 923 INTER-LIGAND FREE ENERGY PREDICTED BY IDOCK:   -7.49 KCAL/MOL
REMARK 924 INTRA-LIGAND FREE ENERGY PREDICTED BY IDOCK:   -0.05 KCAL/MOL
REMARK 927      BINDING AFFINITY PREDICTED BY RF-SCORE:    0.00 PKD
ROOT
HETATM    1  C   UNL     1     -11.377  15.993  68.405  1.00  0.00    -0.355 C  
HETATM    2  C   UNL     1     -10.090  15.811  67.627  1.00  0.00    -0.247 C  
ENDROOT
BRANCH   2   3
HETATM    3  C   UNL     1     -10.026  14.617  66.651  1.00  0.00    -0.274 C  
HETATM    4  C   UNL     1     -10.505  15.185  65.260  1.00  0.00    -0.409 C  
HETATM    5  O   UNL     1      -8.605  14.347  66.474  1.00  0.00    -0.438 OA 
HETATM    6  H   UNL     1      -8.566  13.612  65.873  1.00  0.00     0.000 HD 
HETATM    7  O   UNL     1     -10.416  14.332  64.216  1.00  0.00    -0.143 OA 
HETATM    8  O   UNL     1     -10.779  16.369  65.057  1.00  0.00    -0.638 OA 
HETATM    9  C   UNL     1     -10.933  13.022  64.408  1.00  0.00    -0.374 C  
HETATM   10  C   UNL     1     -10.731  12.476  65.773  1.00  0.00    -0.299 C  
HETATM   11  C   UNL     1     -10.639  13.217  66.906  1.00  0.00    -0.265 C  
HETATM   12  C   UNL     1     -10.888  12.449  68.181  1.00  0.00    -0.250 C  
HETATM   13  C   UNL     1     -10.612  11.114  68.220  1.00  0.00    -0.190 C  
HETATM   14  N   UNL     1      -9.982  10.611  67.093  1.00  0.00    -0.189 N  
HETATM   15  C   UNL     1      -9.229   9.411  67.366  1.00  0.00    -0.126 C  
HETATM   16  C   UNL     1     -10.063  11.152  65.843  1.00  0.00    -0.247 C  
HETATM   17  C   UNL     1      -9.818   8.977  68.648  1.00  0.00    -0.177 A  
HETATM   18  O   UNL     1      -9.572  10.634  64.854  1.00  0.00    -0.223 OA 
HETATM   19  C   UNL     1      -9.597   7.775  69.273  1.00  0.00    -0.159 A  
HETATM   20  C   UNL     1     -10.345   7.441  70.395  1.00  0.00    -0.215 A  
HETATM   21  C   UNL     1     -11.419   8.317  70.728  1.00  0.00    -0.252 A  
HETATM   22  C   UNL     1     -12.314   7.787  71.675  1.00  0.00    -0.348 A  
HETATM   23  N   UNL     1     -11.573   9.580  70.142  1.00  0.00    -0.170 NA 
HETATM   24  C   UNL     1     -12.125   6.545  72.327  1.00  0.00    -0.236 A  
HETATM   25  C   UNL     1     -10.707   9.920  69.159  1.00  0.00    -0.224 A  
HETATM   26  C   UNL     1     -10.971   5.811  72.084  1.00  0.00    -0.257 A  
HETATM   27  C   UNL     1     -10.047   6.254  71.137  1.00  0.00    -0.218 A  
HETATM   28  O   UNL     1     -10.718   4.656  72.764  1.00  0.00    -0.205 OA 
HETATM   29  H   UNL     1      -9.929   4.154  72.597  1.00  0.00     0.000 HD 
BRANCH  27  30
HETATM   30  C   UNL     1      -8.705   5.533  70.993  1.00  0.00    -0.129 C  
BRANCH  30  31
HETATM   31  N   UNL     1      -8.564   4.839  69.690  1.00  0.00    -0.081 NA 
HETATM   32  C   UNL     1      -7.311   4.085  69.598  1.00  0.00    -0.049 C  
HETATM   33  C   UNL     1      -9.692   3.941  69.445  1.00  0.00    -0.102 C  
ENDBRANCH  30  31
ENDBRANCH  27  30
ENDBRANCH   2   3
TORSDOF 3
ENDMDL
MODEL       32
REMARK 921   NORMALIZED FREE ENERGY PREDICTED BY IDOCK:   -5.86 KCAL/MOL
REMARK 922        TOTAL FREE ENERGY PREDICTED BY IDOCK:   -7.53 KCAL/MOL
REMARK 923 INTER-LIGAND FREE ENERGY PREDICTED BY IDOCK:   -7.32 KCAL/MOL
REMARK 924 INTRA-LIGAND FREE ENERGY PREDICTED BY IDOCK:   -0.21 KCAL/MOL
REMARK 927      BINDING AFFINITY PREDICTED BY RF-SCORE:    0.00 PKD
ROOT
HETATM    1  C   UNL     1     -10.799   3.223  63.678  1.00  0.00    -0.191 C  
HETATM    2  C   UNL     1      -9.875   3.598  64.819  1.00  0.00    -0.175 C  
ENDROOT
BRANCH   2   3
HETATM    3  C   UNL     1      -8.851   4.720  64.550  1.00  0.00    -0.147 C  
HETATM    4  C   UNL     1      -7.481   3.985  64.287  1.00  0.00    -0.071 C  
HETATM    5  O   UNL     1      -9.229   5.277  63.258  1.00  0.00    -0.348 OA 
HETATM    6  H   UNL     1      -8.598   5.968  63.092  1.00  0.00     0.000 HD 
HETATM    7  O   UNL     1      -6.454   4.776  63.909  1.00  0.00    -0.032 OA 
HETATM    8  O   UNL     1      -7.355   2.760  64.242  1.00  0.00    -0.062 OA 
HETATM    9  C   UNL     1      -6.232   5.954  64.674  1.00  0.00    -0.029 C  
HETATM   10  C   UNL     1      -7.469   6.607  65.167  1.00  0.00    -0.087 C  
HETATM   11  C   UNL     1      -8.635   5.969  65.442  1.00  0.00    -0.127 C  
HETATM   12  C   UNL     1      -9.577   6.737  66.337  1.00  0.00    -0.149 C  
HETATM   13  C   UNL     1      -9.535   8.100  66.336  1.00  0.00    -0.218 C  
HETATM   14  N   UNL     1      -8.701   8.661  65.382  1.00  0.00    -0.181 N  
HETATM   15  C   UNL     1      -9.083  10.008  65.033  1.00  0.00    -0.211 C  
HETATM   16  C   UNL     1      -7.616   8.045  64.829  1.00  0.00    -0.105 C  
HETATM   17  C   UNL     1      -9.941  10.378  66.177  1.00  0.00    -0.290 A  
HETATM   18  O   UNL     1      -6.848   8.600  64.061  1.00  0.00    -0.081 OA 
HETATM   19  C   UNL     1     -10.424  11.633  66.450  1.00  0.00    -0.283 A  
HETATM   20  C   UNL     1     -11.087  11.862  67.650  1.00  0.00    -0.314 A  
HETATM   21  C   UNL     1     -11.077  10.796  68.597  1.00  0.00    -0.259 A  
HETATM   22  C   UNL     1     -11.494  11.175  69.885  1.00  0.00    -0.386 A  
HETATM   23  N   UNL     1     -10.663   9.498  68.269  1.00  0.00    -0.218 NA 
HETATM   24  C   UNL     1     -11.984  12.464  70.207  1.00  0.00    -0.371 A  
HETATM   25  C   UNL     1     -10.175   9.297  67.023  1.00  0.00    -0.262 A  
HETATM   26  C   UNL     1     -12.128  13.413  69.203  1.00  0.00    -0.261 A  
HETATM   27  C   UNL     1     -11.710  13.125  67.903  1.00  0.00    -0.398 A  
HETATM   28  O   UNL     1     -12.682  14.632  69.464  1.00  0.00    -0.576 OA 
HETATM   29  H   UNL     1     -12.779  15.281  68.778  1.00  0.00     0.000 HD 
BRANCH  27  30
HETATM   30  C   UNL     1     -12.023  14.108  66.772  1.00  0.00    -0.447 C  
BRANCH  30  31
HETATM   31  N   UNL     1     -10.815  14.812  66.276  1.00  0.00    -0.315 NA 
HETATM   32  C   UNL     1     -10.942  15.202  64.869  1.00  0.00    -0.419 C  
HETATM   33  C   UNL     1     -10.523  15.995  67.084  1.00  0.00    -0.308 C  
ENDBRANCH  30  31
ENDBRANCH  27  30
ENDBRANCH   2   3
TORSDOF 3
ENDMDL
MODEL       33
REMARK 921   NORMALIZED FREE ENERGY PREDICTED BY IDOCK:   -5.82 KCAL/MOL
REMARK 922        TOTAL FREE ENERGY PREDICTED BY IDOCK:   -7.48 KCAL/MOL
REMARK 923 INTER-LIGAND FREE ENERGY PREDICTED BY IDOCK:   -7.31 KCAL/MOL
REMARK 924 INTRA-LIGAND FREE ENERGY PREDICTED BY IDOCK:   -0.17 KCAL/MOL
REMARK 927      BINDING AFFINITY PREDICTED BY RF-SCORE:    0.00 PKD
ROOT
HETATM    1  C   UNL     1     -12.781  12.324  62.916  1.00  0.00     0.314 C  
HETATM    2  C   UNL     1     -12.282  13.706  63.288  1.00  0.00    -0.096 C  
ENDROOT
BRANCH   2   3
HETATM    3  C   UNL     1     -11.825  13.915  64.747  1.00  0.00    -0.397 C  
HETATM    4  C   UNL     1     -11.367  15.422  64.832  1.00  0.00    -0.363 C  
HETATM    5  O   UNL     1     -13.046  13.852  65.540  1.00  0.00    -0.699 OA 
HETATM    6  H   UNL     1     -12.765  13.982  66.438  1.00  0.00     0.000 HD 
HETATM    7  O   UNL     1     -11.033  15.865  66.063  1.00  0.00    -0.261 OA 
HETATM    8  O   UNL     1     -11.462  16.224  63.902  1.00  0.00    -0.940 OA 
HETATM    9  C   UNL     1     -10.155  15.048  66.826  1.00  0.00    -0.254 C  
HETATM   10  C   UNL     1     -10.358  13.590  66.642  1.00  0.00    -0.271 C  
HETATM   11  C   UNL     1     -10.838  13.002  65.516  1.00  0.00    -0.298 C  
HETATM   12  C   UNL     1     -10.534  11.529  65.398  1.00  0.00    -0.333 C  
HETATM   13  C   UNL     1     -10.370  10.788  66.531  1.00  0.00    -0.244 C  
HETATM   14  N   UNL     1     -10.644  11.456  67.713  1.00  0.00    -0.187 N  
HETATM   15  C   UNL     1     -11.003  10.561  68.787  1.00  0.00    -0.251 C  
HETATM   16  C   UNL     1     -10.569  12.807  67.887  1.00  0.00    -0.221 C  
HETATM   17  C   UNL     1     -10.488   9.272  68.283  1.00  0.00    -0.260 A  
HETATM   18  O   UNL     1     -10.727  13.357  68.964  1.00  0.00    -0.214 OA 
HETATM   19  C   UNL     1     -10.397   8.104  68.997  1.00  0.00    -0.229 A  
HETATM   20  C   UNL     1      -9.743   7.013  68.439  1.00  0.00    -0.139 A  
HETATM   21  C   UNL     1      -9.063   7.239  67.206  1.00  0.00    -0.123 A  
HETATM   22  C   UNL     1      -8.185   6.203  66.842  1.00  0.00    -0.106 A  
HETATM   23  N   UNL     1      -9.242   8.403  66.448  1.00  0.00    -0.187 NA 
HETATM   24  C   UNL     1      -8.054   4.992  67.562  1.00  0.00    -0.099 A  
HETATM   25  C   UNL     1     -10.027   9.373  66.972  1.00  0.00    -0.221 A  
HETATM   26  C   UNL     1      -8.867   4.758  68.665  1.00  0.00    -0.099 A  
HETATM   27  C   UNL     1      -9.744   5.748  69.108  1.00  0.00    -0.189 A  
HETATM   28  O   UNL     1      -8.828   3.565  69.324  1.00  0.00    -0.081 OA 
HETATM   29  H   UNL     1      -9.383   3.406  70.078  1.00  0.00     0.000 HD 
BRANCH  27  30
HETATM   30  C   UNL     1     -10.751   5.426  70.215  1.00  0.00    -0.216 C  
BRANCH  30  31
HETATM   31  N   UNL     1     -10.322   5.927  71.543  1.00  0.00    -0.215 NA 
HETATM   32  C   UNL     1     -11.452   6.400  72.347  1.00  0.00    -0.282 C  
HETATM   33  C   UNL     1      -9.592   4.900  72.285  1.00  0.00    -0.152 C  
ENDBRANCH  30  31
ENDBRANCH  27  30
ENDBRANCH   2   3
TORSDOF 3
ENDMDL
MODEL       34
REMARK 921   NORMALIZED FREE ENERGY PREDICTED BY IDOCK:   -5.74 KCAL/MOL
REMARK 922        TOTAL FREE ENERGY PREDICTED BY IDOCK:   -7.39 KCAL/MOL
REMARK 923 INTER-LIGAND FREE ENERGY PREDICTED BY IDOCK:   -6.85 KCAL/MOL
REMARK 924 INTRA-LIGAND FREE ENERGY PREDICTED BY IDOCK:   -0.54 KCAL/MOL
REMARK 927      BINDING AFFINITY PREDICTED BY RF-SCORE:    0.00 PKD
ROOT
HETATM    1  C   UNL     1     -10.010   7.589  73.523  1.00  0.00    -0.371 C  
HETATM    2  C   UNL     1      -9.655   6.274  72.858  1.00  0.00    -0.155 C  
ENDROOT
BRANCH   2   3
HETATM    3  C   UNL     1      -9.978   6.141  71.354  1.00  0.00    -0.187 C  
HETATM    4  C   UNL     1      -9.761   4.617  71.012  1.00  0.00    -0.188 C  
HETATM    5  O   UNL     1     -11.418   6.344  71.256  1.00  0.00    -0.295 OA 
HETATM    6  H   UNL     1     -11.617   6.262  70.331  1.00  0.00     0.000 HD 
HETATM    7  O   UNL     1     -10.104   4.243  69.760  1.00  0.00    -0.182 OA 
HETATM    8  O   UNL     1      -9.472   3.758  71.846  1.00  0.00    -0.124 OA 
HETATM    9  C   UNL     1      -9.629   5.052  68.692  1.00  0.00    -0.148 C  
HETATM   10  C   UNL     1      -9.580   6.504  68.997  1.00  0.00    -0.135 C  
HETATM   11  C   UNL     1      -9.401   7.039  70.231  1.00  0.00    -0.159 C  
HETATM   12  C   UNL     1      -8.940   8.476  70.233  1.00  0.00    -0.153 C  
HETATM   13  C   UNL     1      -9.272   9.284  69.186  1.00  0.00    -0.149 C  
HETATM   14  N   UNL     1     -10.143   8.724  68.265  1.00  0.00    -0.181 N  
HETATM   15  C   UNL     1     -10.888   9.717  67.529  1.00  0.00    -0.198 C  
HETATM   16  C   UNL     1     -10.289   7.387  68.036  1.00  0.00    -0.199 C  
HETATM   17  C   UNL     1     -10.075  10.928  67.760  1.00  0.00    -0.203 A  
HETATM   18  O   UNL     1     -10.996   6.929  67.154  1.00  0.00    -0.361 OA 
HETATM   19  C   UNL     1     -10.229  12.136  67.127  1.00  0.00    -0.226 A  
HETATM   20  C   UNL     1      -9.287  13.137  67.331  1.00  0.00    -0.213 A  
HETATM   21  C   UNL     1      -8.123  12.776  68.071  1.00  0.00    -0.162 A  
HETATM   22  C   UNL     1      -7.085  13.722  67.996  1.00  0.00    -0.133 A  
HETATM   23  N   UNL     1      -8.024  11.575  68.785  1.00  0.00    -0.135 NA 
HETATM   24  C   UNL     1      -7.203  14.971  67.340  1.00  0.00    -0.224 A  
HETATM   25  C   UNL     1      -9.052  10.702  68.678  1.00  0.00    -0.170 A  
HETATM   26  C   UNL     1      -8.419  15.338  66.778  1.00  0.00    -0.255 A  
HETATM   27  C   UNL     1      -9.491  14.445  66.786  1.00  0.00    -0.280 A  
HETATM   28  O   UNL     1      -8.590  16.571  66.220  1.00  0.00    -0.288 OA 
HETATM   29  H   UNL     1      -9.422  16.822  65.835  1.00  0.00     0.000 HD 
BRANCH  27  30
HETATM   30  C   UNL     1     -10.871  14.914  66.318  1.00  0.00    -0.331 C  
BRANCH  30  31
HETATM   31  N   UNL     1     -11.006  14.908  64.841  1.00  0.00    -0.402 NA 
HETATM   32  C   UNL     1     -11.937  13.877  64.375  1.00  0.00    -0.450 C  
HETATM   33  C   UNL     1     -11.438  16.214  64.345  1.00  0.00    -0.193 C  
ENDBRANCH  30  31
ENDBRANCH  27  30
ENDBRANCH   2   3
TORSDOF 3
ENDMDL
MODEL       35
REMARK 921   NORMALIZED FREE ENERGY PREDICTED BY IDOCK:   -5.73 KCAL/MOL
REMARK 922        TOTAL FREE ENERGY PREDICTED BY IDOCK:   -7.38 KCAL/MOL
REMARK 923 INTER-LIGAND FREE ENERGY PREDICTED BY IDOCK:   -6.77 KCAL/MOL
REMARK 924 INTRA-LIGAND FREE ENERGY PREDICTED BY IDOCK:   -0.61 KCAL/MOL
REMARK 927      BINDING AFFINITY PREDICTED BY RF-SCORE:    0.00 PKD
ROOT
HETATM    1  C   UNL     1     -12.577  14.119  70.707  1.00  0.00    -0.432 C  
HETATM    2  C   UNL     1     -11.344  14.374  69.863  1.00  0.00    -0.273 C  
ENDROOT
BRANCH   2   3
HETATM    3  C   UNL     1     -11.033  13.350  68.752  1.00  0.00    -0.257 C  
HETATM    4  C   UNL     1     -11.603  13.983  67.425  1.00  0.00    -0.368 C  
HETATM    5  O   UNL     1      -9.585  13.392  68.592  1.00  0.00    -0.359 OA 
HETATM    6  H   UNL     1      -9.393  12.761  67.908  1.00  0.00     0.000 HD 
HETATM    7  O   UNL     1     -11.335  13.304  66.289  1.00  0.00    -0.295 OA 
HETATM    8  O   UNL     1     -12.107  15.105  67.359  1.00  0.00    -0.093 OA 
HETATM    9  C   UNL     1     -11.581  11.904  66.301  1.00  0.00    -0.246 C  
HETATM   10  C   UNL     1     -11.285  11.241  67.596  1.00  0.00    -0.357 C  
HETATM   11  C   UNL     1     -11.355  11.836  68.813  1.00  0.00    -0.325 C  
HETATM   12  C   UNL     1     -11.456  10.879  69.976  1.00  0.00    -0.411 C  
HETATM   13  C   UNL     1     -10.918   9.631  69.861  1.00  0.00    -0.252 C  
HETATM   14  N   UNL     1     -10.190   9.410  68.703  1.00  0.00    -0.194 N  
HETATM   15  C   UNL     1      -9.214   8.358  68.853  1.00  0.00    -0.147 C  
HETATM   16  C   UNL     1     -10.366  10.077  67.527  1.00  0.00    -0.232 C  
HETATM   17  C   UNL     1      -9.716   7.656  70.052  1.00  0.00    -0.172 A  
HETATM   18  O   UNL     1      -9.772   9.795  66.499  1.00  0.00    -0.183 OA 
HETATM   19  C   UNL     1      -9.263   6.453  70.533  1.00  0.00    -0.162 A  
HETATM   20  C   UNL     1      -9.939   5.838  71.579  1.00  0.00    -0.226 A  
HETATM   21  C   UNL     1     -11.171   6.436  71.980  1.00  0.00    -0.281 A  
HETATM   22  C   UNL     1     -11.949   5.623  72.823  1.00  0.00    -0.088 A  
HETATM   23  N   UNL     1     -11.570   7.707  71.547  1.00  0.00    -0.266 NA 
HETATM   24  C   UNL     1     -11.521   4.371  73.326  1.00  0.00    -0.282 A  
HETATM   25  C   UNL     1     -10.780   8.332  70.643  1.00  0.00    -0.220 A  
HETATM   26  C   UNL     1     -10.241   3.917  73.034  1.00  0.00    -0.160 A  
HETATM   27  C   UNL     1      -9.416   4.650  72.181  1.00  0.00    -0.185 A  
HETATM   28  O   UNL     1      -9.768   2.758  73.577  1.00  0.00    -0.097 OA 
HETATM   29  H   UNL     1      -8.893   2.447  73.377  1.00  0.00     0.000 HD 
BRANCH  27  30
HETATM   30  C   UNL     1      -7.955   4.233  71.997  1.00  0.00    -0.090 C  
BRANCH  30  31
HETATM   31  N   UNL     1      -7.817   2.886  71.391  1.00  0.00    -0.050 NA 
HETATM   32  C   UNL     1      -8.363   2.832  70.033  1.00  0.00    -0.044 C  
HETATM   33  C   UNL     1      -6.419   2.456  71.372  1.00  0.00    -0.019 C  
ENDBRANCH  30  31
ENDBRANCH  27  30
ENDBRANCH   2   3
TORSDOF 3
ENDMDL
MODEL       36
REMARK 921   NORMALIZED FREE ENERGY PREDICTED BY IDOCK:   -5.69 KCAL/MOL
REMARK 922        TOTAL FREE ENERGY PREDICTED BY IDOCK:   -7.33 KCAL/MOL
REMARK 923 INTER-LIGAND FREE ENERGY PREDICTED BY IDOCK:   -6.70 KCAL/MOL
REMARK 924 INTRA-LIGAND FREE ENERGY PREDICTED BY IDOCK:   -0.63 KCAL/MOL
REMARK 927      BINDING AFFINITY PREDICTED BY RF-SCORE:    0.00 PKD
ROOT
HETATM    1  C   UNL     1     -11.971  15.197  70.818  1.00  0.00    -0.376 C  
HETATM    2  C   UNL     1     -11.816  15.376  69.321  1.00  0.00    -0.365 C  
ENDROOT
BRANCH   2   3
HETATM    3  C   UNL     1     -10.801  14.458  68.608  1.00  0.00    -0.251 C  
HETATM    4  C   UNL     1     -10.665  15.037  67.147  1.00  0.00    -0.303 C  
HETATM    5  O   UNL     1      -9.521  14.743  69.242  1.00  0.00    -0.349 OA 
HETATM    6  H   UNL     1      -8.896  14.178  68.803  1.00  0.00     0.000 HD 
HETATM    7  O   UNL     1      -9.728  14.453  66.370  1.00  0.00    -0.277 OA 
HETATM    8  O   UNL     1     -11.226  16.062  66.758  1.00  0.00    -0.104 OA 
HETATM    9  C   UNL     1      -9.716  13.032  66.331  1.00  0.00    -0.268 C  
HETATM   10  C   UNL     1     -10.059  12.380  67.619  1.00  0.00    -0.199 C  
HETATM   11  C   UNL     1     -10.861  12.910  68.576  1.00  0.00    -0.283 C  
HETATM   12  C   UNL     1     -11.416  11.908  69.559  1.00  0.00    -0.357 C  
HETATM   13  C   UNL     1     -10.711  10.771  69.821  1.00  0.00    -0.186 C  
HETATM   14  N   UNL     1      -9.452  10.715  69.244  1.00  0.00    -0.175 N  
HETATM   15  C   UNL     1      -8.555   9.833  69.952  1.00  0.00    -0.218 C  
HETATM   16  C   UNL     1      -9.074  11.386  68.118  1.00  0.00    -0.174 C  
HETATM   17  C   UNL     1      -9.502   9.016  70.737  1.00  0.00    -0.308 A  
HETATM   18  O   UNL     1      -7.987  11.244  67.583  1.00  0.00    -0.112 OA 
HETATM   19  C   UNL     1      -9.193   7.886  71.453  1.00  0.00    -0.165 A  
HETATM   20  C   UNL     1     -10.217   7.131  72.012  1.00  0.00    -0.209 A  
HETATM   21  C   UNL     1     -11.547   7.503  71.659  1.00  0.00    -0.268 A  
HETATM   22  C   UNL     1     -12.516   6.543  72.003  1.00  0.00    -0.261 A  
HETATM   23  N   UNL     1     -11.848   8.706  71.007  1.00  0.00    -0.284 NA 
HETATM   24  C   UNL     1     -12.231   5.361  72.728  1.00  0.00     0.110 A  
HETATM   25  C   UNL     1     -10.809   9.485  70.629  1.00  0.00    -0.306 A  
HETATM   26  C   UNL     1     -10.941   5.135  73.190  1.00  0.00    -0.307 A  
HETATM   27  C   UNL     1      -9.916   6.024  72.867  1.00  0.00    -0.187 A  
HETATM   28  O   UNL     1     -10.655   4.051  73.968  1.00  0.00    -0.191 OA 
HETATM   29  H   UNL     1      -9.773   3.896  74.284  1.00  0.00     0.000 HD 
BRANCH  27  30
HETATM   30  C   UNL     1      -8.539   5.860  73.515  1.00  0.00    -0.119 C  
BRANCH  30  31
HETATM   31  N   UNL     1      -7.874   4.591  73.131  1.00  0.00    -0.090 NA 
HETATM   32  C   UNL     1      -7.124   4.717  71.878  1.00  0.00    -0.062 C  
HETATM   33  C   UNL     1      -6.980   4.122  74.188  1.00  0.00    -0.061 C  
ENDBRANCH  30  31
ENDBRANCH  27  30
ENDBRANCH   2   3
TORSDOF 3
ENDMDL
MODEL       37
REMARK 921   NORMALIZED FREE ENERGY PREDICTED BY IDOCK:   -5.63 KCAL/MOL
REMARK 922        TOTAL FREE ENERGY PREDICTED BY IDOCK:   -7.27 KCAL/MOL
REMARK 923 INTER-LIGAND FREE ENERGY PREDICTED BY IDOCK:   -6.65 KCAL/MOL
REMARK 924 INTRA-LIGAND FREE ENERGY PREDICTED BY IDOCK:   -0.61 KCAL/MOL
REMARK 927      BINDING AFFINITY PREDICTED BY RF-SCORE:    0.00 PKD
ROOT
HETATM    1  C   UNL     1     -10.659  19.467  67.462  1.00  0.00    -0.599 C  
HETATM    2  C   UNL     1      -9.725  19.101  66.326  1.00  0.00    -0.412 C  
ENDROOT
BRANCH   2   3
HETATM    3  C   UNL     1      -8.382  18.443  66.709  1.00  0.00    -0.259 C  
HETATM    4  C   UNL     1      -7.268  19.392  66.125  1.00  0.00    -0.267 C  
HETATM    5  O   UNL     1      -8.283  18.597  68.155  1.00  0.00    -0.284 OA 
HETATM    6  H   UNL     1      -7.457  18.192  68.390  1.00  0.00     0.000 HD 
HETATM    7  O   UNL     1      -5.995  19.070  66.446  1.00  0.00    -0.164 OA 
HETATM    8  O   UNL     1      -7.500  20.463  65.562  1.00  0.00    -0.212 OA 
HETATM    9  C   UNL     1      -5.612  17.712  66.277  1.00  0.00    -0.210 C  
HETATM   10  C   UNL     1      -6.680  16.730  66.588  1.00  0.00    -0.241 C  
HETATM   11  C   UNL     1      -8.013  16.958  66.469  1.00  0.00    -0.329 C  
HETATM   12  C   UNL     1      -8.861  15.711  66.403  1.00  0.00    -0.365 C  
HETATM   13  C   UNL     1      -8.421  14.572  67.009  1.00  0.00    -0.196 C  
HETATM   14  N   UNL     1      -7.269  14.717  67.765  1.00  0.00    -0.158 N  
HETATM   15  C   UNL     1      -7.150  13.713  68.795  1.00  0.00    -0.103 C  
HETATM   16  C   UNL     1      -6.318  15.676  67.571  1.00  0.00    -0.151 C  
HETATM   17  C   UNL     1      -8.092  12.683  68.314  1.00  0.00    -0.161 A  
HETATM   18  O   UNL     1      -5.270  15.721  68.194  1.00  0.00    -0.099 OA 
HETATM   19  C   UNL     1      -8.233  11.416  68.824  1.00  0.00    -0.107 A  
HETATM   20  C   UNL     1      -9.048  10.503  68.167  1.00  0.00    -0.141 A  
HETATM   21  C   UNL     1      -9.562  10.905  66.900  1.00  0.00    -0.178 A  
HETATM   22  C   UNL     1     -10.124   9.854  66.154  1.00  0.00    -0.315 A  
HETATM   23  N   UNL     1      -9.487  12.226  66.438  1.00  0.00    -0.235 NA 
HETATM   24  C   UNL     1     -10.273   8.534  66.642  1.00  0.00    -0.345 A  
HETATM   25  C   UNL     1      -8.816  13.116  67.206  1.00  0.00    -0.208 A  
HETATM   26  C   UNL     1      -9.904   8.240  67.949  1.00  0.00    -0.169 A  
HETATM   27  C   UNL     1      -9.312   9.221  68.745  1.00  0.00    -0.139 A  
HETATM   28  O   UNL     1     -10.118   7.001  68.476  1.00  0.00    -0.154 OA 
HETATM   29  H   UNL     1      -9.865   6.800  69.370  1.00  0.00     0.000 HD 
BRANCH  27  30
HETATM   30  C   UNL     1      -9.062   8.942  70.229  1.00  0.00    -0.181 C  
BRANCH  30  31
HETATM   31  N   UNL     1      -7.888   8.065  70.457  1.00  0.00    -0.092 NA 
HETATM   32  C   UNL     1      -6.740   8.805  70.989  1.00  0.00    -0.070 C  
HETATM   33  C   UNL     1      -8.218   6.963  71.360  1.00  0.00    -0.110 C  
ENDBRANCH  30  31
ENDBRANCH  27  30
ENDBRANCH   2   3
TORSDOF 3
ENDMDL
MODEL       38
REMARK 921   NORMALIZED FREE ENERGY PREDICTED BY IDOCK:   -5.55 KCAL/MOL
REMARK 922        TOTAL FREE ENERGY PREDICTED BY IDOCK:   -7.16 KCAL/MOL
REMARK 923 INTER-LIGAND FREE ENERGY PREDICTED BY IDOCK:   -7.44 KCAL/MOL
REMARK 924 INTRA-LIGAND FREE ENERGY PREDICTED BY IDOCK:    0.28 KCAL/MOL
REMARK 927      BINDING AFFINITY PREDICTED BY RF-SCORE:    0.00 PKD
ROOT
HETATM    1  C   UNL     1     -13.523   7.034  71.515  1.00  0.00    -0.363 C  
HETATM    2  C   UNL     1     -12.446   6.929  72.576  1.00  0.00     0.190 C  
ENDROOT
BRANCH   2   3
HETATM    3  C   UNL     1     -10.991   7.175  72.122  1.00  0.00    -0.241 C  
HETATM    4  C   UNL     1     -10.088   6.607  73.282  1.00  0.00    -0.212 C  
HETATM    5  O   UNL     1     -10.782   6.262  71.005  1.00  0.00    -0.237 OA 
HETATM    6  H   UNL     1      -9.887   6.414  70.726  1.00  0.00     0.000 HD 
HETATM    7  O   UNL     1      -8.758   6.610  73.045  1.00  0.00    -0.122 OA 
HETATM    8  O   UNL     1     -10.526   6.027  74.276  1.00  0.00    -0.280 OA 
HETATM    9  C   UNL     1      -8.196   7.814  72.538  1.00  0.00    -0.127 C  
HETATM   10  C   UNL     1      -9.074   8.552  71.596  1.00  0.00    -0.296 C  
HETATM   11  C   UNL     1     -10.431   8.524  71.606  1.00  0.00    -0.345 C  
HETATM   12  C   UNL     1     -11.088   9.671  70.878  1.00  0.00    -0.422 C  
HETATM   13  C   UNL     1     -10.431  10.270  69.844  1.00  0.00    -0.256 C  
HETATM   14  N   UNL     1      -9.248   9.655  69.467  1.00  0.00    -0.189 N  
HETATM   15  C   UNL     1      -8.887   9.937  68.098  1.00  0.00    -0.118 C  
HETATM   16  C   UNL     1      -8.471   8.882  70.280  1.00  0.00    -0.160 C  
HETATM   17  C   UNL     1      -9.708  11.132  67.816  1.00  0.00    -0.183 A  
HETATM   18  O   UNL     1      -7.388   8.432  69.945  1.00  0.00    -0.058 OA 
HETATM   19  C   UNL     1      -9.613  11.933  66.705  1.00  0.00    -0.214 A  
HETATM   20  C   UNL     1     -10.341  13.114  66.652  1.00  0.00    -0.265 A  
HETATM   21  C   UNL     1     -11.025  13.495  67.844  1.00  0.00    -0.256 A  
HETATM   22  C   UNL     1     -11.492  14.822  67.833  1.00  0.00    -0.361 A  
HETATM   23  N   UNL     1     -11.188  12.628  68.932  1.00  0.00    -0.266 NA 
HETATM   24  C   UNL     1     -11.399  15.680  66.711  1.00  0.00     0.013 A  
HETATM   25  C   UNL     1     -10.587  11.418  68.858  1.00  0.00    -0.202 A  
HETATM   26  C   UNL     1     -10.871  15.197  65.520  1.00  0.00    -0.364 A  
HETATM   27  C   UNL     1     -10.359  13.901  65.457  1.00  0.00    -0.347 A  
HETATM   28  O   UNL     1     -10.850  15.972  64.397  1.00  0.00    -0.877 OA 
HETATM   29  H   UNL     1     -10.489  15.641  63.583  1.00  0.00     0.000 HD 
BRANCH  27  30
HETATM   30  C   UNL     1      -9.934  13.320  64.106  1.00  0.00     0.298 C  
BRANCH  30  31
HETATM   31  N   UNL     1     -10.956  12.415  63.525  1.00  0.00    -0.460 NA 
HETATM   32  C   UNL     1     -10.564  11.007  63.619  1.00  0.00    -0.269 C  
HETATM   33  C   UNL     1     -12.255  12.603  64.169  1.00  0.00    -0.450 C  
ENDBRANCH  30  31
ENDBRANCH  27  30
ENDBRANCH   2   3
TORSDOF 3
ENDMDL
MODEL       39
REMARK 921   NORMALIZED FREE ENERGY PREDICTED BY IDOCK:   -5.51 KCAL/MOL
REMARK 922        TOTAL FREE ENERGY PREDICTED BY IDOCK:   -7.12 KCAL/MOL
REMARK 923 INTER-LIGAND FREE ENERGY PREDICTED BY IDOCK:   -6.47 KCAL/MOL
REMARK 924 INTRA-LIGAND FREE ENERGY PREDICTED BY IDOCK:   -0.65 KCAL/MOL
REMARK 927      BINDING AFFINITY PREDICTED BY RF-SCORE:    0.00 PKD
ROOT
HETATM    1  C   UNL     1     -12.566  15.050  70.675  1.00  0.00    -0.429 C  
HETATM    2  C   UNL     1     -12.131  15.672  69.364  1.00  0.00    -0.287 C  
ENDROOT
BRANCH   2   3
HETATM    3  C   UNL     1     -10.689  15.380  68.895  1.00  0.00    -0.244 C  
HETATM    4  C   UNL     1     -10.218  16.686  68.148  1.00  0.00    -0.280 C  
HETATM    5  O   UNL     1      -9.894  15.342  70.116  1.00  0.00    -0.476 OA 
HETATM    6  H   UNL     1      -9.007  15.162  69.827  1.00  0.00     0.000 HD 
HETATM    7  O   UNL     1      -8.927  16.701  67.750  1.00  0.00    -0.207 OA 
HETATM    8  O   UNL     1     -10.891  17.715  68.068  1.00  0.00    -0.369 OA 
HETATM    9  C   UNL     1      -8.451  15.551  67.063  1.00  0.00    -0.235 C  
HETATM   10  C   UNL     1      -9.016  14.268  67.550  1.00  0.00    -0.197 C  
HETATM   11  C   UNL     1     -10.238  14.117  68.120  1.00  0.00    -0.241 C  
HETATM   12  C   UNL     1     -10.765  12.703  68.114  1.00  0.00    -0.242 C  
HETATM   13  C   UNL     1      -9.883  11.663  68.117  1.00  0.00    -0.191 C  
HETATM   14  N   UNL     1      -8.554  12.021  68.270  1.00  0.00    -0.174 N  
HETATM   15  C   UNL     1      -7.750  10.954  68.815  1.00  0.00    -0.129 C  
HETATM   16  C   UNL     1      -8.023  13.231  67.930  1.00  0.00    -0.159 C  
HETATM   17  C   UNL     1      -8.606   9.778  68.559  1.00  0.00    -0.120 A  
HETATM   18  O   UNL     1      -6.831  13.483  67.990  1.00  0.00    -0.101 OA 
HETATM   19  C   UNL     1      -8.240   8.464  68.713  1.00  0.00    -0.119 A  
HETATM   20  C   UNL     1      -9.099   7.461  68.281  1.00  0.00    -0.128 A  
HETATM   21  C   UNL     1     -10.251   7.880  67.552  1.00  0.00    -0.242 A  
HETATM   22  C   UNL     1     -10.919   6.833  66.893  1.00  0.00    -0.370 A  
HETATM   23  N   UNL     1     -10.657   9.219  67.485  1.00  0.00    -0.279 NA 
HETATM   24  C   UNL     1     -10.561   5.469  67.016  1.00  0.00    -0.332 A  
HETATM   25  C   UNL     1      -9.858  10.142  68.069  1.00  0.00    -0.148 A  
HETATM   26  C   UNL     1      -9.531   5.106  67.874  1.00  0.00    -0.129 A  
HETATM   27  C   UNL     1      -8.799   6.087  68.544  1.00  0.00    -0.112 A  
HETATM   28  O   UNL     1      -9.222   3.794  68.083  1.00  0.00    -0.135 OA 
HETATM   29  H   UNL     1      -8.517   3.545  68.670  1.00  0.00     0.000 HD 
BRANCH  27  30
HETATM   30  C   UNL     1      -7.781   5.677  69.611  1.00  0.00    -0.083 C  
BRANCH  30  31
HETATM   31  N   UNL     1      -8.419   5.109  70.823  1.00  0.00    -0.114 NA 
HETATM   32  C   UNL     1      -7.618   4.037  71.419  1.00  0.00    -0.063 C  
HETATM   33  C   UNL     1      -8.667   6.146  71.824  1.00  0.00    -0.137 C  
ENDBRANCH  30  31
ENDBRANCH  27  30
ENDBRANCH   2   3
TORSDOF 3
ENDMDL
MODEL       40
REMARK 921   NORMALIZED FREE ENERGY PREDICTED BY IDOCK:   -5.49 KCAL/MOL
REMARK 922        TOTAL FREE ENERGY PREDICTED BY IDOCK:   -7.10 KCAL/MOL
REMARK 923 INTER-LIGAND FREE ENERGY PREDICTED BY IDOCK:   -6.48 KCAL/MOL
REMARK 924 INTRA-LIGAND FREE ENERGY PREDICTED BY IDOCK:   -0.62 KCAL/MOL
REMARK 927      BINDING AFFINITY PREDICTED BY RF-SCORE:    0.00 PKD
ROOT
HETATM    1  C   UNL     1      -6.705  14.812  68.988  1.00  0.00    -0.105 C  
HETATM    2  C   UNL     1      -7.278  15.121  67.620  1.00  0.00    -0.208 C  
ENDROOT
BRANCH   2   3
HETATM    3  C   UNL     1      -8.740  14.698  67.362  1.00  0.00    -0.197 C  
HETATM    4  C   UNL     1      -9.611  15.970  67.691  1.00  0.00    -0.218 C  
HETATM    5  O   UNL     1      -8.840  14.540  65.917  1.00  0.00    -0.397 OA 
HETATM    6  H   UNL     1      -9.739  14.280  65.758  1.00  0.00     0.000 HD 
HETATM    7  O   UNL     1     -10.930  15.864  67.419  1.00  0.00    -0.318 OA 
HETATM    8  O   UNL     1      -9.140  17.064  68.004  1.00  0.00    -0.227 OA 
HETATM    9  C   UNL     1     -11.591  14.693  67.880  1.00  0.00    -0.348 C  
HETATM   10  C   UNL     1     -10.766  13.461  67.823  1.00  0.00    -0.259 C  
HETATM   11  C   UNL     1      -9.413  13.419  67.920  1.00  0.00    -0.216 C  
HETATM   12  C   UNL     1      -8.851  12.067  68.286  1.00  0.00    -0.182 C  
HETATM   13  C   UNL     1      -9.540  10.942  67.940  1.00  0.00    -0.166 C  
HETATM   14  N   UNL     1     -10.652  11.157  67.143  1.00  0.00    -0.231 N  
HETATM   15  C   UNL     1     -11.009   9.997  66.362  1.00  0.00     0.245 C  
HETATM   16  C   UNL     1     -11.370  12.316  67.093  1.00  0.00    -0.335 C  
HETATM   17  C   UNL     1     -10.298   8.924  67.085  1.00  0.00    -0.351 A  
HETATM   18  O   UNL     1     -12.399  12.443  66.451  1.00  0.00    -0.539 OA 
HETATM   19  C   UNL     1     -10.445   7.575  66.876  1.00  0.00    -0.385 A  
HETATM   20  C   UNL     1      -9.829   6.680  67.741  1.00  0.00    -0.144 A  
HETATM   21  C   UNL     1      -9.208   7.237  68.898  1.00  0.00    -0.141 A  
HETATM   22  C   UNL     1      -8.867   6.284  69.875  1.00  0.00    -0.141 A  
HETATM   23  N   UNL     1      -8.987   8.611  69.050  1.00  0.00    -0.141 NA 
HETATM   24  C   UNL     1      -9.017   4.887  69.700  1.00  0.00    -0.137 A  
HETATM   25  C   UNL     1      -9.471   9.429  68.086  1.00  0.00    -0.133 A  
HETATM   26  C   UNL     1      -9.472   4.394  68.483  1.00  0.00    -0.156 A  
HETATM   27  C   UNL     1      -9.860   5.275  67.473  1.00  0.00    -0.183 A  
HETATM   28  O   UNL     1      -9.542   3.052  68.253  1.00  0.00    -0.180 OA 
HETATM   29  H   UNL     1      -9.854   2.714  67.421  1.00  0.00     0.000 HD 
BRANCH  27  30
HETATM   30  C   UNL     1     -10.201   4.730  66.083  1.00  0.00    -0.281 C  
BRANCH  30  31
HETATM   31  N   UNL     1      -9.064   4.013  65.455  1.00  0.00    -0.134 NA 
HETATM   32  C   UNL     1      -9.507   2.864  64.660  1.00  0.00    -0.149 C  
HETATM   33  C   UNL     1      -8.273   4.910  64.615  1.00  0.00    -0.124 C  
ENDBRANCH  30  31
ENDBRANCH  27  30
ENDBRANCH   2   3
TORSDOF 3
ENDMDL
MODEL       41
REMARK 921   NORMALIZED FREE ENERGY PREDICTED BY IDOCK:   -5.47 KCAL/MOL
REMARK 922        TOTAL FREE ENERGY PREDICTED BY IDOCK:   -7.08 KCAL/MOL
REMARK 923 INTER-LIGAND FREE ENERGY PREDICTED BY IDOCK:   -6.51 KCAL/MOL
REMARK 924 INTRA-LIGAND FREE ENERGY PREDICTED BY IDOCK:   -0.57 KCAL/MOL
REMARK 927      BINDING AFFINITY PREDICTED BY RF-SCORE:    0.00 PKD
ROOT
HETATM    1  C   UNL     1     -11.628  12.367  68.024  1.00  0.00    -0.403 C  
HETATM    2  C   UNL     1     -11.771  12.437  69.531  1.00  0.00    -0.388 C  
ENDROOT
BRANCH   2   3
HETATM    3  C   UNL     1     -12.215  11.147  70.252  1.00  0.00    -0.352 C  
HETATM    4  C   UNL     1     -12.937  11.629  71.569  1.00  0.00    -0.358 C  
HETATM    5  O   UNL     1     -13.280  10.597  69.423  1.00  0.00    -0.363 OA 
HETATM    6  H   UNL     1     -13.554   9.803  69.868  1.00  0.00     0.000 HD 
HETATM    7  O   UNL     1     -13.518  10.659  72.308  1.00  0.00    -0.333 OA 
HETATM    8  O   UNL     1     -13.136  12.811  71.851  1.00  0.00    -0.405 OA 
HETATM    9  C   UNL     1     -12.740   9.501  72.578  1.00  0.00    -0.136 C  
HETATM   10  C   UNL     1     -11.845   9.089  71.467  1.00  0.00    -0.415 C  
HETATM   11  C   UNL     1     -11.307   9.927  70.545  1.00  0.00    -0.399 C  
HETATM   12  C   UNL     1     -10.106   9.373  69.818  1.00  0.00    -0.229 C  
HETATM   13  C   UNL     1      -9.985   8.024  69.660  1.00  0.00    -0.188 C  
HETATM   14  N   UNL     1     -11.081   7.284  70.075  1.00  0.00    -0.260 N  
HETATM   15  C   UNL     1     -11.169   6.004  69.415  1.00  0.00    -0.327 C  
HETATM   16  C   UNL     1     -11.983   7.680  71.019  1.00  0.00    -0.273 C  
HETATM   17  C   UNL     1      -9.795   5.840  68.900  1.00  0.00    -0.191 A  
HETATM   18  O   UNL     1     -12.884   6.967  71.429  1.00  0.00    -0.377 OA 
HETATM   19  C   UNL     1      -9.271   4.699  68.346  1.00  0.00    -0.170 A  
HETATM   20  C   UNL     1      -7.914   4.645  68.053  1.00  0.00    -0.085 A  
HETATM   21  C   UNL     1      -7.120   5.741  68.503  1.00  0.00    -0.077 A  
HETATM   22  C   UNL     1      -5.735   5.502  68.447  1.00  0.00    -0.016 A  
HETATM   23  N   UNL     1      -7.680   6.933  68.981  1.00  0.00    -0.107 NA 
HETATM   24  C   UNL     1      -5.160   4.331  67.896  1.00  0.00    -0.007 A  
HETATM   25  C   UNL     1      -9.027   6.986  69.093  1.00  0.00    -0.134 A  
HETATM   26  C   UNL     1      -5.981   3.370  67.319  1.00  0.00    -0.024 A  
HETATM   27  C   UNL     1      -7.367   3.519  67.360  1.00  0.00    -0.063 A  
HETATM   28  O   UNL     1      -5.451   2.276  66.700  1.00  0.00    -0.015 OA 
HETATM   29  H   UNL     1      -6.012   1.618  66.306  1.00  0.00     0.000 HD 
BRANCH  27  30
HETATM   30  C   UNL     1      -8.256   2.546  66.581  1.00  0.00    -0.086 C  
BRANCH  30  31
HETATM   31  N   UNL     1      -8.327   2.868  65.134  1.00  0.00    -0.091 NA 
HETATM   32  C   UNL     1      -8.298   1.665  64.299  1.00  0.00    -0.077 C  
HETATM   33  C   UNL     1      -9.524   3.648  64.824  1.00  0.00    -0.160 C  
ENDBRANCH  30  31
ENDBRANCH  27  30
ENDBRANCH   2   3
TORSDOF 3
ENDMDL
MODEL       42
REMARK 921   NORMALIZED FREE ENERGY PREDICTED BY IDOCK:   -5.42 KCAL/MOL
REMARK 922        TOTAL FREE ENERGY PREDICTED BY IDOCK:   -7.02 KCAL/MOL
REMARK 923 INTER-LIGAND FREE ENERGY PREDICTED BY IDOCK:   -6.49 KCAL/MOL
REMARK 924 INTRA-LIGAND FREE ENERGY PREDICTED BY IDOCK:   -0.53 KCAL/MOL
REMARK 927      BINDING AFFINITY PREDICTED BY RF-SCORE:    0.00 PKD
ROOT
HETATM    1  C   UNL     1     -12.872  11.857  63.206  1.00  0.00    -0.303 C  
HETATM    2  C   UNL     1     -12.101  13.100  63.601  1.00  0.00    -0.583 C  
ENDROOT
BRANCH   2   3
HETATM    3  C   UNL     1     -11.450  13.105  65.000  1.00  0.00    -0.308 C  
HETATM    4  C   UNL     1     -10.993  14.594  65.245  1.00  0.00    -0.367 C  
HETATM    5  O   UNL     1     -12.551  12.895  65.931  1.00  0.00    -0.509 OA 
HETATM    6  H   UNL     1     -12.150  12.898  66.793  1.00  0.00     0.000 HD 
HETATM    7  O   UNL     1     -10.497  14.861  66.473  1.00  0.00    -0.284 OA 
HETATM    8  O   UNL     1     -11.219  15.521  64.466  1.00  0.00    -0.393 OA 
HETATM    9  C   UNL     1      -9.518  13.964  66.981  1.00  0.00    -0.254 C  
HETATM   10  C   UNL     1      -9.736  12.544  66.611  1.00  0.00    -0.244 C  
HETATM   11  C   UNL     1     -10.361  12.116  65.485  1.00  0.00    -0.296 C  
HETATM   12  C   UNL     1     -10.068  10.684  65.109  1.00  0.00    -0.374 C  
HETATM   13  C   UNL     1      -9.746   9.790  66.087  1.00  0.00    -0.246 C  
HETATM   14  N   UNL     1      -9.860  10.270  67.382  1.00  0.00    -0.174 N  
HETATM   15  C   UNL     1     -10.064   9.218  68.348  1.00  0.00    -0.191 C  
HETATM   16  C   UNL     1      -9.770  11.582  67.742  1.00  0.00    -0.174 C  
HETATM   17  C   UNL     1      -9.615   8.031  67.594  1.00  0.00    -0.185 A  
HETATM   18  O   UNL     1      -9.782  11.964  68.901  1.00  0.00    -0.093 OA 
HETATM   19  C   UNL     1      -9.420   6.773  68.108  1.00  0.00    -0.120 A  
HETATM   20  C   UNL     1      -8.842   5.793  67.311  1.00  0.00    -0.106 A  
HETATM   21  C   UNL     1      -8.339   6.215  66.045  1.00  0.00    -0.136 A  
HETATM   22  C   UNL     1      -7.513   5.267  65.416  1.00  0.00    -0.077 A  
HETATM   23  N   UNL     1      -8.627   7.473  65.499  1.00  0.00    -0.121 NA 
HETATM   24  C   UNL     1      -7.278   3.967  65.924  1.00  0.00    -0.071 A  
HETATM   25  C   UNL     1      -9.338   8.334  66.263  1.00  0.00    -0.204 A  
HETATM   26  C   UNL     1      -7.930   3.553  67.079  1.00  0.00    -0.083 A  
HETATM   27  C   UNL     1      -8.745   4.444  67.778  1.00  0.00    -0.115 A  
HETATM   28  O   UNL     1      -7.795   2.278  67.542  1.00  0.00    -0.060 OA 
HETATM   29  H   UNL     1      -8.241   1.995  68.332  1.00  0.00     0.000 HD 
BRANCH  27  30
HETATM   30  C   UNL     1      -9.590   3.937  68.950  1.00  0.00    -0.130 C  
BRANCH  30  31
HETATM   31  N   UNL     1      -8.786   3.699  70.174  1.00  0.00    -0.074 NA 
HETATM   32  C   UNL     1      -9.146   4.617  71.258  1.00  0.00    -0.134 C  
HETATM   33  C   UNL     1      -8.925   2.320  70.638  1.00  0.00    -0.087 C  
ENDBRANCH  30  31
ENDBRANCH  27  30
ENDBRANCH   2   3
TORSDOF 3
ENDMDL
MODEL       43
REMARK 921   NORMALIZED FREE ENERGY PREDICTED BY IDOCK:   -5.42 KCAL/MOL
REMARK 922        TOTAL FREE ENERGY PREDICTED BY IDOCK:   -7.02 KCAL/MOL
REMARK 923 INTER-LIGAND FREE ENERGY PREDICTED BY IDOCK:   -6.43 KCAL/MOL
REMARK 924 INTRA-LIGAND FREE ENERGY PREDICTED BY IDOCK:   -0.59 KCAL/MOL
REMARK 927      BINDING AFFINITY PREDICTED BY RF-SCORE:    0.00 PKD
ROOT
HETATM    1  C   UNL     1      -6.254  16.957  67.265  1.00  0.00    -0.198 C  
HETATM    2  C   UNL     1      -7.363  17.089  66.241  1.00  0.00    -0.294 C  
ENDROOT
BRANCH   2   3
HETATM    3  C   UNL     1      -8.786  16.705  66.697  1.00  0.00    -0.248 C  
HETATM    4  C   UNL     1      -9.450  18.051  67.180  1.00  0.00    -0.264 C  
HETATM    5  O   UNL     1      -9.496  16.356  65.474  1.00  0.00    -0.467 OA 
HETATM    6  H   UNL     1     -10.372  16.120  65.755  1.00  0.00     0.000 HD 
HETATM    7  O   UNL     1     -10.755  17.973  67.518  1.00  0.00    -0.404 OA 
HETATM    8  O   UNL     1      -8.907  19.154  67.100  1.00  0.00    -0.280 OA 
HETATM    9  C   UNL     1     -11.135  16.909  68.381  1.00  0.00    -0.216 C  
HETATM   10  C   UNL     1     -10.397  15.642  68.155  1.00  0.00    -0.246 C  
HETATM   11  C   UNL     1      -9.134  15.548  67.669  1.00  0.00    -0.183 C  
HETATM   12  C   UNL     1      -8.448  14.234  67.949  1.00  0.00    -0.168 C  
HETATM   13  C   UNL     1      -9.201  13.107  68.098  1.00  0.00    -0.215 C  
HETATM   14  N   UNL     1     -10.552  13.264  67.832  1.00  0.00    -0.233 N  
HETATM   15  C   UNL     1     -11.192  12.027  67.456  1.00  0.00    -0.294 C  
HETATM   16  C   UNL     1     -11.238  14.439  67.928  1.00  0.00    -0.286 C  
HETATM   17  C   UNL     1     -10.223  11.029  67.952  1.00  0.00    -0.207 A  
HETATM   18  O   UNL     1     -12.446  14.527  67.777  1.00  0.00    -0.083 OA 
HETATM   19  C   UNL     1     -10.424   9.674  68.023  1.00  0.00    -0.276 A  
HETATM   20  C   UNL     1      -9.481   8.876  68.660  1.00  0.00    -0.153 A  
HETATM   21  C   UNL     1      -8.432   9.556  69.346  1.00  0.00    -0.146 A  
HETATM   22  C   UNL     1      -7.688   8.731  70.209  1.00  0.00    -0.085 A  
HETATM   23  N   UNL     1      -8.189  10.926  69.188  1.00  0.00    -0.124 NA 
HETATM   24  C   UNL     1      -7.878   7.332  70.318  1.00  0.00    -0.096 A  
HETATM   25  C   UNL     1      -9.053  11.626  68.417  1.00  0.00    -0.180 A  
HETATM   26  C   UNL     1      -8.805   6.700  69.500  1.00  0.00    -0.139 A  
HETATM   27  C   UNL     1      -9.604   7.451  68.637  1.00  0.00    -0.146 A  
HETATM   28  O   UNL     1      -8.947   5.343  69.518  1.00  0.00    -0.103 OA 
HETATM   29  H   UNL     1      -9.581   4.911  68.958  1.00  0.00     0.000 HD 
BRANCH  27  30
HETATM   30  C   UNL     1     -10.501   6.738  67.622  1.00  0.00    -0.229 C  
BRANCH  30  31
HETATM   31  N   UNL     1      -9.762   5.751  66.798  1.00  0.00    -0.145 NA 
HETATM   32  C   UNL     1     -10.663   4.850  66.075  1.00  0.00    -0.190 C  
HETATM   33  C   UNL     1      -8.873   6.417  65.847  1.00  0.00    -0.131 C  
ENDBRANCH  30  31
ENDBRANCH  27  30
ENDBRANCH   2   3
TORSDOF 3
ENDMDL
MODEL       44
REMARK 921   NORMALIZED FREE ENERGY PREDICTED BY IDOCK:   -5.41 KCAL/MOL
REMARK 922        TOTAL FREE ENERGY PREDICTED BY IDOCK:   -7.01 KCAL/MOL
REMARK 923 INTER-LIGAND FREE ENERGY PREDICTED BY IDOCK:   -7.27 KCAL/MOL
REMARK 924 INTRA-LIGAND FREE ENERGY PREDICTED BY IDOCK:    0.27 KCAL/MOL
REMARK 927      BINDING AFFINITY PREDICTED BY RF-SCORE:    0.00 PKD
ROOT
HETATM    1  C   UNL     1      -9.676  16.190  68.983  1.00  0.00    -0.248 C  
HETATM    2  C   UNL     1      -9.184  16.659  67.629  1.00  0.00    -0.208 C  
ENDROOT
BRANCH   2   3
HETATM    3  C   UNL     1      -9.713  15.903  66.392  1.00  0.00    -0.287 C  
HETATM    4  C   UNL     1     -10.564  16.958  65.587  1.00  0.00    -0.221 C  
HETATM    5  O   UNL     1      -8.538  15.661  65.564  1.00  0.00     0.143 OA 
HETATM    6  H   UNL     1      -8.864  15.196  64.803  1.00  0.00     0.000 HD 
HETATM    7  O   UNL     1     -11.033  16.543  64.390  1.00  0.00    -0.872 OA 
HETATM    8  O   UNL     1     -10.669  18.144  65.904  1.00  0.00    -0.358 OA 
HETATM    9  C   UNL     1     -11.674  15.274  64.354  1.00  0.00    -0.285 C  
HETATM   10  C   UNL     1     -11.079  14.260  65.259  1.00  0.00    -0.335 C  
HETATM   11  C   UNL     1     -10.433  14.531  66.421  1.00  0.00    -0.295 C  
HETATM   12  C   UNL     1     -10.324  13.361  67.368  1.00  0.00    -0.240 C  
HETATM   13  C   UNL     1     -10.306  12.094  66.862  1.00  0.00    -0.212 C  
HETATM   14  N   UNL     1     -10.249  12.014  65.480  1.00  0.00    -0.250 N  
HETATM   15  C   UNL     1      -9.686  10.769  65.018  1.00  0.00    -0.269 C  
HETATM   16  C   UNL     1     -10.691  12.977  64.620  1.00  0.00    -0.367 C  
HETATM   17  C   UNL     1      -9.821   9.919  66.219  1.00  0.00    -0.308 A  
HETATM   18  O   UNL     1     -10.713  12.837  63.409  1.00  0.00    -0.316 OA 
HETATM   19  C   UNL     1      -9.608   8.564  66.277  1.00  0.00    -0.306 A  
HETATM   20  C   UNL     1      -9.929   7.873  67.439  1.00  0.00    -0.261 A  
HETATM   21  C   UNL     1     -10.617   8.609  68.448  1.00  0.00    -0.120 A  
HETATM   22  C   UNL     1     -11.173   7.805  69.459  1.00  0.00     0.097 A  
HETATM   23  N   UNL     1     -10.743  10.003  68.413  1.00  0.00    -0.223 NA 
HETATM   24  C   UNL     1     -10.987   6.404  69.543  1.00  0.00    -0.421 A  
HETATM   25  C   UNL     1     -10.262  10.644  67.323  1.00  0.00    -0.208 A  
HETATM   26  C   UNL     1     -10.166   5.765  68.621  1.00  0.00    -0.197 A  
HETATM   27  C   UNL     1      -9.599   6.487  67.571  1.00  0.00    -0.137 A  
HETATM   28  O   UNL     1      -9.895   4.432  68.730  1.00  0.00    -0.150 OA 
HETATM   29  H   UNL     1      -9.334   3.995  68.099  1.00  0.00     0.000 HD 
BRANCH  27  30
HETATM   30  C   UNL     1      -8.568   5.816  66.660  1.00  0.00    -0.118 C  
BRANCH  30  31
HETATM   31  N   UNL     1      -9.193   5.014  65.580  1.00  0.00    -0.156 NA 
HETATM   32  C   UNL     1      -8.749   3.618  65.601  1.00  0.00    -0.117 C  
HETATM   33  C   UNL     1     -10.652   5.063  65.663  1.00  0.00    -0.032 C  
ENDBRANCH  30  31
ENDBRANCH  27  30
ENDBRANCH   2   3
TORSDOF 3
ENDMDL
MODEL       45
REMARK 921   NORMALIZED FREE ENERGY PREDICTED BY IDOCK:   -5.40 KCAL/MOL
REMARK 922        TOTAL FREE ENERGY PREDICTED BY IDOCK:   -7.00 KCAL/MOL
REMARK 923 INTER-LIGAND FREE ENERGY PREDICTED BY IDOCK:   -6.38 KCAL/MOL
REMARK 924 INTRA-LIGAND FREE ENERGY PREDICTED BY IDOCK:   -0.61 KCAL/MOL
REMARK 927      BINDING AFFINITY PREDICTED BY RF-SCORE:    0.00 PKD
ROOT
HETATM    1  C   UNL     1     -10.722   3.365  62.996  1.00  0.00    -0.205 C  
HETATM    2  C   UNL     1     -10.028   3.484  64.338  1.00  0.00    -0.185 C  
ENDROOT
BRANCH   2   3
HETATM    3  C   UNL     1      -8.917   4.549  64.458  1.00  0.00    -0.152 C  
HETATM    4  C   UNL     1      -7.569   3.782  64.175  1.00  0.00    -0.075 C  
HETATM    5  O   UNL     1      -9.100   5.421  63.305  1.00  0.00    -0.342 OA 
HETATM    6  H   UNL     1      -8.415   6.075  63.380  1.00  0.00     0.000 HD 
HETATM    7  O   UNL     1      -6.459   4.550  64.111  1.00  0.00    -0.036 OA 
HETATM    8  O   UNL     1      -7.506   2.595  63.850  1.00  0.00    -0.063 OA 
HETATM    9  C   UNL     1      -6.268   5.495  65.155  1.00  0.00    -0.030 C  
HETATM   10  C   UNL     1      -7.519   6.117  65.656  1.00  0.00    -0.082 C  
HETATM   11  C   UNL     1      -8.744   5.533  65.643  1.00  0.00    -0.153 C  
HETATM   12  C   UNL     1      -9.745   6.148  66.590  1.00  0.00    -0.196 C  
HETATM   13  C   UNL     1      -9.626   7.466  66.921  1.00  0.00    -0.187 C  
HETATM   14  N   UNL     1      -8.650   8.161  66.225  1.00  0.00    -0.136 N  
HETATM   15  C   UNL     1      -8.910   9.579  66.172  1.00  0.00    -0.152 C  
HETATM   16  C   UNL     1      -7.541   7.602  65.661  1.00  0.00    -0.090 C  
HETATM   17  C   UNL     1      -9.881   9.744  67.272  1.00  0.00    -0.228 A  
HETATM   18  O   UNL     1      -6.654   8.253  65.135  1.00  0.00    -0.055 OA 
HETATM   19  C   UNL     1     -10.323  10.938  67.786  1.00  0.00    -0.218 A  
HETATM   20  C   UNL     1     -11.116  10.937  68.928  1.00  0.00    -0.307 A  
HETATM   21  C   UNL     1     -11.283   9.683  69.586  1.00  0.00    -0.141 A  
HETATM   22  C   UNL     1     -11.835   9.786  70.875  1.00  0.00    -0.420 A  
HETATM   23  N   UNL     1     -10.905   8.467  69.002  1.00  0.00    -0.070 NA 
HETATM   24  C   UNL     1     -12.288  11.001  71.443  1.00  0.00    -0.368 A  
HETATM   25  C   UNL     1     -10.278   8.520  67.804  1.00  0.00    -0.225 A  
HETATM   26  C   UNL     1     -12.252  12.166  70.687  1.00  0.00    -0.300 A  
HETATM   27  C   UNL     1     -11.694  12.154  69.409  1.00  0.00    -0.391 A  
HETATM   28  O   UNL     1     -12.765  13.333  71.174  1.00  0.00    -0.357 OA 
HETATM   29  H   UNL     1     -12.740  14.130  70.657  1.00  0.00     0.000 HD 
BRANCH  27  30
HETATM   30  C   UNL     1     -11.807  13.395  68.521  1.00  0.00    -0.366 C  
BRANCH  30  31
HETATM   31  N   UNL     1     -11.057  14.555  69.060  1.00  0.00    -0.251 NA 
HETATM   32  C   UNL     1      -9.636  14.508  68.704  1.00  0.00    -0.219 C  
HETATM   33  C   UNL     1     -11.632  15.818  68.599  1.00  0.00    -0.386 C  
ENDBRANCH  30  31
ENDBRANCH  27  30
ENDBRANCH   2   3
TORSDOF 3
ENDMDL
MODEL       46
REMARK 921   NORMALIZED FREE ENERGY PREDICTED BY IDOCK:   -5.36 KCAL/MOL
REMARK 922        TOTAL FREE ENERGY PREDICTED BY IDOCK:   -6.94 KCAL/MOL
REMARK 923 INTER-LIGAND FREE ENERGY PREDICTED BY IDOCK:   -6.31 KCAL/MOL
REMARK 924 INTRA-LIGAND FREE ENERGY PREDICTED BY IDOCK:   -0.63 KCAL/MOL
REMARK 927      BINDING AFFINITY PREDICTED BY RF-SCORE:    0.00 PKD
ROOT
HETATM    1  C   UNL     1      -8.563  16.214  66.236  1.00  0.00    -0.373 C  
HETATM    2  C   UNL     1     -10.023  15.910  65.966  1.00  0.00    -0.360 C  
ENDROOT
BRANCH   2   3
HETATM    3  C   UNL     1     -10.702  14.869  66.881  1.00  0.00    -0.308 C  
HETATM    4  C   UNL     1     -11.262  15.688  68.106  1.00  0.00    -0.345 C  
HETATM    5  O   UNL     1     -11.885  14.435  66.150  1.00  0.00    -0.381 OA 
HETATM    6  H   UNL     1     -12.303  13.795  66.713  1.00  0.00     0.000 HD 
HETATM    7  O   UNL     1     -12.007  14.988  68.988  1.00  0.00    -0.305 OA 
HETATM    8  O   UNL     1     -11.202  16.915  68.200  1.00  0.00    -0.297 OA 
HETATM    9  C   UNL     1     -11.479  13.747  69.437  1.00  0.00    -0.286 C  
HETATM   10  C   UNL     1     -10.727  12.991  68.404  1.00  0.00    -0.273 C  
HETATM   11  C   UNL     1     -10.058  13.544  67.361  1.00  0.00    -0.237 C  
HETATM   12  C   UNL     1      -9.023  12.645  66.730  1.00  0.00    -0.197 C  
HETATM   13  C   UNL     1      -9.192  11.293  66.785  1.00  0.00    -0.175 C  
HETATM   14  N   UNL     1     -10.403  10.874  67.312  1.00  0.00    -0.205 N  
HETATM   15  C   UNL     1     -10.778   9.555  66.861  1.00  0.00    -0.114 C  
HETATM   16  C   UNL     1     -11.170  11.591  68.182  1.00  0.00    -0.271 C  
HETATM   17  C   UNL     1      -9.486   9.028  66.378  1.00  0.00    -0.288 A  
HETATM   18  O   UNL     1     -12.186  11.156  68.700  1.00  0.00    -0.582 OA 
HETATM   19  C   UNL     1      -9.230   7.731  66.009  1.00  0.00    -0.139 A  
HETATM   20  C   UNL     1      -7.925   7.348  65.727  1.00  0.00    -0.118 A  
HETATM   21  C   UNL     1      -6.906   8.307  66.000  1.00  0.00    -0.064 A  
HETATM   22  C   UNL     1      -5.604   7.776  65.980  1.00  0.00    -0.033 A  
HETATM   23  N   UNL     1      -7.188   9.649  66.285  1.00  0.00    -0.092 NA 
HETATM   24  C   UNL     1      -5.304   6.440  65.620  1.00  0.00    -0.014 A  
HETATM   25  C   UNL     1      -8.491  10.002  66.387  1.00  0.00    -0.129 A  
HETATM   26  C   UNL     1      -6.325   5.597  65.202  1.00  0.00    -0.038 A  
HETATM   27  C   UNL     1      -7.649   6.039  65.219  1.00  0.00    -0.088 A  
HETATM   28  O   UNL     1      -6.056   4.334  64.762  1.00  0.00    -0.022 OA 
HETATM   29  H   UNL     1      -6.755   3.757  64.476  1.00  0.00     0.000 HD 
BRANCH  27  30
HETATM   30  C   UNL     1      -8.746   5.168  64.603  1.00  0.00    -0.120 C  
BRANCH  30  31
HETATM   31  N   UNL     1      -8.893   3.861  65.289  1.00  0.00    -0.122 NA 
HETATM   32  C   UNL     1      -9.671   3.970  66.525  1.00  0.00    -0.191 C  
HETATM   33  C   UNL     1      -9.511   2.869  64.410  1.00  0.00    -0.145 C  
ENDBRANCH  30  31
ENDBRANCH  27  30
ENDBRANCH   2   3
TORSDOF 3
ENDMDL
MODEL       47
REMARK 921   NORMALIZED FREE ENERGY PREDICTED BY IDOCK:   -5.32 KCAL/MOL
REMARK 922        TOTAL FREE ENERGY PREDICTED BY IDOCK:   -6.90 KCAL/MOL
REMARK 923 INTER-LIGAND FREE ENERGY PREDICTED BY IDOCK:   -6.25 KCAL/MOL
REMARK 924 INTRA-LIGAND FREE ENERGY PREDICTED BY IDOCK:   -0.65 KCAL/MOL
REMARK 927      BINDING AFFINITY PREDICTED BY RF-SCORE:    0.00 PKD
ROOT
HETATM    1  C   UNL     1      -8.799   4.006  67.770  1.00  0.00    -0.134 C  
HETATM    2  C   UNL     1      -9.676   3.934  69.003  1.00  0.00    -0.129 C  
ENDROOT
BRANCH   2   3
HETATM    3  C   UNL     1      -9.414   4.976  70.110  1.00  0.00    -0.169 C  
HETATM    4  C   UNL     1      -9.724   4.236  71.467  1.00  0.00    -0.174 C  
HETATM    5  O   UNL     1      -7.969   5.171  70.114  1.00  0.00    -0.076 OA 
HETATM    6  H   UNL     1      -7.808   5.812  70.795  1.00  0.00     0.000 HD 
HETATM    7  O   UNL     1      -9.446   4.930  72.592  1.00  0.00    -0.135 OA 
HETATM    8  O   UNL     1     -10.030   3.045  71.547  1.00  0.00    -0.155 OA 
HETATM    9  C   UNL     1      -9.914   6.271  72.654  1.00  0.00    -0.172 C  
HETATM   10  C   UNL     1      -9.874   6.995  71.359  1.00  0.00    -0.180 C  
HETATM   11  C   UNL     1      -9.981   6.418  70.136  1.00  0.00    -0.201 C  
HETATM   12  C   UNL     1     -10.363   7.365  69.024  1.00  0.00    -0.214 C  
HETATM   13  C   UNL     1     -10.025   8.682  69.124  1.00  0.00    -0.192 C  
HETATM   14  N   UNL     1      -9.218   9.000  70.205  1.00  0.00    -0.185 N  
HETATM   15  C   UNL     1      -8.448  10.201  69.989  1.00  0.00    -0.004 C  
HETATM   16  C   UNL     1      -9.153   8.294  71.370  1.00  0.00    -0.170 C  
HETATM   17  C   UNL     1      -9.186  10.830  68.875  1.00  0.00    -0.180 A  
HETATM   18  O   UNL     1      -8.503   8.652  72.339  1.00  0.00    -0.342 OA 
HETATM   19  C   UNL     1      -8.989  12.100  68.392  1.00  0.00    -0.146 A  
HETATM   20  C   UNL     1      -9.867  12.612  67.445  1.00  0.00    -0.205 A  
HETATM   21  C   UNL     1     -11.022  11.827  67.157  1.00  0.00    -0.276 A  
HETATM   22  C   UNL     1     -12.010  12.515  66.429  1.00  0.00    -0.386 A  
HETATM   23  N   UNL     1     -11.161  10.501  67.585  1.00  0.00    -0.316 NA 
HETATM   24  C   UNL     1     -11.848  13.828  65.928  1.00  0.00    -0.405 A  
HETATM   25  C   UNL     1     -10.186   9.998  68.378  1.00  0.00    -0.172 A  
HETATM   26  C   UNL     1     -10.634  14.482  66.098  1.00  0.00    -0.306 A  
HETATM   27  C   UNL     1      -9.613  13.880  66.832  1.00  0.00    -0.271 A  
HETATM   28  O   UNL     1     -10.417  15.712  65.548  1.00  0.00    -0.349 OA 
HETATM   29  H   UNL     1      -9.587  16.159  65.665  1.00  0.00     0.000 HD 
BRANCH  27  30
HETATM   30  C   UNL     1      -8.227  14.529  66.875  1.00  0.00    -0.039 C  
BRANCH  30  31
HETATM   31  N   UNL     1      -8.223  15.823  67.600  1.00  0.00    -0.146 NA 
HETATM   32  C   UNL     1      -7.736  15.685  68.975  1.00  0.00    -0.199 C  
HETATM   33  C   UNL     1      -7.418  16.820  66.896  1.00  0.00    -0.222 C  
ENDBRANCH  30  31
ENDBRANCH  27  30
ENDBRANCH   2   3
TORSDOF 3
ENDMDL
MODEL       48
REMARK 921   NORMALIZED FREE ENERGY PREDICTED BY IDOCK:   -5.28 KCAL/MOL
REMARK 922        TOTAL FREE ENERGY PREDICTED BY IDOCK:   -6.85 KCAL/MOL
REMARK 923 INTER-LIGAND FREE ENERGY PREDICTED BY IDOCK:   -6.34 KCAL/MOL
REMARK 924 INTRA-LIGAND FREE ENERGY PREDICTED BY IDOCK:   -0.51 KCAL/MOL
REMARK 927      BINDING AFFINITY PREDICTED BY RF-SCORE:    0.00 PKD
ROOT
HETATM    1  C   UNL     1     -10.663  11.774  63.629  1.00  0.00    -0.503 C  
HETATM    2  C   UNL     1     -11.051  13.133  64.176  1.00  0.00    -0.426 C  
ENDROOT
BRANCH   2   3
HETATM    3  C   UNL     1     -11.311  13.228  65.694  1.00  0.00    -0.304 C  
HETATM    4  C   UNL     1     -11.509  14.764  65.991  1.00  0.00    -0.316 C  
HETATM    5  O   UNL     1     -12.629  12.638  65.891  1.00  0.00    -0.526 OA 
HETATM    6  H   UNL     1     -12.789  12.697  66.826  1.00  0.00     0.000 HD 
HETATM    7  O   UNL     1     -11.870  15.076  67.255  1.00  0.00    -0.307 OA 
HETATM    8  O   UNL     1     -11.520  15.637  65.122  1.00  0.00    -0.224 OA 
HETATM    9  C   UNL     1     -11.126  14.471  68.305  1.00  0.00    -0.261 C  
HETATM   10  C   UNL     1     -10.691  13.080  68.027  1.00  0.00    -0.248 C  
HETATM   11  C   UNL     1     -10.442  12.569  66.795  1.00  0.00    -0.243 C  
HETATM   12  C   UNL     1      -9.599  11.318  66.791  1.00  0.00    -0.214 C  
HETATM   13  C   UNL     1      -9.631  10.489  67.874  1.00  0.00    -0.150 C  
HETATM   14  N   UNL     1     -10.569  10.820  68.839  1.00  0.00    -0.202 N  
HETATM   15  C   UNL     1     -10.963   9.688  69.643  1.00  0.00    -0.229 C  
HETATM   16  C   UNL     1     -11.069  12.072  69.050  1.00  0.00    -0.239 C  
HETATM   17  C   UNL     1      -9.858   8.742  69.383  1.00  0.00    -0.186 A  
HETATM   18  O   UNL     1     -11.823  12.349  69.968  1.00  0.00    -0.326 OA 
HETATM   19  C   UNL     1      -9.632   7.564  70.049  1.00  0.00    -0.164 A  
HETATM   20  C   UNL     1      -8.462   6.856  69.804  1.00  0.00    -0.133 A  
HETATM   21  C   UNL     1      -7.490   7.498  68.981  1.00  0.00    -0.096 A  
HETATM   22  C   UNL     1      -6.226   6.881  69.007  1.00  0.00    -0.027 A  
HETATM   23  N   UNL     1      -7.772   8.651  68.238  1.00  0.00    -0.100 NA 
HETATM   24  C   UNL     1      -5.952   5.674  69.694  1.00  0.00    -0.021 A  
HETATM   25  C   UNL     1      -8.995   9.209  68.395  1.00  0.00    -0.133 A  
HETATM   26  C   UNL     1      -6.983   5.005  70.342  1.00  0.00    -0.049 A  
HETATM   27  C   UNL     1      -8.260   5.565  70.387  1.00  0.00    -0.104 A  
HETATM   28  O   UNL     1      -6.770   3.796  70.936  1.00  0.00    -0.030 OA 
HETATM   29  H   UNL     1      -7.475   3.339  71.379  1.00  0.00     0.000 HD 
BRANCH  27  30
HETATM   30  C   UNL     1      -9.425   4.750  70.955  1.00  0.00    -0.164 C  
BRANCH  30  31
HETATM   31  N   UNL     1      -9.230   4.391  72.381  1.00  0.00    -0.119 NA 
HETATM   32  C   UNL     1      -9.287   5.563  73.258  1.00  0.00    -0.131 C  
HETATM   33  C   UNL     1     -10.220   3.407  72.818  1.00  0.00    -0.168 C  
ENDBRANCH  30  31
ENDBRANCH  27  30
ENDBRANCH   2   3
TORSDOF 3
ENDMDL
MODEL       49
REMARK 921   NORMALIZED FREE ENERGY PREDICTED BY IDOCK:   -5.28 KCAL/MOL
REMARK 922        TOTAL FREE ENERGY PREDICTED BY IDOCK:   -6.85 KCAL/MOL
REMARK 923 INTER-LIGAND FREE ENERGY PREDICTED BY IDOCK:   -6.21 KCAL/MOL
REMARK 924 INTRA-LIGAND FREE ENERGY PREDICTED BY IDOCK:   -0.64 KCAL/MOL
REMARK 927      BINDING AFFINITY PREDICTED BY RF-SCORE:    0.00 PKD
ROOT
HETATM    1  C   UNL     1     -11.127   6.362  67.018  1.00  0.00    -0.405 C  
HETATM    2  C   UNL     1     -11.090   6.293  68.531  1.00  0.00    -0.397 C  
ENDROOT
BRANCH   2   3
HETATM    3  C   UNL     1      -9.893   6.967  69.233  1.00  0.00    -0.159 C  
HETATM    4  C   UNL     1      -9.530   6.024  70.443  1.00  0.00    -0.163 C  
HETATM    5  O   UNL     1      -8.780   6.827  68.303  1.00  0.00    -0.123 OA 
HETATM    6  H   UNL     1      -8.043   7.242  68.736  1.00  0.00     0.000 HD 
HETATM    7  O   UNL     1      -8.421   6.361  71.138  1.00  0.00    -0.122 OA 
HETATM    8  O   UNL     1     -10.083   4.946  70.666  1.00  0.00    -0.224 OA 
HETATM    9  C   UNL     1      -8.296   7.721  71.530  1.00  0.00    -0.109 C  
HETATM   10  C   UNL     1      -8.823   8.696  70.543  1.00  0.00    -0.182 C  
HETATM   11  C   UNL     1      -9.829   8.454  69.665  1.00  0.00    -0.184 C  
HETATM   12  C   UNL     1     -10.481   9.692  69.098  1.00  0.00    -0.230 C  
HETATM   13  C   UNL     1      -9.753  10.840  68.995  1.00  0.00    -0.187 C  
HETATM   14  N   UNL     1      -8.408  10.713  69.302  1.00  0.00    -0.137 N  
HETATM   15  C   UNL     1      -7.596  11.727  68.674  1.00  0.00    -0.125 C  
HETATM   16  C   UNL     1      -7.878   9.761  70.123  1.00  0.00    -0.183 C  
HETATM   17  C   UNL     1      -8.609  12.744  68.326  1.00  0.00    -0.166 A  
HETATM   18  O   UNL     1      -6.702   9.732  70.447  1.00  0.00    -0.093 OA 
HETATM   19  C   UNL     1      -8.356  14.014  67.870  1.00  0.00    -0.168 A  
HETATM   20  C   UNL     1      -9.406  14.913  67.737  1.00  0.00    -0.194 A  
HETATM   21  C   UNL     1     -10.671  14.495  68.245  1.00  0.00    -0.240 A  
HETATM   22  C   UNL     1     -11.612  15.534  68.355  1.00  0.00    -0.368 A  
HETATM   23  N   UNL     1     -10.935  13.171  68.620  1.00  0.00    -0.257 NA 
HETATM   24  C   UNL     1     -11.380  16.857  67.909  1.00  0.00     0.113 A  
HETATM   25  C   UNL     1      -9.904  12.295  68.573  1.00  0.00    -0.153 A  
HETATM   26  C   UNL     1     -10.186  17.166  67.269  1.00  0.00    -0.316 A  
HETATM   27  C   UNL     1      -9.189  16.198  67.145  1.00  0.00    -0.220 A  
HETATM   28  O   UNL     1      -9.970  18.408  66.748  1.00  0.00    -0.321 OA 
HETATM   29  H   UNL     1      -9.153  18.619  66.311  1.00  0.00     0.000 HD 
BRANCH  27  30
HETATM   30  C   UNL     1      -7.949  16.492  66.297  1.00  0.00    -0.272 C  
BRANCH  30  31
HETATM   31  N   UNL     1      -7.234  17.716  66.734  1.00  0.00    -0.194 NA 
HETATM   32  C   UNL     1      -6.284  17.445  67.815  1.00  0.00    -0.149 C  
HETATM   33  C   UNL     1      -6.534  18.347  65.616  1.00  0.00    -0.279 C  
ENDBRANCH  30  31
ENDBRANCH  27  30
ENDBRANCH   2   3
TORSDOF 3
ENDMDL
MODEL       50
REMARK 921   NORMALIZED FREE ENERGY PREDICTED BY IDOCK:   -5.20 KCAL/MOL
REMARK 922        TOTAL FREE ENERGY PREDICTED BY IDOCK:   -6.76 KCAL/MOL
REMARK 923 INTER-LIGAND FREE ENERGY PREDICTED BY IDOCK:   -6.19 KCAL/MOL
REMARK 924 INTRA-LIGAND FREE ENERGY PREDICTED BY IDOCK:   -0.58 KCAL/MOL
REMARK 927      BINDING AFFINITY PREDICTED BY RF-SCORE:    0.00 PKD
ROOT
HETATM    1  C   UNL     1     -10.076   7.849  71.221  1.00  0.00    -0.210 C  
HETATM    2  C   UNL     1      -9.571   6.943  70.116  1.00  0.00    -0.162 C  
ENDROOT
BRANCH   2   3
HETATM    3  C   UNL     1      -9.702   7.465  68.670  1.00  0.00    -0.152 C  
HETATM    4  C   UNL     1      -9.413   6.220  67.746  1.00  0.00    -0.118 C  
HETATM    5  O   UNL     1     -11.122   7.739  68.492  1.00  0.00    -0.414 OA 
HETATM    6  H   UNL     1     -11.203   8.060  67.602  1.00  0.00     0.000 HD 
HETATM    7  O   UNL     1      -9.590   6.418  66.422  1.00  0.00    -0.164 OA 
HETATM    8  O   UNL     1      -9.213   5.081  68.169  1.00  0.00    -0.112 OA 
HETATM    9  C   UNL     1      -9.002   7.585  65.861  1.00  0.00    -0.089 C  
HETATM   10  C   UNL     1      -9.021   8.771  66.752  1.00  0.00    -0.161 C  
HETATM   11  C   UNL     1      -9.008   8.731  68.108  1.00  0.00    -0.141 C  
HETATM   12  C   UNL     1      -8.580  10.018  68.771  1.00  0.00    -0.131 C  
HETATM   13  C   UNL     1      -8.796  11.202  68.130  1.00  0.00    -0.148 C  
HETATM   14  N   UNL     1      -9.534  11.111  66.961  1.00  0.00    -0.176 N  
HETATM   15  C   UNL     1     -10.201  12.346  66.627  1.00  0.00    -0.224 C  
HETATM   16  C   UNL     1      -9.622  10.000  66.174  1.00  0.00    -0.210 C  
HETATM   17  C   UNL     1      -9.448  13.319  67.443  1.00  0.00    -0.218 A  
HETATM   18  O   UNL     1     -10.205   9.980  65.103  1.00  0.00    -0.288 OA 
HETATM   19  C   UNL     1      -9.546  14.686  67.365  1.00  0.00    -0.215 A  
HETATM   20  C   UNL     1      -8.658  15.476  68.084  1.00  0.00    -0.152 A  
HETATM   21  C   UNL     1      -7.588  14.798  68.739  1.00  0.00    -0.137 A  
HETATM   22  C   UNL     1      -6.568  15.651  69.195  1.00  0.00    -0.140 A  
HETATM   23  N   UNL     1      -7.554  13.405  68.886  1.00  0.00    -0.041 NA 
HETATM   24  C   UNL     1      -6.628  17.063  69.117  1.00  0.00    -0.230 A  
HETATM   25  C   UNL     1      -8.543  12.693  68.297  1.00  0.00    -0.167 A  
HETATM   26  C   UNL     1      -7.773  17.674  68.619  1.00  0.00    -0.281 A  
HETATM   27  C   UNL     1      -8.819  16.898  68.120  1.00  0.00    -0.223 A  
HETATM   28  O   UNL     1      -7.898  19.032  68.616  1.00  0.00    -0.326 OA 
HETATM   29  H   UNL     1      -8.680  19.450  68.275  1.00  0.00     0.000 HD 
BRANCH  27  30
HETATM   30  C   UNL     1     -10.139  17.567  67.729  1.00  0.00    -0.330 C  
BRANCH  30  31
HETATM   31  N   UNL     1     -10.062  18.265  66.422  1.00  0.00    -0.378 NA 
HETATM   32  C   UNL     1     -10.824  17.571  65.381  1.00  0.00     0.059 C  
HETATM   33  C   UNL     1     -10.531  19.645  66.532  1.00  0.00    -0.503 C  
ENDBRANCH  30  31
ENDBRANCH  27  30
ENDBRANCH   2   3
TORSDOF 3
ENDMDL
MODEL       51
REMARK 921   NORMALIZED FREE ENERGY PREDICTED BY IDOCK:   -5.14 KCAL/MOL
REMARK 922        TOTAL FREE ENERGY PREDICTED BY IDOCK:   -6.69 KCAL/MOL
REMARK 923 INTER-LIGAND FREE ENERGY PREDICTED BY IDOCK:   -6.05 KCAL/MOL
REMARK 924 INTRA-LIGAND FREE ENERGY PREDICTED BY IDOCK:   -0.64 KCAL/MOL
REMARK 927      BINDING AFFINITY PREDICTED BY RF-SCORE:    0.00 PKD
ROOT
HETATM    1  C   UNL     1     -10.858  19.246  67.366  1.00  0.00    -0.554 C  
HETATM    2  C   UNL     1      -9.643  19.487  68.240  1.00  0.00    -0.464 C  
ENDROOT
BRANCH   2   3
HETATM    3  C   UNL     1      -8.343  18.753  67.848  1.00  0.00    -0.276 C  
HETATM    4  C   UNL     1      -7.559  19.756  66.918  1.00  0.00    -0.260 C  
HETATM    5  O   UNL     1      -7.559  18.690  69.074  1.00  0.00    -0.280 OA 
HETATM    6  H   UNL     1      -6.759  18.238  68.833  1.00  0.00     0.000 HD 
HETATM    7  O   UNL     1      -6.320  19.364  66.547  1.00  0.00    -0.184 OA 
HETATM    8  O   UNL     1      -7.935  20.902  66.669  1.00  0.00    -0.034 OA 
HETATM    9  C   UNL     1      -6.184  18.039  66.053  1.00  0.00    -0.242 C  
HETATM   10  C   UNL     1      -7.059  17.042  66.719  1.00  0.00    -0.273 C  
HETATM   11  C   UNL     1      -8.263  17.312  67.283  1.00  0.00    -0.213 C  
HETATM   12  C   UNL     1      -9.148  16.106  67.484  1.00  0.00    -0.207 C  
HETATM   13  C   UNL     1      -8.576  14.881  67.662  1.00  0.00    -0.174 C  
HETATM   14  N   UNL     1      -7.195  14.890  67.783  1.00  0.00    -0.154 N  
HETATM   15  C   UNL     1      -6.692  13.743  68.499  1.00  0.00    -0.094 C  
HETATM   16  C   UNL     1      -6.370  15.849  67.272  1.00  0.00    -0.113 C  
HETATM   17  C   UNL     1      -7.837  12.814  68.411  1.00  0.00    -0.132 A  
HETATM   18  O   UNL     1      -5.153  15.780  67.315  1.00  0.00    -0.324 OA 
HETATM   19  C   UNL     1      -7.830  11.489  68.770  1.00  0.00    -0.117 A  
HETATM   20  C   UNL     1      -8.936  10.699  68.481  1.00  0.00    -0.156 A  
HETATM   21  C   UNL     1      -9.951  11.294  67.676  1.00  0.00    -0.178 A  
HETATM   22  C   UNL     1     -10.889  10.375  67.172  1.00  0.00    -0.301 A  
HETATM   23  N   UNL     1      -9.987  12.666  67.397  1.00  0.00    -0.203 NA 
HETATM   24  C   UNL     1     -10.905   9.001  67.509  1.00  0.00    -0.130 A  
HETATM   25  C   UNL     1      -8.957  13.420  67.848  1.00  0.00    -0.201 A  
HETATM   26  C   UNL     1      -9.989   8.510  68.432  1.00  0.00    -0.187 A  
HETATM   27  C   UNL     1      -9.007   9.351  68.957  1.00  0.00    -0.141 A  
HETATM   28  O   UNL     1     -10.036   7.211  68.844  1.00  0.00    -0.167 OA 
HETATM   29  H   UNL     1      -9.410   6.876  69.475  1.00  0.00     0.000 HD 
BRANCH  27  30
HETATM   30  C   UNL     1      -8.110   8.851  70.092  1.00  0.00    -0.122 C  
BRANCH  30  31
HETATM   31  N   UNL     1      -7.307   7.665  69.707  1.00  0.00    -0.079 NA 
HETATM   32  C   UNL     1      -6.125   8.029  68.922  1.00  0.00    -0.039 C  
HETATM   33  C   UNL     1      -6.895   6.902  70.884  1.00  0.00    -0.055 C  
ENDBRANCH  30  31
ENDBRANCH  27  30
ENDBRANCH   2   3
TORSDOF 3
ENDMDL
MODEL       52
REMARK 921   NORMALIZED FREE ENERGY PREDICTED BY IDOCK:   -5.01 KCAL/MOL
REMARK 922        TOTAL FREE ENERGY PREDICTED BY IDOCK:   -6.53 KCAL/MOL
REMARK 923 INTER-LIGAND FREE ENERGY PREDICTED BY IDOCK:   -5.92 KCAL/MOL
REMARK 924 INTRA-LIGAND FREE ENERGY PREDICTED BY IDOCK:   -0.61 KCAL/MOL
REMARK 927      BINDING AFFINITY PREDICTED BY RF-SCORE:    0.00 PKD
ROOT
HETATM    1  C   UNL     1     -10.637   6.488  73.748  1.00  0.00    -0.285 C  
HETATM    2  C   UNL     1      -9.577   5.471  73.376  1.00  0.00    -0.146 C  
ENDROOT
BRANCH   2   3
HETATM    3  C   UNL     1      -9.412   5.151  71.875  1.00  0.00    -0.147 C  
HETATM    4  C   UNL     1      -8.644   3.775  71.821  1.00  0.00    -0.093 C  
HETATM    5  O   UNL     1     -10.756   4.847  71.401  1.00  0.00    -0.104 OA 
HETATM    6  H   UNL     1     -10.654   4.650  70.477  1.00  0.00     0.000 HD 
HETATM    7  O   UNL     1      -8.491   3.237  70.592  1.00  0.00    -0.062 OA 
HETATM    8  O   UNL     1      -8.345   3.114  72.816  1.00  0.00    -0.077 OA 
HETATM    9  C   UNL     1      -8.015   4.097  69.565  1.00  0.00    -0.056 C  
HETATM   10  C   UNL     1      -8.508   5.494  69.658  1.00  0.00    -0.101 C  
HETATM   11  C   UNL     1      -8.855   6.127  70.807  1.00  0.00    -0.140 C  
HETATM   12  C   UNL     1      -8.885   7.633  70.712  1.00  0.00    -0.144 C  
HETATM   13  C   UNL     1      -9.149   8.219  69.509  1.00  0.00    -0.154 C  
HETATM   14  N   UNL     1      -9.509   7.346  68.496  1.00  0.00    -0.144 N  
HETATM   15  C   UNL     1     -10.291   7.983  67.464  1.00  0.00    -0.261 C  
HETATM   16  C   UNL     1      -9.160   6.028  68.436  1.00  0.00    -0.112 C  
HETATM   17  C   UNL     1      -9.994   9.409  67.707  1.00  0.00    -0.228 A  
HETATM   18  O   UNL     1      -9.415   5.308  67.484  1.00  0.00    -0.117 OA 
HETATM   19  C   UNL     1     -10.335  10.456  66.886  1.00  0.00    -0.297 A  
HETATM   20  C   UNL     1      -9.849  11.727  67.165  1.00  0.00    -0.207 A  
HETATM   21  C   UNL     1      -8.885  11.825  68.211  1.00  0.00    -0.172 A  
HETATM   22  C   UNL     1      -8.215  13.061  68.253  1.00  0.00    -0.150 A  
HETATM   23  N   UNL     1      -8.618  10.772  69.094  1.00  0.00    -0.128 NA 
HETATM   24  C   UNL     1      -8.530  14.157  67.413  1.00  0.00    -0.214 A  
HETATM   25  C   UNL     1      -9.250   9.596  68.869  1.00  0.00    -0.147 A  
HETATM   26  C   UNL     1      -9.594  14.056  66.525  1.00  0.00    -0.293 A  
HETATM   27  C   UNL     1     -10.291  12.854  66.402  1.00  0.00    -0.277 A  
HETATM   28  O   UNL     1      -9.978  15.124  65.769  1.00  0.00    -0.297 OA 
HETATM   29  H   UNL     1     -10.706  15.056  65.161  1.00  0.00     0.000 HD 
BRANCH  27  30
HETATM   30  C   UNL     1     -11.561  12.799  65.549  1.00  0.00    -0.362 C  
BRANCH  30  31
HETATM   31  N   UNL     1     -11.276  12.854  64.094  1.00  0.00    -0.366 NA 
HETATM   32  C   UNL     1     -10.964  11.533  63.543  1.00  0.00    -0.373 C  
HETATM   33  C   UNL     1     -12.396  13.438  63.358  1.00  0.00    -0.269 C  
ENDBRANCH  30  31
ENDBRANCH  27  30
ENDBRANCH   2   3
TORSDOF 3
ENDMDL
MODEL       53
REMARK 921   NORMALIZED FREE ENERGY PREDICTED BY IDOCK:   -4.99 KCAL/MOL
REMARK 922        TOTAL FREE ENERGY PREDICTED BY IDOCK:   -6.51 KCAL/MOL
REMARK 923 INTER-LIGAND FREE ENERGY PREDICTED BY IDOCK:   -5.98 KCAL/MOL
REMARK 924 INTRA-LIGAND FREE ENERGY PREDICTED BY IDOCK:   -0.53 KCAL/MOL
REMARK 927      BINDING AFFINITY PREDICTED BY RF-SCORE:    0.00 PKD
ROOT
HETATM    1  C   UNL     1      -5.685  18.574  66.253  1.00  0.00    -0.191 C  
HETATM    2  C   UNL     1      -7.018  18.293  65.589  1.00  0.00    -0.234 C  
ENDROOT
BRANCH   2   3
HETATM    3  C   UNL     1      -8.205  17.960  66.516  1.00  0.00    -0.269 C  
HETATM    4  C   UNL     1      -8.667  19.341  67.120  1.00  0.00    -0.290 C  
HETATM    5  O   UNL     1      -9.286  17.563  65.623  1.00  0.00    -0.441 OA 
HETATM    6  H   UNL     1     -10.016  17.359  66.194  1.00  0.00     0.000 HD 
HETATM    7  O   UNL     1      -9.783  19.305  67.880  1.00  0.00    -0.309 OA 
HETATM    8  O   UNL     1      -8.182  20.428  66.803  1.00  0.00    -0.287 OA 
HETATM    9  C   UNL     1      -9.852  18.294  68.877  1.00  0.00    -0.320 C  
HETATM   10  C   UNL     1      -9.234  17.003  68.485  1.00  0.00    -0.266 C  
HETATM   11  C   UNL     1      -8.207  16.861  67.609  1.00  0.00    -0.196 C  
HETATM   12  C   UNL     1      -7.468  15.550  67.714  1.00  0.00    -0.168 C  
HETATM   13  C   UNL     1      -8.129  14.446  68.168  1.00  0.00    -0.137 C  
HETATM   14  N   UNL     1      -9.490  14.616  68.362  1.00  0.00    -0.203 N  
HETATM   15  C   UNL     1     -10.220  13.373  68.291  1.00  0.00    -0.250 C  
HETATM   16  C   UNL     1     -10.103  15.807  68.619  1.00  0.00    -0.211 C  
HETATM   17  C   UNL     1      -9.141  12.384  68.485  1.00  0.00    -0.068 A  
HETATM   18  O   UNL     1     -11.291  15.910  68.878  1.00  0.00    -0.330 OA 
HETATM   19  C   UNL     1      -9.309  11.037  68.693  1.00  0.00    -0.196 A  
HETATM   20  C   UNL     1      -8.207  10.256  69.019  1.00  0.00    -0.139 A  
HETATM   21  C   UNL     1      -6.988  10.949  69.276  1.00  0.00    -0.112 A  
HETATM   22  C   UNL     1      -5.998  10.155  69.882  1.00  0.00    -0.052 A  
HETATM   23  N   UNL     1      -6.811  12.305  68.971  1.00  0.00    -0.101 NA 
HETATM   24  C   UNL     1      -6.141   8.767  70.124  1.00  0.00    -0.033 A  
HETATM   25  C   UNL     1      -7.883  12.981  68.498  1.00  0.00    -0.105 A  
HETATM   26  C   UNL     1      -7.290   8.112  69.700  1.00  0.00    -0.073 A  
HETATM   27  C   UNL     1      -8.331   8.834  69.115  1.00  0.00    -0.125 A  
HETATM   28  O   UNL     1      -7.418   6.761  69.838  1.00  0.00    -0.089 OA 
HETATM   29  H   UNL     1      -8.204   6.313  69.548  1.00  0.00     0.000 HD 
BRANCH  27  30
HETATM   30  C   UNL     1      -9.518   8.087  68.501  1.00  0.00    -0.142 C  
BRANCH  30  31
HETATM   31  N   UNL     1     -10.299   7.326  69.507  1.00  0.00    -0.218 NA 
HETATM   32  C   UNL     1     -11.313   8.156  70.162  1.00  0.00    -0.071 C  
HETATM   33  C   UNL     1     -10.940   6.158  68.904  1.00  0.00    -0.356 C  
ENDBRANCH  30  31
ENDBRANCH  27  30
ENDBRANCH   2   3
TORSDOF 3
ENDMDL
MODEL       54
REMARK 921   NORMALIZED FREE ENERGY PREDICTED BY IDOCK:   -4.92 KCAL/MOL
REMARK 922        TOTAL FREE ENERGY PREDICTED BY IDOCK:   -6.42 KCAL/MOL
REMARK 923 INTER-LIGAND FREE ENERGY PREDICTED BY IDOCK:   -5.82 KCAL/MOL
REMARK 924 INTRA-LIGAND FREE ENERGY PREDICTED BY IDOCK:   -0.60 KCAL/MOL
REMARK 927      BINDING AFFINITY PREDICTED BY RF-SCORE:    0.00 PKD
ROOT
HETATM    1  C   UNL     1      -7.820  15.999  66.543  1.00  0.00    -0.226 C  
HETATM    2  C   UNL     1      -9.232  15.808  66.028  1.00  0.00    -0.379 C  
ENDROOT
BRANCH   2   3
HETATM    3  C   UNL     1     -10.191  14.977  66.906  1.00  0.00    -0.258 C  
HETATM    4  C   UNL     1     -10.919  16.021  67.837  1.00  0.00    -0.327 C  
HETATM    5  O   UNL     1     -11.226  14.505  65.995  1.00  0.00    -0.326 OA 
HETATM    6  H   UNL     1     -11.817  13.994  66.536  1.00  0.00     0.000 HD 
HETATM    7  O   UNL     1     -11.902  15.524  68.619  1.00  0.00    -0.362 OA 
HETATM    8  O   UNL     1     -10.759  17.240  67.761  1.00  0.00    -0.368 OA 
HETATM    9  C   UNL     1     -11.608  14.343  69.353  1.00  0.00    -0.304 C  
HETATM   10  C   UNL     1     -10.730  13.381  68.641  1.00  0.00    -0.275 C  
HETATM   11  C   UNL     1      -9.800  13.712  67.709  1.00  0.00    -0.232 C  
HETATM   12  C   UNL     1      -8.748  12.657  67.469  1.00  0.00    -0.184 C  
HETATM   13  C   UNL     1      -9.057  11.346  67.682  1.00  0.00    -0.155 C  
HETATM   14  N   UNL     1     -10.389  11.097  67.974  1.00  0.00    -0.179 N  
HETATM   15  C   UNL     1     -10.786   9.749  67.648  1.00  0.00    -0.239 C  
HETATM   16  C   UNL     1     -11.251  11.995  68.532  1.00  0.00    -0.256 C  
HETATM   17  C   UNL     1      -9.479   9.068  67.554  1.00  0.00    -0.168 A  
HETATM   18  O   UNL     1     -12.392  11.716  68.862  1.00  0.00    -0.355 OA 
HETATM   19  C   UNL     1      -9.279   7.715  67.448  1.00  0.00    -0.150 A  
HETATM   20  C   UNL     1      -7.988   7.208  67.531  1.00  0.00    -0.113 A  
HETATM   21  C   UNL     1      -6.962   8.132  67.886  1.00  0.00    -0.078 A  
HETATM   22  C   UNL     1      -5.745   7.523  68.242  1.00  0.00    -0.027 A  
HETATM   23  N   UNL     1      -7.165   9.518  67.899  1.00  0.00    -0.081 NA 
HETATM   24  C   UNL     1      -5.508   6.130  68.159  1.00  0.00    -0.004 A  
HETATM   25  C   UNL     1      -8.418   9.965  67.648  1.00  0.00    -0.114 A  
HETATM   26  C   UNL     1      -6.494   5.296  67.647  1.00  0.00    -0.048 A  
HETATM   27  C   UNL     1      -7.739   5.818  67.297  1.00  0.00    -0.101 A  
HETATM   28  O   UNL     1      -6.262   3.963  67.470  1.00  0.00    -0.034 OA 
HETATM   29  H   UNL     1      -6.937   3.393  67.120  1.00  0.00     0.000 HD 
BRANCH  27  30
HETATM   30  C   UNL     1      -8.759   4.929  66.580  1.00  0.00    -0.108 C  
BRANCH  30  31
HETATM   31  N   UNL     1      -8.227   4.344  65.325  1.00  0.00    -0.108 NA 
HETATM   32  C   UNL     1      -9.079   3.269  64.812  1.00  0.00    -0.138 C  
HETATM   33  C   UNL     1      -8.060   5.368  64.295  1.00  0.00    -0.123 C  
ENDBRANCH  30  31
ENDBRANCH  27  30
ENDBRANCH   2   3
TORSDOF 3
ENDMDL
MODEL       55
REMARK 921   NORMALIZED FREE ENERGY PREDICTED BY IDOCK:   -4.85 KCAL/MOL
REMARK 922        TOTAL FREE ENERGY PREDICTED BY IDOCK:   -6.34 KCAL/MOL
REMARK 923 INTER-LIGAND FREE ENERGY PREDICTED BY IDOCK:   -6.44 KCAL/MOL
REMARK 924 INTRA-LIGAND FREE ENERGY PREDICTED BY IDOCK:    0.10 KCAL/MOL
REMARK 927      BINDING AFFINITY PREDICTED BY RF-SCORE:    0.00 PKD
ROOT
HETATM    1  C   UNL     1      -6.457   3.779  67.058  1.00  0.00    -0.041 C  
HETATM    2  C   UNL     1      -6.429   4.893  68.085  1.00  0.00    -0.041 C  
ENDROOT
BRANCH   2   3
HETATM    3  C   UNL     1      -7.762   5.231  68.787  1.00  0.00    -0.083 C  
HETATM    4  C   UNL     1      -8.332   3.850  69.292  1.00  0.00    -0.060 C  
HETATM    5  O   UNL     1      -7.382   5.944  69.999  1.00  0.00    -0.070 OA 
HETATM    6  H   UNL     1      -8.202   6.152  70.431  1.00  0.00     0.000 HD 
HETATM    7  O   UNL     1      -9.450   3.919  70.048  1.00  0.00    -0.160 OA 
HETATM    8  O   UNL     1      -7.737   2.778  69.183  1.00  0.00    -0.047 OA 
HETATM    9  C   UNL     1     -10.509   4.731  69.560  1.00  0.00     0.189 C  
HETATM   10  C   UNL     1     -10.066   5.961  68.857  1.00  0.00    -0.231 C  
HETATM   11  C   UNL     1      -8.895   6.100  68.186  1.00  0.00    -0.112 C  
HETATM   12  C   UNL     1      -8.867   7.242  67.199  1.00  0.00    -0.125 C  
HETATM   13  C   UNL     1      -9.655   8.333  67.419  1.00  0.00    -0.160 C  
HETATM   14  N   UNL     1     -10.319   8.342  68.636  1.00  0.00    -0.205 N  
HETATM   15  C   UNL     1     -10.664   9.674  69.070  1.00  0.00    -0.211 C  
HETATM   16  C   UNL     1     -10.647   7.233  69.359  1.00  0.00    -0.229 C  
HETATM   17  C   UNL     1     -10.557  10.434  67.808  1.00  0.00    -0.294 A  
HETATM   18  O   UNL     1     -11.313   7.269  70.380  1.00  0.00    -0.281 OA 
HETATM   19  C   UNL     1     -10.963  11.730  67.610  1.00  0.00    -0.286 A  
HETATM   20  C   UNL     1     -10.946  12.261  66.326  1.00  0.00    -0.327 A  
HETATM   21  C   UNL     1     -10.653  11.354  65.265  1.00  0.00    -0.277 A  
HETATM   22  C   UNL     1     -10.936  11.863  63.986  1.00  0.00    -0.445 A  
HETATM   23  N   UNL     1     -10.152  10.065  65.490  1.00  0.00    -0.289 NA 
HETATM   24  C   UNL     1     -11.370  13.189  63.744  1.00  0.00    -0.370 A  
HETATM   25  C   UNL     1     -10.036   9.658  66.776  1.00  0.00    -0.227 A  
HETATM   26  C   UNL     1     -11.478  14.079  64.806  1.00  0.00    -0.369 A  
HETATM   27  C   UNL     1     -11.242  13.644  66.110  1.00  0.00    -0.309 A  
HETATM   28  O   UNL     1     -11.806  15.386  64.594  1.00  0.00    -0.330 OA 
HETATM   29  H   UNL     1     -11.880  15.995  65.320  1.00  0.00     0.000 HD 
BRANCH  27  30
HETATM   30  C   UNL     1     -11.198  14.663  67.252  1.00  0.00    -0.337 C  
BRANCH  30  31
HETATM   31  N   UNL     1      -9.993  15.526  67.203  1.00  0.00    -0.239 NA 
HETATM   32  C   UNL     1     -10.257  16.872  67.719  1.00  0.00    -0.308 C  
HETATM   33  C   UNL     1      -8.885  14.928  67.945  1.00  0.00    -0.165 C  
ENDBRANCH  30  31
ENDBRANCH  27  30
ENDBRANCH   2   3
TORSDOF 3
ENDMDL
MODEL       56
REMARK 921   NORMALIZED FREE ENERGY PREDICTED BY IDOCK:   -4.76 KCAL/MOL
REMARK 922        TOTAL FREE ENERGY PREDICTED BY IDOCK:   -6.24 KCAL/MOL
REMARK 923 INTER-LIGAND FREE ENERGY PREDICTED BY IDOCK:   -6.52 KCAL/MOL
REMARK 924 INTRA-LIGAND FREE ENERGY PREDICTED BY IDOCK:    0.28 KCAL/MOL
REMARK 927      BINDING AFFINITY PREDICTED BY RF-SCORE:    0.00 PKD
ROOT
HETATM    1  C   UNL     1     -10.283   7.189  66.625  1.00  0.00    -0.224 C  
HETATM    2  C   UNL     1     -10.475   8.317  67.619  1.00  0.00    -0.303 C  
ENDROOT
BRANCH   2   3
HETATM    3  C   UNL     1      -9.201   8.915  68.253  1.00  0.00    -0.140 C  
HETATM    4  C   UNL     1      -8.798   7.917  69.406  1.00  0.00    -0.145 C  
HETATM    5  O   UNL     1      -8.164   8.756  67.243  1.00  0.00    -0.104 OA 
HETATM    6  H   UNL     1      -7.380   9.124  67.633  1.00  0.00     0.000 HD 
HETATM    7  O   UNL     1      -7.629   8.183  70.029  1.00  0.00    -0.074 OA 
HETATM    8  O   UNL     1      -9.384   6.859  69.636  1.00  0.00    -0.146 OA 
HETATM    9  C   UNL     1      -7.414   9.523  70.451  1.00  0.00    -0.151 C  
HETATM   10  C   UNL     1      -7.964  10.551  69.533  1.00  0.00    -0.119 C  
HETATM   11  C   UNL     1      -9.039  10.383  68.723  1.00  0.00    -0.165 C  
HETATM   12  C   UNL     1      -9.670  11.666  68.241  1.00  0.00    -0.197 C  
HETATM   13  C   UNL     1      -8.900  12.784  68.119  1.00  0.00    -0.194 C  
HETATM   14  N   UNL     1      -7.544  12.587  68.325  1.00  0.00    -0.121 N  
HETATM   15  C   UNL     1      -6.732  13.585  67.670  1.00  0.00    -0.167 C  
HETATM   16  C   UNL     1      -7.001  11.587  69.078  1.00  0.00    -0.112 C  
HETATM   17  C   UNL     1      -7.718  14.656  67.426  1.00  0.00    -0.226 A  
HETATM   18  O   UNL     1      -5.809  11.496  69.316  1.00  0.00    -0.052 OA 
HETATM   19  C   UNL     1      -7.439  15.927  66.990  1.00  0.00    -0.254 A  
HETATM   20  C   UNL     1      -8.453  16.876  66.959  1.00  0.00    -0.228 A  
HETATM   21  C   UNL     1      -9.698  16.498  67.543  1.00  0.00    -0.242 A  
HETATM   22  C   UNL     1     -10.579  17.573  67.752  1.00  0.00    -0.375 A  
HETATM   23  N   UNL     1      -9.995  15.175  67.897  1.00  0.00    -0.220 NA 
HETATM   24  C   UNL     1     -10.318  18.899  67.329  1.00  0.00    -0.486 A  
HETATM   25  C   UNL     1      -9.012  14.256  67.751  1.00  0.00    -0.188 A  
HETATM   26  C   UNL     1      -9.159  19.175  66.615  1.00  0.00    -0.335 A  
HETATM   27  C   UNL     1      -8.219  18.168  66.391  1.00  0.00    -0.282 A  
HETATM   28  O   UNL     1      -8.923  20.422  66.116  1.00  0.00    -0.585 OA 
HETATM   29  H   UNL     1      -8.130  20.611  65.628  1.00  0.00     0.000 HD 
BRANCH  27  30
HETATM   30  C   UNL     1      -7.029  18.435  65.466  1.00  0.00    -0.135 C  
BRANCH  30  31
HETATM   31  N   UNL     1      -5.907  19.116  66.157  1.00  0.00    -0.160 NA 
HETATM   32  C   UNL     1      -5.664  20.459  65.624  1.00  0.00    -0.185 C  
HETATM   33  C   UNL     1      -6.147  19.199  67.597  1.00  0.00    -0.206 C  
ENDBRANCH  30  31
ENDBRANCH  27  30
ENDBRANCH   2   3
TORSDOF 3
ENDMDL
MODEL       57
REMARK 921   NORMALIZED FREE ENERGY PREDICTED BY IDOCK:   -4.75 KCAL/MOL
REMARK 922        TOTAL FREE ENERGY PREDICTED BY IDOCK:   -6.23 KCAL/MOL
REMARK 923 INTER-LIGAND FREE ENERGY PREDICTED BY IDOCK:   -5.73 KCAL/MOL
REMARK 924 INTRA-LIGAND FREE ENERGY PREDICTED BY IDOCK:   -0.50 KCAL/MOL
REMARK 927      BINDING AFFINITY PREDICTED BY RF-SCORE:    0.00 PKD
ROOT
HETATM    1  C   UNL     1      -9.550   2.469  67.996  1.00  0.00    -0.083 C  
HETATM    2  C   UNL     1      -8.916   3.114  66.780  1.00  0.00    -0.172 C  
ENDROOT
BRANCH   2   3
HETATM    3  C   UNL     1      -7.889   4.236  67.038  1.00  0.00    -0.097 C  
HETATM    4  C   UNL     1      -6.504   3.505  67.221  1.00  0.00    -0.037 C  
HETATM    5  O   UNL     1      -7.772   4.943  65.769  1.00  0.00    -0.089 OA 
HETATM    6  H   UNL     1      -7.140   5.634  65.928  1.00  0.00     0.000 HD 
HETATM    7  O   UNL     1      -5.427   4.310  67.343  1.00  0.00    -0.015 OA 
HETATM    8  O   UNL     1      -6.344   2.291  67.089  1.00  0.00    -0.027 OA 
HETATM    9  C   UNL     1      -5.530   5.390  68.262  1.00  0.00    -0.011 C  
HETATM   10  C   UNL     1      -6.876   6.011  68.331  1.00  0.00    -0.074 C  
HETATM   11  C   UNL     1      -8.046   5.372  68.080  1.00  0.00    -0.095 C  
HETATM   12  C   UNL     1      -9.269   6.055  68.642  1.00  0.00    -0.115 C  
HETATM   13  C   UNL     1      -9.259   7.409  68.809  1.00  0.00    -0.144 C  
HETATM   14  N   UNL     1      -8.142   8.054  68.302  1.00  0.00    -0.124 N  
HETATM   15  C   UNL     1      -8.396   9.440  67.991  1.00  0.00    -0.119 C  
HETATM   16  C   UNL     1      -6.917   7.481  68.127  1.00  0.00    -0.072 C  
HETATM   17  C   UNL     1      -9.625   9.699  68.768  1.00  0.00    -0.153 A  
HETATM   18  O   UNL     1      -5.930   8.101  67.766  1.00  0.00    -0.044 OA 
HETATM   19  C   UNL     1     -10.202  10.926  68.982  1.00  0.00    -0.219 A  
HETATM   20  C   UNL     1     -11.267  11.033  69.867  1.00  0.00    -0.327 A  
HETATM   21  C   UNL     1     -11.586   9.868  70.624  1.00  0.00    -0.335 A  
HETATM   22  C   UNL     1     -12.460  10.109  71.700  1.00  0.00    -0.506 A  
HETATM   23  N   UNL     1     -11.053   8.606  70.330  1.00  0.00    -0.240 NA 
HETATM   24  C   UNL     1     -13.062  11.364  71.959  1.00  0.00    -0.423 A  
HETATM   25  C   UNL     1     -10.133   8.535  69.340  1.00  0.00    -0.205 A  
HETATM   26  C   UNL     1     -12.842  12.423  71.087  1.00  0.00    -0.205 A  
HETATM   27  C   UNL     1     -11.966  12.273  70.011  1.00  0.00    -0.379 A  
HETATM   28  O   UNL     1     -13.479  13.617  71.259  1.00  0.00    -0.249 OA 
HETATM   29  H   UNL     1     -13.329  14.341  70.663  1.00  0.00     0.000 HD 
BRANCH  27  30
HETATM   30  C   UNL     1     -11.857  13.384  68.963  1.00  0.00    -0.335 C  
BRANCH  30  31
HETATM   31  N   UNL     1     -11.076  14.549  69.443  1.00  0.00    -0.263 NA 
HETATM   32  C   UNL     1      -9.841  14.739  68.678  1.00  0.00    -0.225 C  
HETATM   33  C   UNL     1     -11.872  15.775  69.396  1.00  0.00    -0.349 C  
ENDBRANCH  30  31
ENDBRANCH  27  30
ENDBRANCH   2   3
TORSDOF 3
ENDMDL
MODEL       58
REMARK 921   NORMALIZED FREE ENERGY PREDICTED BY IDOCK:   -4.68 KCAL/MOL
REMARK 922        TOTAL FREE ENERGY PREDICTED BY IDOCK:   -6.15 KCAL/MOL
REMARK 923 INTER-LIGAND FREE ENERGY PREDICTED BY IDOCK:   -5.63 KCAL/MOL
REMARK 924 INTRA-LIGAND FREE ENERGY PREDICTED BY IDOCK:   -0.52 KCAL/MOL
REMARK 927      BINDING AFFINITY PREDICTED BY RF-SCORE:    0.00 PKD
ROOT
HETATM    1  C   UNL     1      -9.723   3.294  68.207  1.00  0.00    -0.017 C  
HETATM    2  C   UNL     1      -8.943   3.249  66.909  1.00  0.00    -0.174 C  
ENDROOT
BRANCH   2   3
HETATM    3  C   UNL     1      -7.831   4.303  66.725  1.00  0.00    -0.097 C  
HETATM    4  C   UNL     1      -6.480   3.542  67.011  1.00  0.00    -0.037 C  
HETATM    5  O   UNL     1      -7.806   4.582  65.295  1.00  0.00    -0.088 OA 
HETATM    6  H   UNL     1      -7.121   5.231  65.181  1.00  0.00     0.000 HD 
HETATM    7  O   UNL     1      -5.350   4.250  66.790  1.00  0.00    -0.012 OA 
HETATM    8  O   UNL     1      -6.405   2.336  67.247  1.00  0.00    -0.027 OA 
HETATM    9  C   UNL     1      -5.293   5.560  67.338  1.00  0.00    -0.008 C  
HETATM   10  C   UNL     1      -6.586   6.289  67.322  1.00  0.00    -0.058 C  
HETATM   11  C   UNL     1      -7.812   5.709  67.376  1.00  0.00    -0.101 C  
HETATM   12  C   UNL     1      -8.927   6.634  67.797  1.00  0.00    -0.112 C  
HETATM   13  C   UNL     1      -8.820   7.969  67.539  1.00  0.00    -0.128 C  
HETATM   14  N   UNL     1      -7.727   8.331  66.768  1.00  0.00    -0.093 N  
HETATM   15  C   UNL     1      -7.931   9.576  66.066  1.00  0.00    -0.107 C  
HETATM   16  C   UNL     1      -6.563   7.627  66.678  1.00  0.00    -0.057 C  
HETATM   17  C   UNL     1      -9.054  10.163  66.824  1.00  0.00    -0.159 A  
HETATM   18  O   UNL     1      -5.584   8.020  66.065  1.00  0.00    -0.035 OA 
HETATM   19  C   UNL     1      -9.533  11.443  66.695  1.00  0.00    -0.206 A  
HETATM   20  C   UNL     1     -10.492  11.905  67.588  1.00  0.00    -0.232 A  
HETATM   21  C   UNL     1     -10.798  11.054  68.691  1.00  0.00    -0.215 A  
HETATM   22  C   UNL     1     -11.539  11.683  69.707  1.00  0.00    -0.389 A  
HETATM   23  N   UNL     1     -10.374   9.721  68.757  1.00  0.00    -0.200 NA 
HETATM   24  C   UNL     1     -12.037  13.005  69.615  1.00  0.00    -0.304 A  
HETATM   25  C   UNL     1      -9.568   9.275  67.766  1.00  0.00    -0.142 A  
HETATM   26  C   UNL     1     -11.848  13.729  68.445  1.00  0.00    -0.376 A  
HETATM   27  C   UNL     1     -11.099  13.187  67.400  1.00  0.00    -0.301 A  
HETATM   28  O   UNL     1     -12.393  14.970  68.292  1.00  0.00    -0.561 OA 
HETATM   29  H   UNL     1     -12.263  15.466  67.492  1.00  0.00     0.000 HD 
BRANCH  27  30
HETATM   30  C   UNL     1     -11.035  13.916  66.056  1.00  0.00    -0.285 C  
BRANCH  30  31
HETATM   31  N   UNL     1     -12.292  13.793  65.277  1.00  0.00    -0.436 NA 
HETATM   32  C   UNL     1     -12.492  14.924  64.368  1.00  0.00    -0.207 C  
HETATM   33  C   UNL     1     -12.322  12.545  64.516  1.00  0.00    -0.467 C  
ENDBRANCH  30  31
ENDBRANCH  27  30
ENDBRANCH   2   3
TORSDOF 3
ENDMDL
MODEL       59
REMARK 921   NORMALIZED FREE ENERGY PREDICTED BY IDOCK:   -4.54 KCAL/MOL
REMARK 922        TOTAL FREE ENERGY PREDICTED BY IDOCK:   -5.98 KCAL/MOL
REMARK 923 INTER-LIGAND FREE ENERGY PREDICTED BY IDOCK:   -6.09 KCAL/MOL
REMARK 924 INTRA-LIGAND FREE ENERGY PREDICTED BY IDOCK:    0.10 KCAL/MOL
REMARK 927      BINDING AFFINITY PREDICTED BY RF-SCORE:    0.00 PKD
ROOT
HETATM    1  C   UNL     1     -12.121  13.549  63.652  1.00  0.00    -0.459 C  
HETATM    2  C   UNL     1     -10.957  13.611  64.620  1.00  0.00    -0.403 C  
ENDROOT
BRANCH   2   3
HETATM    3  C   UNL     1     -11.092  12.803  65.928  1.00  0.00    -0.287 C  
HETATM    4  C   UNL     1     -11.226  13.878  67.074  1.00  0.00    -0.313 C  
HETATM    5  O   UNL     1     -12.404  12.173  65.852  1.00  0.00    -0.561 OA 
HETATM    6  H   UNL     1     -12.486  11.676  66.657  1.00  0.00     0.000 HD 
HETATM    7  O   UNL     1     -11.477  13.391  68.309  1.00  0.00    -0.274 OA 
HETATM    8  O   UNL     1     -11.286  15.092  66.875  1.00  0.00    -0.330 OA 
HETATM    9  C   UNL     1     -10.667  12.310  68.752  1.00  0.00    -0.214 C  
HETATM   10  C   UNL     1     -10.290  11.349  67.686  1.00  0.00    -0.209 C  
HETATM   11  C   UNL     1     -10.154  11.652  66.370  1.00  0.00    -0.246 C  
HETATM   12  C   UNL     1      -9.345  10.656  65.576  1.00  0.00    -0.245 C  
HETATM   13  C   UNL     1      -9.311   9.353  65.978  1.00  0.00    -0.220 C  
HETATM   14  N   UNL     1     -10.160   9.040  67.027  1.00  0.00    -0.226 N  
HETATM   15  C   UNL     1     -10.516   7.642  67.056  1.00  0.00    -0.349 C  
HETATM   16  C   UNL     1     -10.609   9.925  67.963  1.00  0.00    -0.242 C  
HETATM   17  C   UNL     1      -9.460   7.050  66.210  1.00  0.00    -0.127 A  
HETATM   18  O   UNL     1     -11.280   9.600  68.929  1.00  0.00    -0.115 OA 
HETATM   19  C   UNL     1      -9.210   5.710  66.050  1.00  0.00    -0.164 A  
HETATM   20  C   UNL     1      -8.082   5.305  65.347  1.00  0.00    -0.121 A  
HETATM   21  C   UNL     1      -7.163   6.330  64.973  1.00  0.00    -0.070 A  
HETATM   22  C   UNL     1      -5.917   5.846  64.536  1.00  0.00    -0.025 A  
HETATM   23  N   UNL     1      -7.475   7.693  65.060  1.00  0.00    -0.084 NA 
HETATM   24  C   UNL     1      -5.620   4.472  64.373  1.00  0.00    -0.014 A  
HETATM   25  C   UNL     1      -8.667   8.024  65.608  1.00  0.00    -0.125 A  
HETATM   26  C   UNL     1      -6.612   3.524  64.595  1.00  0.00    -0.036 A  
HETATM   27  C   UNL     1      -7.867   3.921  65.058  1.00  0.00    -0.086 A  
HETATM   28  O   UNL     1      -6.382   2.200  64.359  1.00  0.00    -0.018 OA 
HETATM   29  H   UNL     1      -7.060   1.553  64.511  1.00  0.00     0.000 HD 
BRANCH  27  30
HETATM   30  C   UNL     1      -9.001   2.897  65.140  1.00  0.00    -0.134 C  
BRANCH  30  31
HETATM   31  N   UNL     1      -9.910   2.954  63.969  1.00  0.00    -0.150 NA 
HETATM   32  C   UNL     1      -9.340   3.729  62.864  1.00  0.00    -0.109 C  
HETATM   33  C   UNL     1     -10.250   1.612  63.498  1.00  0.00    -0.132 C  
ENDBRANCH  30  31
ENDBRANCH  27  30
ENDBRANCH   2   3
TORSDOF 3
ENDMDL
MODEL       60
REMARK 921   NORMALIZED FREE ENERGY PREDICTED BY IDOCK:   -4.51 KCAL/MOL
REMARK 922        TOTAL FREE ENERGY PREDICTED BY IDOCK:   -5.95 KCAL/MOL
REMARK 923 INTER-LIGAND FREE ENERGY PREDICTED BY IDOCK:   -5.32 KCAL/MOL
REMARK 924 INTRA-LIGAND FREE ENERGY PREDICTED BY IDOCK:   -0.63 KCAL/MOL
REMARK 927      BINDING AFFINITY PREDICTED BY RF-SCORE:    0.00 PKD
ROOT
HETATM    1  C   UNL     1      -6.844  16.317  67.628  1.00  0.00    -0.165 C  
HETATM    2  C   UNL     1      -7.696  16.057  66.402  1.00  0.00    -0.049 C  
ENDROOT
BRANCH   2   3
HETATM    3  C   UNL     1      -9.012  15.279  66.617  1.00  0.00    -0.291 C  
HETATM    4  C   UNL     1     -10.138  16.377  66.713  1.00  0.00    -0.285 C  
HETATM    5  O   UNL     1      -9.261  14.598  65.353  1.00  0.00    -0.359 OA 
HETATM    6  H   UNL     1     -10.071  14.119  65.486  1.00  0.00     0.000 HD 
HETATM    7  O   UNL     1     -11.405  15.913  66.785  1.00  0.00    -0.057 OA 
HETATM    8  O   UNL     1      -9.940  17.583  66.556  1.00  0.00    -0.293 OA 
HETATM    9  C   UNL     1     -11.660  14.876  67.722  1.00  0.00    -0.339 C  
HETATM   10  C   UNL     1     -10.551  13.902  67.875  1.00  0.00    -0.248 C  
HETATM   11  C   UNL     1      -9.236  14.175  67.682  1.00  0.00    -0.193 C  
HETATM   12  C   UNL     1      -8.288  13.190  68.320  1.00  0.00    -0.152 C  
HETATM   13  C   UNL     1      -8.691  11.900  68.504  1.00  0.00    -0.108 C  
HETATM   14  N   UNL     1      -9.918  11.583  67.944  1.00  0.00    -0.179 N  
HETATM   15  C   UNL     1     -10.053  10.174  67.665  1.00  0.00    -0.190 C  
HETATM   16  C   UNL     1     -10.919  12.474  67.693  1.00  0.00    -0.242 C  
HETATM   17  C   UNL     1      -8.989   9.600  68.514  1.00  0.00    -0.124 A  
HETATM   18  O   UNL     1     -12.022  12.149  67.285  1.00  0.00    -0.573 OA 
HETATM   19  C   UNL     1      -8.796   8.267  68.776  1.00  0.00    -0.137 A  
HETATM   20  C   UNL     1      -7.851   7.887  69.721  1.00  0.00    -0.104 A  
HETATM   21  C   UNL     1      -7.252   8.936  70.479  1.00  0.00    -0.071 A  
HETATM   22  C   UNL     1      -6.538   8.487  71.605  1.00  0.00    -0.073 A  
HETATM   23  N   UNL     1      -7.389  10.287  70.139  1.00  0.00    -0.184 NA 
HETATM   24  C   UNL     1      -6.331   7.121  71.914  1.00  0.00    -0.041 A  
HETATM   25  C   UNL     1      -8.200  10.588  69.098  1.00  0.00    -0.150 A  
HETATM   26  C   UNL     1      -6.799   6.144  71.045  1.00  0.00    -0.066 A  
HETATM   27  C   UNL     1      -7.541   6.504  69.920  1.00  0.00    -0.100 A  
HETATM   28  O   UNL     1      -6.537   4.824  71.268  1.00  0.00    -0.028 OA 
HETATM   29  H   UNL     1      -6.857   4.155  70.674  1.00  0.00     0.000 HD 
BRANCH  27  30
HETATM   30  C   UNL     1      -7.909   5.441  68.882  1.00  0.00    -0.083 C  
BRANCH  30  31
HETATM   31  N   UNL     1      -8.797   4.388  69.432  1.00  0.00    -0.086 NA 
HETATM   32  C   UNL     1     -10.159   4.877  69.658  1.00  0.00    -0.230 C  
HETATM   33  C   UNL     1      -8.839   3.220  68.553  1.00  0.00    -0.117 C  
ENDBRANCH  30  31
ENDBRANCH  27  30
ENDBRANCH   2   3
TORSDOF 3
ENDMDL
MODEL       61
REMARK 921   NORMALIZED FREE ENERGY PREDICTED BY IDOCK:   -4.42 KCAL/MOL
REMARK 922        TOTAL FREE ENERGY PREDICTED BY IDOCK:   -5.84 KCAL/MOL
REMARK 923 INTER-LIGAND FREE ENERGY PREDICTED BY IDOCK:   -5.22 KCAL/MOL
REMARK 924 INTRA-LIGAND FREE ENERGY PREDICTED BY IDOCK:   -0.61 KCAL/MOL
REMARK 927      BINDING AFFINITY PREDICTED BY RF-SCORE:    0.00 PKD
ROOT
HETATM    1  C   UNL     1     -13.100  13.686  72.485  1.00  0.00    -0.487 C  
HETATM    2  C   UNL     1     -13.396  13.625  71.000  1.00  0.00    -0.111 C  
ENDROOT
BRANCH   2   3
HETATM    3  C   UNL     1     -12.211  13.855  70.039  1.00  0.00    -0.344 C  
HETATM    4  C   UNL     1     -12.432  15.295  69.437  1.00  0.00    -0.037 C  
HETATM    5  O   UNL     1     -11.044  13.987  70.902  1.00  0.00    -0.194 OA 
HETATM    6  H   UNL     1     -10.314  14.129  70.311  1.00  0.00     0.000 HD 
HETATM    7  O   UNL     1     -11.438  15.760  68.648  1.00  0.00    -0.351 OA 
HETATM    8  O   UNL     1     -13.343  16.051  69.775  1.00  0.00     0.477 OA 
HETATM    9  C   UNL     1     -10.951  14.883  67.641  1.00  0.00    -0.300 C  
HETATM   10  C   UNL     1     -10.916  13.453  68.037  1.00  0.00    -0.265 C  
HETATM   11  C   UNL     1     -11.746  12.870  68.938  1.00  0.00    -0.370 C  
HETATM   12  C   UNL     1     -11.823  11.366  68.840  1.00  0.00    -0.413 C  
HETATM   13  C   UNL     1     -10.751  10.673  68.360  1.00  0.00    -0.222 C  
HETATM   14  N   UNL     1      -9.615  11.433  68.132  1.00  0.00    -0.183 N  
HETATM   15  C   UNL     1      -8.404  10.649  68.174  1.00  0.00    -0.121 C  
HETATM   16  C   UNL     1      -9.606  12.772  67.870  1.00  0.00    -0.211 C  
HETATM   17  C   UNL     1      -8.931   9.281  67.998  1.00  0.00    -0.128 A  
HETATM   18  O   UNL     1      -8.597  13.394  67.583  1.00  0.00    -0.167 OA 
HETATM   19  C   UNL     1      -8.185   8.150  67.775  1.00  0.00    -0.128 A  
HETATM   20  C   UNL     1      -8.828   6.958  67.469  1.00  0.00    -0.118 A  
HETATM   21  C   UNL     1     -10.236   7.031  67.250  1.00  0.00    -0.234 A  
HETATM   22  C   UNL     1     -10.781   5.876  66.662  1.00  0.00    -0.323 A  
HETATM   23  N   UNL     1     -10.992   8.165  67.571  1.00  0.00    -0.015 NA 
HETATM   24  C   UNL     1     -10.039   4.698  66.404  1.00  0.00    -0.289 A  
HETATM   25  C   UNL     1     -10.323   9.252  68.023  1.00  0.00    -0.221 A  
HETATM   26  C   UNL     1      -8.707   4.628  66.794  1.00  0.00    -0.111 A  
HETATM   27  C   UNL     1      -8.084   5.741  67.358  1.00  0.00    -0.102 A  
HETATM   28  O   UNL     1      -7.992   3.476  66.640  1.00  0.00    -0.087 OA 
HETATM   29  H   UNL     1      -7.081   3.428  66.907  1.00  0.00     0.000 HD 
BRANCH  27  30
HETATM   30  C   UNL     1      -6.672   5.607  67.935  1.00  0.00    -0.055 C  
BRANCH  30  31
HETATM   31  N   UNL     1      -6.605   4.647  69.064  1.00  0.00    -0.043 NA 
HETATM   32  C   UNL     1      -5.224   4.300  69.412  1.00  0.00    -0.007 C  
HETATM   33  C   UNL     1      -7.288   5.171  70.245  1.00  0.00    -0.062 C  
ENDBRANCH  30  31
ENDBRANCH  27  30
ENDBRANCH   2   3
TORSDOF 3
ENDMDL
MODEL       62
REMARK 921   NORMALIZED FREE ENERGY PREDICTED BY IDOCK:   -4.40 KCAL/MOL
REMARK 922        TOTAL FREE ENERGY PREDICTED BY IDOCK:   -5.81 KCAL/MOL
REMARK 923 INTER-LIGAND FREE ENERGY PREDICTED BY IDOCK:   -6.00 KCAL/MOL
REMARK 924 INTRA-LIGAND FREE ENERGY PREDICTED BY IDOCK:    0.18 KCAL/MOL
REMARK 927      BINDING AFFINITY PREDICTED BY RF-SCORE:    0.00 PKD
ROOT
HETATM    1  C   UNL     1     -11.200   3.879  73.558  1.00  0.00    -0.312 C  
HETATM    2  C   UNL     1     -10.327   3.594  72.353  1.00  0.00    -0.170 C  
ENDROOT
BRANCH   2   3
HETATM    3  C   UNL     1      -9.072   4.474  72.174  1.00  0.00    -0.126 C  
HETATM    4  C   UNL     1      -8.004   3.890  73.177  1.00  0.00    -0.087 C  
HETATM    5  O   UNL     1      -8.561   4.142  70.850  1.00  0.00    -0.074 OA 
HETATM    6  H   UNL     1      -7.788   4.683  70.740  1.00  0.00     0.000 HD 
HETATM    7  O   UNL     1      -6.771   4.440  73.106  1.00  0.00    -0.048 OA 
HETATM    8  O   UNL     1      -8.183   2.886  73.867  1.00  0.00    -0.070 OA 
HETATM    9  C   UNL     1      -6.698   5.859  73.092  1.00  0.00    -0.074 C  
HETATM   10  C   UNL     1      -7.801   6.523  72.354  1.00  0.00    -0.101 C  
HETATM   11  C   UNL     1      -9.053   6.023  72.200  1.00  0.00    -0.142 C  
HETATM   12  C   UNL     1     -10.097   7.045  71.822  1.00  0.00    -0.198 C  
HETATM   13  C   UNL     1      -9.721   8.156  71.125  1.00  0.00    -0.163 C  
HETATM   14  N   UNL     1      -8.402   8.165  70.703  1.00  0.00    -0.119 N  
HETATM   15  C   UNL     1      -8.192   9.013  69.555  1.00  0.00    -0.114 C  
HETATM   16  C   UNL     1      -7.383   7.480  71.297  1.00  0.00    -0.078 C  
HETATM   17  C   UNL     1      -9.398   9.865  69.591  1.00  0.00    -0.247 A  
HETATM   18  O   UNL     1      -6.216   7.583  70.958  1.00  0.00    -0.035 OA 
HETATM   19  C   UNL     1      -9.621  10.982  68.826  1.00  0.00    -0.194 A  
HETATM   20  C   UNL     1     -10.733  11.775  69.083  1.00  0.00    -0.169 A  
HETATM   21  C   UNL     1     -11.489  11.452  70.249  1.00  0.00    -0.151 A  
HETATM   22  C   UNL     1     -12.410  12.447  70.623  1.00  0.00    -0.367 A  
HETATM   23  N   UNL     1     -11.305  10.261  70.963  1.00  0.00    -0.301 NA 
HETATM   24  C   UNL     1     -12.656  13.617  69.866  1.00  0.00    -0.116 A  
HETATM   25  C   UNL     1     -10.303   9.444  70.562  1.00  0.00    -0.281 A  
HETATM   26  C   UNL     1     -12.008  13.797  68.650  1.00  0.00    -0.366 A  
HETATM   27  C   UNL     1     -11.057  12.870  68.221  1.00  0.00    -0.294 A  
HETATM   28  O   UNL     1     -12.291  14.869  67.856  1.00  0.00    -0.543 OA 
HETATM   29  H   UNL     1     -11.847  14.992  67.025  1.00  0.00     0.000 HD 
BRANCH  27  30
HETATM   30  C   UNL     1     -10.471  12.983  66.812  1.00  0.00    -0.259 C  
BRANCH  30  31
HETATM   31  N   UNL     1      -9.350  13.951  66.734  1.00  0.00    -0.269 NA 
HETATM   32  C   UNL     1      -9.662  15.089  65.866  1.00  0.00    -0.342 C  
HETATM   33  C   UNL     1      -8.981  14.439  68.062  1.00  0.00    -0.183 C  
ENDBRANCH  30  31
ENDBRANCH  27  30
ENDBRANCH   2   3
TORSDOF 3
ENDMDL
MODEL       63
REMARK 921   NORMALIZED FREE ENERGY PREDICTED BY IDOCK:   -4.34 KCAL/MOL
REMARK 922        TOTAL FREE ENERGY PREDICTED BY IDOCK:   -5.75 KCAL/MOL
REMARK 923 INTER-LIGAND FREE ENERGY PREDICTED BY IDOCK:   -5.17 KCAL/MOL
REMARK 924 INTRA-LIGAND FREE ENERGY PREDICTED BY IDOCK:   -0.58 KCAL/MOL
REMARK 927      BINDING AFFINITY PREDICTED BY RF-SCORE:    0.00 PKD
ROOT
HETATM    1  C   UNL     1      -9.326   5.451  71.574  1.00  0.00    -0.177 C  
HETATM    2  C   UNL     1      -9.906   4.770  70.351  1.00  0.00    -0.309 C  
ENDROOT
BRANCH   2   3
HETATM    3  C   UNL     1      -9.182   5.006  69.009  1.00  0.00    -0.114 C  
HETATM    4  C   UNL     1      -8.191   3.791  68.847  1.00  0.00    -0.072 C  
HETATM    5  O   UNL     1     -10.199   4.797  67.987  1.00  0.00    -0.092 OA 
HETATM    6  H   UNL     1      -9.753   4.942  67.161  1.00  0.00     0.000 HD 
HETATM    7  O   UNL     1      -7.528   3.726  67.672  1.00  0.00    -0.066 OA 
HETATM    8  O   UNL     1      -8.126   2.845  69.634  1.00  0.00    -0.045 OA 
HETATM    9  C   UNL     1      -6.907   4.921  67.216  1.00  0.00    -0.056 C  
HETATM   10  C   UNL     1      -7.662   6.161  67.524  1.00  0.00    -0.097 C  
HETATM   11  C   UNL     1      -8.495   6.328  68.582  1.00  0.00    -0.122 C  
HETATM   12  C   UNL     1      -8.782   7.767  68.936  1.00  0.00    -0.135 C  
HETATM   13  C   UNL     1      -8.729   8.717  67.960  1.00  0.00    -0.141 C  
HETATM   14  N   UNL     1      -8.547   8.230  66.676  1.00  0.00    -0.125 N  
HETATM   15  C   UNL     1      -9.039   9.133  65.664  1.00  0.00    -0.219 C  
HETATM   16  C   UNL     1      -7.951   7.043  66.364  1.00  0.00    -0.109 C  
HETATM   17  C   UNL     1      -9.124  10.402  66.415  1.00  0.00    -0.177 A  
HETATM   18  O   UNL     1      -7.722   6.685  65.221  1.00  0.00    -0.086 OA 
HETATM   19  C   UNL     1      -9.361  11.643  65.879  1.00  0.00    -0.232 A  
HETATM   20  C   UNL     1      -9.255  12.767  66.689  1.00  0.00    -0.212 A  
HETATM   21  C   UNL     1      -8.742  12.559  68.003  1.00  0.00    -0.186 A  
HETATM   22  C   UNL     1      -8.378  13.744  68.667  1.00  0.00    -0.067 A  
HETATM   23  N   UNL     1      -8.593  11.283  68.563  1.00  0.00    -0.154 NA 
HETATM   24  C   UNL     1      -8.595  15.040  68.139  1.00  0.00    -0.156 A  
HETATM   25  C   UNL     1      -8.870  10.221  67.772  1.00  0.00    -0.125 A  
HETATM   26  C   UNL     1      -9.252  15.185  66.924  1.00  0.00    -0.238 A  
HETATM   27  C   UNL     1      -9.620  14.057  66.189  1.00  0.00    -0.263 A  
HETATM   28  O   UNL     1      -9.555  16.421  66.434  1.00  0.00    -0.254 OA 
HETATM   29  H   UNL     1     -10.005  16.520  65.602  1.00  0.00     0.000 HD 
BRANCH  27  30
HETATM   30  C   UNL     1     -10.487  14.218  64.939  1.00  0.00    -0.430 C  
BRANCH  30  31
HETATM   31  N   UNL     1     -11.896  14.556  65.259  1.00  0.00    -0.362 NA 
HETATM   32  C   UNL     1     -12.520  15.369  64.212  1.00  0.00     0.066 C  
HETATM   33  C   UNL     1     -12.692  13.350  65.479  1.00  0.00    -0.410 C  
ENDBRANCH  30  31
ENDBRANCH  27  30
ENDBRANCH   2   3
TORSDOF 3
ENDMDL
MODEL       64
REMARK 921   NORMALIZED FREE ENERGY PREDICTED BY IDOCK:   -4.29 KCAL/MOL
REMARK 922        TOTAL FREE ENERGY PREDICTED BY IDOCK:   -5.69 KCAL/MOL
REMARK 923 INTER-LIGAND FREE ENERGY PREDICTED BY IDOCK:   -5.28 KCAL/MOL
REMARK 924 INTRA-LIGAND FREE ENERGY PREDICTED BY IDOCK:   -0.41 KCAL/MOL
REMARK 927      BINDING AFFINITY PREDICTED BY RF-SCORE:    0.00 PKD
ROOT
HETATM    1  C   UNL     1      -6.534   4.886  71.160  1.00  0.00    -0.023 C  
HETATM    2  C   UNL     1      -8.032   4.719  71.320  1.00  0.00    -0.096 C  
ENDROOT
BRANCH   2   3
HETATM    3  C   UNL     1      -8.902   4.984  70.073  1.00  0.00    -0.102 C  
HETATM    4  C   UNL     1      -8.957   3.610  69.301  1.00  0.00    -0.116 C  
HETATM    5  O   UNL     1     -10.252   5.177  70.587  1.00  0.00    -0.237 OA 
HETATM    6  H   UNL     1     -10.788   5.340  69.819  1.00  0.00     0.000 HD 
HETATM    7  O   UNL     1      -9.773   3.575  68.224  1.00  0.00    -0.130 OA 
HETATM    8  O   UNL     1      -8.452   2.566  69.715  1.00  0.00    -0.044 OA 
HETATM    9  C   UNL     1      -9.664   4.648  67.298  1.00  0.00    -0.185 C  
HETATM   10  C   UNL     1      -9.382   5.967  67.916  1.00  0.00    -0.107 C  
HETATM   11  C   UNL     1      -8.712   6.158  69.080  1.00  0.00    -0.121 C  
HETATM   12  C   UNL     1      -8.165   7.552  69.269  1.00  0.00    -0.130 C  
HETATM   13  C   UNL     1      -8.794   8.603  68.669  1.00  0.00    -0.142 C  
HETATM   14  N   UNL     1      -9.989   8.290  68.041  1.00  0.00    -0.177 N  
HETATM   15  C   UNL     1     -10.868   9.428  67.922  1.00  0.00    -0.154 C  
HETATM   16  C   UNL     1     -10.321   7.060  67.556  1.00  0.00    -0.225 C  
HETATM   17  C   UNL     1      -9.929  10.550  68.122  1.00  0.00    -0.172 A  
HETATM   18  O   UNL     1     -11.342   6.839  66.926  1.00  0.00    -0.318 OA 
HETATM   19  C   UNL     1     -10.206  11.880  67.924  1.00  0.00    -0.203 A  
HETATM   20  C   UNL     1      -9.176  12.809  67.999  1.00  0.00    -0.208 A  
HETATM   21  C   UNL     1      -7.854  12.287  68.121  1.00  0.00    -0.148 A  
HETATM   22  C   UNL     1      -6.843  13.238  67.896  1.00  0.00    -0.140 A  
HETATM   23  N   UNL     1      -7.598  10.942  68.415  1.00  0.00    -0.098 NA 
HETATM   24  C   UNL     1      -7.092  14.614  67.674  1.00  0.00    -0.203 A  
HETATM   25  C   UNL     1      -8.661  10.108  68.492  1.00  0.00    -0.118 A  
HETATM   26  C   UNL     1      -8.395  15.094  67.732  1.00  0.00    -0.151 A  
HETATM   27  C   UNL     1      -9.457  14.210  67.922  1.00  0.00    -0.211 A  
HETATM   28  O   UNL     1      -8.657  16.427  67.612  1.00  0.00    -0.172 OA 
HETATM   29  H   UNL     1      -9.548  16.755  67.651  1.00  0.00     0.000 HD 
BRANCH  27  30
HETATM   30  C   UNL     1     -10.867  14.760  68.151  1.00  0.00    -0.254 C  
BRANCH  30  31
HETATM   31  N   UNL     1     -11.232  14.821  69.587  1.00  0.00    -0.266 NA 
HETATM   32  C   UNL     1     -11.271  16.196  70.089  1.00  0.00    -0.370 C  
HETATM   33  C   UNL     1     -12.521  14.176  69.833  1.00  0.00    -0.260 C  
ENDBRANCH  30  31
ENDBRANCH  27  30
ENDBRANCH   2   3
TORSDOF 3
ENDMDL
MODEL       65
REMARK 921   NORMALIZED FREE ENERGY PREDICTED BY IDOCK:   -4.24 KCAL/MOL
REMARK 922        TOTAL FREE ENERGY PREDICTED BY IDOCK:   -5.63 KCAL/MOL
REMARK 923 INTER-LIGAND FREE ENERGY PREDICTED BY IDOCK:   -5.35 KCAL/MOL
REMARK 924 INTRA-LIGAND FREE ENERGY PREDICTED BY IDOCK:   -0.29 KCAL/MOL
REMARK 927      BINDING AFFINITY PREDICTED BY RF-SCORE:    0.00 PKD
ROOT
HETATM    1  C   UNL     1     -11.208   6.098  67.859  1.00  0.00    -0.137 C  
HETATM    2  C   UNL     1     -10.401   5.971  66.582  1.00  0.00    -0.264 C  
ENDROOT
BRANCH   2   3
HETATM    3  C   UNL     1      -9.066   6.743  66.519  1.00  0.00    -0.151 C  
HETATM    4  C   UNL     1      -7.947   5.671  66.807  1.00  0.00    -0.102 C  
HETATM    5  O   UNL     1      -8.896   7.092  65.114  1.00  0.00    -0.367 OA 
HETATM    6  H   UNL     1      -8.074   7.567  65.075  1.00  0.00     0.000 HD 
HETATM    7  O   UNL     1      -6.673   6.105  66.684  1.00  0.00    -0.056 OA 
HETATM    8  O   UNL     1      -8.167   4.469  66.960  1.00  0.00    -0.102 OA 
HETATM    9  C   UNL     1      -6.346   7.331  67.324  1.00  0.00    -0.054 C  
HETATM   10  C   UNL     1      -7.432   8.343  67.305  1.00  0.00    -0.093 C  
HETATM   11  C   UNL     1      -8.759   8.065  67.268  1.00  0.00    -0.132 C  
HETATM   12  C   UNL     1      -9.653   9.199  67.706  1.00  0.00    -0.173 C  
HETATM   13  C   UNL     1      -9.225  10.484  67.546  1.00  0.00    -0.142 C  
HETATM   14  N   UNL     1      -8.036  10.625  66.850  1.00  0.00    -0.120 N  
HETATM   15  C   UNL     1      -7.905  11.921  66.229  1.00  0.00     0.281 C  
HETATM   16  C   UNL     1      -7.062   9.673  66.759  1.00  0.00    -0.086 C  
HETATM   17  C   UNL     1      -8.903  12.710  66.978  1.00  0.00    -0.212 A  
HETATM   18  O   UNL     1      -5.986   9.861  66.216  1.00  0.00    -0.060 OA 
HETATM   19  C   UNL     1      -9.065  14.072  66.920  1.00  0.00    -0.262 A  
HETATM   20  C   UNL     1      -9.940  14.693  67.803  1.00  0.00    -0.224 A  
HETATM   21  C   UNL     1     -10.497  13.875  68.829  1.00  0.00    -0.221 A  
HETATM   22  C   UNL     1     -11.128  14.600  69.855  1.00  0.00    -0.238 A  
HETATM   23  N   UNL     1     -10.397  12.478  68.819  1.00  0.00    -0.169 NA 
HETATM   24  C   UNL     1     -11.300  16.005  69.836  1.00  0.00    -0.340 A  
HETATM   25  C   UNL     1      -9.661  11.914  67.834  1.00  0.00    -0.193 A  
HETATM   26  C   UNL     1     -10.883  16.732  68.728  1.00  0.00    -0.318 A  
HETATM   27  C   UNL     1     -10.222  16.091  67.680  1.00  0.00    -0.262 A  
HETATM   28  O   UNL     1     -11.116  18.073  68.640  1.00  0.00    -0.089 OA 
HETATM   29  H   UNL     1     -10.830  18.570  67.883  1.00  0.00     0.000 HD 
BRANCH  27  30
HETATM   30  C   UNL     1      -9.914  16.862  66.394  1.00  0.00    -0.309 C  
BRANCH  30  31
HETATM   31  N   UNL     1      -9.243  18.159  66.651  1.00  0.00    -0.283 NA 
HETATM   32  C   UNL     1      -7.826  18.132  66.277  1.00  0.00    -0.245 C  
HETATM   33  C   UNL     1      -9.912  19.250  65.945  1.00  0.00    -0.223 C  
ENDBRANCH  30  31
ENDBRANCH  27  30
ENDBRANCH   2   3
TORSDOF 3
ENDMDL
MODEL       66
REMARK 921   NORMALIZED FREE ENERGY PREDICTED BY IDOCK:   -4.09 KCAL/MOL
REMARK 922        TOTAL FREE ENERGY PREDICTED BY IDOCK:   -5.45 KCAL/MOL
REMARK 923 INTER-LIGAND FREE ENERGY PREDICTED BY IDOCK:   -4.81 KCAL/MOL
REMARK 924 INTRA-LIGAND FREE ENERGY PREDICTED BY IDOCK:   -0.64 KCAL/MOL
REMARK 927      BINDING AFFINITY PREDICTED BY RF-SCORE:    0.00 PKD
ROOT
HETATM    1  C   UNL     1     -12.229  14.399  69.290  1.00  0.00    -0.274 C  
HETATM    2  C   UNL     1     -11.580  15.683  68.814  1.00  0.00    -0.393 C  
ENDROOT
BRANCH   2   3
HETATM    3  C   UNL     1     -10.043  15.682  68.683  1.00  0.00    -0.210 C  
HETATM    4  C   UNL     1      -9.625  17.201  68.626  1.00  0.00    -0.281 C  
HETATM    5  O   UNL     1      -9.552  15.208  69.971  1.00  0.00    -0.469 OA 
HETATM    6  H   UNL     1      -8.605  15.208  69.890  1.00  0.00     0.000 HD 
HETATM    7  O   UNL     1      -8.296  17.445  68.629  1.00  0.00    -0.270 OA 
HETATM    8  O   UNL     1     -10.416  18.138  68.749  1.00  0.00    -0.310 OA 
HETATM    9  C   UNL     1      -7.500  16.690  67.726  1.00  0.00    -0.155 C  
HETATM   10  C   UNL     1      -7.952  15.289  67.533  1.00  0.00    -0.197 C  
HETATM   11  C   UNL     1      -9.232  14.856  67.652  1.00  0.00    -0.187 C  
HETATM   12  C   UNL     1      -9.513  13.533  66.984  1.00  0.00    -0.251 C  
HETATM   13  C   UNL     1      -8.502  12.628  66.844  1.00  0.00    -0.116 C  
HETATM   14  N   UNL     1      -7.317  12.971  67.474  1.00  0.00    -0.152 N  
HETATM   15  C   UNL     1      -6.500  11.823  67.786  1.00  0.00    -0.075 C  
HETATM   16  C   UNL     1      -6.921  14.245  67.761  1.00  0.00    -0.177 C  
HETATM   17  C   UNL     1      -7.078  10.798  66.893  1.00  0.00    -0.114 A  
HETATM   18  O   UNL     1      -5.830  14.520  68.232  1.00  0.00    -0.098 OA 
HETATM   19  C   UNL     1      -6.554   9.553  66.647  1.00  0.00    -0.068 A  
HETATM   20  C   UNL     1      -7.122   8.757  65.660  1.00  0.00    -0.083 A  
HETATM   21  C   UNL     1      -8.128   9.364  64.853  1.00  0.00    -0.128 A  
HETATM   22  C   UNL     1      -8.453   8.628  63.699  1.00  0.00    -0.070 A  
HETATM   23  N   UNL     1      -8.715  10.595  65.174  1.00  0.00    -0.190 NA 
HETATM   24  C   UNL     1      -7.922   7.349  63.405  1.00  0.00    -0.078 A  
HETATM   25  C   UNL     1      -8.226  11.255  66.250  1.00  0.00    -0.126 A  
HETATM   26  C   UNL     1      -7.071   6.735  64.316  1.00  0.00    -0.061 A  
HETATM   27  C   UNL     1      -6.677   7.410  65.471  1.00  0.00    -0.048 A  
HETATM   28  O   UNL     1      -6.615   5.467  64.103  1.00  0.00    -0.039 OA 
HETATM   29  H   UNL     1      -6.033   5.047  64.726  1.00  0.00     0.000 HD 
BRANCH  27  30
HETATM   30  C   UNL     1      -5.878   6.670  66.546  1.00  0.00    -0.021 C  
BRANCH  30  31
HETATM   31  N   UNL     1      -6.570   5.453  67.037  1.00  0.00    -0.051 NA 
HETATM   32  C   UNL     1      -5.666   4.559  67.765  1.00  0.00    -0.021 C  
HETATM   33  C   UNL     1      -7.705   5.799  67.891  1.00  0.00    -0.097 C  
ENDBRANCH  30  31
ENDBRANCH  27  30
ENDBRANCH   2   3
TORSDOF 3
ENDMDL
MODEL       67
REMARK 921   NORMALIZED FREE ENERGY PREDICTED BY IDOCK:   -3.98 KCAL/MOL
REMARK 922        TOTAL FREE ENERGY PREDICTED BY IDOCK:   -5.33 KCAL/MOL
REMARK 923 INTER-LIGAND FREE ENERGY PREDICTED BY IDOCK:   -4.84 KCAL/MOL
REMARK 924 INTRA-LIGAND FREE ENERGY PREDICTED BY IDOCK:   -0.49 KCAL/MOL
REMARK 927      BINDING AFFINITY PREDICTED BY RF-SCORE:    0.00 PKD
ROOT
HETATM    1  C   UNL     1     -10.465   4.123  64.931  1.00  0.00    -0.193 C  
HETATM    2  C   UNL     1      -9.902   3.846  66.310  1.00  0.00    -0.131 C  
ENDROOT
BRANCH   2   3
HETATM    3  C   UNL     1      -8.620   4.608  66.708  1.00  0.00    -0.108 C  
HETATM    4  C   UNL     1      -7.668   3.524  67.344  1.00  0.00    -0.078 C  
HETATM    5  O   UNL     1      -7.985   4.967  65.447  1.00  0.00    -0.103 OA 
HETATM    6  H   UNL     1      -7.196   5.436  65.692  1.00  0.00     0.000 HD 
HETATM    7  O   UNL     1      -6.425   3.948  67.662  1.00  0.00    -0.036 OA 
HETATM    8  O   UNL     1      -7.933   2.322  67.401  1.00  0.00    -0.064 OA 
HETATM    9  C   UNL     1      -6.326   5.166  68.388  1.00  0.00    -0.036 C  
HETATM   10  C   UNL     1      -7.338   6.186  68.017  1.00  0.00    -0.088 C  
HETATM   11  C   UNL     1      -8.576   5.920  67.531  1.00  0.00    -0.102 C  
HETATM   12  C   UNL     1      -9.559   7.058  67.656  1.00  0.00    -0.151 C  
HETATM   13  C   UNL     1      -9.096   8.341  67.664  1.00  0.00    -0.131 C  
HETATM   14  N   UNL     1      -7.741   8.478  67.410  1.00  0.00    -0.097 N  
HETATM   15  C   UNL     1      -7.403   9.778  66.884  1.00  0.00    -0.091 C  
HETATM   16  C   UNL     1      -6.799   7.519  67.642  1.00  0.00    -0.071 C  
HETATM   17  C   UNL     1      -8.591  10.569  67.263  1.00  0.00    -0.122 A  
HETATM   18  O   UNL     1      -5.602   7.702  67.495  1.00  0.00    -0.033 OA 
HETATM   19  C   UNL     1      -8.717  11.933  67.169  1.00  0.00    -0.176 A  
HETATM   20  C   UNL     1      -9.835  12.553  67.712  1.00  0.00    -0.204 A  
HETATM   21  C   UNL     1     -10.709  11.731  68.482  1.00  0.00    -0.220 A  
HETATM   22  C   UNL     1     -11.645  12.452  69.244  1.00  0.00    -0.379 A  
HETATM   23  N   UNL     1     -10.619  10.333  68.491  1.00  0.00    -0.200 NA 
HETATM   24  C   UNL     1     -11.794  13.859  69.183  1.00  0.00    -0.401 A  
HETATM   25  C   UNL     1      -9.596   9.771  67.804  1.00  0.00    -0.135 A  
HETATM   26  C   UNL     1     -11.024  14.591  68.289  1.00  0.00    -0.247 A  
HETATM   27  C   UNL     1     -10.052  13.954  67.517  1.00  0.00    -0.244 A  
HETATM   28  O   UNL     1     -11.207  15.935  68.143  1.00  0.00    -0.338 OA 
HETATM   29  H   UNL     1     -10.680  16.436  67.531  1.00  0.00     0.000 HD 
BRANCH  27  30
HETATM   30  C   UNL     1      -9.326  14.734  66.418  1.00  0.00    -0.291 C  
BRANCH  30  31
HETATM   31  N   UNL     1      -8.274  15.633  66.954  1.00  0.00    -0.232 NA 
HETATM   32  C   UNL     1      -7.039  14.911  67.269  1.00  0.00    -0.068 C  
HETATM   33  C   UNL     1      -7.979  16.717  66.019  1.00  0.00    -0.075 C  
ENDBRANCH  30  31
ENDBRANCH  27  30
ENDBRANCH   2   3
TORSDOF 3
ENDMDL
MODEL       68
REMARK 921   NORMALIZED FREE ENERGY PREDICTED BY IDOCK:   -3.85 KCAL/MOL
REMARK 922        TOTAL FREE ENERGY PREDICTED BY IDOCK:   -5.17 KCAL/MOL
REMARK 923 INTER-LIGAND FREE ENERGY PREDICTED BY IDOCK:   -5.47 KCAL/MOL
REMARK 924 INTRA-LIGAND FREE ENERGY PREDICTED BY IDOCK:    0.31 KCAL/MOL
REMARK 927      BINDING AFFINITY PREDICTED BY RF-SCORE:    0.00 PKD
ROOT
HETATM    1  C   UNL     1     -12.187  14.069  65.677  1.00  0.00    -0.462 C  
HETATM    2  C   UNL     1     -11.057  15.073  65.570  1.00  0.00    -0.358 C  
ENDROOT
BRANCH   2   3
HETATM    3  C   UNL     1      -9.835  14.851  66.486  1.00  0.00    -0.266 C  
HETATM    4  C   UNL     1      -8.963  16.157  66.346  1.00  0.00    -0.318 C  
HETATM    5  O   UNL     1     -10.365  14.900  67.843  1.00  0.00    -0.234 OA 
HETATM    6  H   UNL     1      -9.612  14.764  68.407  1.00  0.00     0.000 HD 
HETATM    7  O   UNL     1      -7.889  16.236  67.161  1.00  0.00    -0.156 OA 
HETATM    8  O   UNL     1      -9.297  17.141  65.685  1.00  0.00    -0.515 OA 
HETATM    9  C   UNL     1      -7.044  15.094  67.226  1.00  0.00    -0.126 C  
HETATM   10  C   UNL     1      -7.759  13.796  67.136  1.00  0.00     0.009 C  
HETATM   11  C   UNL     1      -8.932  13.592  66.487  1.00  0.00    -0.068 C  
HETATM   12  C   UNL     1      -9.223  12.150  66.151  1.00  0.00    -0.155 C  
HETATM   13  C   UNL     1      -8.704  11.164  66.938  1.00  0.00    -0.152 C  
HETATM   14  N   UNL     1      -8.057  11.605  68.081  1.00  0.00    -0.140 N  
HETATM   15  C   UNL     1      -8.025  10.606  69.122  1.00  0.00    -0.139 C  
HETATM   16  C   UNL     1      -7.482  12.833  68.233  1.00  0.00    -0.124 C  
HETATM   17  C   UNL     1      -8.306   9.374  68.358  1.00  0.00    -0.119 A  
HETATM   18  O   UNL     1      -6.840  13.158  69.217  1.00  0.00    -0.098 OA 
HETATM   19  C   UNL     1      -8.207   8.090  68.833  1.00  0.00    -0.125 A  
HETATM   20  C   UNL     1      -8.349   7.025  67.952  1.00  0.00    -0.118 A  
HETATM   21  C   UNL     1      -8.429   7.350  66.566  1.00  0.00    -0.128 A  
HETATM   22  C   UNL     1      -8.273   6.245  65.711  1.00  0.00    -0.136 A  
HETATM   23  N   UNL     1      -8.622   8.660  66.108  1.00  0.00    -0.134 NA 
HETATM   24  C   UNL     1      -8.154   4.909  66.165  1.00  0.00    -0.107 A  
HETATM   25  C   UNL     1      -8.638   9.647  67.033  1.00  0.00    -0.128 A  
HETATM   26  C   UNL     1      -8.250   4.636  67.524  1.00  0.00    -0.101 A  
HETATM   27  C   UNL     1      -8.377   5.680  68.440  1.00  0.00    -0.106 A  
HETATM   28  O   UNL     1      -8.230   3.352  67.984  1.00  0.00    -0.078 OA 
HETATM   29  H   UNL     1      -8.296   3.165  68.913  1.00  0.00     0.000 HD 
BRANCH  27  30
HETATM   30  C   UNL     1      -8.649   5.366  69.914  1.00  0.00    -0.107 C  
BRANCH  30  31
HETATM   31  N   UNL     1     -10.097   5.332  70.234  1.00  0.00    -0.237 NA 
HETATM   32  C   UNL     1     -10.395   5.982  71.512  1.00  0.00    -0.214 C  
HETATM   33  C   UNL     1     -10.887   5.955  69.174  1.00  0.00    -0.336 C  
ENDBRANCH  30  31
ENDBRANCH  27  30
ENDBRANCH   2   3
TORSDOF 3
ENDMDL
MODEL       69
REMARK 921   NORMALIZED FREE ENERGY PREDICTED BY IDOCK:   -3.66 KCAL/MOL
REMARK 922        TOTAL FREE ENERGY PREDICTED BY IDOCK:   -4.95 KCAL/MOL
REMARK 923 INTER-LIGAND FREE ENERGY PREDICTED BY IDOCK:   -4.90 KCAL/MOL
REMARK 924 INTRA-LIGAND FREE ENERGY PREDICTED BY IDOCK:   -0.05 KCAL/MOL
REMARK 927      BINDING AFFINITY PREDICTED BY RF-SCORE:    0.00 PKD
ROOT
HETATM    1  C   UNL     1      -7.002   8.339  72.943  1.00  0.00    -0.124 C  
HETATM    2  C   UNL     1      -7.990   7.205  72.757  1.00  0.00    -0.116 C  
ENDROOT
BRANCH   2   3
HETATM    3  C   UNL     1      -8.543   6.986  71.333  1.00  0.00    -0.121 C  
HETATM    4  C   UNL     1      -8.182   5.496  70.966  1.00  0.00    -0.120 C  
HETATM    5  O   UNL     1      -9.993   6.992  71.484  1.00  0.00    -0.181 OA 
HETATM    6  H   UNL     1     -10.333   6.858  70.607  1.00  0.00     0.000 HD 
HETATM    7  O   UNL     1      -8.679   5.043  69.794  1.00  0.00    -0.089 OA 
HETATM    8  O   UNL     1      -7.641   4.707  71.742  1.00  0.00    -0.085 OA 
HETATM    9  C   UNL     1      -8.507   5.877  68.656  1.00  0.00    -0.111 C  
HETATM   10  C   UNL     1      -8.605   7.331  68.940  1.00  0.00    -0.129 C  
HETATM   11  C   UNL     1      -8.294   7.920  70.122  1.00  0.00    -0.127 C  
HETATM   12  C   UNL     1      -8.039   9.405  70.036  1.00  0.00    -0.159 C  
HETATM   13  C   UNL     1      -8.652  10.131  69.058  1.00  0.00    -0.156 C  
HETATM   14  N   UNL     1      -9.582   9.434  68.304  1.00  0.00    -0.141 N  
HETATM   15  C   UNL     1     -10.570  10.297  67.703  1.00  0.00    -0.263 C  
HETATM   16  C   UNL     1      -9.581   8.083  68.111  1.00  0.00    -0.153 C  
HETATM   17  C   UNL     1      -9.902  11.612  67.783  1.00  0.00    -0.186 A  
HETATM   18  O   UNL     1     -10.359   7.510  67.367  1.00  0.00    -0.221 OA 
HETATM   19  C   UNL     1     -10.325  12.770  67.180  1.00  0.00    -0.237 A  
HETATM   20  C   UNL     1      -9.508  13.893  67.212  1.00  0.00    -0.239 A  
HETATM   21  C   UNL     1      -8.197  13.712  67.743  1.00  0.00    -0.179 A  
HETATM   22  C   UNL     1      -7.325  14.785  67.484  1.00  0.00    -0.225 A  
HETATM   23  N   UNL     1      -7.815  12.556  68.435  1.00  0.00    -0.143 NA 
HETATM   24  C   UNL     1      -7.722  15.988  66.852  1.00  0.00    -0.279 A  
HETATM   25  C   UNL     1      -8.717  11.550  68.512  1.00  0.00    -0.138 A  
HETATM   26  C   UNL     1      -9.055  16.173  66.506  1.00  0.00    -0.277 A  
HETATM   27  C   UNL     1      -9.978  15.145  66.704  1.00  0.00    -0.261 A  
HETATM   28  O   UNL     1      -9.485  17.355  65.979  1.00  0.00    -0.473 OA 
HETATM   29  H   UNL     1     -10.396  17.482  65.743  1.00  0.00     0.000 HD 
BRANCH  27  30
HETATM   30  C   UNL     1     -11.468  15.413  66.478  1.00  0.00    -0.015 C  
BRANCH  30  31
HETATM   31  N   UNL     1     -11.980  14.785  65.235  1.00  0.00    -0.288 NA 
HETATM   32  C   UNL     1     -13.370  14.341  65.373  1.00  0.00     0.404 C  
HETATM   33  C   UNL     1     -11.871  15.699  64.099  1.00  0.00    -0.068 C  
ENDBRANCH  30  31
ENDBRANCH  27  30
ENDBRANCH   2   3
TORSDOF 3
ENDMDL
MODEL       70
REMARK 921   NORMALIZED FREE ENERGY PREDICTED BY IDOCK:   -3.65 KCAL/MOL
REMARK 922        TOTAL FREE ENERGY PREDICTED BY IDOCK:   -4.94 KCAL/MOL
REMARK 923 INTER-LIGAND FREE ENERGY PREDICTED BY IDOCK:   -4.45 KCAL/MOL
REMARK 924 INTRA-LIGAND FREE ENERGY PREDICTED BY IDOCK:   -0.49 KCAL/MOL
REMARK 927      BINDING AFFINITY PREDICTED BY RF-SCORE:    0.00 PKD
ROOT
HETATM    1  C   UNL     1     -11.411  16.564  66.661  1.00  0.00     0.548 C  
HETATM    2  C   UNL     1     -10.492  17.239  67.660  1.00  0.00    -0.363 C  
ENDROOT
BRANCH   2   3
HETATM    3  C   UNL     1      -9.113  16.588  67.893  1.00  0.00    -0.206 C  
HETATM    4  C   UNL     1      -8.063  17.601  67.295  1.00  0.00    -0.209 C  
HETATM    5  O   UNL     1      -8.906  16.643  69.334  1.00  0.00    -0.103 OA 
HETATM    6  H   UNL     1      -8.057  16.242  69.478  1.00  0.00     0.000 HD 
HETATM    7  O   UNL     1      -6.765  17.287  67.496  1.00  0.00    -0.140 OA 
HETATM    8  O   UNL     1      -8.358  18.703  66.829  1.00  0.00    -0.262 OA 
HETATM    9  C   UNL     1      -6.371  15.953  67.202  1.00  0.00    -0.024 C  
HETATM   10  C   UNL     1      -7.394  14.927  67.523  1.00  0.00    -0.229 C  
HETATM   11  C   UNL     1      -8.736  15.132  67.521  1.00  0.00    -0.188 C  
HETATM   12  C   UNL     1      -9.564  13.873  67.430  1.00  0.00    -0.235 C  
HETATM   13  C   UNL     1      -9.058  12.705  67.919  1.00  0.00    -0.200 C  
HETATM   14  N   UNL     1      -7.854  12.824  68.595  1.00  0.00    -0.090 N  
HETATM   15  C   UNL     1      -7.638  11.754  69.539  1.00  0.00     0.426 C  
HETATM   16  C   UNL     1      -6.939  13.817  68.398  1.00  0.00    -0.103 C  
HETATM   17  C   UNL     1      -8.596  10.738  69.058  1.00  0.00    -0.143 A  
HETATM   18  O   UNL     1      -5.847  13.842  68.942  1.00  0.00    -0.079 OA 
HETATM   19  C   UNL     1      -8.674   9.436  69.486  1.00  0.00    -0.162 A  
HETATM   20  C   UNL     1      -9.520   8.552  68.828  1.00  0.00    -0.143 A  
HETATM   21  C   UNL     1     -10.138   9.029  67.635  1.00  0.00    -0.216 A  
HETATM   22  C   UNL     1     -10.736   8.019  66.860  1.00  0.00    -0.201 A  
HETATM   23  N   UNL     1     -10.122  10.380  67.264  1.00  0.00    -0.191 NA 
HETATM   24  C   UNL     1     -10.823   6.665  67.263  1.00  0.00    -0.456 A  
HETATM   25  C   UNL     1      -9.410  11.230  68.040  1.00  0.00    -0.166 A  
HETATM   26  C   UNL     1     -10.349   6.290  68.514  1.00  0.00    -0.203 A  
HETATM   27  C   UNL     1      -9.716   7.227  69.332  1.00  0.00    -0.161 A  
HETATM   28  O   UNL     1     -10.500   5.012  68.967  1.00  0.00    -0.144 OA 
HETATM   29  H   UNL     1     -10.176   4.756  69.823  1.00  0.00     0.000 HD 
BRANCH  27  30
HETATM   30  C   UNL     1      -9.348   6.851  70.769  1.00  0.00    -0.161 C  
BRANCH  30  31
HETATM   31  N   UNL     1     -10.531   6.483  71.586  1.00  0.00    -0.211 NA 
HETATM   32  C   UNL     1     -10.152   5.878  72.865  1.00  0.00    -0.181 C  
HETATM   33  C   UNL     1     -11.387   7.643  71.829  1.00  0.00    -0.255 C  
ENDBRANCH  30  31
ENDBRANCH  27  30
ENDBRANCH   2   3
TORSDOF 3
ENDMDL
MODEL       71
REMARK 921   NORMALIZED FREE ENERGY PREDICTED BY IDOCK:   -3.59 KCAL/MOL
REMARK 922        TOTAL FREE ENERGY PREDICTED BY IDOCK:   -4.86 KCAL/MOL
REMARK 923 INTER-LIGAND FREE ENERGY PREDICTED BY IDOCK:   -4.91 KCAL/MOL
REMARK 924 INTRA-LIGAND FREE ENERGY PREDICTED BY IDOCK:    0.05 KCAL/MOL
REMARK 927      BINDING AFFINITY PREDICTED BY RF-SCORE:    0.00 PKD
ROOT
HETATM    1  C   UNL     1     -11.400  13.323  69.040  1.00  0.00    -0.334 C  
HETATM    2  C   UNL     1     -12.627  12.594  69.549  1.00  0.00     0.399 C  
ENDROOT
BRANCH   2   3
HETATM    3  C   UNL     1     -12.427  11.143  70.037  1.00  0.00    -0.223 C  
HETATM    4  C   UNL     1     -12.722  11.176  71.585  1.00  0.00    -0.360 C  
HETATM    5  O   UNL     1     -13.535  10.393  69.461  1.00  0.00    -0.090 OA 
HETATM    6  H   UNL     1     -13.412   9.500  69.762  1.00  0.00     0.000 HD 
HETATM    7  O   UNL     1     -12.722   9.977  72.208  1.00  0.00    -0.318 OA 
HETATM    8  O   UNL     1     -13.108  12.176  72.191  1.00  0.00    -0.434 OA 
HETATM    9  C   UNL     1     -11.625   9.113  71.943  1.00  0.00    -0.360 C  
HETATM   10  C   UNL     1     -11.118   9.175  70.549  1.00  0.00    -0.308 C  
HETATM   11  C   UNL     1     -11.189  10.261  69.738  1.00  0.00    -0.339 C  
HETATM   12  C   UNL     1     -10.231  10.237  68.572  1.00  0.00    -0.192 C  
HETATM   13  C   UNL     1      -9.828   9.038  68.064  1.00  0.00    -0.166 C  
HETATM   14  N   UNL     1     -10.465   7.930  68.599  1.00  0.00    -0.194 N  
HETATM   15  C   UNL     1     -10.448   6.795  67.708  1.00  0.00    -0.222 C  
HETATM   16  C   UNL     1     -11.035   7.874  69.837  1.00  0.00    -0.178 C  
HETATM   17  C   UNL     1      -9.361   7.164  66.779  1.00  0.00    -0.199 A  
HETATM   18  O   UNL     1     -11.507   6.856  70.315  1.00  0.00    -0.311 OA 
HETATM   19  C   UNL     1      -8.794   6.346  65.834  1.00  0.00    -0.142 A  
HETATM   20  C   UNL     1      -7.671   6.781  65.141  1.00  0.00    -0.105 A  
HETATM   21  C   UNL     1      -7.085   8.003  65.581  1.00  0.00    -0.063 A  
HETATM   22  C   UNL     1      -5.803   8.242  65.053  1.00  0.00    -0.045 A  
HETATM   23  N   UNL     1      -7.724   8.868  66.479  1.00  0.00    -0.098 NA 
HETATM   24  C   UNL     1      -5.181   7.413  64.089  1.00  0.00    -0.029 A  
HETATM   25  C   UNL     1      -8.904   8.461  67.001  1.00  0.00    -0.134 A  
HETATM   26  C   UNL     1      -5.873   6.325  63.573  1.00  0.00    -0.022 A  
HETATM   27  C   UNL     1      -7.138   6.003  64.065  1.00  0.00    -0.053 A  
HETATM   28  O   UNL     1      -5.336   5.561  62.578  1.00  0.00    -0.013 OA 
HETATM   29  H   UNL     1      -5.809   4.816  62.225  1.00  0.00     0.000 HD 
BRANCH  27  30
HETATM   30  C   UNL     1      -7.961   4.909  63.380  1.00  0.00    -0.090 C  
BRANCH  30  31
HETATM   31  N   UNL     1      -8.089   3.685  64.208  1.00  0.00    -0.086 NA 
HETATM   32  C   UNL     1      -9.487   3.301  64.415  1.00  0.00    -0.145 C  
HETATM   33  C   UNL     1      -7.359   2.566  63.613  1.00  0.00    -0.053 C  
ENDBRANCH  30  31
ENDBRANCH  27  30
ENDBRANCH   2   3
TORSDOF 3
ENDMDL
MODEL       72
REMARK 921   NORMALIZED FREE ENERGY PREDICTED BY IDOCK:   -3.33 KCAL/MOL
REMARK 922        TOTAL FREE ENERGY PREDICTED BY IDOCK:   -4.56 KCAL/MOL
REMARK 923 INTER-LIGAND FREE ENERGY PREDICTED BY IDOCK:   -4.12 KCAL/MOL
REMARK 924 INTRA-LIGAND FREE ENERGY PREDICTED BY IDOCK:   -0.44 KCAL/MOL
REMARK 927      BINDING AFFINITY PREDICTED BY RF-SCORE:    0.00 PKD
ROOT
HETATM    1  C   UNL     1      -5.408   8.164  72.791  1.00  0.00    -0.038 C  
HETATM    2  C   UNL     1      -6.839   7.758  72.499  1.00  0.00    -0.070 C  
ENDROOT
BRANCH   2   3
HETATM    3  C   UNL     1      -7.245   7.648  71.014  1.00  0.00    -0.058 C  
HETATM    4  C   UNL     1      -6.939   6.156  70.605  1.00  0.00    -0.064 C  
HETATM    5  O   UNL     1      -8.699   7.745  71.011  1.00  0.00    -0.132 OA 
HETATM    6  H   UNL     1      -8.950   7.676  70.097  1.00  0.00     0.000 HD 
HETATM    7  O   UNL     1      -7.332   5.796  69.363  1.00  0.00    -0.068 OA 
HETATM    8  O   UNL     1      -6.536   5.296  71.388  1.00  0.00    -0.037 OA 
HETATM    9  C   UNL     1      -6.986   6.671  68.298  1.00  0.00    -0.077 C  
HETATM   10  C   UNL     1      -7.024   8.112  68.651  1.00  0.00    -0.068 C  
HETATM   11  C   UNL     1      -6.807   8.621  69.891  1.00  0.00    -0.042 C  
HETATM   12  C   UNL     1      -6.454  10.088  69.916  1.00  0.00    -0.077 C  
HETATM   13  C   UNL     1      -6.910  10.901  68.921  1.00  0.00    -0.076 C  
HETATM   14  N   UNL     1      -7.793  10.305  68.035  1.00  0.00    -0.099 N  
HETATM   15  C   UNL     1      -8.653  11.262  67.381  1.00  0.00    -0.136 C  
HETATM   16  C   UNL     1      -7.855   8.969  67.767  1.00  0.00    -0.101 C  
HETATM   17  C   UNL     1      -7.918  12.523  67.605  1.00  0.00    -0.170 A  
HETATM   18  O   UNL     1      -8.580   8.487  66.913  1.00  0.00    -0.114 OA 
HETATM   19  C   UNL     1      -8.200  13.735  67.026  1.00  0.00    -0.055 A  
HETATM   20  C   UNL     1      -7.324  14.798  67.208  1.00  0.00    -0.147 A  
HETATM   21  C   UNL     1      -6.092  14.503  67.864  1.00  0.00    -0.150 A  
HETATM   22  C   UNL     1      -5.132  15.525  67.759  1.00  0.00    -0.101 A  
HETATM   23  N   UNL     1      -5.860  13.291  68.527  1.00  0.00    -0.077 NA 
HETATM   24  C   UNL     1      -5.383  16.782  67.157  1.00  0.00    -0.175 A  
HETATM   25  C   UNL     1      -6.826  12.346  68.451  1.00  0.00    -0.080 A  
HETATM   26  C   UNL     1      -6.656  17.073  66.683  1.00  0.00    -0.237 A  
HETATM   27  C   UNL     1      -7.656  16.102  66.724  1.00  0.00    -0.268 A  
HETATM   28  O   UNL     1      -6.951  18.307  66.180  1.00  0.00    -0.223 OA 
HETATM   29  H   UNL     1      -7.821  18.506  65.856  1.00  0.00     0.000 HD 
BRANCH  27  30
HETATM   30  C   UNL     1      -9.094  16.481  66.357  1.00  0.00    -0.297 C  
BRANCH  30  31
HETATM   31  N   UNL     1      -9.872  16.972  67.520  1.00  0.00    -0.252 NA 
HETATM   32  C   UNL     1     -10.212  18.391  67.397  1.00  0.00    -0.372 C  
HETATM   33  C   UNL     1     -11.094  16.191  67.706  1.00  0.00    -0.254 C  
ENDBRANCH  30  31
ENDBRANCH  27  30
ENDBRANCH   2   3
TORSDOF 3
ENDMDL
MODEL       73
REMARK 921   NORMALIZED FREE ENERGY PREDICTED BY IDOCK:   -3.20 KCAL/MOL
REMARK 922        TOTAL FREE ENERGY PREDICTED BY IDOCK:   -4.41 KCAL/MOL
REMARK 923 INTER-LIGAND FREE ENERGY PREDICTED BY IDOCK:   -5.29 KCAL/MOL
REMARK 924 INTRA-LIGAND FREE ENERGY PREDICTED BY IDOCK:    0.88 KCAL/MOL
REMARK 927      BINDING AFFINITY PREDICTED BY RF-SCORE:    0.00 PKD
ROOT
HETATM    1  C   UNL     1      -6.264   4.628  66.189  1.00  0.00    -0.032 C  
HETATM    2  C   UNL     1      -6.367   5.484  67.435  1.00  0.00    -0.039 C  
ENDROOT
BRANCH   2   3
HETATM    3  C   UNL     1      -7.639   5.319  68.294  1.00  0.00    -0.080 C  
HETATM    4  C   UNL     1      -8.045   3.802  68.155  1.00  0.00    -0.083 C  
HETATM    5  O   UNL     1      -7.187   5.459  69.672  1.00  0.00    -0.061 OA 
HETATM    6  H   UNL     1      -7.970   5.357  70.201  1.00  0.00     0.000 HD 
HETATM    7  O   UNL     1      -9.078   3.398  68.927  1.00  0.00    -0.116 OA 
HETATM    8  O   UNL     1      -7.386   2.966  67.536  1.00  0.00    -0.053 OA 
HETATM    9  C   UNL     1     -10.242   4.214  68.924  1.00  0.00     0.462 C  
HETATM   10  C   UNL     1      -9.971   5.670  68.828  1.00  0.00    -0.221 C  
HETATM   11  C   UNL     1      -8.892   6.227  68.222  1.00  0.00    -0.114 C  
HETATM   12  C   UNL     1      -9.057   7.682  67.858  1.00  0.00    -0.134 C  
HETATM   13  C   UNL     1      -9.898   8.463  68.595  1.00  0.00    -0.170 C  
HETATM   14  N   UNL     1     -10.426   7.855  69.722  1.00  0.00    -0.230 N  
HETATM   15  C   UNL     1     -10.823   8.806  70.732  1.00  0.00    -0.234 C  
HETATM   16  C   UNL     1     -10.591   6.510  69.884  1.00  0.00    -0.233 C  
HETATM   17  C   UNL     1     -10.910  10.053  69.946  1.00  0.00    -0.328 A  
HETATM   18  O   UNL     1     -11.144   6.012  70.850  1.00  0.00    -0.291 OA 
HETATM   19  C   UNL     1     -11.432  11.246  70.380  1.00  0.00    -0.203 A  
HETATM   20  C   UNL     1     -11.593  12.289  69.476  1.00  0.00    -0.366 A  
HETATM   21  C   UNL     1     -11.346  11.987  68.104  1.00  0.00    -0.291 A  
HETATM   22  C   UNL     1     -11.803  12.975  67.213  1.00  0.00    -0.419 A  
HETATM   23  N   UNL     1     -10.728  10.800  67.691  1.00  0.00    -0.238 NA 
HETATM   24  C   UNL     1     -12.360  14.210  67.624  1.00  0.00    -0.073 A  
HETATM   25  C   UNL     1     -10.445   9.882  68.645  1.00  0.00    -0.206 A  
HETATM   26  C   UNL     1     -12.421  14.518  68.978  1.00  0.00     0.056 A  
HETATM   27  C   UNL     1     -12.014  13.580  69.927  1.00  0.00    -0.416 A  
HETATM   28  O   UNL     1     -12.868  15.735  69.400  1.00  0.00    -0.414 OA 
HETATM   29  H   UNL     1     -12.910  15.946  70.326  1.00  0.00     0.000 HD 
BRANCH  27  30
HETATM   30  C   UNL     1     -11.927  13.984  71.401  1.00  0.00    -0.039 C  
BRANCH  30  31
HETATM   31  N   UNL     1     -13.175  14.614  71.897  1.00  0.00    -0.327 NA 
HETATM   32  C   UNL     1     -14.351  13.775  71.657  1.00  0.00     0.075 C  
HETATM   33  C   UNL     1     -13.080  14.924  73.323  1.00  0.00    -0.469 C  
ENDBRANCH  30  31
ENDBRANCH  27  30
ENDBRANCH   2   3
TORSDOF 3
ENDMDL
MODEL       74
REMARK 921   NORMALIZED FREE ENERGY PREDICTED BY IDOCK:   -3.10 KCAL/MOL
REMARK 922        TOTAL FREE ENERGY PREDICTED BY IDOCK:   -4.29 KCAL/MOL
REMARK 923 INTER-LIGAND FREE ENERGY PREDICTED BY IDOCK:   -4.05 KCAL/MOL
REMARK 924 INTRA-LIGAND FREE ENERGY PREDICTED BY IDOCK:   -0.24 KCAL/MOL
REMARK 927      BINDING AFFINITY PREDICTED BY RF-SCORE:    0.00 PKD
ROOT
HETATM    1  C   UNL     1     -11.569  14.971  66.031  1.00  0.00    -0.158 C  
HETATM    2  C   UNL     1     -10.798  14.593  67.280  1.00  0.00    -0.305 C  
ENDROOT
BRANCH   2   3
HETATM    3  C   UNL     1     -11.405  13.488  68.169  1.00  0.00    -0.286 C  
HETATM    4  C   UNL     1     -12.089  14.245  69.372  1.00  0.00    -0.318 C  
HETATM    5  O   UNL     1     -12.512  12.942  67.394  1.00  0.00    -0.180 OA 
HETATM    6  H   UNL     1     -12.886  12.262  67.942  1.00  0.00     0.000 HD 
HETATM    7  O   UNL     1     -12.795  13.472  70.226  1.00  0.00    -0.120 OA 
HETATM    8  O   UNL     1     -12.152  15.471  69.466  1.00  0.00    -0.344 OA 
HETATM    9  C   UNL     1     -12.165  12.288  70.695  1.00  0.00    -0.287 C  
HETATM   10  C   UNL     1     -11.304  11.612  69.692  1.00  0.00    -0.308 C  
HETATM   11  C   UNL     1     -10.654  12.231  68.675  1.00  0.00    -0.249 C  
HETATM   12  C   UNL     1      -9.513  11.439  68.084  1.00  0.00    -0.181 C  
HETATM   13  C   UNL     1      -9.550  10.077  68.134  1.00  0.00    -0.139 C  
HETATM   14  N   UNL     1     -10.734   9.539  68.615  1.00  0.00    -0.210 N  
HETATM   15  C   UNL     1     -10.961   8.192  68.152  1.00  0.00     0.213 C  
HETATM   16  C   UNL     1     -11.600  10.176  69.455  1.00  0.00    -0.118 C  
HETATM   17  C   UNL     1      -9.606   7.795  67.718  1.00  0.00    -0.172 A  
HETATM   18  O   UNL     1     -12.586   9.642  69.934  1.00  0.00     0.383 OA 
HETATM   19  C   UNL     1      -9.210   6.531  67.360  1.00  0.00    -0.122 A  
HETATM   20  C   UNL     1      -7.864   6.277  67.128  1.00  0.00    -0.105 A  
HETATM   21  C   UNL     1      -6.955   7.331  67.438  1.00  0.00    -0.079 A  
HETATM   22  C   UNL     1      -5.608   6.929  67.469  1.00  0.00    -0.020 A  
HETATM   23  N   UNL     1      -7.378   8.638  67.712  1.00  0.00    -0.091 NA 
HETATM   24  C   UNL     1      -5.165   5.631  67.121  1.00  0.00    -0.005 A  
HETATM   25  C   UNL     1      -8.712   8.862  67.764  1.00  0.00    -0.125 A  
HETATM   26  C   UNL     1      -6.083   4.692  66.665  1.00  0.00    -0.031 A  
HETATM   27  C   UNL     1      -7.442   5.003  66.632  1.00  0.00    -0.087 A  
HETATM   28  O   UNL     1      -5.675   3.463  66.237  1.00  0.00    -0.020 OA 
HETATM   29  H   UNL     1      -6.303   2.822  65.926  1.00  0.00     0.000 HD 
BRANCH  27  30
HETATM   30  C   UNL     1      -8.426   4.031  65.976  1.00  0.00    -0.109 C  
BRANCH  30  31
HETATM   31  N   UNL     1      -9.065   4.595  64.762  1.00  0.00    -0.156 NA 
HETATM   32  C   UNL     1      -8.146   4.636  63.622  1.00  0.00    -0.101 C  
HETATM   33  C   UNL     1     -10.263   3.841  64.397  1.00  0.00    -0.222 C  
ENDBRANCH  30  31
ENDBRANCH  27  30
ENDBRANCH   2   3
TORSDOF 3
ENDMDL
MODEL       75
REMARK 921   NORMALIZED FREE ENERGY PREDICTED BY IDOCK:   -3.08 KCAL/MOL
REMARK 922        TOTAL FREE ENERGY PREDICTED BY IDOCK:   -4.26 KCAL/MOL
REMARK 923 INTER-LIGAND FREE ENERGY PREDICTED BY IDOCK:   -4.99 KCAL/MOL
REMARK 924 INTRA-LIGAND FREE ENERGY PREDICTED BY IDOCK:    0.72 KCAL/MOL
REMARK 927      BINDING AFFINITY PREDICTED BY RF-SCORE:    0.00 PKD
ROOT
HETATM    1  C   UNL     1     -12.593  11.961  63.814  1.00  0.00    -0.509 C  
HETATM    2  C   UNL     1     -12.016  13.327  64.127  1.00  0.00    -0.505 C  
ENDROOT
BRANCH   2   3
HETATM    3  C   UNL     1     -11.104  13.434  65.367  1.00  0.00    -0.287 C  
HETATM    4  C   UNL     1     -10.776  14.969  65.517  1.00  0.00    -0.359 C  
HETATM    5  O   UNL     1     -11.967  13.125  66.500  1.00  0.00    -0.390 OA 
HETATM    6  H   UNL     1     -11.405  13.191  67.264  1.00  0.00     0.000 HD 
HETATM    7  O   UNL     1     -10.078  15.315  66.620  1.00  0.00    -0.249 OA 
HETATM    8  O   UNL     1     -11.254  15.848  64.799  1.00  0.00    -0.429 OA 
HETATM    9  C   UNL     1      -8.924  14.541  66.921  1.00  0.00    -0.246 C  
HETATM   10  C   UNL     1      -9.052  13.098  66.601  1.00  0.00    -0.180 C  
HETATM   11  C   UNL     1      -9.837  12.580  65.624  1.00  0.00    -0.227 C  
HETATM   12  C   UNL     1      -9.467  11.180  65.195  1.00  0.00    -0.257 C  
HETATM   13  C   UNL     1      -8.860  10.348  66.088  1.00  0.00    -0.158 C  
HETATM   14  N   UNL     1      -8.766  10.841  67.380  1.00  0.00    -0.126 N  
HETATM   15  C   UNL     1      -8.655   9.795  68.367  1.00  0.00    -0.119 C  
HETATM   16  C   UNL     1      -8.753  12.163  67.716  1.00  0.00    -0.171 C  
HETATM   17  C   UNL     1      -8.236   8.647  67.537  1.00  0.00    -0.110 A  
HETATM   18  O   UNL     1      -8.576  12.566  68.854  1.00  0.00     0.106 OA 
HETATM   19  C   UNL     1      -7.804   7.430  68.001  1.00  0.00    -0.118 A  
HETATM   20  C   UNL     1      -7.291   6.501  67.104  1.00  0.00    -0.086 A  
HETATM   21  C   UNL     1      -7.100   6.948  65.763  1.00  0.00    -0.072 A  
HETATM   22  C   UNL     1      -6.316   6.083  64.981  1.00  0.00    -0.037 A  
HETATM   23  N   UNL     1      -7.629   8.155  65.287  1.00  0.00    -0.089 NA 
HETATM   24  C   UNL     1      -5.841   4.827  65.430  1.00  0.00    -0.018 A  
HETATM   25  C   UNL     1      -8.266   8.950  66.178  1.00  0.00    -0.116 A  
HETATM   26  C   UNL     1      -6.201   4.370  66.692  1.00  0.00    -0.032 A  
HETATM   27  C   UNL     1      -6.953   5.182  67.542  1.00  0.00    -0.065 A  
HETATM   28  O   UNL     1      -5.834   3.127  67.118  1.00  0.00    -0.022 OA 
HETATM   29  H   UNL     1      -6.080   2.815  67.981  1.00  0.00     0.000 HD 
BRANCH  27  30
HETATM   30  C   UNL     1      -7.485   4.611  68.859  1.00  0.00    -0.060 C  
BRANCH  30  31
HETATM   31  N   UNL     1      -6.435   4.500  69.900  1.00  0.00    -0.031 NA 
HETATM   32  C   UNL     1      -5.660   3.264  69.774  1.00  0.00    -0.017 C  
HETATM   33  C   UNL     1      -5.531   5.648  69.863  1.00  0.00    -0.005 C  
ENDBRANCH  30  31
ENDBRANCH  27  30
ENDBRANCH   2   3
TORSDOF 3
ENDMDL
MODEL       76
REMARK 921   NORMALIZED FREE ENERGY PREDICTED BY IDOCK:   -2.90 KCAL/MOL
REMARK 922        TOTAL FREE ENERGY PREDICTED BY IDOCK:   -4.06 KCAL/MOL
REMARK 923 INTER-LIGAND FREE ENERGY PREDICTED BY IDOCK:   -5.32 KCAL/MOL
REMARK 924 INTRA-LIGAND FREE ENERGY PREDICTED BY IDOCK:    1.26 KCAL/MOL
REMARK 927      BINDING AFFINITY PREDICTED BY RF-SCORE:    0.00 PKD
ROOT
HETATM    1  C   UNL     1      -8.047   3.981  64.550  1.00  0.00    -0.087 C  
HETATM    2  C   UNL     1      -7.772   5.367  65.098  1.00  0.00    -0.086 C  
ENDROOT
BRANCH   2   3
HETATM    3  C   UNL     1      -8.361   5.701  66.485  1.00  0.00    -0.110 C  
HETATM    4  C   UNL     1      -9.097   4.388  66.956  1.00  0.00    -0.130 C  
HETATM    5  O   UNL     1      -7.209   5.820  67.368  1.00  0.00    -0.073 OA 
HETATM    6  H   UNL     1      -7.572   6.025  68.222  1.00  0.00     0.000 HD 
HETATM    7  O   UNL     1      -9.593   4.412  68.212  1.00  0.00    -0.147 OA 
HETATM    8  O   UNL     1      -9.087   3.329  66.326  1.00  0.00    -0.143 OA 
HETATM    9  C   UNL     1     -10.355   5.553  68.582  1.00  0.00    -0.185 C  
HETATM   10  C   UNL     1      -9.872   6.829  67.999  1.00  0.00    -0.148 C  
HETATM   11  C   UNL     1      -9.213   6.951  66.818  1.00  0.00    -0.177 C  
HETATM   12  C   UNL     1      -9.229   8.340  66.230  1.00  0.00    -0.258 C  
HETATM   13  C   UNL     1      -9.331   9.416  67.062  1.00  0.00    -0.148 C  
HETATM   14  N   UNL     1      -9.270   9.120  68.414  1.00  0.00    -0.132 N  
HETATM   15  C   UNL     1      -8.827  10.240  69.208  1.00  0.00    -0.177 C  
HETATM   16  C   UNL     1      -9.607   7.921  68.970  1.00  0.00    -0.155 C  
HETATM   17  C   UNL     1      -9.057  11.368  68.283  1.00  0.00    -0.179 A  
HETATM   18  O   UNL     1      -9.631   7.721  70.173  1.00  0.00    -0.168 OA 
HETATM   19  C   UNL     1      -8.979  12.702  68.601  1.00  0.00     0.047 A  
HETATM   20  C   UNL     1      -9.378  13.649  67.667  1.00  0.00    -0.215 A  
HETATM   21  C   UNL     1      -9.999  13.155  66.482  1.00  0.00    -0.268 A  
HETATM   22  C   UNL     1     -10.641  14.146  65.720  1.00  0.00    -0.306 A  
HETATM   23  N   UNL     1      -9.987  11.798  66.133  1.00  0.00    -0.219 NA 
HETATM   24  C   UNL     1     -10.595  15.528  66.025  1.00  0.00    -0.333 A  
HETATM   25  C   UNL     1      -9.435  10.934  67.015  1.00  0.00    -0.164 A  
HETATM   26  C   UNL     1      -9.833  15.967  67.100  1.00  0.00    -0.236 A  
HETATM   27  C   UNL     1      -9.188  15.044  67.924  1.00  0.00    -0.182 A  
HETATM   28  O   UNL     1      -9.695  17.298  67.365  1.00  0.00    -0.249 OA 
HETATM   29  H   UNL     1      -9.175  17.599  68.101  1.00  0.00     0.000 HD 
BRANCH  27  30
HETATM   30  C   UNL     1      -8.219  15.538  69.001  1.00  0.00    -0.227 C  
BRANCH  30  31
HETATM   31  N   UNL     1      -7.034  16.226  68.434  1.00  0.00    -0.131 NA 
HETATM   32  C   UNL     1      -6.854  17.568  68.993  1.00  0.00    -0.242 C  
HETATM   33  C   UNL     1      -5.817  15.443  68.645  1.00  0.00    -0.095 C  
ENDBRANCH  30  31
ENDBRANCH  27  30
ENDBRANCH   2   3
TORSDOF 3
ENDMDL
MODEL       77
REMARK 921   NORMALIZED FREE ENERGY PREDICTED BY IDOCK:   -2.90 KCAL/MOL
REMARK 922        TOTAL FREE ENERGY PREDICTED BY IDOCK:   -4.06 KCAL/MOL
REMARK 923 INTER-LIGAND FREE ENERGY PREDICTED BY IDOCK:   -4.60 KCAL/MOL
REMARK 924 INTRA-LIGAND FREE ENERGY PREDICTED BY IDOCK:    0.54 KCAL/MOL
REMARK 927      BINDING AFFINITY PREDICTED BY RF-SCORE:    0.00 PKD
ROOT
HETATM    1  C   UNL     1      -8.017  13.949  69.544  1.00  0.00     0.572 C  
HETATM    2  C   UNL     1      -8.407  14.999  68.524  1.00  0.00    -0.161 C  
ENDROOT
BRANCH   2   3
HETATM    3  C   UNL     1      -9.283  14.533  67.341  1.00  0.00    -0.200 C  
HETATM    4  C   UNL     1     -10.344  15.680  67.127  1.00  0.00    -0.285 C  
HETATM    5  O   UNL     1      -8.414  14.606  66.173  1.00  0.00    -0.309 OA 
HETATM    6  H   UNL     1      -8.953  14.320  65.445  1.00  0.00     0.000 HD 
HETATM    7  O   UNL     1     -11.151  15.539  66.053  1.00  0.00    -0.289 OA 
HETATM    8  O   UNL     1     -10.354  16.736  67.761  1.00  0.00    -0.295 OA 
HETATM    9  C   UNL     1     -11.766  14.270  65.872  1.00  0.00    -0.372 C  
HETATM   10  C   UNL     1     -10.920  13.116  66.264  1.00  0.00    -0.295 C  
HETATM   11  C   UNL     1      -9.953  13.142  67.216  1.00  0.00    -0.230 C  
HETATM   12  C   UNL     1      -9.556  11.786  67.746  1.00  0.00    -0.184 C  
HETATM   13  C   UNL     1      -9.686  10.692  66.942  1.00  0.00    -0.179 C  
HETATM   14  N   UNL     1     -10.051  10.964  65.634  1.00  0.00    -0.250 N  
HETATM   15  C   UNL     1      -9.647   9.926  64.716  1.00  0.00    -0.271 C  
HETATM   16  C   UNL     1     -10.738  12.070  65.225  1.00  0.00    -0.288 C  
HETATM   17  C   UNL     1      -9.407   8.796  65.635  1.00  0.00    -0.219 A  
HETATM   18  O   UNL     1     -11.125  12.236  64.080  1.00  0.00    -0.313 OA 
HETATM   19  C   UNL     1      -9.180   7.492  65.270  1.00  0.00     0.506 A  
HETATM   20  C   UNL     1      -9.130   6.508  66.249  1.00  0.00    -0.168 A  
HETATM   21  C   UNL     1      -9.483   6.907  67.572  1.00  0.00    -0.128 A  
HETATM   22  C   UNL     1      -9.702   5.832  68.452  1.00  0.00    -0.161 A  
HETATM   23  N   UNL     1      -9.621   8.251  67.944  1.00  0.00    -0.149 NA 
HETATM   24  C   UNL     1      -9.492   4.476  68.105  1.00  0.00    -0.201 A  
HETATM   25  C   UNL     1      -9.496   9.182  66.970  1.00  0.00    -0.154 A  
HETATM   26  C   UNL     1      -8.986   4.159  66.851  1.00  0.00    -0.127 A  
HETATM   27  C   UNL     1      -8.769   5.166  65.910  1.00  0.00    -0.135 A  
HETATM   28  O   UNL     1      -8.688   2.870  66.520  1.00  0.00    -0.116 OA 
HETATM   29  H   UNL     1      -8.343   2.653  65.662  1.00  0.00     0.000 HD 
BRANCH  27  30
HETATM   30  C   UNL     1      -8.058   4.833  64.595  1.00  0.00    -0.107 C  
BRANCH  30  31
HETATM   31  N   UNL     1      -6.626   5.218  64.605  1.00  0.00    -0.042 NA 
HETATM   32  C   UNL     1      -6.200   5.726  65.911  1.00  0.00    -0.034 C  
HETATM   33  C   UNL     1      -5.774   4.094  64.219  1.00  0.00    -0.014 C  
ENDBRANCH  30  31
ENDBRANCH  27  30
ENDBRANCH   2   3
TORSDOF 3
ENDMDL
MODEL       78
REMARK 921   NORMALIZED FREE ENERGY PREDICTED BY IDOCK:   -2.57 KCAL/MOL
REMARK 922        TOTAL FREE ENERGY PREDICTED BY IDOCK:   -3.67 KCAL/MOL
REMARK 923 INTER-LIGAND FREE ENERGY PREDICTED BY IDOCK:   -3.86 KCAL/MOL
REMARK 924 INTRA-LIGAND FREE ENERGY PREDICTED BY IDOCK:    0.19 KCAL/MOL
REMARK 927      BINDING AFFINITY PREDICTED BY RF-SCORE:    0.00 PKD
ROOT
HETATM    1  C   UNL     1     -12.714  11.393  70.824  1.00  0.00    -0.343 C  
HETATM    2  C   UNL     1     -12.445  11.304  69.336  1.00  0.00    -0.075 C  
ENDROOT
BRANCH   2   3
HETATM    3  C   UNL     1     -10.997  11.564  68.869  1.00  0.00    -0.229 C  
HETATM    4  C   UNL     1     -10.945  13.095  68.495  1.00  0.00    -0.263 C  
HETATM    5  O   UNL     1     -10.184  11.446  70.073  1.00  0.00     0.002 OA 
HETATM    6  H   UNL     1      -9.293  11.606  69.785  1.00  0.00     0.000 HD 
HETATM    7  O   UNL     1      -9.726  13.577  68.168  1.00  0.00    -0.221 OA 
HETATM    8  O   UNL     1     -11.886  13.874  68.649  1.00  0.00    -0.335 OA 
HETATM    9  C   UNL     1      -8.964  12.824  67.234  1.00  0.00    -0.199 C  
HETATM   10  C   UNL     1      -9.121  11.354  67.357  1.00  0.00    -0.160 C  
HETATM   11  C   UNL     1     -10.229  10.721  67.820  1.00  0.00    -0.212 C  
HETATM   12  C   UNL     1     -10.329   9.265  67.435  1.00  0.00    -0.327 C  
HETATM   13  C   UNL     1      -9.186   8.555  67.213  1.00  0.00    -0.141 C  
HETATM   14  N   UNL     1      -8.011   9.226  67.506  1.00  0.00    -0.099 N  
HETATM   15  C   UNL     1      -6.917   8.331  67.798  1.00  0.00    -0.078 C  
HETATM   16  C   UNL     1      -7.861  10.582  67.505  1.00  0.00    -0.106 C  
HETATM   17  C   UNL     1      -7.408   7.065  67.219  1.00  0.00    -0.091 A  
HETATM   18  O   UNL     1      -6.790  11.141  67.677  1.00  0.00    -0.071 OA 
HETATM   19  C   UNL     1      -6.676   5.916  67.051  1.00  0.00    -0.061 A  
HETATM   20  C   UNL     1      -7.227   4.854  66.345  1.00  0.00    -0.077 A  
HETATM   21  C   UNL     1      -8.474   5.097  65.698  1.00  0.00    -0.134 A  
HETATM   22  C   UNL     1      -8.836   4.105  64.768  1.00  0.00    -0.135 A  
HETATM   23  N   UNL     1      -9.249   6.235  65.954  1.00  0.00    -0.084 NA 
HETATM   24  C   UNL     1      -8.098   2.916  64.559  1.00  0.00    -0.082 A  
HETATM   25  C   UNL     1      -8.728   7.168  66.784  1.00  0.00    -0.127 A  
HETATM   26  C   UNL     1      -6.979   2.656  65.340  1.00  0.00    -0.052 A  
HETATM   27  C   UNL     1      -6.537   3.602  66.265  1.00  0.00    -0.037 A  
HETATM   28  O   UNL     1      -6.301   1.479  65.224  1.00  0.00    -0.021 OA 
HETATM   29  H   UNL     1      -5.535   1.301  65.758  1.00  0.00     0.000 HD 
BRANCH  27  30
HETATM   30  C   UNL     1      -5.409   3.243  67.235  1.00  0.00    -0.016 C  
BRANCH  30  31
HETATM   31  N   UNL     1      -5.911   2.705  68.523  1.00  0.00    -0.024 NA 
HETATM   32  C   UNL     1      -5.714   3.646  69.629  1.00  0.00    -0.018 C  
HETATM   33  C   UNL     1      -7.326   2.350  68.432  1.00  0.00    -0.048 C  
ENDBRANCH  30  31
ENDBRANCH  27  30
ENDBRANCH   2   3
TORSDOF 3
ENDMDL
MODEL       79
REMARK 921   NORMALIZED FREE ENERGY PREDICTED BY IDOCK:   -2.36 KCAL/MOL
REMARK 922        TOTAL FREE ENERGY PREDICTED BY IDOCK:   -3.42 KCAL/MOL
REMARK 923 INTER-LIGAND FREE ENERGY PREDICTED BY IDOCK:   -4.08 KCAL/MOL
REMARK 924 INTRA-LIGAND FREE ENERGY PREDICTED BY IDOCK:    0.66 KCAL/MOL
REMARK 927      BINDING AFFINITY PREDICTED BY RF-SCORE:    0.00 PKD
ROOT
HETATM    1  C   UNL     1     -12.254  16.074  70.951  1.00  0.00    -0.291 C  
HETATM    2  C   UNL     1     -10.945  15.419  70.557  1.00  0.00    -0.350 C  
ENDROOT
BRANCH   2   3
HETATM    3  C   UNL     1     -10.928  14.635  69.228  1.00  0.00    -0.260 C  
HETATM    4  C   UNL     1     -11.875  15.435  68.255  1.00  0.00    -0.206 C  
HETATM    5  O   UNL     1      -9.588  14.831  68.690  1.00  0.00    -0.207 OA 
HETATM    6  H   UNL     1      -9.577  14.348  67.872  1.00  0.00     0.000 HD 
HETATM    7  O   UNL     1     -11.918  14.990  66.981  1.00  0.00    -0.222 OA 
HETATM    8  O   UNL     1     -12.416  16.503  68.545  1.00  0.00     0.755 OA 
HETATM    9  C   UNL     1     -12.100  13.593  66.792  1.00  0.00    -0.399 C  
HETATM   10  C   UNL     1     -11.424  12.744  67.805  1.00  0.00    -0.376 C  
HETATM   11  C   UNL     1     -11.164  13.110  69.085  1.00  0.00    -0.303 C  
HETATM   12  C   UNL     1     -10.895  11.961  70.026  1.00  0.00     0.583 C  
HETATM   13  C   UNL     1     -10.368  10.804  69.532  1.00  0.00    -0.144 C  
HETATM   14  N   UNL     1      -9.993  10.852  68.199  1.00  0.00    -0.169 N  
HETATM   15  C   UNL     1      -8.978   9.880  67.872  1.00  0.00    -0.128 C  
HETATM   16  C   UNL     1     -10.521  11.695  67.265  1.00  0.00    -0.216 C  
HETATM   17  C   UNL     1      -9.092   8.940  69.005  1.00  0.00    -0.137 A  
HETATM   18  O   UNL     1     -10.236  11.649  66.080  1.00  0.00    -0.213 OA 
HETATM   19  C   UNL     1      -8.478   7.716  69.104  1.00  0.00    -0.138 A  
HETATM   20  C   UNL     1      -8.805   6.873  70.158  1.00  0.00    -0.145 A  
HETATM   21  C   UNL     1      -9.892   7.281  70.987  1.00  0.00    -0.183 A  
HETATM   22  C   UNL     1     -10.368   6.269  71.840  1.00  0.00    -0.234 A  
HETATM   23  N   UNL     1     -10.443   8.567  70.931  1.00  0.00    -0.197 NA 
HETATM   24  C   UNL     1      -9.770   4.991  71.957  1.00  0.00    -0.214 A  
HETATM   25  C   UNL     1      -9.967   9.407  69.983  1.00  0.00    -0.221 A  
HETATM   26  C   UNL     1      -8.611   4.709  71.244  1.00  0.00    -0.113 A  
HETATM   27  C   UNL     1      -8.090   5.649  70.355  1.00  0.00    -0.105 A  
HETATM   28  O   UNL     1      -7.961   3.520  71.405  1.00  0.00    -0.058 OA 
HETATM   29  H   UNL     1      -7.169   3.327  70.918  1.00  0.00     0.000 HD 
BRANCH  27  30
HETATM   30  C   UNL     1      -6.728   5.400  69.702  1.00  0.00    -0.055 C  
BRANCH  30  31
HETATM   31  N   UNL     1      -6.809   4.475  68.545  1.00  0.00    -0.050 NA 
HETATM   32  C   UNL     1      -7.070   5.182  67.289  1.00  0.00    -0.069 C  
HETATM   33  C   UNL     1      -5.585   3.685  68.414  1.00  0.00    -0.017 C  
ENDBRANCH  30  31
ENDBRANCH  27  30
ENDBRANCH   2   3
TORSDOF 3
ENDMDL
MODEL       80
REMARK 921   NORMALIZED FREE ENERGY PREDICTED BY IDOCK:   -2.00 KCAL/MOL
REMARK 922        TOTAL FREE ENERGY PREDICTED BY IDOCK:   -3.00 KCAL/MOL
REMARK 923 INTER-LIGAND FREE ENERGY PREDICTED BY IDOCK:   -4.61 KCAL/MOL
REMARK 924 INTRA-LIGAND FREE ENERGY PREDICTED BY IDOCK:    1.62 KCAL/MOL
REMARK 927      BINDING AFFINITY PREDICTED BY RF-SCORE:    0.00 PKD
ROOT
HETATM    1  C   UNL     1     -11.962   4.521  73.082  1.00  0.00     0.052 C  
HETATM    2  C   UNL     1     -11.105   3.506  72.354  1.00  0.00     0.476 C  
ENDROOT
BRANCH   2   3
HETATM    3  C   UNL     1      -9.714   3.977  71.879  1.00  0.00    -0.167 C  
HETATM    4  C   UNL     1      -8.713   3.546  73.019  1.00  0.00    -0.093 C  
HETATM    5  O   UNL     1      -9.386   3.115  70.751  1.00  0.00    -0.127 OA 
HETATM    6  H   UNL     1      -8.529   3.405  70.459  1.00  0.00     0.000 HD 
HETATM    7  O   UNL     1      -7.404   3.756  72.761  1.00  0.00    -0.058 OA 
HETATM    8  O   UNL     1      -9.041   2.898  74.014  1.00  0.00    -0.081 OA 
HETATM    9  C   UNL     1      -7.043   5.035  72.257  1.00  0.00    -0.083 C  
HETATM   10  C   UNL     1      -8.040   5.636  71.337  1.00  0.00    -0.118 C  
HETATM   11  C   UNL     1      -9.376   5.400  71.368  1.00  0.00    -0.179 C  
HETATM   12  C   UNL     1     -10.215   6.437  70.662  1.00  0.00    -0.229 C  
HETATM   13  C   UNL     1      -9.675   7.138  69.624  1.00  0.00    -0.158 C  
HETATM   14  N   UNL     1      -8.418   6.715  69.222  1.00  0.00    -0.124 N  
HETATM   15  C   UNL     1      -8.129   7.060  67.851  1.00  0.00    -0.115 C  
HETATM   16  C   UNL     1      -7.518   6.065  70.014  1.00  0.00    -0.083 C  
HETATM   17  C   UNL     1      -9.128   8.116  67.593  1.00  0.00    -0.142 A  
HETATM   18  O   UNL     1      -6.384   5.789  69.658  1.00  0.00    -0.034 OA 
HETATM   19  C   UNL     1      -9.177   8.930  66.489  1.00  0.00    -0.231 A  
HETATM   20  C   UNL     1     -10.079   9.986  66.459  1.00  0.00    -0.296 A  
HETATM   21  C   UNL     1     -10.792  10.248  67.666  1.00  0.00    -0.307 A  
HETATM   22  C   UNL     1     -11.458  11.487  67.675  1.00  0.00    -0.357 A  
HETATM   23  N   UNL     1     -10.801   9.358  68.747  1.00  0.00    -0.163 NA 
HETATM   24  C   UNL     1     -11.517  12.358  66.561  1.00  0.00    -0.427 A  
HETATM   25  C   UNL     1     -10.023   8.255  68.652  1.00  0.00    -0.190 A  
HETATM   26  C   UNL     1     -10.942  11.971  65.357  1.00  0.00    -0.300 A  
HETATM   27  C   UNL     1     -10.238  10.769  65.273  1.00  0.00    -0.351 A  
HETATM   28  O   UNL     1     -11.060  12.748  64.242  1.00  0.00    -0.327 OA 
HETATM   29  H   UNL     1     -10.667  12.483  63.419  1.00  0.00     0.000 HD 
BRANCH  27  30
HETATM   30  C   UNL     1      -9.752  10.271  63.910  1.00  0.00    -0.261 C  
BRANCH  30  31
HETATM   31  N   UNL     1      -8.274  10.188  63.824  1.00  0.00    -0.159 NA 
HETATM   32  C   UNL     1      -7.618  10.813  64.975  1.00  0.00     0.162 C  
HETATM   33  C   UNL     1      -7.828   8.801  63.704  1.00  0.00    -0.145 C  
ENDBRANCH  30  31
ENDBRANCH  27  30
ENDBRANCH   2   3
TORSDOF 3
ENDMDL
MODEL       81
REMARK 921   NORMALIZED FREE ENERGY PREDICTED BY IDOCK:   -0.62 KCAL/MOL
REMARK 922        TOTAL FREE ENERGY PREDICTED BY IDOCK:   -1.37 KCAL/MOL
REMARK 923 INTER-LIGAND FREE ENERGY PREDICTED BY IDOCK:   -2.87 KCAL/MOL
REMARK 924 INTRA-LIGAND FREE ENERGY PREDICTED BY IDOCK:    1.50 KCAL/MOL
REMARK 927      BINDING AFFINITY PREDICTED BY RF-SCORE:    0.00 PKD
ROOT
HETATM    1  C   UNL     1     -13.428   8.760  70.633  1.00  0.00     0.604 C  
HETATM    2  C   UNL     1     -12.279   7.948  71.195  1.00  0.00    -0.273 C  
ENDROOT
BRANCH   2   3
HETATM    3  C   UNL     1     -10.892   8.160  70.552  1.00  0.00    -0.240 C  
HETATM    4  C   UNL     1      -9.951   7.087  71.221  1.00  0.00    -0.189 C  
HETATM    5  O   UNL     1     -11.042   7.717  69.172  1.00  0.00    -0.431 OA 
HETATM    6  H   UNL     1     -10.188   7.848  68.776  1.00  0.00     0.000 HD 
HETATM    7  O   UNL     1      -8.699   7.009  70.718  1.00  0.00    -0.145 OA 
HETATM    8  O   UNL     1     -10.337   6.235  72.023  1.00  0.00    -0.198 OA 
HETATM    9  C   UNL     1      -7.996   8.233  70.550  1.00  0.00    -0.099 C  
HETATM   10  C   UNL     1      -8.845   9.377  70.134  1.00  0.00    -0.249 C  
HETATM   11  C   UNL     1     -10.162   9.521  70.426  1.00  0.00    -0.337 C  
HETATM   12  C   UNL     1     -10.684  10.931  70.300  1.00  0.00     0.193 C  
HETATM   13  C   UNL     1     -10.088  11.787  69.421  1.00  0.00     0.403 C  
HETATM   14  N   UNL     1      -9.122  11.215  68.608  1.00  0.00    -0.174 N  
HETATM   15  C   UNL     1      -8.928  11.943  67.378  1.00  0.00    -0.173 C  
HETATM   16  C   UNL     1      -8.398  10.100  68.916  1.00  0.00    -0.130 C  
HETATM   17  C   UNL     1      -9.530  13.251  67.710  1.00  0.00    -0.208 A  
HETATM   18  O   UNL     1      -7.490   9.675  68.221  1.00  0.00    -0.077 OA 
HETATM   19  C   UNL     1      -9.450  14.392  66.952  1.00  0.00    -0.268 A  
HETATM   20  C   UNL     1      -9.930  15.589  67.469  1.00  0.00    -0.230 A  
HETATM   21  C   UNL     1     -10.333  15.576  68.837  1.00  0.00    -0.221 A  
HETATM   22  C   UNL     1     -10.525  16.856  69.386  1.00  0.00    -0.283 A  
HETATM   23  N   UNL     1     -10.495  14.391  69.566  1.00  0.00    -0.083 NA 
HETATM   24  C   UNL     1     -10.437  18.055  68.638  1.00  0.00    -0.236 A  
HETATM   25  C   UNL     1     -10.164  13.232  68.950  1.00  0.00    -0.019 A  
HETATM   26  C   UNL     1     -10.205  17.994  67.270  1.00  0.00    -0.364 A  
HETATM   27  C   UNL     1      -9.976  16.764  66.654  1.00  0.00    -0.300 A  
HETATM   28  O   UNL     1     -10.205  19.125  66.507  1.00  0.00    -0.365 OA 
HETATM   29  H   UNL     1     -10.046  19.084  65.572  1.00  0.00     0.000 HD 
BRANCH  27  30
HETATM   30  C   UNL     1      -9.887  16.686  65.127  1.00  0.00     0.696 C  
BRANCH  30  31
HETATM   31  N   UNL     1     -10.923  15.804  64.538  1.00  0.00    -0.460 NA 
HETATM   32  C   UNL     1     -10.440  14.434  64.348  1.00  0.00     0.161 C  
HETATM   33  C   UNL     1     -12.131  15.784  65.361  1.00  0.00     0.821 C  
ENDBRANCH  30  31
ENDBRANCH  27  30
ENDBRANCH   2   3
TORSDOF 3
ENDMDL
MODEL       82
REMARK 921   NORMALIZED FREE ENERGY PREDICTED BY IDOCK:   -0.27 KCAL/MOL
REMARK 922        TOTAL FREE ENERGY PREDICTED BY IDOCK:   -0.96 KCAL/MOL
REMARK 923 INTER-LIGAND FREE ENERGY PREDICTED BY IDOCK:   -0.86 KCAL/MOL
REMARK 924 INTRA-LIGAND FREE ENERGY PREDICTED BY IDOCK:   -0.09 KCAL/MOL
REMARK 927      BINDING AFFINITY PREDICTED BY RF-SCORE:    0.00 PKD
ROOT
HETATM    1  C   UNL     1      -9.846   7.880  73.335  1.00  0.00    -0.298 C  
HETATM    2  C   UNL     1      -9.339   8.154  71.934  1.00  0.00    -0.251 C  
ENDROOT
BRANCH   2   3
HETATM    3  C   UNL     1     -10.322   8.831  70.955  1.00  0.00    -0.233 C  
HETATM    4  C   UNL     1     -11.226   7.667  70.395  1.00  0.00    -0.244 C  
HETATM    5  O   UNL     1     -11.212   9.622  71.796  1.00  0.00    -0.323 OA 
HETATM    6  H   UNL     1     -11.817  10.038  71.194  1.00  0.00     0.000 HD 
HETATM    7  O   UNL     1     -12.248   8.049  69.598  1.00  0.00     1.029 OA 
HETATM    8  O   UNL     1     -11.153   6.497  70.772  1.00  0.00    -0.263 OA 
HETATM    9  C   UNL     1     -11.945   8.970  68.559  1.00  0.00     2.377 C  
HETATM   10  C   UNL     1     -10.923   9.984  68.916  1.00  0.00    -0.244 C  
HETATM   11  C   UNL     1      -9.925   9.806  69.818  1.00  0.00    -0.265 C  
HETATM   12  C   UNL     1      -8.775  10.774  69.683  1.00  0.00     0.254 C  
HETATM   13  C   UNL     1      -9.004  12.013  69.162  1.00  0.00     0.546 C  
HETATM   14  N   UNL     1     -10.336  12.316  68.931  1.00  0.00    -0.124 N  
HETATM   15  C   UNL     1     -10.590  13.736  68.928  1.00  0.00    -0.205 C  
HETATM   16  C   UNL     1     -11.321  11.400  68.704  1.00  0.00    -0.265 C  
HETATM   17  C   UNL     1      -9.232  14.280  68.727  1.00  0.00    -0.112 A  
HETATM   18  O   UNL     1     -12.466  11.702  68.412  1.00  0.00    -0.261 OA 
HETATM   19  C   UNL     1      -8.917  15.589  68.458  1.00  0.00    -0.191 A  
HETATM   20  C   UNL     1      -7.608  15.923  68.135  1.00  0.00    -0.135 A  
HETATM   21  C   UNL     1      -6.701  14.839  67.947  1.00  0.00    -0.163 A  
HETATM   22  C   UNL     1      -5.488  15.210  67.341  1.00  0.00     0.226 A  
HETATM   23  N   UNL     1      -7.011  13.523  68.314  1.00  0.00    -0.095 NA 
HETATM   24  C   UNL     1      -5.136  16.547  67.037  1.00  0.00    -0.057 A  
HETATM   25  C   UNL     1      -8.259  13.284  68.779  1.00  0.00     0.084 A  
HETATM   26  C   UNL     1      -5.993  17.580  67.396  1.00  0.00    -0.134 A  
HETATM   27  C   UNL     1      -7.229  17.294  67.976  1.00  0.00    -0.192 A  
HETATM   28  O   UNL     1      -5.641  18.883  67.198  1.00  0.00    -0.146 OA 
HETATM   29  H   UNL     1      -6.227  19.589  67.444  1.00  0.00     0.000 HD 
BRANCH  27  30
HETATM   30  C   UNL     1      -8.092  18.435  68.520  1.00  0.00    -0.319 C  
BRANCH  30  31
HETATM   31  N   UNL     1      -9.242  18.753  67.639  1.00  0.00    -0.283 NA 
HETATM   32  C   UNL     1     -10.437  19.121  68.402  1.00  0.00    -0.216 C  
HETATM   33  C   UNL     1      -8.910  19.828  66.705  1.00  0.00    -0.359 C  
ENDBRANCH  30  31
ENDBRANCH  27  30
ENDBRANCH   2   3
TORSDOF 3
ENDMDL
MODEL       83
REMARK 921   NORMALIZED FREE ENERGY PREDICTED BY IDOCK:   -0.17 KCAL/MOL
REMARK 922        TOTAL FREE ENERGY PREDICTED BY IDOCK:   -0.85 KCAL/MOL
REMARK 923 INTER-LIGAND FREE ENERGY PREDICTED BY IDOCK:   -1.85 KCAL/MOL
REMARK 924 INTRA-LIGAND FREE ENERGY PREDICTED BY IDOCK:    1.00 KCAL/MOL
REMARK 927      BINDING AFFINITY PREDICTED BY RF-SCORE:    0.00 PKD
ROOT
HETATM    1  C   UNL     1     -14.174   8.145  73.045  1.00  0.00     0.550 C  
HETATM    2  C   UNL     1     -14.007   8.500  71.582  1.00  0.00    -0.463 C  
ENDROOT
BRANCH   2   3
HETATM    3  C   UNL     1     -12.645   9.088  71.156  1.00  0.00    -0.211 C  
HETATM    4  C   UNL     1     -12.788  10.648  71.333  1.00  0.00    -0.451 C  
HETATM    5  O   UNL     1     -11.712   8.678  72.197  1.00  0.00    -0.341 OA 
HETATM    6  H   UNL     1     -10.874   9.040  71.935  1.00  0.00     0.000 HD 
HETATM    7  O   UNL     1     -11.662  11.367  71.127  1.00  0.00     0.074 OA 
HETATM    8  O   UNL     1     -13.785  11.200  71.799  1.00  0.00    -0.045 OA 
HETATM    9  C   UNL     1     -10.920  11.079  69.950  1.00  0.00    -0.150 C  
HETATM   10  C   UNL     1     -10.912   9.646  69.564  1.00  0.00    -0.233 C  
HETATM   11  C   UNL     1     -11.899   8.756  69.839  1.00  0.00     0.492 C  
HETATM   12  C   UNL     1     -11.884   7.516  68.980  1.00  0.00     1.250 C  
HETATM   13  C   UNL     1     -10.701   7.077  68.463  1.00  0.00    -0.179 C  
HETATM   14  N   UNL     1      -9.578   7.757  68.906  1.00  0.00    -0.153 N  
HETATM   15  C   UNL     1      -8.375   6.966  68.809  1.00  0.00    -0.121 C  
HETATM   16  C   UNL     1      -9.570   9.041  69.367  1.00  0.00    -0.160 C  
HETATM   17  C   UNL     1      -8.786   5.917  67.854  1.00  0.00    -0.105 A  
HETATM   18  O   UNL     1      -8.551   9.643  69.662  1.00  0.00    -0.153 OA 
HETATM   19  C   UNL     1      -7.959   4.998  67.259  1.00  0.00    -0.099 A  
HETATM   20  C   UNL     1      -8.462   4.174  66.260  1.00  0.00    -0.109 A  
HETATM   21  C   UNL     1      -9.784   4.457  65.807  1.00  0.00    -0.209 A  
HETATM   22  C   UNL     1     -10.129   3.799  64.612  1.00  0.00    -0.193 A  
HETATM   23  N   UNL     1     -10.644   5.331  66.483  1.00  0.00    -0.306 NA 
HETATM   24  C   UNL     1      -9.296   2.857  63.963  1.00  0.00    -0.118 A  
HETATM   25  C   UNL     1     -10.145   5.988  67.556  1.00  0.00    -0.159 A  
HETATM   26  C   UNL     1      -8.086   2.497  64.543  1.00  0.00    -0.082 A  
HETATM   27  C   UNL     1      -7.658   3.124  65.714  1.00  0.00    -0.074 A  
HETATM   28  O   UNL     1      -7.304   1.526  63.989  1.00  0.00    -0.049 OA 
HETATM   29  H   UNL     1      -6.476   1.280  64.386  1.00  0.00     0.000 HD 
BRANCH  27  30
HETATM   30  C   UNL     1      -6.410   2.609  66.436  1.00  0.00    -0.025 C  
BRANCH  30  31
HETATM   31  N   UNL     1      -5.249   3.520  66.294  1.00  0.00    -0.008 NA 
HETATM   32  C   UNL     1      -5.267   4.243  65.020  1.00  0.00    -0.009 C  
HETATM   33  C   UNL     1      -5.191   4.478  67.397  1.00  0.00    -0.012 C  
ENDBRANCH  30  31
ENDBRANCH  27  30
ENDBRANCH   2   3
TORSDOF 3
ENDMDL
MODEL       84
REMARK 921   NORMALIZED FREE ENERGY PREDICTED BY IDOCK:    1.10 KCAL/MOL
REMARK 922        TOTAL FREE ENERGY PREDICTED BY IDOCK:    0.64 KCAL/MOL
REMARK 923 INTER-LIGAND FREE ENERGY PREDICTED BY IDOCK:   -0.94 KCAL/MOL
REMARK 924 INTRA-LIGAND FREE ENERGY PREDICTED BY IDOCK:    1.58 KCAL/MOL
REMARK 927      BINDING AFFINITY PREDICTED BY RF-SCORE:    0.00 PKD
ROOT
HETATM    1  C   UNL     1      -9.571  20.648  65.369  1.00  0.00     0.722 C  
HETATM    2  C   UNL     1     -10.225  19.353  65.806  1.00  0.00    -0.346 C  
ENDROOT
BRANCH   2   3
HETATM    3  C   UNL     1     -10.356  19.113  67.325  1.00  0.00    -0.432 C  
HETATM    4  C   UNL     1      -9.704  20.376  68.008  1.00  0.00    -0.219 C  
HETATM    5  O   UNL     1     -11.781  19.231  67.607  1.00  0.00     0.457 OA 
HETATM    6  H   UNL     1     -11.861  19.083  68.542  1.00  0.00     0.000 HD 
HETATM    7  O   UNL     1      -9.813  20.438  69.353  1.00  0.00     0.134 OA 
HETATM    8  O   UNL     1      -9.275  21.350  67.387  1.00  0.00     0.006 OA 
HETATM    9  C   UNL     1      -9.474  19.265  70.081  1.00  0.00     1.007 C  
HETATM   10  C   UNL     1      -9.848  17.996  69.409  1.00  0.00     0.081 C  
HETATM   11  C   UNL     1      -9.938  17.818  68.067  1.00  0.00    -0.333 C  
HETATM   12  C   UNL     1      -9.885  16.378  67.618  1.00  0.00    -0.243 C  
HETATM   13  C   UNL     1     -10.322  15.400  68.461  1.00  0.00    -0.226 C  
HETATM   14  N   UNL     1     -10.917  15.853  69.627  1.00  0.00    -0.290 N  
HETATM   15  C   UNL     1     -11.829  14.890  70.197  1.00  0.00    -0.308 C  
HETATM   16  C   UNL     1     -10.674  17.061  70.214  1.00  0.00     0.397 C  
HETATM   17  C   UNL     1     -11.398  13.645  69.530  1.00  0.00    -0.276 A  
HETATM   18  O   UNL     1     -11.144  17.392  71.290  1.00  0.00     0.778 OA 
HETATM   19  C   UNL     1     -11.812  12.375  69.846  1.00  0.00    -0.376 A  
HETATM   20  C   UNL     1     -11.200  11.287  69.237  1.00  0.00    -0.336 A  
HETATM   21  C   UNL     1     -10.057  11.568  68.431  1.00  0.00    -0.204 A  
HETATM   22  C   UNL     1      -9.310  10.427  68.086  1.00  0.00    -0.149 A  
HETATM   23  N   UNL     1      -9.706  12.867  68.045  1.00  0.00    -0.218 NA 
HETATM   24  C   UNL     1      -9.698   9.104  68.408  1.00  0.00    -0.166 A  
HETATM   25  C   UNL     1     -10.445  13.886  68.543  1.00  0.00    -0.250 A  
HETATM   26  C   UNL     1     -10.909   8.882  69.051  1.00  0.00    -0.046 A  
HETATM   27  C   UNL     1     -11.696   9.962  69.453  1.00  0.00     0.073 A  
HETATM   28  O   UNL     1     -11.353   7.615  69.294  1.00  0.00    -0.429 OA 
HETATM   29  H   UNL     1     -12.181   7.464  69.734  1.00  0.00     0.000 HD 
BRANCH  27  30
HETATM   30  C   UNL     1     -13.100   9.711  70.008  1.00  0.00     0.931 C  
BRANCH  30  31
HETATM   31  N   UNL     1     -13.080   9.089  71.355  1.00  0.00    -0.311 NA 
HETATM   32  C   UNL     1     -13.908   9.824  72.315  1.00  0.00    -0.146 C  
HETATM   33  C   UNL     1     -13.519   7.695  71.299  1.00  0.00    -0.219 C  
ENDBRANCH  30  31
ENDBRANCH  27  30
ENDBRANCH   2   3
TORSDOF 3
ENDMDL
MODEL       85
REMARK 921   NORMALIZED FREE ENERGY PREDICTED BY IDOCK:    1.38 KCAL/MOL
REMARK 922        TOTAL FREE ENERGY PREDICTED BY IDOCK:    0.98 KCAL/MOL
REMARK 923 INTER-LIGAND FREE ENERGY PREDICTED BY IDOCK:    0.10 KCAL/MOL
REMARK 924 INTRA-LIGAND FREE ENERGY PREDICTED BY IDOCK:    0.88 KCAL/MOL
REMARK 927      BINDING AFFINITY PREDICTED BY RF-SCORE:    0.00 PKD
ROOT
HETATM    1  C   UNL     1      -7.687  19.606  70.247  1.00  0.00     0.874 C  
HETATM    2  C   UNL     1      -8.447  18.572  69.441  1.00  0.00     0.369 C  
ENDROOT
BRANCH   2   3
HETATM    3  C   UNL     1      -7.608  17.588  68.598  1.00  0.00    -0.273 C  
HETATM    4  C   UNL     1      -7.090  18.426  67.367  1.00  0.00    -0.204 C  
HETATM    5  O   UNL     1      -6.417  17.324  69.396  1.00  0.00    -0.233 OA 
HETATM    6  H   UNL     1      -5.901  16.719  68.877  1.00  0.00     0.000 HD 
HETATM    7  O   UNL     1      -6.227  17.790  66.546  1.00  0.00    -0.154 OA 
HETATM    8  O   UNL     1      -7.290  19.633  67.222  1.00  0.00    -0.222 OA 
HETATM    9  C   UNL     1      -6.584  16.480  66.125  1.00  0.00     0.819 C  
HETATM   10  C   UNL     1      -7.289  15.676  67.153  1.00  0.00    -0.247 C  
HETATM   11  C   UNL     1      -8.068  16.180  68.144  1.00  0.00    -0.149 C  
HETATM   12  C   UNL     1      -9.018  15.186  68.765  1.00  0.00    -0.197 C  
HETATM   13  C   UNL     1      -8.689  13.863  68.771  1.00  0.00     0.006 C  
HETATM   14  N   UNL     1      -7.413  13.573  68.314  1.00  0.00    -0.111 N  
HETATM   15  C   UNL     1      -6.907  12.325  68.832  1.00  0.00    -0.096 C  
HETATM   16  C   UNL     1      -6.695  14.347  67.449  1.00  0.00     0.026 C  
HETATM   17  C   UNL     1      -8.150  11.665  69.280  1.00  0.00     0.311 A  
HETATM   18  O   UNL     1      -5.612  14.018  66.993  1.00  0.00     0.096 OA 
HETATM   19  C   UNL     1      -8.268  10.360  69.688  1.00  0.00    -0.099 A  
HETATM   20  C   UNL     1      -9.531   9.833  69.929  1.00  0.00    -0.264 A  
HETATM   21  C   UNL     1     -10.642  10.654  69.575  1.00  0.00    -0.230 A  
HETATM   22  C   UNL     1     -11.872   9.972  69.560  1.00  0.00     0.017 A  
HETATM   23  N   UNL     1     -10.506  12.010  69.249  1.00  0.00     0.034 NA 
HETATM   24  C   UNL     1     -12.029   8.623  69.960  1.00  0.00     0.538 A  
HETATM   25  C   UNL     1      -9.251  12.512  69.189  1.00  0.00     0.676 A  
HETATM   26  C   UNL     1     -10.936   7.923  70.455  1.00  0.00    -0.249 A  
HETATM   27  C   UNL     1      -9.675   8.519  70.476  1.00  0.00    -0.202 A  
HETATM   28  O   UNL     1     -11.075   6.652  70.932  1.00  0.00    -0.255 OA 
HETATM   29  H   UNL     1     -10.328   6.173  71.270  1.00  0.00     0.000 HD 
BRANCH  27  30
HETATM   30  C   UNL     1      -8.513   7.807  71.173  1.00  0.00    -0.112 C  
BRANCH  30  31
HETATM   31  N   UNL     1      -8.893   6.474  71.702  1.00  0.00    -0.135 NA 
HETATM   32  C   UNL     1      -7.927   5.437  71.329  1.00  0.00    -0.110 C  
HETATM   33  C   UNL     1      -9.038   6.504  73.156  1.00  0.00    -0.127 C  
ENDBRANCH  30  31
ENDBRANCH  27  30
ENDBRANCH   2   3
TORSDOF 3
ENDMDL
MODEL       86
REMARK 921   NORMALIZED FREE ENERGY PREDICTED BY IDOCK:    1.74 KCAL/MOL
REMARK 922        TOTAL FREE ENERGY PREDICTED BY IDOCK:    1.40 KCAL/MOL
REMARK 923 INTER-LIGAND FREE ENERGY PREDICTED BY IDOCK:   -0.62 KCAL/MOL
REMARK 924 INTRA-LIGAND FREE ENERGY PREDICTED BY IDOCK:    2.02 KCAL/MOL
REMARK 927      BINDING AFFINITY PREDICTED BY RF-SCORE:    0.00 PKD
ROOT
HETATM    1  C   UNL     1     -11.705   5.363  71.385  1.00  0.00     0.669 C  
HETATM    2  C   UNL     1     -11.003   5.456  70.046  1.00  0.00    -0.058 C  
ENDROOT
BRANCH   2   3
HETATM    3  C   UNL     1      -9.672   6.237  70.007  1.00  0.00    -0.168 C  
HETATM    4  C   UNL     1      -8.618   5.307  70.721  1.00  0.00    -0.130 C  
HETATM    5  O   UNL     1      -9.276   6.242  68.605  1.00  0.00    -0.126 OA 
HETATM    6  H   UNL     1      -8.457   6.723  68.581  1.00  0.00     0.000 HD 
HETATM    7  O   UNL     1      -7.340   5.744  70.698  1.00  0.00    -0.079 OA 
HETATM    8  O   UNL     1      -8.865   4.170  71.126  1.00  0.00    -0.100 OA 
HETATM    9  C   UNL     1      -7.115   7.099  71.063  1.00  0.00    -0.069 C  
HETATM   10  C   UNL     1      -8.180   8.036  70.628  1.00  0.00    -0.114 C  
HETATM   11  C   UNL     1      -9.485   7.710  70.450  1.00  0.00    -0.164 C  
HETATM   12  C   UNL     1     -10.433   8.885  70.452  1.00  0.00    -0.245 C  
HETATM   13  C   UNL     1      -9.980  10.108  70.053  1.00  0.00    -0.161 C  
HETATM   14  N   UNL     1      -8.693  10.118  69.540  1.00  0.00    -0.183 N  
HETATM   15  C   UNL     1      -8.459  11.230  68.650  1.00  0.00    -0.143 C  
HETATM   16  C   UNL     1      -7.722   9.208  69.839  1.00  0.00    -0.087 C  
HETATM   17  C   UNL     1      -9.562  12.141  69.018  1.00  0.00     0.270 A  
HETATM   18  O   UNL     1      -6.572   9.298  69.443  1.00  0.00    -0.043 OA 
HETATM   19  C   UNL     1      -9.707  13.442  68.605  1.00  0.00    -0.084 A  
HETATM   20  C   UNL     1     -10.710  14.226  69.160  1.00  0.00    -0.239 A  
HETATM   21  C   UNL     1     -11.429  13.660  70.253  1.00  0.00     0.020 A  
HETATM   22  C   UNL     1     -12.215  14.588  70.959  1.00  0.00    -0.407 A  
HETATM   23  N   UNL     1     -11.334  12.306  70.601  1.00  0.00     0.778 NA 
HETATM   24  C   UNL     1     -12.376  15.940  70.571  1.00  0.00    -0.280 A  
HETATM   25  C   UNL     1     -10.451  11.548  69.911  1.00  0.00     0.668 A  
HETATM   26  C   UNL     1     -11.782  16.392  69.399  1.00  0.00     0.036 A  
HETATM   27  C   UNL     1     -10.963  15.541  68.657  1.00  0.00    -0.279 A  
HETATM   28  O   UNL     1     -11.993  17.664  68.952  1.00  0.00     1.250 OA 
HETATM   29  H   UNL     1     -11.586  17.973  68.150  1.00  0.00     0.000 HD 
BRANCH  27  30
HETATM   30  C   UNL     1     -10.449  15.990  67.286  1.00  0.00    -0.308 C  
BRANCH  30  31
HETATM   31  N   UNL     1      -9.812  17.329  67.324  1.00  0.00    -0.260 NA 
HETATM   32  C   UNL     1      -9.629  17.815  68.694  1.00  0.00    -0.322 C  
HETATM   33  C   UNL     1      -8.523  17.321  66.634  1.00  0.00    -0.260 C  
ENDBRANCH  30  31
ENDBRANCH  27  30
ENDBRANCH   2   3
TORSDOF 3
ENDMDL
MODEL       87
REMARK 921   NORMALIZED FREE ENERGY PREDICTED BY IDOCK:    4.80 KCAL/MOL
REMARK 922        TOTAL FREE ENERGY PREDICTED BY IDOCK:    5.00 KCAL/MOL
REMARK 923 INTER-LIGAND FREE ENERGY PREDICTED BY IDOCK:    5.51 KCAL/MOL
REMARK 924 INTRA-LIGAND FREE ENERGY PREDICTED BY IDOCK:   -0.51 KCAL/MOL
REMARK 927      BINDING AFFINITY PREDICTED BY RF-SCORE:    0.00 PKD
ROOT
HETATM    1  C   UNL     1     -13.271  11.874  66.319  1.00  0.00     5.352 C  
HETATM    2  C   UNL     1     -12.662  11.224  65.093  1.00  0.00     2.956 C  
ENDROOT
BRANCH   2   3
HETATM    3  C   UNL     1     -11.122  11.141  65.038  1.00  0.00    -0.030 C  
HETATM    4  C   UNL     1     -10.716  11.796  63.663  1.00  0.00    -0.440 C  
HETATM    5  O   UNL     1     -10.655  12.079  66.051  1.00  0.00    -0.251 OA 
HETATM    6  H   UNL     1      -9.707  12.028  66.016  1.00  0.00     0.000 HD 
HETATM    7  O   UNL     1      -9.389  11.940  63.451  1.00  0.00    -0.154 OA 
HETATM    8  O   UNL     1     -11.516  12.318  62.885  1.00  0.00    -0.098 OA 
HETATM    9  C   UNL     1      -8.568  10.809  63.710  1.00  0.00    -0.036 C  
HETATM   10  C   UNL     1      -9.005   9.986  64.865  1.00  0.00    -0.241 C  
HETATM   11  C   UNL     1     -10.284   9.865  65.301  1.00  0.00    -0.095 C  
HETATM   12  C   UNL     1     -10.541   8.658  66.170  1.00  0.00     0.732 C  
HETATM   13  C   UNL     1      -9.521   8.141  66.913  1.00  0.00    -0.191 C  
HETATM   14  N   UNL     1      -8.351   8.884  66.900  1.00  0.00    -0.111 N  
HETATM   15  C   UNL     1      -7.533   8.652  68.065  1.00  0.00    -0.097 C  
HETATM   16  C   UNL     1      -7.971   9.732  65.901  1.00  0.00    -0.111 C  
HETATM   17  C   UNL     1      -8.084   7.377  68.565  1.00  0.00    -0.125 A  
HETATM   18  O   UNL     1      -6.892  10.300  65.875  1.00  0.00    -0.110 OA 
HETATM   19  C   UNL     1      -7.545   6.599  69.559  1.00  0.00    -0.095 A  
HETATM   20  C   UNL     1      -8.087   5.345  69.813  1.00  0.00    -0.096 A  
HETATM   21  C   UNL     1      -9.080   4.883  68.900  1.00  0.00    -0.112 A  
HETATM   22  C   UNL     1      -9.376   3.514  69.025  1.00  0.00    -0.240 A  
HETATM   23  N   UNL     1      -9.683   5.721  67.952  1.00  0.00    -0.116 NA 
HETATM   24  C   UNL     1      -8.828   2.678  70.028  1.00  0.00    -0.145 A  
HETATM   25  C   UNL     1      -9.222   6.990  67.861  1.00  0.00    -0.125 A  
HETATM   26  C   UNL     1      -7.992   3.224  70.994  1.00  0.00    -0.054 A  
HETATM   27  C   UNL     1      -7.627   4.569  70.924  1.00  0.00    -0.056 A  
HETATM   28  O   UNL     1      -7.522   2.464  72.024  1.00  0.00    -0.042 OA 
HETATM   29  H   UNL     1      -6.950   2.837  72.685  1.00  0.00     0.000 HD 
BRANCH  27  30
HETATM   30  C   UNL     1      -6.845   5.202  72.078  1.00  0.00    -0.061 C  
BRANCH  30  31
HETATM   31  N   UNL     1      -7.661   5.354  73.307  1.00  0.00    -0.099 NA 
HETATM   32  C   UNL     1      -6.883   5.899  74.422  1.00  0.00    -0.080 C  
HETATM   33  C   UNL     1      -8.827   6.202  73.065  1.00  0.00    -0.124 C  
ENDBRANCH  30  31
ENDBRANCH  27  30
ENDBRANCH   2   3
TORSDOF 3
ENDMDL
MODEL       88
REMARK 921   NORMALIZED FREE ENERGY PREDICTED BY IDOCK:    5.03 KCAL/MOL
REMARK 922        TOTAL FREE ENERGY PREDICTED BY IDOCK:    5.27 KCAL/MOL
REMARK 923 INTER-LIGAND FREE ENERGY PREDICTED BY IDOCK:    4.16 KCAL/MOL
REMARK 924 INTRA-LIGAND FREE ENERGY PREDICTED BY IDOCK:    1.11 KCAL/MOL
REMARK 927      BINDING AFFINITY PREDICTED BY RF-SCORE:    0.00 PKD
ROOT
HETATM    1  C   UNL     1     -12.385  18.025  67.354  1.00  0.00     4.233 C  
HETATM    2  C   UNL     1     -11.452  18.245  68.528  1.00  0.00     1.686 C  
ENDROOT
BRANCH   2   3
HETATM    3  C   UNL     1      -9.953  17.965  68.292  1.00  0.00    -0.360 C  
HETATM    4  C   UNL     1      -9.284  19.382  68.113  1.00  0.00    -0.336 C  
HETATM    5  O   UNL     1      -9.453  17.475  69.570  1.00  0.00     0.154 OA 
HETATM    6  H   UNL     1      -8.530  17.303  69.425  1.00  0.00     0.000 HD 
HETATM    7  O   UNL     1      -7.937  19.385  68.011  1.00  0.00    -0.286 OA 
HETATM    8  O   UNL     1      -9.888  20.448  68.233  1.00  0.00    -0.265 OA 
HETATM    9  C   UNL     1      -7.357  18.458  67.103  1.00  0.00    -0.206 C  
HETATM   10  C   UNL     1      -8.058  17.152  67.028  1.00  0.00    -0.228 C  
HETATM   11  C   UNL     1      -9.381  16.960  67.261  1.00  0.00    -0.238 C  
HETATM   12  C   UNL     1      -9.939  15.676  66.696  1.00  0.00    -0.269 C  
HETATM   13  C   UNL     1      -9.114  14.601  66.543  1.00  0.00    -0.237 C  
HETATM   14  N   UNL     1      -7.841  14.758  67.068  1.00  0.00    -0.138 N  
HETATM   15  C   UNL     1      -7.215  13.499  67.394  1.00  0.00    -0.098 C  
HETATM   16  C   UNL     1      -7.210  15.953  67.249  1.00  0.00    -0.216 C  
HETATM   17  C   UNL     1      -8.030  12.551  66.607  1.00  0.00     0.186 A  
HETATM   18  O   UNL     1      -6.054  16.053  67.627  1.00  0.00    -0.133 OA 
HETATM   19  C   UNL     1      -7.750  11.223  66.402  1.00  0.00    -0.089 A  
HETATM   20  C   UNL     1      -8.523  10.494  65.508  1.00  0.00    -0.177 A  
HETATM   21  C   UNL     1      -9.469  11.230  64.735  1.00  0.00    -0.194 A  
HETATM   22  C   UNL     1     -10.005  10.508  63.654  1.00  0.00    -0.299 A  
HETATM   23  N   UNL     1      -9.806  12.559  65.020  1.00  0.00    -0.153 NA 
HETATM   24  C   UNL     1      -9.728   9.143  63.403  1.00  0.00     1.707 A  
HETATM   25  C   UNL     1      -9.128  13.173  66.017  1.00  0.00     0.213 A  
HETATM   26  C   UNL     1      -8.929   8.432  64.290  1.00  0.00     0.525 A  
HETATM   27  C   UNL     1      -8.335   9.082  65.372  1.00  0.00    -0.151 A  
HETATM   28  O   UNL     1      -8.717   7.094  64.125  1.00  0.00    -0.237 OA 
HETATM   29  H   UNL     1      -8.170   6.608  64.731  1.00  0.00     0.000 HD 
BRANCH  27  30
HETATM   30  C   UNL     1      -7.595   8.264  66.433  1.00  0.00    -0.091 C  
BRANCH  30  31
HETATM   31  N   UNL     1      -6.120   8.352  66.300  1.00  0.00    -0.048 NA 
HETATM   32  C   UNL     1      -5.685   8.247  64.905  1.00  0.00    -0.044 C  
HETATM   33  C   UNL     1      -5.611   9.596  66.876  1.00  0.00    -0.046 C  
ENDBRANCH  30  31
ENDBRANCH  27  30
ENDBRANCH   2   3
TORSDOF 3
ENDMDL
MODEL       89
REMARK 921   NORMALIZED FREE ENERGY PREDICTED BY IDOCK:    5.09 KCAL/MOL
REMARK 922        TOTAL FREE ENERGY PREDICTED BY IDOCK:    5.34 KCAL/MOL
REMARK 923 INTER-LIGAND FREE ENERGY PREDICTED BY IDOCK:    1.92 KCAL/MOL
REMARK 924 INTRA-LIGAND FREE ENERGY PREDICTED BY IDOCK:    3.42 KCAL/MOL
REMARK 927      BINDING AFFINITY PREDICTED BY RF-SCORE:    0.00 PKD
ROOT
HETATM    1  C   UNL     1      -8.235  13.962  68.856  1.00  0.00     0.051 C  
HETATM    2  C   UNL     1      -8.697  13.402  67.526  1.00  0.00    -0.205 C  
ENDROOT
BRANCH   2   3
HETATM    3  C   UNL     1      -9.832  12.358  67.564  1.00  0.00    -0.194 C  
HETATM    4  C   UNL     1     -10.965  13.001  68.452  1.00  0.00    -0.262 C  
HETATM    5  O   UNL     1     -10.380  12.344  66.214  1.00  0.00    -0.237 OA 
HETATM    6  H   UNL     1     -11.079  11.701  66.237  1.00  0.00     0.000 HD 
HETATM    7  O   UNL     1     -12.120  12.303  68.527  1.00  0.00    -0.279 OA 
HETATM    8  O   UNL     1     -10.913  14.140  68.917  1.00  0.00    -0.244 OA 
HETATM    9  C   UNL     1     -12.015  10.913  68.806  1.00  0.00    -0.160 C  
HETATM   10  C   UNL     1     -10.838  10.250  68.192  1.00  0.00    -0.312 C  
HETATM   11  C   UNL     1      -9.658  10.857  67.908  1.00  0.00    -0.175 C  
HETATM   12  C   UNL     1      -8.495   9.914  67.721  1.00  0.00    -0.118 C  
HETATM   13  C   UNL     1      -8.728   8.646  67.277  1.00  0.00    -0.129 C  
HETATM   14  N   UNL     1     -10.036   8.388  66.899  1.00  0.00    -0.267 N  
HETATM   15  C   UNL     1     -10.138   7.302  65.955  1.00  0.00     0.570 C  
HETATM   16  C   UNL     1     -11.133   9.052  67.366  1.00  0.00     0.340 C  
HETATM   17  C   UNL     1      -8.835   6.630  66.136  1.00  0.00    -0.160 A  
HETATM   18  O   UNL     1     -12.278   8.740  67.085  1.00  0.00     4.618 OA 
HETATM   19  C   UNL     1      -8.474   5.414  65.610  1.00  0.00    -0.138 A  
HETATM   20  C   UNL     1      -7.273   4.834  65.997  1.00  0.00    -0.076 A  
HETATM   21  C   UNL     1      -6.563   5.480  67.052  1.00  0.00    -0.056 A  
HETATM   22  C   UNL     1      -5.526   4.705  67.599  1.00  0.00    -0.013 A  
HETATM   23  N   UNL     1      -6.895   6.762  67.511  1.00  0.00    -0.074 NA 
HETATM   24  C   UNL     1      -5.135   3.442  67.092  1.00  0.00    -0.008 A  
HETATM   25  C   UNL     1      -7.990   7.350  66.976  1.00  0.00    -0.116 A  
HETATM   26  C   UNL     1      -5.756   2.937  65.956  1.00  0.00    -0.018 A  
HETATM   27  C   UNL     1      -6.814   3.632  65.370  1.00  0.00    -0.049 A  
HETATM   28  O   UNL     1      -5.341   1.766  65.392  1.00  0.00    -0.005 OA 
HETATM   29  H   UNL     1      -5.765   1.421  64.615  1.00  0.00     0.000 HD 
BRANCH  27  30
HETATM   30  C   UNL     1      -7.380   3.159  64.029  1.00  0.00    -0.065 C  
BRANCH  30  31
HETATM   31  N   UNL     1      -8.551   3.956  63.589  1.00  0.00    -0.093 NA 
HETATM   32  C   UNL     1      -8.164   5.282  63.099  1.00  0.00    -0.110 C  
HETATM   33  C   UNL     1      -9.307   3.255  62.552  1.00  0.00    -0.091 C  
ENDBRANCH  30  31
ENDBRANCH  27  30
ENDBRANCH   2   3
TORSDOF 3
ENDMDL
MODEL       90
REMARK 921   NORMALIZED FREE ENERGY PREDICTED BY IDOCK:    6.35 KCAL/MOL
REMARK 922        TOTAL FREE ENERGY PREDICTED BY IDOCK:    6.81 KCAL/MOL
REMARK 923 INTER-LIGAND FREE ENERGY PREDICTED BY IDOCK:    6.32 KCAL/MOL
REMARK 924 INTRA-LIGAND FREE ENERGY PREDICTED BY IDOCK:    0.49 KCAL/MOL
REMARK 927      BINDING AFFINITY PREDICTED BY RF-SCORE:    0.00 PKD
ROOT
HETATM    1  C   UNL     1      -9.251   2.499  68.827  1.00  0.00    -0.227 C  
HETATM    2  C   UNL     1      -9.893   2.270  70.180  1.00  0.00     0.168 C  
ENDROOT
BRANCH   2   3
HETATM    3  C   UNL     1      -9.690   3.367  71.246  1.00  0.00    -0.157 C  
HETATM    4  C   UNL     1      -9.992   2.671  72.628  1.00  0.00    -0.148 C  
HETATM    5  O   UNL     1      -8.255   3.621  71.261  1.00  0.00    -0.066 OA 
HETATM    6  H   UNL     1      -8.131   4.296  71.917  1.00  0.00     0.000 HD 
HETATM    7  O   UNL     1      -9.759   3.423  73.726  1.00  0.00    -0.101 OA 
HETATM    8  O   UNL     1     -10.250   1.473  72.754  1.00  0.00    -0.102 OA 
HETATM    9  C   UNL     1     -10.282   4.744  73.725  1.00  0.00    -0.194 C  
HETATM   10  C   UNL     1     -10.252   5.416  72.402  1.00  0.00    -0.241 C  
HETATM   11  C   UNL     1     -10.316   4.784  71.203  1.00  0.00    -0.188 C  
HETATM   12  C   UNL     1     -10.719   5.668  70.048  1.00  0.00    -0.390 C  
HETATM   13  C   UNL     1     -10.436   7.001  70.097  1.00  0.00    -0.214 C  
HETATM   14  N   UNL     1      -9.660   7.397  71.175  1.00  0.00    -0.160 N  
HETATM   15  C   UNL     1      -8.935   8.618  70.919  1.00  0.00    -0.187 C  
HETATM   16  C   UNL     1      -9.584   6.742  72.369  1.00  0.00    -0.153 C  
HETATM   17  C   UNL     1      -9.680   9.170  69.770  1.00  0.00    -0.191 A  
HETATM   18  O   UNL     1      -8.964   7.166  73.330  1.00  0.00    -0.132 OA 
HETATM   19  C   UNL     1      -9.528  10.425  69.236  1.00  0.00    -0.214 A  
HETATM   20  C   UNL     1     -10.411  10.862  68.257  1.00  0.00    -0.205 A  
HETATM   21  C   UNL     1     -11.529  10.018  67.986  1.00  0.00     0.194 A  
HETATM   22  C   UNL     1     -12.533  10.634  67.217  1.00  0.00     4.020 A  
HETATM   23  N   UNL     1     -11.621   8.706  68.468  1.00  0.00     1.099 NA 
HETATM   24  C   UNL     1     -12.416  11.932  66.663  1.00  0.00     1.522 A  
HETATM   25  C   UNL     1     -10.638   8.278  69.294  1.00  0.00    -0.181 A  
HETATM   26  C   UNL     1     -11.233  12.641  66.822  1.00  0.00    -0.300 A  
HETATM   27  C   UNL     1     -10.199  12.112  67.595  1.00  0.00    -0.206 A  
HETATM   28  O   UNL     1     -11.057  13.855  66.224  1.00  0.00    -0.300 OA 
HETATM   29  H   UNL     1     -10.247  14.340  66.334  1.00  0.00     0.000 HD 
BRANCH  27  30
HETATM   30  C   UNL     1      -8.841  12.819  67.630  1.00  0.00    -0.189 C  
BRANCH  30  31
HETATM   31  N   UNL     1      -8.842  14.097  66.878  1.00  0.00    -0.225 NA 
HETATM   32  C   UNL     1      -8.382  15.221  67.698  1.00  0.00    -0.164 C  
HETATM   33  C   UNL     1      -8.018  14.003  65.674  1.00  0.00     4.155 C  
ENDBRANCH  30  31
ENDBRANCH  27  30
ENDBRANCH   2   3
TORSDOF 3
ENDMDL
MODEL       91
REMARK 921   NORMALIZED FREE ENERGY PREDICTED BY IDOCK:    6.68 KCAL/MOL
REMARK 922        TOTAL FREE ENERGY PREDICTED BY IDOCK:    7.21 KCAL/MOL
REMARK 923 INTER-LIGAND FREE ENERGY PREDICTED BY IDOCK:    6.85 KCAL/MOL
REMARK 924 INTRA-LIGAND FREE ENERGY PREDICTED BY IDOCK:    0.36 KCAL/MOL
REMARK 927      BINDING AFFINITY PREDICTED BY RF-SCORE:    0.00 PKD
ROOT
HETATM    1  C   UNL     1     -11.082  15.000  64.672  1.00  0.00    -0.335 C  
HETATM    2  C   UNL     1      -9.829  15.850  64.732  1.00  0.00     0.986 C  
ENDROOT
BRANCH   2   3
HETATM    3  C   UNL     1      -9.241  16.131  66.131  1.00  0.00    -0.347 C  
HETATM    4  C   UNL     1      -8.689  17.607  66.065  1.00  0.00    -0.016 C  
HETATM    5  O   UNL     1     -10.393  16.203  67.020  1.00  0.00    -0.281 OA 
HETATM    6  H   UNL     1     -10.031  16.376  67.881  1.00  0.00     0.000 HD 
HETATM    7  O   UNL     1      -8.228  18.113  67.230  1.00  0.00    -0.224 OA 
HETATM    8  O   UNL     1      -8.814  18.346  65.088  1.00  0.00     1.087 OA 
HETATM    9  C   UNL     1      -7.339  17.296  67.980  1.00  0.00    -0.192 C  
HETATM   10  C   UNL     1      -7.642  15.845  67.923  1.00  0.00    -0.145 C  
HETATM   11  C   UNL     1      -8.248  15.212  66.886  1.00  0.00    -0.234 C  
HETATM   12  C   UNL     1      -8.042  13.718  66.855  1.00  0.00     0.119 C  
HETATM   13  C   UNL     1      -7.828  13.049  68.024  1.00  0.00    -0.146 C  
HETATM   14  N   UNL     1      -7.963  13.815  69.171  1.00  0.00     0.147 N  
HETATM   15  C   UNL     1      -8.283  13.022  70.333  1.00  0.00     4.656 C  
HETATM   16  C   UNL     1      -7.795  15.167  69.235  1.00  0.00    -0.206 C  
HETATM   17  C   UNL     1      -7.889  11.671  69.888  1.00  0.00     1.324 A  
HETATM   18  O   UNL     1      -7.829  15.800  70.278  1.00  0.00     0.501 OA 
HETATM   19  C   UNL     1      -7.807  10.552  70.679  1.00  0.00     1.379 A  
HETATM   20  C   UNL     1      -7.267   9.384  70.155  1.00  0.00    -0.096 A  
HETATM   21  C   UNL     1      -6.681   9.479  68.859  1.00  0.00    -0.051 A  
HETATM   22  C   UNL     1      -5.898   8.365  68.505  1.00  0.00    -0.041 A  
HETATM   23  N   UNL     1      -6.853  10.596  68.032  1.00  0.00    -0.071 NA 
HETATM   24  C   UNL     1      -5.779   7.201  69.302  1.00  0.00    -0.018 A  
HETATM   25  C   UNL     1      -7.534  11.649  68.542  1.00  0.00    -0.113 A  
HETATM   26  C   UNL     1      -6.509   7.099  70.480  1.00  0.00    -0.047 A  
HETATM   27  C   UNL     1      -7.287   8.172  70.916  1.00  0.00    -0.059 A  
HETATM   28  O   UNL     1      -6.486   5.955  71.222  1.00  0.00    -0.042 OA 
HETATM   29  H   UNL     1      -6.985   5.885  72.028  1.00  0.00     0.000 HD 
BRANCH  27  30
HETATM   30  C   UNL     1      -8.216   7.994  72.120  1.00  0.00    -0.137 C  
BRANCH  30  31
HETATM   31  N   UNL     1      -9.649   7.979  71.740  1.00  0.00    -0.165 NA 
HETATM   32  C   UNL     1      -9.837   7.776  70.301  1.00  0.00    -0.184 C  
HETATM   33  C   UNL     1     -10.380   6.949  72.477  1.00  0.00    -0.196 C  
ENDBRANCH  30  31
ENDBRANCH  27  30
ENDBRANCH   2   3
TORSDOF 3
ENDMDL
MODEL       92
REMARK 921   NORMALIZED FREE ENERGY PREDICTED BY IDOCK:    7.94 KCAL/MOL
REMARK 922        TOTAL FREE ENERGY PREDICTED BY IDOCK:    8.68 KCAL/MOL
REMARK 923 INTER-LIGAND FREE ENERGY PREDICTED BY IDOCK:    7.15 KCAL/MOL
REMARK 924 INTRA-LIGAND FREE ENERGY PREDICTED BY IDOCK:    1.53 KCAL/MOL
REMARK 927      BINDING AFFINITY PREDICTED BY RF-SCORE:    0.00 PKD
ROOT
HETATM    1  C   UNL     1      -7.547   8.758  67.096  1.00  0.00    -0.088 C  
HETATM    2  C   UNL     1      -8.526   8.285  66.041  1.00  0.00    -0.148 C  
ENDROOT
BRANCH   2   3
HETATM    3  C   UNL     1      -9.084   9.351  65.075  1.00  0.00    -0.215 C  
HETATM    4  C   UNL     1      -9.161   8.644  63.668  1.00  0.00     0.729 C  
HETATM    5  O   UNL     1     -10.473   9.537  65.475  1.00  0.00    -0.109 OA 
HETATM    6  H   UNL     1     -10.816  10.194  64.881  1.00  0.00     0.000 HD 
HETATM    7  O   UNL     1      -9.738   9.364  62.681  1.00  0.00     0.437 OA 
HETATM    8  O   UNL     1      -8.890   7.458  63.478  1.00  0.00     0.578 OA 
HETATM    9  C   UNL     1      -9.305  10.708  62.524  1.00  0.00    -0.286 C  
HETATM   10  C   UNL     1      -8.985  11.402  63.797  1.00  0.00     0.147 C  
HETATM   11  C   UNL     1      -8.545  10.797  64.929  1.00  0.00    -0.097 C  
HETATM   12  C   UNL     1      -7.870  11.720  65.914  1.00  0.00     0.555 C  
HETATM   13  C   UNL     1      -8.222  13.037  65.943  1.00  0.00     1.715 C  
HETATM   14  N   UNL     1      -9.295  13.375  65.135  1.00  0.00     0.451 N  
HETATM   15  C   UNL     1      -9.975  14.566  65.584  1.00  0.00    -0.347 C  
HETATM   16  C   UNL     1      -9.680  12.696  64.016  1.00  0.00     0.164 C  
HETATM   17  C   UNL     1      -8.958  15.173  66.465  1.00  0.00    -0.326 A  
HETATM   18  O   UNL     1     -10.572  13.072  63.274  1.00  0.00    -0.003 OA 
HETATM   19  C   UNL     1      -9.012  16.430  67.015  1.00  0.00    -0.232 A  
HETATM   20  C   UNL     1      -7.907  16.926  67.694  1.00  0.00    -0.186 A  
HETATM   21  C   UNL     1      -6.717  16.141  67.634  1.00  0.00    -0.152 A  
HETATM   22  C   UNL     1      -5.566  16.817  68.076  1.00  0.00    -0.124 A  
HETATM   23  N   UNL     1      -6.704  14.826  67.152  1.00  0.00    -0.176 NA 
HETATM   24  C   UNL     1      -5.583  18.118  68.634  1.00  0.00    -0.176 A  
HETATM   25  C   UNL     1      -7.860  14.336  66.647  1.00  0.00     0.706 A  
HETATM   26  C   UNL     1      -6.796  18.768  68.822  1.00  0.00    -0.285 A  
HETATM   27  C   UNL     1      -7.981  18.177  68.384  1.00  0.00    -0.312 A  
HETATM   28  O   UNL     1      -6.852  19.983  69.440  1.00  0.00    -0.311 OA 
HETATM   29  H   UNL     1      -7.682  20.428  69.568  1.00  0.00     0.000 HD 
BRANCH  27  30
HETATM   30  C   UNL     1      -9.324  18.819  68.741  1.00  0.00    -0.315 C  
BRANCH  30  31
HETATM   31  N   UNL     1      -9.410  19.209  70.170  1.00  0.00     0.998 NA 
HETATM   32  C   UNL     1      -8.890  20.558  70.406  1.00  0.00     1.960 C  
HETATM   33  C   UNL     1     -10.786  19.124  70.659  1.00  0.00     2.601 C  
ENDBRANCH  30  31
ENDBRANCH  27  30
ENDBRANCH   2   3
TORSDOF 3
ENDMDL
MODEL       93
REMARK 921   NORMALIZED FREE ENERGY PREDICTED BY IDOCK:    8.06 KCAL/MOL
REMARK 922        TOTAL FREE ENERGY PREDICTED BY IDOCK:    8.83 KCAL/MOL
REMARK 923 INTER-LIGAND FREE ENERGY PREDICTED BY IDOCK:    8.02 KCAL/MOL
REMARK 924 INTRA-LIGAND FREE ENERGY PREDICTED BY IDOCK:    0.81 KCAL/MOL
REMARK 927      BINDING AFFINITY PREDICTED BY RF-SCORE:    0.00 PKD
ROOT
HETATM    1  C   UNL     1      -9.769   8.426  63.408  1.00  0.00     3.347 C  
HETATM    2  C   UNL     1     -10.634   9.666  63.511  1.00  0.00     3.460 C  
ENDROOT
BRANCH   2   3
HETATM    3  C   UNL     1     -10.824  10.271  64.919  1.00  0.00     0.763 C  
HETATM    4  C   UNL     1     -10.825  11.834  64.707  1.00  0.00    -0.302 C  
HETATM    5  O   UNL     1     -12.194   9.944  65.291  1.00  0.00     5.186 OA 
HETATM    6  H   UNL     1     -12.311  10.317  66.157  1.00  0.00     0.000 HD 
HETATM    7  O   UNL     1     -11.099  12.574  65.804  1.00  0.00    -0.289 OA 
HETATM    8  O   UNL     1     -10.765  12.379  63.605  1.00  0.00    -0.417 OA 
HETATM    9  C   UNL     1     -10.394  12.247  66.994  1.00  0.00    -0.219 C  
HETATM   10  C   UNL     1     -10.139  10.796  67.178  1.00  0.00    -0.243 C  
HETATM   11  C   UNL     1      -9.999   9.893  66.175  1.00  0.00    -0.331 C  
HETATM   12  C   UNL     1      -9.312   8.610  66.575  1.00  0.00    -0.257 C  
HETATM   13  C   UNL     1      -9.403   8.180  67.866  1.00  0.00    -0.134 C  
HETATM   14  N   UNL     1     -10.258   8.916  68.671  1.00  0.00    -0.196 N  
HETATM   15  C   UNL     1     -10.754   8.157  69.794  1.00  0.00    -0.229 C  
HETATM   16  C   UNL     1     -10.596  10.222  68.469  1.00  0.00    -0.213 C  
HETATM   17  C   UNL     1      -9.781   7.048  69.855  1.00  0.00    -0.163 A  
HETATM   18  O   UNL     1     -11.277  10.868  69.247  1.00  0.00    -0.222 OA 
HETATM   19  C   UNL     1      -9.672   6.123  70.863  1.00  0.00    -0.203 A  
HETATM   20  C   UNL     1      -8.605   5.234  70.861  1.00  0.00    -0.133 A  
HETATM   21  C   UNL     1      -7.595   5.453  69.879  1.00  0.00    -0.073 A  
HETATM   22  C   UNL     1      -6.413   4.724  70.104  1.00  0.00    -0.035 A  
HETATM   23  N   UNL     1      -7.764   6.336  68.805  1.00  0.00    -0.099 NA 
HETATM   24  C   UNL     1      -6.261   3.774  71.143  1.00  0.00    -0.015 A  
HETATM   25  C   UNL     1      -8.905   7.063  68.771  1.00  0.00    -0.129 A  
HETATM   26  C   UNL     1      -7.339   3.481  71.968  1.00  0.00    -0.055 A  
HETATM   27  C   UNL     1      -8.538   4.181  71.828  1.00  0.00    -0.119 A  
HETATM   28  O   UNL     1      -7.250   2.506  72.918  1.00  0.00    -0.034 OA 
HETATM   29  H   UNL     1      -7.987   2.306  73.483  1.00  0.00     0.000 HD 
BRANCH  27  30
HETATM   30  C   UNL     1      -9.769   3.741  72.624  1.00  0.00    -0.144 C  
BRANCH  30  31
HETATM   31  N   UNL     1      -9.944   4.511  73.880  1.00  0.00    -0.149 NA 
HETATM   32  C   UNL     1      -8.667   4.982  74.421  1.00  0.00    -0.112 C  
HETATM   33  C   UNL     1     -10.838   5.650  73.680  1.00  0.00    -0.221 C  
ENDBRANCH  30  31
ENDBRANCH  27  30
ENDBRANCH   2   3
TORSDOF 3
ENDMDL
MODEL       94
REMARK 921   NORMALIZED FREE ENERGY PREDICTED BY IDOCK:    8.88 KCAL/MOL
REMARK 922        TOTAL FREE ENERGY PREDICTED BY IDOCK:    9.79 KCAL/MOL
REMARK 923 INTER-LIGAND FREE ENERGY PREDICTED BY IDOCK:    8.78 KCAL/MOL
REMARK 924 INTRA-LIGAND FREE ENERGY PREDICTED BY IDOCK:    1.00 KCAL/MOL
REMARK 927      BINDING AFFINITY PREDICTED BY RF-SCORE:    0.00 PKD
ROOT
HETATM    1  C   UNL     1      -6.705   9.771  74.174  1.00  0.00     1.128 C  
HETATM    2  C   UNL     1      -7.270   8.663  73.308  1.00  0.00     0.042 C  
ENDROOT
BRANCH   2   3
HETATM    3  C   UNL     1      -7.044   8.782  71.786  1.00  0.00    -0.054 C  
HETATM    4  C   UNL     1      -6.084   7.589  71.409  1.00  0.00    -0.036 C  
HETATM    5  O   UNL     1      -8.324   8.434  71.184  1.00  0.00    -0.113 OA 
HETATM    6  H   UNL     1      -8.185   8.507  70.247  1.00  0.00     0.000 HD 
HETATM    7  O   UNL     1      -5.842   7.425  70.091  1.00  0.00    -0.024 OA 
HETATM    8  O   UNL     1      -5.703   6.733  72.209  1.00  0.00    -0.037 OA 
HETATM    9  C   UNL     1      -5.485   8.585  69.351  1.00  0.00    -0.031 C  
HETATM   10  C   UNL     1      -6.176   9.825  69.784  1.00  0.00    -0.048 C  
HETATM   11  C   UNL     1      -6.623  10.074  71.041  1.00  0.00     0.104 C  
HETATM   12  C   UNL     1      -6.871  11.532  71.343  1.00  0.00     3.663 C  
HETATM   13  C   UNL     1      -7.204  12.377  70.326  1.00  0.00     1.845 C  
HETATM   14  N   UNL     1      -7.423  11.765  69.102  1.00  0.00    -0.027 N  
HETATM   15  C   UNL     1      -8.278  12.541  68.238  1.00  0.00    -0.168 C  
HETATM   16  C   UNL     1      -6.886  10.572  68.715  1.00  0.00    -0.060 C  
HETATM   17  C   UNL     1      -8.194  13.878  68.861  1.00  0.00     0.051 A  
HETATM   18  O   UNL     1      -7.024  10.104  67.596  1.00  0.00    -0.083 OA 
HETATM   19  C   UNL     1      -8.674  15.048  68.329  1.00  0.00    -0.166 A  
HETATM   20  C   UNL     1      -8.381  16.253  68.955  1.00  0.00    -0.239 A  
HETATM   21  C   UNL     1      -7.452  16.199  70.036  1.00  0.00     0.656 A  
HETATM   22  C   UNL     1      -6.969  17.459  70.434  1.00  0.00     1.720 A  
HETATM   23  N   UNL     1      -7.045  14.995  70.623  1.00  0.00     0.415 NA 
HETATM   24  C   UNL     1      -7.431  18.685  69.898  1.00  0.00     0.698 A  
HETATM   25  C   UNL     1      -7.497  13.847  70.066  1.00  0.00     0.808 A  
HETATM   26  C   UNL     1      -8.459  18.681  68.964  1.00  0.00    -0.074 A  
HETATM   27  C   UNL     1      -8.973  17.471  68.496  1.00  0.00    -0.279 A  
HETATM   28  O   UNL     1      -8.987  19.849  68.497  1.00  0.00    -0.272 OA 
HETATM   29  H   UNL     1      -9.690  19.846  67.858  1.00  0.00     0.000 HD 
BRANCH  27  30
HETATM   30  C   UNL     1     -10.213  17.473  67.597  1.00  0.00    -0.343 C  
BRANCH  30  31
HETATM   31  N   UNL     1     -10.071  18.376  66.428  1.00  0.00    -0.384 NA 
HETATM   32  C   UNL     1      -8.668  18.625  66.090  1.00  0.00    -0.125 C  
HETATM   33  C   UNL     1     -10.766  17.839  65.259  1.00  0.00     0.214 C  
ENDBRANCH  30  31
ENDBRANCH  27  30
ENDBRANCH   2   3
TORSDOF 3
ENDMDL
MODEL       95
REMARK 921   NORMALIZED FREE ENERGY PREDICTED BY IDOCK:    9.08 KCAL/MOL
REMARK 922        TOTAL FREE ENERGY PREDICTED BY IDOCK:   10.02 KCAL/MOL
REMARK 923 INTER-LIGAND FREE ENERGY PREDICTED BY IDOCK:    8.71 KCAL/MOL
REMARK 924 INTRA-LIGAND FREE ENERGY PREDICTED BY IDOCK:    1.31 KCAL/MOL
REMARK 927      BINDING AFFINITY PREDICTED BY RF-SCORE:    0.00 PKD
ROOT
HETATM    1  C   UNL     1      -8.815  16.662  66.958  1.00  0.00    -0.220 C  
HETATM    2  C   UNL     1      -8.706  15.988  68.311  1.00  0.00    -0.177 C  
ENDROOT
BRANCH   2   3
HETATM    3  C   UNL     1      -7.589  14.937  68.481  1.00  0.00    -0.121 C  
HETATM    4  C   UNL     1      -6.359  15.496  67.670  1.00  0.00    -0.155 C  
HETATM    5  O   UNL     1      -7.189  15.031  69.879  1.00  0.00    -0.204 OA 
HETATM    6  H   UNL     1      -6.501  14.384  69.984  1.00  0.00     0.000 HD 
HETATM    7  O   UNL     1      -5.214  14.786  67.777  1.00  0.00    -0.252 OA 
HETATM    8  O   UNL     1      -6.344  16.593  67.111  1.00  0.00    -0.154 OA 
HETATM    9  C   UNL     1      -5.310  13.379  67.603  1.00  0.00    -0.014 C  
HETATM   10  C   UNL     1      -6.556  12.777  68.139  1.00  0.00    -0.088 C  
HETATM   11  C   UNL     1      -7.749  13.414  68.245  1.00  0.00    -0.141 C  
HETATM   12  C   UNL     1      -8.941  12.497  68.382  1.00  0.00    -0.130 C  
HETATM   13  C   UNL     1      -8.775  11.269  68.951  1.00  0.00    -0.046 C  
HETATM   14  N   UNL     1      -7.519  11.035  69.487  1.00  0.00    -0.080 N  
HETATM   15  C   UNL     1      -7.535  10.030  70.522  1.00  0.00     0.067 C  
HETATM   16  C   UNL     1      -6.369  11.650  69.088  1.00  0.00    -0.084 C  
HETATM   17  C   UNL     1      -8.822   9.354  70.259  1.00  0.00    -0.269 A  
HETATM   18  O   UNL     1      -5.265  11.355  69.515  1.00  0.00    -0.044 OA 
HETATM   19  C   UNL     1      -9.256   8.189  70.841  1.00  0.00    -0.171 A  
HETATM   20  C   UNL     1     -10.418   7.587  70.376  1.00  0.00    -0.227 A  
HETATM   21  C   UNL     1     -11.001   8.148  69.202  1.00  0.00     0.089 A  
HETATM   22  C   UNL     1     -11.987   7.337  68.612  1.00  0.00     1.716 A  
HETATM   23  N   UNL     1     -10.603   9.384  68.678  1.00  0.00    -0.215 NA 
HETATM   24  C   UNL     1     -12.448   6.123  69.176  1.00  0.00     3.815 A  
HETATM   25  C   UNL     1      -9.562  10.008  69.277  1.00  0.00    -0.216 A  
HETATM   26  C   UNL     1     -11.960   5.710  70.410  1.00  0.00     1.634 A  
HETATM   27  C   UNL     1     -10.960   6.444  71.047  1.00  0.00    -0.328 A  
HETATM   28  O   UNL     1     -12.451   4.593  71.020  1.00  0.00     5.295 OA 
HETATM   29  H   UNL     1     -12.117   4.311  71.863  1.00  0.00     0.000 HD 
BRANCH  27  30
HETATM   30  C   UNL     1     -10.546   6.080  72.475  1.00  0.00    -0.216 C  
BRANCH  30  31
HETATM   31  N   UNL     1      -9.222   5.416  72.536  1.00  0.00    -0.136 NA 
HETATM   32  C   UNL     1      -8.171   6.322  73.007  1.00  0.00    -0.114 C  
HETATM   33  C   UNL     1      -9.263   4.231  73.391  1.00  0.00    -0.101 C  
ENDBRANCH  30  31
ENDBRANCH  27  30
ENDBRANCH   2   3
TORSDOF 3
ENDMDL
MODEL       96
REMARK 921   NORMALIZED FREE ENERGY PREDICTED BY IDOCK:   10.02 KCAL/MOL
REMARK 922        TOTAL FREE ENERGY PREDICTED BY IDOCK:   11.13 KCAL/MOL
REMARK 923 INTER-LIGAND FREE ENERGY PREDICTED BY IDOCK:    7.12 KCAL/MOL
REMARK 924 INTRA-LIGAND FREE ENERGY PREDICTED BY IDOCK:    4.01 KCAL/MOL
REMARK 927      BINDING AFFINITY PREDICTED BY RF-SCORE:    0.00 PKD
ROOT
HETATM    1  C   UNL     1      -9.219   4.119  73.198  1.00  0.00    -0.123 C  
HETATM    2  C   UNL     1      -9.648   5.518  72.804  1.00  0.00    -0.163 C  
ENDROOT
BRANCH   2   3
HETATM    3  C   UNL     1      -8.528   6.556  72.579  1.00  0.00    -0.121 C  
HETATM    4  C   UNL     1      -7.474   6.291  73.721  1.00  0.00    -0.090 C  
HETATM    5  O   UNL     1      -7.862   6.136  71.352  1.00  0.00    -0.105 OA 
HETATM    6  H   UNL     1      -7.173   6.774  71.214  1.00  0.00     0.000 HD 
HETATM    7  O   UNL     1      -6.336   7.016  73.649  1.00  0.00    -0.065 OA 
HETATM    8  O   UNL     1      -7.559   5.373  74.537  1.00  0.00    -0.088 OA 
HETATM    9  C   UNL     1      -6.475   8.414  73.433  1.00  0.00    -0.107 C  
HETATM   10  C   UNL     1      -7.598   8.788  72.538  1.00  0.00     0.095 C  
HETATM   11  C   UNL     1      -8.743   8.077  72.380  1.00  0.00    -0.224 C  
HETATM   12  C   UNL     1      -9.893   8.859  71.792  1.00  0.00    -0.386 C  
HETATM   13  C   UNL     1      -9.630   9.912  70.966  1.00  0.00     0.588 C  
HETATM   14  N   UNL     1      -8.295  10.076  70.631  1.00  0.00     0.349 N  
HETATM   15  C   UNL     1      -8.118  10.785  69.387  1.00  0.00    -0.043 C  
HETATM   16  C   UNL     1      -7.240   9.649  71.382  1.00  0.00     0.463 C  
HETATM   17  C   UNL     1      -9.436  11.430  69.223  1.00  0.00     0.258 A  
HETATM   18  O   UNL     1      -6.076   9.891  71.106  1.00  0.00    -0.172 OA 
HETATM   19  C   UNL     1      -9.758  12.384  68.290  1.00  0.00    -0.218 A  
HETATM   20  C   UNL     1     -10.994  13.015  68.359  1.00  0.00    -0.288 A  
HETATM   21  C   UNL     1     -11.790  12.735  69.508  1.00  0.00    -0.316 A  
HETATM   22  C   UNL     1     -12.878  13.610  69.675  1.00  0.00     0.473 A  
HETATM   23  N   UNL     1     -11.491  11.696  70.399  1.00  0.00    -0.068 NA 
HETATM   24  C   UNL     1     -13.231  14.614  68.741  1.00  0.00     2.445 A  
HETATM   25  C   UNL     1     -10.348  11.003  70.185  1.00  0.00     0.663 A  
HETATM   26  C   UNL     1     -12.515  14.730  67.556  1.00  0.00     0.482 A  
HETATM   27  C   UNL     1     -11.404  13.919  67.327  1.00  0.00    -0.344 A  
HETATM   28  O   UNL     1     -12.887  15.627  66.598  1.00  0.00     1.335 OA 
HETATM   29  H   UNL     1     -12.398  15.707  65.787  1.00  0.00     0.000 HD 
BRANCH  27  30
HETATM   30  C   UNL     1     -10.724  13.935  65.956  1.00  0.00    -0.287 C  
BRANCH  30  31
HETATM   31  N   UNL     1     -10.727  15.280  65.332  1.00  0.00    -0.363 NA 
HETATM   32  C   UNL     1      -9.760  15.382  64.236  1.00  0.00     3.281 C  
HETATM   33  C   UNL     1     -12.058  15.632  64.841  1.00  0.00     0.255 C  
ENDBRANCH  30  31
ENDBRANCH  27  30
ENDBRANCH   2   3
TORSDOF 3
ENDMDL
MODEL       97
REMARK 921   NORMALIZED FREE ENERGY PREDICTED BY IDOCK:   11.34 KCAL/MOL
REMARK 922        TOTAL FREE ENERGY PREDICTED BY IDOCK:   12.68 KCAL/MOL
REMARK 923 INTER-LIGAND FREE ENERGY PREDICTED BY IDOCK:   12.47 KCAL/MOL
REMARK 924 INTRA-LIGAND FREE ENERGY PREDICTED BY IDOCK:    0.21 KCAL/MOL
REMARK 927      BINDING AFFINITY PREDICTED BY RF-SCORE:    0.00 PKD
ROOT
HETATM    1  C   UNL     1     -11.903  18.143  70.727  1.00  0.00     6.955 C  
HETATM    2  C   UNL     1     -11.421  18.985  69.562  1.00  0.00     4.346 C  
ENDROOT
BRANCH   2   3
HETATM    3  C   UNL     1      -9.942  18.828  69.152  1.00  0.00    -0.205 C  
HETATM    4  C   UNL     1      -9.652  20.020  68.162  1.00  0.00    -0.308 C  
HETATM    5  O   UNL     1      -9.179  19.145  70.352  1.00  0.00     1.342 OA 
HETATM    6  H   UNL     1      -8.268  19.049  70.099  1.00  0.00     0.000 HD 
HETATM    7  O   UNL     1      -8.368  20.151  67.762  1.00  0.00    -0.304 OA 
HETATM    8  O   UNL     1     -10.468  20.901  67.887  1.00  0.00     0.130 OA 
HETATM    9  C   UNL     1      -7.711  18.975  67.309  1.00  0.00    -0.237 C  
HETATM   10  C   UNL     1      -8.091  17.740  68.038  1.00  0.00    -0.243 C  
HETATM   11  C   UNL     1      -9.290  17.521  68.634  1.00  0.00    -0.277 C  
HETATM   12  C   UNL     1      -9.601  16.069  68.906  1.00  0.00    -0.236 C  
HETATM   13  C   UNL     1      -8.574  15.193  69.106  1.00  0.00    -0.218 C  
HETATM   14  N   UNL     1      -7.317  15.770  69.179  1.00  0.00    -0.180 N  
HETATM   15  C   UNL     1      -6.376  14.961  69.916  1.00  0.00    -0.157 C  
HETATM   16  C   UNL     1      -6.964  16.958  68.608  1.00  0.00    -0.191 C  
HETATM   17  C   UNL     1      -7.042  13.643  69.899  1.00  0.00     0.420 A  
HETATM   18  O   UNL     1      -5.824  17.393  68.611  1.00  0.00    -0.156 OA 
HETATM   19  C   UNL     1      -6.489  12.454  70.303  1.00  0.00     0.307 A  
HETATM   20  C   UNL     1      -7.180  11.269  70.079  1.00  0.00     0.446 A  
HETATM   21  C   UNL     1      -8.363  11.362  69.289  1.00  0.00     0.259 A  
HETATM   22  C   UNL     1      -8.853  10.119  68.849  1.00  0.00    -0.154 A  
HETATM   23  N   UNL     1      -8.962  12.586  68.965  1.00  0.00     0.361 NA 
HETATM   24  C   UNL     1      -8.299   8.874  69.233  1.00  0.00    -0.119 A  
HETATM   25  C   UNL     1      -8.322  13.713  69.355  1.00  0.00     0.774 A  
HETATM   26  C   UNL     1      -7.247   8.842  70.140  1.00  0.00    -0.054 A  
HETATM   27  C   UNL     1      -6.685  10.033  70.602  1.00  0.00    -0.074 A  
HETATM   28  O   UNL     1      -6.752   7.656  70.598  1.00  0.00    -0.042 OA 
HETATM   29  H   UNL     1      -6.032   7.634  71.218  1.00  0.00     0.000 HD 
BRANCH  27  30
HETATM   30  C   UNL     1      -5.643   9.993  71.722  1.00  0.00     0.077 C  
BRANCH  30  31
HETATM   31  N   UNL     1      -6.169   9.393  72.972  1.00  0.00    -0.271 NA 
HETATM   32  C   UNL     1      -5.758   7.995  73.129  1.00  0.00    -0.049 C  
HETATM   33  C   UNL     1      -5.748  10.159  74.144  1.00  0.00     0.529 C  
ENDBRANCH  30  31
ENDBRANCH  27  30
ENDBRANCH   2   3
TORSDOF 3
ENDMDL
MODEL       98
REMARK 921   NORMALIZED FREE ENERGY PREDICTED BY IDOCK:   12.21 KCAL/MOL
REMARK 922        TOTAL FREE ENERGY PREDICTED BY IDOCK:   13.71 KCAL/MOL
REMARK 923 INTER-LIGAND FREE ENERGY PREDICTED BY IDOCK:    8.95 KCAL/MOL
REMARK 924 INTRA-LIGAND FREE ENERGY PREDICTED BY IDOCK:    4.76 KCAL/MOL
REMARK 927      BINDING AFFINITY PREDICTED BY RF-SCORE:    0.00 PKD
ROOT
HETATM    1  C   UNL     1      -9.814  14.606  66.346  1.00  0.00    -0.302 C  
HETATM    2  C   UNL     1      -9.299  14.092  65.017  1.00  0.00     0.997 C  
ENDROOT
BRANCH   2   3
HETATM    3  C   UNL     1      -9.805  12.708  64.558  1.00  0.00    -0.042 C  
HETATM    4  C   UNL     1     -10.915  13.004  63.479  1.00  0.00    -0.058 C  
HETATM    5  O   UNL     1      -8.699  12.129  63.807  1.00  0.00     0.219 OA 
HETATM    6  H   UNL     1      -9.011  11.278  63.524  1.00  0.00     0.000 HD 
HETATM    7  O   UNL     1     -11.422  11.922  62.847  1.00  0.00    -0.030 OA 
HETATM    8  O   UNL     1     -11.204  14.132  63.079  1.00  0.00     1.579 OA 
HETATM    9  C   UNL     1     -11.817  10.826  63.661  1.00  0.00     1.984 C  
HETATM   10  C   UNL     1     -10.955  10.600  64.847  1.00  0.00     0.247 C  
HETATM   11  C   UNL     1     -10.253  11.561  65.499  1.00  0.00    -0.303 C  
HETATM   12  C   UNL     1      -9.831  11.191  66.900  1.00  0.00    -0.223 C  
HETATM   13  C   UNL     1      -9.632   9.878  67.212  1.00  0.00    -0.160 C  
HETATM   14  N   UNL     1      -9.706   9.003  66.140  1.00  0.00    -0.274 N  
HETATM   15  C   UNL     1      -8.974   7.781  66.369  1.00  0.00    -0.163 C  
HETATM   16  C   UNL     1     -10.406   9.228  64.991  1.00  0.00     1.587 C  
HETATM   17  C   UNL     1      -8.824   7.797  67.838  1.00  0.00    -0.123 A  
HETATM   18  O   UNL     1     -10.527   8.398  64.105  1.00  0.00     5.475 OA 
HETATM   19  C   UNL     1      -8.360   6.763  68.614  1.00  0.00    -0.120 A  
HETATM   20  C   UNL     1      -8.425   6.866  69.998  1.00  0.00    -0.140 A  
HETATM   21  C   UNL     1      -9.128   7.992  70.520  1.00  0.00    -0.153 A  
HETATM   22  C   UNL     1      -9.418   7.894  71.893  1.00  0.00    -0.220 A  
HETATM   23  N   UNL     1      -9.512   9.078  69.725  1.00  0.00    -0.168 NA 
HETATM   24  C   UNL     1      -8.968   6.837  72.720  1.00  0.00    -0.139 A  
HETATM   25  C   UNL     1      -9.274   8.991  68.395  1.00  0.00    -0.136 A  
HETATM   26  C   UNL     1      -8.144   5.853  72.187  1.00  0.00    -0.107 A  
HETATM   27  C   UNL     1      -7.833   5.862  70.827  1.00  0.00    -0.102 A  
HETATM   28  O   UNL     1      -7.622   4.872  72.978  1.00  0.00    -0.089 OA 
HETATM   29  H   UNL     1      -7.059   4.199  72.614  1.00  0.00     0.000 HD 
BRANCH  27  30
HETATM   30  C   UNL     1      -6.796   4.877  70.281  1.00  0.00    -0.037 C  
BRANCH  30  31
HETATM   31  N   UNL     1      -5.901   4.345  71.337  1.00  0.00    -0.015 NA 
HETATM   32  C   UNL     1      -5.354   5.407  72.185  1.00  0.00    -0.016 C  
HETATM   33  C   UNL     1      -6.592   3.363  72.171  1.00  0.00    -0.015 C  
ENDBRANCH  30  31
ENDBRANCH  27  30
ENDBRANCH   2   3
TORSDOF 3
ENDMDL
MODEL       99
REMARK 921   NORMALIZED FREE ENERGY PREDICTED BY IDOCK:   13.18 KCAL/MOL
REMARK 922        TOTAL FREE ENERGY PREDICTED BY IDOCK:   14.85 KCAL/MOL
REMARK 923 INTER-LIGAND FREE ENERGY PREDICTED BY IDOCK:    8.52 KCAL/MOL
REMARK 924 INTRA-LIGAND FREE ENERGY PREDICTED BY IDOCK:    6.32 KCAL/MOL
REMARK 927      BINDING AFFINITY PREDICTED BY RF-SCORE:    0.00 PKD
ROOT
HETATM    1  C   UNL     1      -9.925   6.549  73.508  1.00  0.00    -0.232 C  
HETATM    2  C   UNL     1      -9.560   6.929  72.088  1.00  0.00    -0.154 C  
ENDROOT
BRANCH   2   3
HETATM    3  C   UNL     1     -10.673   7.559  71.224  1.00  0.00    -0.225 C  
HETATM    4  C   UNL     1     -11.471   6.343  70.615  1.00  0.00    -0.362 C  
HETATM    5  O   UNL     1     -11.592   8.169  72.176  1.00  0.00    -0.307 OA 
HETATM    6  H   UNL     1     -12.277   8.557  71.644  1.00  0.00     0.000 HD 
HETATM    7  O   UNL     1     -12.578   6.662  69.909  1.00  0.00     0.393 OA 
HETATM    8  O   UNL     1     -11.242   5.164  70.886  1.00  0.00     0.153 OA 
HETATM    9  C   UNL     1     -12.448   7.692  68.938  1.00  0.00     3.903 C  
HETATM   10  C   UNL     1     -11.528   8.790  69.326  1.00  0.00     0.520 C  
HETATM   11  C   UNL     1     -10.462   8.661  70.155  1.00  0.00    -0.228 C  
HETATM   12  C   UNL     1      -9.440   9.766  70.042  1.00  0.00    -0.278 C  
HETATM   13  C   UNL     1      -9.841  11.006  69.643  1.00  0.00     0.313 C  
HETATM   14  N   UNL     1     -11.211  11.166  69.509  1.00  0.00    -0.262 N  
HETATM   15  C   UNL     1     -11.625  12.542  69.641  1.00  0.00    -0.253 C  
HETATM   16  C   UNL     1     -12.097  10.160  69.257  1.00  0.00     0.280 C  
HETATM   17  C   UNL     1     -10.353  13.257  69.415  1.00  0.00     0.383 A  
HETATM   18  O   UNL     1     -13.285  10.346  69.053  1.00  0.00     1.119 OA 
HETATM   19  C   UNL     1     -10.207  14.611  69.243  1.00  0.00    -0.156 A  
HETATM   20  C   UNL     1      -8.968  15.123  68.881  1.00  0.00    -0.206 A  
HETATM   21  C   UNL     1      -7.957  14.172  68.553  1.00  0.00    -0.145 A  
HETATM   22  C   UNL     1      -6.834  14.731  67.917  1.00  0.00    -0.174 A  
HETATM   23  N   UNL     1      -8.091  12.804  68.822  1.00  0.00     0.012 NA 
HETATM   24  C   UNL     1      -6.657  16.121  67.710  1.00  0.00    -0.172 A  
HETATM   25  C   UNL     1      -9.272  12.383  69.331  1.00  0.00     1.214 A  
HETATM   26  C   UNL     1      -7.601  17.013  68.202  1.00  0.00    -0.194 A  
HETATM   27  C   UNL     1      -8.758  16.537  68.820  1.00  0.00    -0.259 A  
HETATM   28  O   UNL     1      -7.414  18.360  68.098  1.00  0.00    -0.251 OA 
HETATM   29  H   UNL     1      -8.060  18.970  68.434  1.00  0.00     0.000 HD 
BRANCH  27  30
HETATM   30  C   UNL     1      -9.710  17.521  69.505  1.00  0.00     0.267 C  
BRANCH  30  31
HETATM   31  N   UNL     1     -10.401  16.928  70.676  1.00  0.00     0.965 NA 
HETATM   32  C   UNL     1     -11.853  16.872  70.489  1.00  0.00     1.413 C  
HETATM   33  C   UNL     1      -9.895  15.587  70.965  1.00  0.00     1.450 C  
ENDBRANCH  30  31
ENDBRANCH  27  30
ENDBRANCH   2   3
TORSDOF 3
ENDMDL
MODEL      100
REMARK 921   NORMALIZED FREE ENERGY PREDICTED BY IDOCK:   13.82 KCAL/MOL
REMARK 922        TOTAL FREE ENERGY PREDICTED BY IDOCK:   15.60 KCAL/MOL
REMARK 923 INTER-LIGAND FREE ENERGY PREDICTED BY IDOCK:   14.91 KCAL/MOL
REMARK 924 INTRA-LIGAND FREE ENERGY PREDICTED BY IDOCK:    0.69 KCAL/MOL
REMARK 927      BINDING AFFINITY PREDICTED BY RF-SCORE:    0.00 PKD
ROOT
HETATM    1  C   UNL     1      -5.911   8.981  68.213  1.00  0.00    -0.042 C  
HETATM    2  C   UNL     1      -6.739   9.380  69.419  1.00  0.00    -0.048 C  
ENDROOT
BRANCH   2   3
HETATM    3  C   UNL     1      -8.189   9.836  69.152  1.00  0.00    -0.130 C  
HETATM    4  C   UNL     1      -9.022   8.508  68.985  1.00  0.00    -0.146 C  
HETATM    5  O   UNL     1      -8.645  10.406  70.413  1.00  0.00    -0.278 OA 
HETATM    6  H   UNL     1      -9.538  10.686  70.249  1.00  0.00     0.000 HD 
HETATM    7  O   UNL     1     -10.358   8.665  68.859  1.00  0.00    -0.208 OA 
HETATM    8  O   UNL     1      -8.554   7.378  69.132  1.00  0.00    -0.135 OA 
HETATM    9  C   UNL     1     -10.807   9.639  67.926  1.00  0.00    -0.215 C  
HETATM   10  C   UNL     1      -9.951  10.849  67.842  1.00  0.00    -0.195 C  
HETATM   11  C   UNL     1      -8.619  10.884  68.095  1.00  0.00    -0.133 C  
HETATM   12  C   UNL     1      -7.900  12.080  67.519  1.00  0.00    -0.155 C  
HETATM   13  C   UNL     1      -8.586  13.245  67.336  1.00  0.00    -0.204 C  
HETATM   14  N   UNL     1      -9.876  13.252  67.841  1.00  0.00    -0.227 N  
HETATM   15  C   UNL     1     -10.350  14.583  68.135  1.00  0.00    -0.232 C  
HETATM   16  C   UNL     1     -10.651  12.146  68.029  1.00  0.00    -0.210 C  
HETATM   17  C   UNL     1      -9.414  15.411  67.348  1.00  0.00    -0.207 A  
HETATM   18  O   UNL     1     -11.816  12.194  68.388  1.00  0.00    -0.319 OA 
HETATM   19  C   UNL     1      -9.527  16.760  67.117  1.00  0.00    -0.237 A  
HETATM   20  C   UNL     1      -8.657  17.374  66.225  1.00  0.00    -0.246 A  
HETATM   21  C   UNL     1      -7.796  16.515  65.480  1.00  0.00     1.780 A  
HETATM   22  C   UNL     1      -7.159  17.146  64.397  1.00  0.00     7.332 A  
HETATM   23  N   UNL     1      -7.628  15.159  65.792  1.00  0.00     2.759 NA 
HETATM   24  C   UNL     1      -7.264  18.531  64.120  1.00  0.00     4.688 A  
HETATM   25  C   UNL     1      -8.390  14.651  66.787  1.00  0.00    -0.043 A  
HETATM   26  C   UNL     1      -7.985  19.349  64.981  1.00  0.00     1.498 A  
HETATM   27  C   UNL     1      -8.670  18.796  66.062  1.00  0.00    -0.017 A  
HETATM   28  O   UNL     1      -8.029  20.699  64.791  1.00  0.00    -0.074 OA 
HETATM   29  H   UNL     1      -8.523  21.259  65.379  1.00  0.00     0.000 HD 
BRANCH  27  30
HETATM   30  C   UNL     1      -9.322  19.716  67.098  1.00  0.00    -0.337 C  
BRANCH  30  31
HETATM   31  N   UNL     1      -8.853  19.446  68.479  1.00  0.00    -0.362 NA 
HETATM   32  C   UNL     1      -8.470  20.673  69.182  1.00  0.00     1.351 C  
HETATM   33  C   UNL     1      -9.871  18.739  69.253  1.00  0.00    -0.098 C  
ENDBRANCH  30  31
ENDBRANCH  27  30
ENDBRANCH   2   3
TORSDOF 3
ENDMDL
MODEL      101
REMARK 921   NORMALIZED FREE ENERGY PREDICTED BY IDOCK:   14.34 KCAL/MOL
REMARK 922        TOTAL FREE ENERGY PREDICTED BY IDOCK:   16.21 KCAL/MOL
REMARK 923 INTER-LIGAND FREE ENERGY PREDICTED BY IDOCK:   14.00 KCAL/MOL
REMARK 924 INTRA-LIGAND FREE ENERGY PREDICTED BY IDOCK:    2.22 KCAL/MOL
REMARK 927      BINDING AFFINITY PREDICTED BY RF-SCORE:    0.00 PKD
ROOT
HETATM    1  C   UNL     1     -12.580   6.021  73.535  1.00  0.00     2.877 C  
HETATM    2  C   UNL     1     -11.874   5.535  72.286  1.00  0.00    -0.054 C  
ENDROOT
BRANCH   2   3
HETATM    3  C   UNL     1     -10.369   5.857  72.163  1.00  0.00    -0.201 C  
HETATM    4  C   UNL     1      -9.713   5.309  73.488  1.00  0.00    -0.150 C  
HETATM    5  O   UNL     1      -9.878   4.977  71.111  1.00  0.00    -0.168 OA 
HETATM    6  H   UNL     1      -8.951   5.175  71.036  1.00  0.00     0.000 HD 
HETATM    7  O   UNL     1      -8.365   5.378  73.547  1.00  0.00    -0.113 OA 
HETATM    8  O   UNL     1     -10.329   4.691  74.357  1.00  0.00    -0.228 OA 
HETATM    9  C   UNL     1      -7.766   6.615  73.185  1.00  0.00    -0.095 C  
HETATM   10  C   UNL     1      -8.453   7.330  72.081  1.00  0.00    -0.117 C  
HETATM   11  C   UNL     1      -9.776   7.240  71.794  1.00  0.00    -0.167 C  
HETATM   12  C   UNL     1     -10.315   8.370  70.951  1.00  0.00    -0.234 C  
HETATM   13  C   UNL     1      -9.478   9.018  70.091  1.00  0.00    -0.195 C  
HETATM   14  N   UNL     1      -8.213   8.466  69.975  1.00  0.00    -0.118 N  
HETATM   15  C   UNL     1      -7.577   8.790  68.721  1.00  0.00    -0.095 C  
HETATM   16  C   UNL     1      -7.595   7.714  70.931  1.00  0.00    -0.080 C  
HETATM   17  C   UNL     1      -8.374   9.951  68.277  1.00  0.00    -0.110 A  
HETATM   18  O   UNL     1      -6.444   7.320  70.837  1.00  0.00    -0.042 OA 
HETATM   19  C   UNL     1      -8.078  10.777  67.221  1.00  0.00    -0.117 A  
HETATM   20  C   UNL     1      -8.835  11.925  67.021  1.00  0.00    -0.190 A  
HETATM   21  C   UNL     1      -9.780  12.251  68.038  1.00  0.00    -0.205 A  
HETATM   22  C   UNL     1     -10.298  13.555  67.936  1.00  0.00    -0.249 A  
HETATM   23  N   UNL     1     -10.133  11.356  69.056  1.00  0.00    -0.145 NA 
HETATM   24  C   UNL     1     -10.004  14.438  66.870  1.00  0.00    -0.261 A  
HETATM   25  C   UNL     1      -9.472  10.176  69.104  1.00  0.00    -0.206 A  
HETATM   26  C   UNL     1      -9.207  14.003  65.819  1.00  0.00     0.281 A  
HETATM   27  C   UNL     1      -8.630  12.733  65.858  1.00  0.00     0.823 A  
HETATM   28  O   UNL     1      -8.980  14.799  64.735  1.00  0.00     1.242 OA 
HETATM   29  H   UNL     1      -8.434  14.502  64.016  1.00  0.00     0.000 HD 
BRANCH  27  30
HETATM   30  C   UNL     1      -7.893  12.198  64.627  1.00  0.00     3.407 C  
BRANCH  30  31
HETATM   31  N   UNL     1      -6.448  11.977  64.877  1.00  0.00     3.177 NA 
HETATM   32  C   UNL     1      -5.880  12.990  65.769  1.00  0.00     5.797 C  
HETATM   33  C   UNL     1      -6.206  10.647  65.433  1.00  0.00    -0.071 C  
ENDBRANCH  30  31
ENDBRANCH  27  30
ENDBRANCH   2   3
TORSDOF 3
ENDMDL
MODEL      102
REMARK 921   NORMALIZED FREE ENERGY PREDICTED BY IDOCK:   15.30 KCAL/MOL
REMARK 922        TOTAL FREE ENERGY PREDICTED BY IDOCK:   17.34 KCAL/MOL
REMARK 923 INTER-LIGAND FREE ENERGY PREDICTED BY IDOCK:   16.90 KCAL/MOL
REMARK 924 INTRA-LIGAND FREE ENERGY PREDICTED BY IDOCK:    0.44 KCAL/MOL
REMARK 927      BINDING AFFINITY PREDICTED BY RF-SCORE:    0.00 PKD
ROOT
HETATM    1  C   UNL     1      -6.289  17.766  69.132  1.00  0.00    -0.233 C  
HETATM    2  C   UNL     1      -7.466  16.957  68.626  1.00  0.00    -0.226 C  
ENDROOT
BRANCH   2   3
HETATM    3  C   UNL     1      -7.150  15.777  67.682  1.00  0.00    -0.168 C  
HETATM    4  C   UNL     1      -7.045  16.408  66.241  1.00  0.00     0.320 C  
HETATM    5  O   UNL     1      -5.788  15.380  68.015  1.00  0.00    -0.119 OA 
HETATM    6  H   UNL     1      -5.593  14.654  67.434  1.00  0.00     0.000 HD 
HETATM    7  O   UNL     1      -6.654  15.567  65.260  1.00  0.00     6.660 OA 
HETATM    8  O   UNL     1      -7.130  17.615  66.010  1.00  0.00    -0.289 OA 
HETATM    9  C   UNL     1      -7.309  14.307  65.191  1.00  0.00    11.093 C  
HETATM   10  C   UNL     1      -7.660  13.725  66.510  1.00  0.00     1.422 C  
HETATM   11  C   UNL     1      -7.925  14.437  67.634  1.00  0.00    -0.191 C  
HETATM   12  C   UNL     1      -8.680  13.676  68.697  1.00  0.00    -0.027 C  
HETATM   13  C   UNL     1      -8.546  12.321  68.769  1.00  0.00     0.130 C  
HETATM   14  N   UNL     1      -7.594  11.779  67.921  1.00  0.00    -0.113 N  
HETATM   15  C   UNL     1      -7.090  10.510  68.388  1.00  0.00    -0.078 C  
HETATM   16  C   UNL     1      -7.172  12.343  66.752  1.00  0.00     0.237 C  
HETATM   17  C   UNL     1      -8.137  10.113  69.351  1.00  0.00    -0.163 A  
HETATM   18  O   UNL     1      -6.400  11.796  65.982  1.00  0.00     0.154 OA 
HETATM   19  C   UNL     1      -8.254   8.886  69.956  1.00  0.00    -0.122 A  
HETATM   20  C   UNL     1      -9.383   8.606  70.717  1.00  0.00    -0.231 A  
HETATM   21  C   UNL     1     -10.430   9.574  70.684  1.00  0.00    -0.308 A  
HETATM   22  C   UNL     1     -11.646   9.115  71.219  1.00  0.00    -0.401 A  
HETATM   23  N   UNL     1     -10.259  10.854  70.141  1.00  0.00     0.401 NA 
HETATM   24  C   UNL     1     -11.808   7.851  71.837  1.00  0.00    -0.345 A  
HETATM   25  C   UNL     1      -9.071  11.126  69.553  1.00  0.00     0.508 A  
HETATM   26  C   UNL     1     -10.707   7.017  71.989  1.00  0.00    -0.215 A  
HETATM   27  C   UNL     1      -9.471   7.387  71.460  1.00  0.00    -0.162 A  
HETATM   28  O   UNL     1     -10.812   5.833  72.659  1.00  0.00    -0.223 OA 
HETATM   29  H   UNL     1     -10.060   5.263  72.763  1.00  0.00     0.000 HD 
BRANCH  27  30
HETATM   30  C   UNL     1      -8.231   6.546  71.774  1.00  0.00    -0.112 C  
BRANCH  30  31
HETATM   31  N   UNL     1      -7.992   5.481  70.770  1.00  0.00    -0.108 NA 
HETATM   32  C   UNL     1      -8.268   4.145  71.304  1.00  0.00    -0.077 C  
HETATM   33  C   UNL     1      -8.793   5.700  69.567  1.00  0.00    -0.112 C  
ENDBRANCH  30  31
ENDBRANCH  27  30
ENDBRANCH   2   3
TORSDOF 3
ENDMDL
MODEL      103
REMARK 921   NORMALIZED FREE ENERGY PREDICTED BY IDOCK:   18.08 KCAL/MOL
REMARK 922        TOTAL FREE ENERGY PREDICTED BY IDOCK:   20.61 KCAL/MOL
REMARK 923 INTER-LIGAND FREE ENERGY PREDICTED BY IDOCK:   16.74 KCAL/MOL
REMARK 924 INTRA-LIGAND FREE ENERGY PREDICTED BY IDOCK:    3.86 KCAL/MOL
REMARK 927      BINDING AFFINITY PREDICTED BY RF-SCORE:    0.00 PKD
ROOT
HETATM    1  C   UNL     1      -9.956  19.489  63.375  1.00  0.00    14.872 C  
HETATM    2  C   UNL     1     -10.562  19.124  64.715  1.00  0.00     2.347 C  
ENDROOT
BRANCH   2   3
HETATM    3  C   UNL     1      -9.582  18.869  65.880  1.00  0.00     0.057 C  
HETATM    4  C   UNL     1      -8.366  19.839  65.625  1.00  0.00     0.121 C  
HETATM    5  O   UNL     1     -10.248  19.406  67.060  1.00  0.00    -0.351 OA 
HETATM    6  H   UNL     1      -9.644  19.249  67.777  1.00  0.00     0.000 HD 
HETATM    7  O   UNL     1      -7.428  19.872  66.598  1.00  0.00    -0.241 OA 
HETATM    8  O   UNL     1      -8.320  20.660  64.708  1.00  0.00     0.768 OA 
HETATM    9  C   UNL     1      -6.957  18.621  67.081  1.00  0.00    -0.203 C  
HETATM   10  C   UNL     1      -7.992  17.559  67.145  1.00  0.00    -0.229 C  
HETATM   11  C   UNL     1      -9.081  17.477  66.340  1.00  0.00    -0.264 C  
HETATM   12  C   UNL     1      -9.722  16.112  66.285  1.00  0.00    -0.332 C  
HETATM   13  C   UNL     1      -9.610  15.279  67.359  1.00  0.00    -0.207 C  
HETATM   14  N   UNL     1      -9.018  15.841  68.479  1.00  0.00    -0.186 N  
HETATM   15  C   UNL     1      -9.405  15.181  69.702  1.00  0.00    -0.083 C  
HETATM   16  C   UNL     1      -8.144  16.888  68.462  1.00  0.00    -0.244 C  
HETATM   17  C   UNL     1      -9.922  13.894  69.194  1.00  0.00     0.111 A  
HETATM   18  O   UNL     1      -7.569  17.300  69.456  1.00  0.00     0.028 OA 
HETATM   19  C   UNL     1     -10.253  12.800  69.954  1.00  0.00     1.698 A  
HETATM   20  C   UNL     1     -10.575  11.605  69.324  1.00  0.00    -0.088 A  
HETATM   21  C   UNL     1     -10.380  11.556  67.912  1.00  0.00    -0.183 A  
HETATM   22  C   UNL     1     -10.434  10.257  67.374  1.00  0.00    -0.303 A  
HETATM   23  N   UNL     1     -10.132  12.700  67.143  1.00  0.00    -0.221 NA 
HETATM   24  C   UNL     1     -10.758   9.105  68.130  1.00  0.00    -0.186 A  
HETATM   25  C   UNL     1      -9.989  13.873  67.803  1.00  0.00    -0.241 A  
HETATM   26  C   UNL     1     -11.102   9.238  69.470  1.00  0.00    -0.080 A  
HETATM   27  C   UNL     1     -11.046  10.489  70.085  1.00  0.00    -0.369 A  
HETATM   28  O   UNL     1     -11.506   8.159  70.200  1.00  0.00    -0.453 OA 
HETATM   29  H   UNL     1     -11.741   8.250  71.116  1.00  0.00     0.000 HD 
BRANCH  27  30
HETATM   30  C   UNL     1     -11.584  10.657  71.509  1.00  0.00     0.483 C  
BRANCH  30  31
HETATM   31  N   UNL     1     -12.806   9.854  71.757  1.00  0.00    -0.413 NA 
HETATM   32  C   UNL     1     -13.820  10.607  72.500  1.00  0.00     0.710 C  
HETATM   33  C   UNL     1     -13.381   9.366  70.505  1.00  0.00     0.426 C  
ENDBRANCH  30  31
ENDBRANCH  27  30
ENDBRANCH   2   3
TORSDOF 3
ENDMDL
MODEL      104
REMARK 921   NORMALIZED FREE ENERGY PREDICTED BY IDOCK:   25.18 KCAL/MOL
REMARK 922        TOTAL FREE ENERGY PREDICTED BY IDOCK:   28.95 KCAL/MOL
REMARK 923 INTER-LIGAND FREE ENERGY PREDICTED BY IDOCK:   23.79 KCAL/MOL
REMARK 924 INTRA-LIGAND FREE ENERGY PREDICTED BY IDOCK:    5.16 KCAL/MOL
REMARK 927      BINDING AFFINITY PREDICTED BY RF-SCORE:    0.00 PKD
ROOT
HETATM    1  C   UNL     1      -6.809  18.068  68.139  1.00  0.00    -0.210 C  
HETATM    2  C   UNL     1      -6.458  17.268  66.900  1.00  0.00    -0.227 C  
ENDROOT
BRANCH   2   3
HETATM    3  C   UNL     1      -7.627  16.600  66.145  1.00  0.00    -0.055 C  
HETATM    4  C   UNL     1      -7.991  17.593  64.975  1.00  0.00     3.181 C  
HETATM    5  O   UNL     1      -7.039  15.443  65.482  1.00  0.00     3.632 OA 
HETATM    6  H   UNL     1      -7.758  15.033  65.017  1.00  0.00     0.000 HD 
HETATM    7  O   UNL     1      -8.923  17.152  64.101  1.00  0.00     6.602 OA 
HETATM    8  O   UNL     1      -7.370  18.628  64.731  1.00  0.00     0.516 OA 
HETATM    9  C   UNL     1     -10.109  16.594  64.650  1.00  0.00     1.672 C  
HETATM   10  C   UNL     1      -9.901  15.818  65.898  1.00  0.00    -0.381 C  
HETATM   11  C   UNL     1      -8.912  16.037  66.801  1.00  0.00    -0.275 C  
HETATM   12  C   UNL     1      -9.166  15.448  68.167  1.00  0.00    -0.186 C  
HETATM   13  C   UNL     1      -9.952  14.340  68.280  1.00  0.00    -0.239 C  
HETATM   14  N   UNL     1     -10.338  13.769  67.078  1.00  0.00    -0.258 N  
HETATM   15  C   UNL     1     -10.661  12.368  67.206  1.00  0.00    -0.230 C  
HETATM   16  C   UNL     1     -10.437  14.433  65.890  1.00  0.00    -0.308 C  
HETATM   17  C   UNL     1     -10.873  12.246  68.662  1.00  0.00    -0.268 A  
HETATM   18  O   UNL     1     -10.868  13.923  64.869  1.00  0.00    -0.358 OA 
HETATM   19  C   UNL     1     -11.390  11.153  69.314  1.00  0.00    -0.349 A  
HETATM   20  C   UNL     1     -11.681  11.243  70.670  1.00  0.00    -0.264 A  
HETATM   21  C   UNL     1     -11.568  12.535  71.262  1.00  0.00     1.832 A  
HETATM   22  C   UNL     1     -12.150  12.629  72.539  1.00  0.00     2.588 A  
HETATM   23  N   UNL     1     -10.955  13.613  70.611  1.00  0.00     1.018 NA 
HETATM   24  C   UNL     1     -12.704  11.527  73.234  1.00  0.00     6.079 A  
HETATM   25  C   UNL     1     -10.541  13.418  69.338  1.00  0.00     0.206 A  
HETATM   26  C   UNL     1     -12.635  10.258  72.674  1.00  0.00     1.106 A  
HETATM   27  C   UNL     1     -12.098  10.084  71.398  1.00  0.00    -0.498 A  
HETATM   28  O   UNL     1     -13.078   9.164  73.359  1.00  0.00    -0.457 OA 
HETATM   29  H   UNL     1     -13.031   8.296  72.976  1.00  0.00     0.000 HD 
BRANCH  27  30
HETATM   30  C   UNL     1     -11.872   8.670  70.858  1.00  0.00    -0.225 C  
BRANCH  30  31
HETATM   31  N   UNL     1     -12.990   7.749  71.178  1.00  0.00    -0.196 NA 
HETATM   32  C   UNL     1     -12.569   6.346  71.170  1.00  0.00     0.205 C  
HETATM   33  C   UNL     1     -13.585   8.072  72.474  1.00  0.00     0.143 C  
ENDBRANCH  30  31
ENDBRANCH  27  30
ENDBRANCH   2   3
TORSDOF 3
ENDMDL
MODEL      105
REMARK 921   NORMALIZED FREE ENERGY PREDICTED BY IDOCK:   25.91 KCAL/MOL
REMARK 922        TOTAL FREE ENERGY PREDICTED BY IDOCK:   29.81 KCAL/MOL
REMARK 923 INTER-LIGAND FREE ENERGY PREDICTED BY IDOCK:   22.52 KCAL/MOL
REMARK 924 INTRA-LIGAND FREE ENERGY PREDICTED BY IDOCK:    7.29 KCAL/MOL
REMARK 927      BINDING AFFINITY PREDICTED BY RF-SCORE:    0.00 PKD
ROOT
HETATM    1  C   UNL     1     -12.992  14.766  71.306  1.00  0.00    -0.413 C  
HETATM    2  C   UNL     1     -11.908  15.172  70.328  1.00  0.00    -0.352 C  
ENDROOT
BRANCH   2   3
HETATM    3  C   UNL     1     -10.476  14.679  70.625  1.00  0.00     0.599 C  
HETATM    4  C   UNL     1      -9.647  15.976  70.966  1.00  0.00     2.558 C  
HETATM    5  O   UNL     1     -10.578  13.958  71.888  1.00  0.00     3.080 OA 
HETATM    6  H   UNL     1      -9.697  13.655  72.071  1.00  0.00     0.000 HD 
HETATM    7  O   UNL     1      -8.378  15.769  71.379  1.00  0.00     3.774 OA 
HETATM    8  O   UNL     1     -10.134  17.105  71.039  1.00  0.00     2.228 OA 
HETATM    9  C   UNL     1      -7.586  14.877  70.605  1.00  0.00     1.143 C  
HETATM   10  C   UNL     1      -8.332  13.725  70.041  1.00  0.00     2.029 C  
HETATM   11  C   UNL     1      -9.651  13.727  69.723  1.00  0.00     1.377 C  
HETATM   12  C   UNL     1     -10.070  12.634  68.770  1.00  0.00    -0.057 C  
HETATM   13  C   UNL     1      -9.371  11.464  68.749  1.00  0.00    -0.106 C  
HETATM   14  N   UNL     1      -8.401  11.342  69.732  1.00  0.00     0.740 N  
HETATM   15  C   UNL     1      -8.091   9.966  70.038  1.00  0.00    -0.177 C  
HETATM   16  C   UNL     1      -7.771  12.384  70.346  1.00  0.00     3.678 C  
HETATM   17  C   UNL     1      -8.622   9.271  68.848  1.00  0.00    -0.130 A  
HETATM   18  O   UNL     1      -6.857  12.243  71.140  1.00  0.00     1.821 OA 
HETATM   19  C   UNL     1      -8.424   7.950  68.529  1.00  0.00    -0.128 A  
HETATM   20  C   UNL     1      -8.852   7.475  67.296  1.00  0.00    -0.124 A  
HETATM   21  C   UNL     1      -9.330   8.448  66.369  1.00  0.00    -0.214 A  
HETATM   22  C   UNL     1      -9.467   7.964  65.056  1.00  0.00     1.126 A  
HETATM   23  N   UNL     1      -9.611   9.770  66.739  1.00  0.00    -0.169 NA 
HETATM   24  C   UNL     1      -9.258   6.613  64.688  1.00  0.00     1.129 A  
HETATM   25  C   UNL     1      -9.324  10.134  68.011  1.00  0.00    -0.141 A  
HETATM   26  C   UNL     1      -8.954   5.676  65.667  1.00  0.00    -0.131 A  
HETATM   27  C   UNL     1      -8.773   6.080  66.990  1.00  0.00    -0.110 A  
HETATM   28  O   UNL     1      -8.836   4.352  65.358  1.00  0.00    -0.124 OA 
HETATM   29  H   UNL     1      -8.628   3.711  66.028  1.00  0.00     0.000 HD 
BRANCH  27  30
HETATM   30  C   UNL     1      -8.605   5.025  68.088  1.00  0.00    -0.102 C  
BRANCH  30  31
HETATM   31  N   UNL     1      -8.825   3.644  67.593  1.00  0.00    -0.111 NA 
HETATM   32  C   UNL     1      -8.585   3.529  66.153  1.00  0.00    -0.117 C  
HETATM   33  C   UNL     1      -7.981   2.687  68.306  1.00  0.00    -0.057 C  
ENDBRANCH  30  31
ENDBRANCH  27  30
ENDBRANCH   2   3
TORSDOF 3
ENDMDL
MODEL      106
REMARK 921   NORMALIZED FREE ENERGY PREDICTED BY IDOCK:   26.54 KCAL/MOL
REMARK 922        TOTAL FREE ENERGY PREDICTED BY IDOCK:   30.55 KCAL/MOL
REMARK 923 INTER-LIGAND FREE ENERGY PREDICTED BY IDOCK:   21.63 KCAL/MOL
REMARK 924 INTRA-LIGAND FREE ENERGY PREDICTED BY IDOCK:    8.92 KCAL/MOL
REMARK 927      BINDING AFFINITY PREDICTED BY RF-SCORE:    0.00 PKD
ROOT
HETATM    1  C   UNL     1     -12.120  19.507  70.889  1.00  0.00    13.317 C  
HETATM    2  C   UNL     1     -11.580  18.932  69.595  1.00  0.00     5.401 C  
ENDROOT
BRANCH   2   3
HETATM    3  C   UNL     1     -10.153  18.345  69.632  1.00  0.00     0.453 C  
HETATM    4  C   UNL     1      -9.219  19.538  70.069  1.00  0.00     0.870 C  
HETATM    5  O   UNL     1     -10.148  17.433  70.768  1.00  0.00     1.795 OA 
HETATM    6  H   UNL     1      -9.269  17.071  70.791  1.00  0.00     0.000 HD 
HETATM    7  O   UNL     1      -7.924  19.221  70.284  1.00  0.00     0.898 OA 
HETATM    8  O   UNL     1      -9.631  20.657  70.379  1.00  0.00     0.963 OA 
HETATM    9  C   UNL     1      -7.277  18.440  69.288  1.00  0.00    -0.088 C  
HETATM   10  C   UNL     1      -8.147  17.423  68.645  1.00  0.00    -0.264 C  
HETATM   11  C   UNL     1      -9.492  17.525  68.496  1.00  0.00    -0.296 C  
HETATM   12  C   UNL     1     -10.078  16.618  67.442  1.00  0.00    -0.274 C  
HETATM   13  C   UNL     1      -9.452  15.442  67.151  1.00  0.00    -0.213 C  
HETATM   14  N   UNL     1      -8.384  15.126  67.975  1.00  0.00    -0.143 N  
HETATM   15  C   UNL     1      -8.116  13.709  68.019  1.00  0.00    -0.161 C  
HETATM   16  C   UNL     1      -7.630  16.031  68.663  1.00  0.00    -0.173 C  
HETATM   17  C   UNL     1      -8.819  13.237  66.809  1.00  0.00    -0.140 A  
HETATM   18  O   UNL     1      -6.638  15.729  69.307  1.00  0.00    -0.138 OA 
HETATM   19  C   UNL     1      -8.734  11.980  66.264  1.00  0.00    -0.027 A  
HETATM   20  C   UNL     1      -9.327  11.729  65.033  1.00  0.00     0.001 A  
HETATM   21  C   UNL     1      -9.854  12.856  64.338  1.00  0.00     0.002 A  
HETATM   22  C   UNL     1     -10.169  12.599  62.992  1.00  0.00     0.990 A  
HETATM   23  N   UNL     1     -10.017  14.109  64.944  1.00  0.00    -0.239 NA 
HETATM   24  C   UNL     1     -10.079  11.320  62.393  1.00  0.00     0.455 A  
HETATM   25  C   UNL     1      -9.565  14.250  66.211  1.00  0.00    -0.288 A  
HETATM   26  C   UNL     1      -9.717  10.224  63.167  1.00  0.00    -0.167 A  
HETATM   27  C   UNL     1      -9.362  10.400  64.504  1.00  0.00    -0.313 A  
HETATM   28  O   UNL     1      -9.709   8.966  62.640  1.00  0.00     0.062 OA 
HETATM   29  H   UNL     1      -9.461   8.216  63.169  1.00  0.00     0.000 HD 
BRANCH  27  30
HETATM   30  C   UNL     1      -9.126   9.175  65.392  1.00  0.00    -0.214 C  
BRANCH  30  31
HETATM   31  N   UNL     1      -9.349   9.459  66.831  1.00  0.00    -0.142 NA 
HETATM   32  C   UNL     1      -8.838  10.776  67.219  1.00  0.00    -0.133 C  
HETATM   33  C   UNL     1     -10.768   9.367  67.174  1.00  0.00    -0.163 C  
ENDBRANCH  30  31
ENDBRANCH  27  30
ENDBRANCH   2   3
TORSDOF 3
ENDMDL
MODEL      107
REMARK 921   NORMALIZED FREE ENERGY PREDICTED BY IDOCK:   37.85 KCAL/MOL
REMARK 922        TOTAL FREE ENERGY PREDICTED BY IDOCK:   43.84 KCAL/MOL
REMARK 923 INTER-LIGAND FREE ENERGY PREDICTED BY IDOCK:   43.71 KCAL/MOL
REMARK 924 INTRA-LIGAND FREE ENERGY PREDICTED BY IDOCK:    0.13 KCAL/MOL
REMARK 927      BINDING AFFINITY PREDICTED BY RF-SCORE:    0.00 PKD
ROOT
HETATM    1  C   UNL     1      -6.448   8.709  71.754  1.00  0.00    -0.073 C  
HETATM    2  C   UNL     1      -7.385   8.356  70.617  1.00  0.00    -0.056 C  
ENDROOT
BRANCH   2   3
HETATM    3  C   UNL     1      -8.838   8.865  70.724  1.00  0.00    -0.208 C  
HETATM    4  C   UNL     1      -9.659   7.667  71.338  1.00  0.00    -0.158 C  
HETATM    5  O   UNL     1      -8.810   9.875  71.775  1.00  0.00     0.608 OA 
HETATM    6  H   UNL     1      -9.704  10.188  71.841  1.00  0.00     0.000 HD 
HETATM    7  O   UNL     1     -10.950   7.931  71.634  1.00  0.00    -0.230 OA 
HETATM    8  O   UNL     1      -9.156   6.605  71.706  1.00  0.00    -0.145 OA 
HETATM    9  C   UNL     1     -11.721   8.584  70.633  1.00  0.00    -0.144 C  
HETATM   10  C   UNL     1     -10.969   9.584  69.835  1.00  0.00    -0.263 C  
HETATM   11  C   UNL     1      -9.637   9.543  69.582  1.00  0.00    -0.216 C  
HETATM   12  C   UNL     1      -9.193  10.382  68.409  1.00  0.00    -0.147 C  
HETATM   13  C   UNL     1      -9.912  11.491  68.073  1.00  0.00    -0.189 C  
HETATM   14  N   UNL     1     -10.929  11.821  68.954  1.00  0.00    -0.229 N  
HETATM   15  C   UNL     1     -11.278  13.220  68.901  1.00  0.00    -0.277 C  
HETATM   16  C   UNL     1     -11.568  10.942  69.779  1.00  0.00    -0.322 C  
HETATM   17  C   UNL     1     -10.704  13.619  67.600  1.00  0.00    -0.253 A  
HETATM   18  O   UNL     1     -12.522  11.246  70.475  1.00  0.00    -0.321 OA 
HETATM   19  C   UNL     1     -10.910  14.816  66.959  1.00  0.00    -0.315 A  
HETATM   20  C   UNL     1     -10.433  14.988  65.666  1.00  0.00    -0.368 A  
HETATM   21  C   UNL     1      -9.893  13.833  65.027  1.00  0.00    -0.052 A  
HETATM   22  C   UNL     1      -9.703  13.985  63.642  1.00  0.00     4.376 A  
HETATM   23  N   UNL     1      -9.606  12.650  65.721  1.00  0.00    -0.170 NA 
HETATM   24  C   UNL     1      -9.919  15.199  62.946  1.00  0.00    12.193 A  
HETATM   25  C   UNL     1      -9.947  12.599  67.030  1.00  0.00    -0.219 A  
HETATM   26  C   UNL     1     -10.286  16.338  63.652  1.00  0.00     6.168 A  
HETATM   27  C   UNL     1     -10.522  16.264  65.025  1.00  0.00    -0.159 A  
HETATM   28  O   UNL     1     -10.413  17.542  63.023  1.00  0.00     7.895 OA 
HETATM   29  H   UNL     1     -10.664  18.320  63.506  1.00  0.00     0.000 HD 
BRANCH  27  30
HETATM   30  C   UNL     1     -10.761  17.548  65.822  1.00  0.00    -0.106 C  
BRANCH  30  31
HETATM   31  N   UNL     1     -11.991  17.488  66.650  1.00  0.00     2.631 NA 
HETATM   32  C   UNL     1     -12.077  18.606  67.593  1.00  0.00     3.188 C  
HETATM   33  C   UNL     1     -13.190  17.463  65.813  1.00  0.00    11.269 C  
ENDBRANCH  30  31
ENDBRANCH  27  30
ENDBRANCH   2   3
TORSDOF 3
ENDMDL
MODEL      108
REMARK 921   NORMALIZED FREE ENERGY PREDICTED BY IDOCK:   39.18 KCAL/MOL
REMARK 922        TOTAL FREE ENERGY PREDICTED BY IDOCK:   45.40 KCAL/MOL
REMARK 923 INTER-LIGAND FREE ENERGY PREDICTED BY IDOCK:   39.54 KCAL/MOL
REMARK 924 INTRA-LIGAND FREE ENERGY PREDICTED BY IDOCK:    5.86 KCAL/MOL
REMARK 927      BINDING AFFINITY PREDICTED BY RF-SCORE:    0.00 PKD
ROOT
HETATM    1  C   UNL     1     -14.098   7.676  73.518  1.00  0.00     2.788 C  
HETATM    2  C   UNL     1     -14.205   8.852  72.568  1.00  0.00    -0.386 C  
ENDROOT
BRANCH   2   3
HETATM    3  C   UNL     1     -12.910   9.644  72.287  1.00  0.00    -0.325 C  
HETATM    4  C   UNL     1     -13.105  11.033  73.008  1.00  0.00     3.266 C  
HETATM    5  O   UNL     1     -11.876   8.966  73.057  1.00  0.00     0.213 OA 
HETATM    6  H   UNL     1     -11.079   9.455  72.885  1.00  0.00     0.000 HD 
HETATM    7  O   UNL     1     -12.033  11.856  72.994  1.00  0.00     4.242 OA 
HETATM    8  O   UNL     1     -14.082  11.320  73.700  1.00  0.00     3.901 OA 
HETATM    9  C   UNL     1     -11.381  12.045  71.745  1.00  0.00     4.325 C  
HETATM   10  C   UNL     1     -11.344  10.837  70.883  1.00  0.00     0.060 C  
HETATM   11  C   UNL     1     -12.265   9.840  70.893  1.00  0.00    -0.390 C  
HETATM   12  C   UNL     1     -12.269   8.977  69.655  1.00  0.00     1.229 C  
HETATM   13  C   UNL     1     -11.116   8.827  68.942  1.00  0.00     0.231 C  
HETATM   14  N   UNL     1      -9.990   9.390  69.522  1.00  0.00    -0.181 N  
HETATM   15  C   UNL     1      -8.767   8.767  69.077  1.00  0.00    -0.133 C  
HETATM   16  C   UNL     1      -9.999  10.433  70.401  1.00  0.00     0.428 C  
HETATM   17  C   UNL     1      -9.212   8.086  67.845  1.00  0.00    -0.137 A  
HETATM   18  O   UNL     1      -8.985  10.966  70.822  1.00  0.00     2.087 OA 
HETATM   19  C   UNL     1      -8.399   7.489  66.914  1.00  0.00    -0.125 A  
HETATM   20  C   UNL     1      -8.949   7.027  65.725  1.00  0.00    -0.037 A  
HETATM   21  C   UNL     1     -10.316   7.355  65.485  1.00  0.00     2.528 A  
HETATM   22  C   UNL     1     -10.732   7.128  64.161  1.00  0.00    10.953 A  
HETATM   23  N   UNL     1     -11.152   7.881  66.478  1.00  0.00     0.846 NA 
HETATM   24  C   UNL     1      -9.917   6.528  63.171  1.00  0.00     4.418 A  
HETATM   25  C   UNL     1     -10.593   8.160  67.678  1.00  0.00    -0.188 A  
HETATM   26  C   UNL     1      -8.647   6.076  63.510  1.00  0.00     0.256 A  
HETATM   27  C   UNL     1      -8.149   6.289  64.795  1.00  0.00    -0.127 A  
HETATM   28  O   UNL     1      -7.874   5.413  62.602  1.00  0.00    -0.071 OA 
HETATM   29  H   UNL     1      -7.006   5.104  62.834  1.00  0.00     0.000 HD 
BRANCH  27  30
HETATM   30  C   UNL     1      -6.824   5.645  65.210  1.00  0.00    -0.052 C  
BRANCH  30  31
HETATM   31  N   UNL     1      -5.963   5.309  64.050  1.00  0.00    -0.021 NA 
HETATM   32  C   UNL     1      -6.697   4.584  63.010  1.00  0.00    -0.031 C  
HETATM   33  C   UNL     1      -5.360   6.509  63.475  1.00  0.00    -0.026 C  
ENDBRANCH  30  31
ENDBRANCH  27  30
ENDBRANCH   2   3
TORSDOF 3
ENDMDL
MODEL      109
REMARK 921   NORMALIZED FREE ENERGY PREDICTED BY IDOCK:   39.23 KCAL/MOL
REMARK 922        TOTAL FREE ENERGY PREDICTED BY IDOCK:   45.46 KCAL/MOL
REMARK 923 INTER-LIGAND FREE ENERGY PREDICTED BY IDOCK:   43.89 KCAL/MOL
REMARK 924 INTRA-LIGAND FREE ENERGY PREDICTED BY IDOCK:    1.57 KCAL/MOL
REMARK 927      BINDING AFFINITY PREDICTED BY RF-SCORE:    0.00 PKD
ROOT
HETATM    1  C   UNL     1      -7.882  20.595  68.719  1.00  0.00     0.679 C  
HETATM    2  C   UNL     1      -7.579  19.111  68.700  1.00  0.00    -0.381 C  
ENDROOT
BRANCH   2   3
HETATM    3  C   UNL     1      -8.781  18.150  68.819  1.00  0.00    -0.211 C  
HETATM    4  C   UNL     1     -10.059  19.073  68.810  1.00  0.00    -0.363 C  
HETATM    5  O   UNL     1      -8.826  17.438  67.549  1.00  0.00    -0.221 OA 
HETATM    6  H   UNL     1      -9.566  16.847  67.623  1.00  0.00     0.000 HD 
HETATM    7  O   UNL     1     -11.247  18.430  68.786  1.00  0.00     0.885 OA 
HETATM    8  O   UNL     1     -10.026  20.294  68.653  1.00  0.00    -0.271 OA 
HETATM    9  C   UNL     1     -11.424  17.368  69.715  1.00  0.00     1.751 C  
HETATM   10  C   UNL     1     -10.201  16.566  69.969  1.00  0.00     0.148 C  
HETATM   11  C   UNL     1      -8.929  17.028  69.877  1.00  0.00     1.358 C  
HETATM   12  C   UNL     1      -7.903  16.192  70.603  1.00  0.00     2.671 C  
HETATM   13  C   UNL     1      -8.128  14.858  70.772  1.00  0.00     1.957 C  
HETATM   14  N   UNL     1      -9.247  14.364  70.120  1.00  0.00     1.139 N  
HETATM   15  C   UNL     1      -9.153  12.950  69.850  1.00  0.00     2.990 C  
HETATM   16  C   UNL     1     -10.343  15.100  69.777  1.00  0.00    -0.210 C  
HETATM   17  C   UNL     1      -8.090  12.538  70.789  1.00  0.00     6.972 A  
HETATM   18  O   UNL     1     -11.350  14.617  69.287  1.00  0.00    -0.257 OA 
HETATM   19  C   UNL     1      -7.728  11.248  71.083  1.00  0.00     5.329 A  
HETATM   20  C   UNL     1      -6.817  11.011  72.106  1.00  0.00     4.738 A  
HETATM   21  C   UNL     1      -6.440  12.137  72.895  1.00  0.00     5.501 A  
HETATM   22  C   UNL     1      -5.763  11.800  74.081  1.00  0.00     1.397 A  
HETATM   23  N   UNL     1      -6.743  13.454  72.527  1.00  0.00     2.883 NA 
HETATM   24  C   UNL     1      -5.386  10.479  74.424  1.00  0.00     0.241 A  
HETATM   25  C   UNL     1      -7.502  13.632  71.421  1.00  0.00     4.949 A  
HETATM   26  C   UNL     1      -5.634   9.442  73.533  1.00  0.00     0.045 A  
HETATM   27  C   UNL     1      -6.327   9.689  72.348  1.00  0.00     0.584 A  
HETATM   28  O   UNL     1      -5.203   8.175  73.795  1.00  0.00    -0.048 OA 
HETATM   29  H   UNL     1      -5.373   7.465  73.186  1.00  0.00     0.000 HD 
BRANCH  27  30
HETATM   30  C   UNL     1      -6.452   8.581  71.298  1.00  0.00    -0.056 C  
BRANCH  30  31
HETATM   31  N   UNL     1      -7.845   8.100  71.136  1.00  0.00    -0.087 NA 
HETATM   32  C   UNL     1      -8.120   7.658  69.767  1.00  0.00    -0.125 C  
HETATM   33  C   UNL     1      -8.141   7.014  72.068  1.00  0.00    -0.097 C  
ENDBRANCH  30  31
ENDBRANCH  27  30
ENDBRANCH   2   3
TORSDOF 3
ENDMDL
MODEL      110
REMARK 921   NORMALIZED FREE ENERGY PREDICTED BY IDOCK:   39.73 KCAL/MOL
REMARK 922        TOTAL FREE ENERGY PREDICTED BY IDOCK:   46.05 KCAL/MOL
REMARK 923 INTER-LIGAND FREE ENERGY PREDICTED BY IDOCK:   46.36 KCAL/MOL
REMARK 924 INTRA-LIGAND FREE ENERGY PREDICTED BY IDOCK:   -0.30 KCAL/MOL
REMARK 927      BINDING AFFINITY PREDICTED BY RF-SCORE:    0.00 PKD
ROOT
HETATM    1  C   UNL     1     -12.520   9.161  66.477  1.00  0.00    10.814 C  
HETATM    2  C   UNL     1     -11.502   8.694  65.458  1.00  0.00     7.000 C  
ENDROOT
BRANCH   2   3
HETATM    3  C   UNL     1     -10.579   9.769  64.847  1.00  0.00     1.362 C  
HETATM    4  C   UNL     1     -10.267   9.273  63.383  1.00  0.00     3.373 C  
HETATM    5  O   UNL     1     -11.426  10.941  64.671  1.00  0.00     0.155 OA 
HETATM    6  H   UNL     1     -10.858  11.603  64.295  1.00  0.00     0.000 HD 
HETATM    7  O   UNL     1      -9.562  10.129  62.611  1.00  0.00    -0.294 OA 
HETATM    8  O   UNL     1     -10.763   8.265  62.877  1.00  0.00     8.189 OA 
HETATM    9  C   UNL     1      -8.396  10.704  63.186  1.00  0.00    -0.107 C  
HETATM   10  C   UNL     1      -8.510  11.004  64.635  1.00  0.00     0.170 C  
HETATM   11  C   UNL     1      -9.299  10.335  65.513  1.00  0.00    -0.250 C  
HETATM   12  C   UNL     1      -8.918  10.511  66.963  1.00  0.00    -0.149 C  
HETATM   13  C   UNL     1      -8.292  11.658  67.353  1.00  0.00    -0.152 C  
HETATM   14  N   UNL     1      -8.191  12.634  66.374  1.00  0.00     0.272 N  
HETATM   15  C   UNL     1      -8.057  13.961  66.924  1.00  0.00     0.140 C  
HETATM   16  C   UNL     1      -8.190  12.399  65.030  1.00  0.00     2.622 C  
HETATM   17  C   UNL     1      -7.634  13.667  68.308  1.00  0.00    -0.130 A  
HETATM   18  O   UNL     1      -8.006  13.270  64.196  1.00  0.00     6.845 OA 
HETATM   19  C   UNL     1      -7.183  14.582  69.226  1.00  0.00    -0.131 A  
HETATM   20  C   UNL     1      -6.668  14.136  70.437  1.00  0.00     0.135 A  
HETATM   21  C   UNL     1      -6.496  12.728  70.576  1.00  0.00     0.616 A  
HETATM   22  C   UNL     1      -5.709  12.357  71.681  1.00  0.00     0.602 A  
HETATM   23  N   UNL     1      -7.044  11.807  69.674  1.00  0.00     0.083 NA 
HETATM   24  C   UNL     1      -5.216  13.274  72.640  1.00  0.00     0.038 A  
HETATM   25  C   UNL     1      -7.681  12.303  68.588  1.00  0.00    -0.076 A  
HETATM   26  C   UNL     1      -5.557  14.617  72.543  1.00  0.00     0.122 A  
HETATM   27  C   UNL     1      -6.311  15.071  71.460  1.00  0.00     0.740 A  
HETATM   28  O   UNL     1      -5.172  15.510  73.500  1.00  0.00     0.567 OA 
HETATM   29  H   UNL     1      -5.405  16.428  73.434  1.00  0.00     0.000 HD 
BRANCH  27  30
HETATM   30  C   UNL     1      -6.823  16.513  71.445  1.00  0.00     3.884 C  
BRANCH  30  31
HETATM   31  N   UNL     1      -6.028  17.394  70.555  1.00  0.00     0.075 NA 
HETATM   32  C   UNL     1      -6.875  18.159  69.635  1.00  0.00     0.065 C  
HETATM   33  C   UNL     1      -5.194  18.313  71.328  1.00  0.00    -0.224 C  
ENDBRANCH  30  31
ENDBRANCH  27  30
ENDBRANCH   2   3
TORSDOF 3
ENDMDL
MODEL      111
REMARK 921   NORMALIZED FREE ENERGY PREDICTED BY IDOCK:   51.84 KCAL/MOL
REMARK 922        TOTAL FREE ENERGY PREDICTED BY IDOCK:   60.29 KCAL/MOL
REMARK 923 INTER-LIGAND FREE ENERGY PREDICTED BY IDOCK:   59.70 KCAL/MOL
REMARK 924 INTRA-LIGAND FREE ENERGY PREDICTED BY IDOCK:    0.59 KCAL/MOL
REMARK 927      BINDING AFFINITY PREDICTED BY RF-SCORE:    0.00 PKD
ROOT
HETATM    1  C   UNL     1      -9.802   8.406  63.402  1.00  0.00     4.008 C  
HETATM    2  C   UNL     1     -10.671   9.646  63.470  1.00  0.00     4.063 C  
ENDROOT
BRANCH   2   3
HETATM    3  C   UNL     1     -11.038  10.166  64.876  1.00  0.00     1.818 C  
HETATM    4  C   UNL     1     -12.416   9.487  65.229  1.00  0.00    12.691 C  
HETATM    5  O   UNL     1     -10.074   9.544  65.775  1.00  0.00    -0.288 OA 
HETATM    6  H   UNL     1     -10.300   9.864  66.640  1.00  0.00     0.000 HD 
HETATM    7  O   UNL     1     -12.877   9.709  66.479  1.00  0.00     9.539 OA 
HETATM    8  O   UNL     1     -12.980   8.659  64.512  1.00  0.00    18.189 OA 
HETATM    9  C   UNL     1     -12.868  11.054  66.939  1.00  0.00     6.235 C  
HETATM   10  C   UNL     1     -11.711  11.856  66.469  1.00  0.00    -0.247 C  
HETATM   11  C   UNL     1     -11.039  11.654  65.308  1.00  0.00    -0.298 C  
HETATM   12  C   UNL     1     -10.225  12.835  64.839  1.00  0.00    -0.294 C  
HETATM   13  C   UNL     1      -9.739  13.718  65.759  1.00  0.00    -0.151 C  
HETATM   14  N   UNL     1      -9.931  13.353  67.081  1.00  0.00    -0.238 N  
HETATM   15  C   UNL     1      -8.972  13.961  67.971  1.00  0.00    -0.184 C  
HETATM   16  C   UNL     1     -10.923  12.531  67.532  1.00  0.00    -0.251 C  
HETATM   17  C   UNL     1      -8.464  15.073  67.143  1.00  0.00    -0.244 A  
HETATM   18  O   UNL     1     -11.122  12.303  68.714  1.00  0.00    -0.225 OA 
HETATM   19  C   UNL     1      -7.655  16.096  67.573  1.00  0.00    -0.173 A  
HETATM   20  C   UNL     1      -7.389  17.159  66.719  1.00  0.00    -0.262 A  
HETATM   21  C   UNL     1      -8.116  17.190  65.493  1.00  0.00     1.050 A  
HETATM   22  C   UNL     1      -8.033  18.418  64.813  1.00  0.00     3.737 A  
HETATM   23  N   UNL     1      -8.863  16.099  65.030  1.00  0.00     1.489 NA 
HETATM   24  C   UNL     1      -7.222  19.498  65.234  1.00  0.00     0.009 A  
HETATM   25  C   UNL     1      -8.953  15.018  65.840  1.00  0.00     0.162 A  
HETATM   26  C   UNL     1      -6.405  19.349  66.348  1.00  0.00    -0.183 A  
HETATM   27  C   UNL     1      -6.450  18.171  67.095  1.00  0.00    -0.192 A  
HETATM   28  O   UNL     1      -5.546  20.339  66.725  1.00  0.00    -0.172 OA 
HETATM   29  H   UNL     1      -4.988  20.237  67.487  1.00  0.00     0.000 HD 
BRANCH  27  30
HETATM   30  C   UNL     1      -5.433  17.948  68.217  1.00  0.00    -0.152 C  
BRANCH  30  31
HETATM   31  N   UNL     1      -5.959  18.329  69.551  1.00  0.00    -0.244 NA 
HETATM   32  C   UNL     1      -6.956  19.399  69.466  1.00  0.00    -0.245 C  
HETATM   33  C   UNL     1      -6.538  17.176  70.240  1.00  0.00     0.749 C  
ENDBRANCH  30  31
ENDBRANCH  27  30
ENDBRANCH   2   3
TORSDOF 3
ENDMDL
