MODEL        1
REMARK 921   NORMALIZED FREE ENERGY PREDICTED BY IDOCK:   -6.85 KCAL/MOL
REMARK 922        TOTAL FREE ENERGY PREDICTED BY IDOCK:  -11.51 KCAL/MOL
REMARK 923 INTER-LIGAND FREE ENERGY PREDICTED BY IDOCK:   -9.66 KCAL/MOL
REMARK 924 INTRA-LIGAND FREE ENERGY PREDICTED BY IDOCK:   -1.85 KCAL/MOL
REMARK 927      BINDING AFFINITY PREDICTED BY RF-SCORE:    0.00 PKD
ROOT
HETATM    1  C   UNL     1      -9.130  17.699  67.349  1.00  0.00    -0.239 C  
HETATM    2  C   UNL     1      -9.193  16.583  66.305  1.00  0.00    -0.310 C  
HETATM    3  C   UNL     1      -8.334  15.399  66.734  1.00  0.00    -0.285 C  
ENDROOT
BRANCH   2   4
HETATM    4  N   UNL     1     -10.564  16.157  66.055  1.00  0.00    -0.315 N  
HETATM    5  H   UNL     1     -11.184  15.971  66.844  1.00  0.00     0.000 HD 
BRANCH   4   6
HETATM    6  C   UNL     1     -11.031  16.003  64.779  1.00  0.00    -0.356 C  
HETATM    7  O   UNL     1     -11.423  16.924  64.083  1.00  0.00    -1.174 OA 
BRANCH   6   8
HETATM    8  N   UNL     1     -11.102  14.679  64.375  1.00  0.00    -0.629 N  
HETATM    9  H   UNL     1     -10.389  14.341  63.728  1.00  0.00     0.000 HD 
BRANCH   8  10
HETATM   10  S   UNL     1     -12.274  13.598  64.874  1.00  0.00    -0.421 S  
HETATM   11  O   UNL     1     -13.381  14.324  65.455  1.00  0.00    -0.649 OA 
HETATM   12  O   UNL     1     -12.483  12.737  63.725  1.00  0.00    -0.615 OA 
BRANCH  10  13
HETATM   13  C   UNL     1     -11.547  12.603  66.127  1.00  0.00    -0.393 A  
HETATM   14  C   UNL     1     -11.427  13.050  67.450  1.00  0.00    -0.332 A  
HETATM   15  N   UNL     1     -10.419  10.518  66.654  1.00  0.00    -0.242 NA 
HETATM   16  C   UNL     1     -10.722  12.210  68.330  1.00  0.00    -0.248 A  
HETATM   17  C   UNL     1     -10.247  10.982  67.902  1.00  0.00    -0.182 A  
HETATM   18  C   UNL     1     -11.055  11.347  65.795  1.00  0.00    -0.153 A  
BRANCH  14  19
HETATM   19  N   UNL     1     -12.071  14.213  67.936  1.00  0.00    -0.545 NA 
HETATM   20  H   UNL     1     -12.554  14.774  67.234  1.00  0.00     0.000 HD 
BRANCH  19  21
HETATM   21  C   UNL     1     -12.139  14.706  69.260  1.00  0.00    -0.272 A  
HETATM   22  C   UNL     1     -11.176  16.063  71.035  1.00  0.00    -0.347 A  
HETATM   23  C   UNL     1     -11.242  15.691  69.687  1.00  0.00    -0.310 A  
HETATM   24  C   UNL     1     -11.982  15.429  71.983  1.00  0.00    -0.500 A  
HETATM   25  C   UNL     1     -12.896  14.455  71.580  1.00  0.00    -0.416 A  
HETATM   26  C   UNL     1     -12.999  14.146  70.217  1.00  0.00    -0.057 A  
HETATM   27  C   UNL     1     -13.708  13.676  72.571  1.00  0.00    -0.663 C  
ENDBRANCH  19  21
ENDBRANCH  14  19
ENDBRANCH  10  13
ENDBRANCH   8  10
ENDBRANCH   6   8
ENDBRANCH   4   6
ENDBRANCH   2   4
TORSDOF 7
ENDMDL
MODEL        2
REMARK 921   NORMALIZED FREE ENERGY PREDICTED BY IDOCK:   -6.76 KCAL/MOL
REMARK 922        TOTAL FREE ENERGY PREDICTED BY IDOCK:  -11.38 KCAL/MOL
REMARK 923 INTER-LIGAND FREE ENERGY PREDICTED BY IDOCK:   -9.65 KCAL/MOL
REMARK 924 INTRA-LIGAND FREE ENERGY PREDICTED BY IDOCK:   -1.73 KCAL/MOL
REMARK 927      BINDING AFFINITY PREDICTED BY RF-SCORE:    0.00 PKD
ROOT
HETATM    1  C   UNL     1     -10.078  11.550  63.386  1.00  0.00    -0.454 C  
HETATM    2  C   UNL     1     -11.201  12.587  63.336  1.00  0.00    -0.397 C  
HETATM    3  C   UNL     1     -12.557  11.919  63.531  1.00  0.00    -0.579 C  
ENDROOT
BRANCH   2   4
HETATM    4  N   UNL     1     -11.003  13.642  64.321  1.00  0.00    -0.558 N  
HETATM    5  H   UNL     1     -10.067  13.820  64.686  1.00  0.00     0.000 HD 
BRANCH   4   6
HETATM    6  C   UNL     1     -12.054  14.397  64.765  1.00  0.00    -0.452 C  
HETATM    7  O   UNL     1     -12.725  15.116  64.045  1.00  0.00    -0.746 OA 
BRANCH   6   8
HETATM    8  N   UNL     1     -12.234  14.337  66.138  1.00  0.00    -0.430 N  
HETATM    9  H   UNL     1     -12.913  14.973  66.556  1.00  0.00     0.000 HD 
BRANCH   8  10
HETATM   10  S   UNL     1     -11.416  13.295  67.156  1.00  0.00    -0.361 S  
HETATM   11  O   UNL     1     -11.886  11.945  66.940  1.00  0.00    -0.590 OA 
HETATM   12  O   UNL     1     -10.016  13.625  66.959  1.00  0.00    -0.239 OA 
BRANCH  10  13
HETATM   13  C   UNL     1     -11.821  13.766  68.799  1.00  0.00    -0.363 A  
HETATM   14  C   UNL     1     -11.738  15.097  69.229  1.00  0.00    -0.329 A  
HETATM   15  N   UNL     1     -12.489  13.019  71.012  1.00  0.00    -0.353 NA 
HETATM   16  C   UNL     1     -11.976  15.327  70.595  1.00  0.00    -0.386 A  
HETATM   17  C   UNL     1     -12.340  14.285  71.432  1.00  0.00    -0.353 A  
HETATM   18  C   UNL     1     -12.213  12.790  69.707  1.00  0.00    -0.147 A  
BRANCH  14  19
HETATM   19  N   UNL     1     -11.552  16.187  68.345  1.00  0.00    -0.310 NA 
HETATM   20  H   UNL     1     -12.343  16.399  67.736  1.00  0.00     0.000 HD 
BRANCH  19  21
HETATM   21  C   UNL     1     -10.421  17.022  68.186  1.00  0.00    -0.357 A  
HETATM   22  C   UNL     1      -8.090  17.500  68.693  1.00  0.00    -0.263 A  
HETATM   23  C   UNL     1      -9.177  16.617  68.681  1.00  0.00    -0.248 A  
HETATM   24  C   UNL     1      -8.242  18.813  68.242  1.00  0.00    -0.355 A  
HETATM   25  C   UNL     1      -9.468  19.235  67.728  1.00  0.00    -0.387 A  
HETATM   26  C   UNL     1     -10.525  18.318  67.658  1.00  0.00    -0.431 A  
HETATM   27  C   UNL     1      -9.708  20.661  67.328  1.00  0.00    -0.562 C  
ENDBRANCH  19  21
ENDBRANCH  14  19
ENDBRANCH  10  13
ENDBRANCH   8  10
ENDBRANCH   6   8
ENDBRANCH   4   6
ENDBRANCH   2   4
TORSDOF 7
ENDMDL
MODEL        3
REMARK 921   NORMALIZED FREE ENERGY PREDICTED BY IDOCK:   -6.70 KCAL/MOL
REMARK 922        TOTAL FREE ENERGY PREDICTED BY IDOCK:  -11.29 KCAL/MOL
REMARK 923 INTER-LIGAND FREE ENERGY PREDICTED BY IDOCK:   -9.89 KCAL/MOL
REMARK 924 INTRA-LIGAND FREE ENERGY PREDICTED BY IDOCK:   -1.41 KCAL/MOL
REMARK 927      BINDING AFFINITY PREDICTED BY RF-SCORE:    0.00 PKD
ROOT
HETATM    1  C   UNL     1     -10.068  11.328  63.936  1.00  0.00    -0.392 C  
HETATM    2  C   UNL     1     -11.080  12.391  63.510  1.00  0.00    -0.458 C  
HETATM    3  C   UNL     1     -12.504  11.862  63.646  1.00  0.00    -0.583 C  
ENDROOT
BRANCH   2   4
HETATM    4  N   UNL     1     -10.918  13.623  64.271  1.00  0.00    -0.558 N  
HETATM    5  H   UNL     1      -9.981  13.937  64.525  1.00  0.00     0.000 HD 
BRANCH   4   6
HETATM    6  C   UNL     1     -12.003  14.366  64.650  1.00  0.00    -0.464 C  
HETATM    7  O   UNL     1     -12.661  15.047  63.884  1.00  0.00    -0.775 OA 
BRANCH   6   8
HETATM    8  N   UNL     1     -12.236  14.341  66.016  1.00  0.00    -0.421 N  
HETATM    9  H   UNL     1     -13.012  14.897  66.376  1.00  0.00     0.000 HD 
BRANCH   8  10
HETATM   10  S   UNL     1     -11.334  13.463  67.115  1.00  0.00    -0.331 S  
HETATM   11  O   UNL     1     -11.815  12.101  67.152  1.00  0.00    -0.543 OA 
HETATM   12  O   UNL     1      -9.957  13.746  66.757  1.00  0.00    -0.256 OA 
BRANCH  10  13
HETATM   13  C   UNL     1     -11.608  14.189  68.692  1.00  0.00    -0.317 A  
HETATM   14  C   UNL     1     -11.315  15.535  68.948  1.00  0.00    -0.324 A  
HETATM   15  N   UNL     1     -12.298  13.829  70.993  1.00  0.00    -0.370 NA 
HETATM   16  C   UNL     1     -11.467  15.965  70.278  1.00  0.00    -0.376 A  
HETATM   17  C   UNL     1     -11.950  15.100  71.246  1.00  0.00    -0.344 A  
HETATM   18  C   UNL     1     -12.106  13.402  69.723  1.00  0.00    -0.310 A  
BRANCH  14  19
HETATM   19  N   UNL     1     -11.003  16.467  67.929  1.00  0.00    -0.325 NA 
HETATM   20  H   UNL     1     -11.388  16.256  67.008  1.00  0.00     0.000 HD 
BRANCH  19  21
HETATM   21  C   UNL     1     -10.230  17.649  68.010  1.00  0.00    -0.362 A  
HETATM   22  C   UNL     1      -9.913  19.983  67.398  1.00  0.00    -0.571 A  
HETATM   23  C   UNL     1     -10.728  18.848  67.488  1.00  0.00    -0.509 A  
HETATM   24  C   UNL     1      -8.576  19.925  67.797  1.00  0.00    -0.370 A  
HETATM   25  C   UNL     1      -8.060  18.746  68.337  1.00  0.00    -0.371 A  
HETATM   26  C   UNL     1      -8.910  17.641  68.485  1.00  0.00    -0.285 A  
HETATM   27  C   UNL     1      -6.608  18.605  68.683  1.00  0.00    -0.273 C  
ENDBRANCH  19  21
ENDBRANCH  14  19
ENDBRANCH  10  13
ENDBRANCH   8  10
ENDBRANCH   6   8
ENDBRANCH   4   6
ENDBRANCH   2   4
TORSDOF 7
ENDMDL
MODEL        4
REMARK 921   NORMALIZED FREE ENERGY PREDICTED BY IDOCK:   -6.68 KCAL/MOL
REMARK 922        TOTAL FREE ENERGY PREDICTED BY IDOCK:  -11.26 KCAL/MOL
REMARK 923 INTER-LIGAND FREE ENERGY PREDICTED BY IDOCK:   -9.60 KCAL/MOL
REMARK 924 INTRA-LIGAND FREE ENERGY PREDICTED BY IDOCK:   -1.66 KCAL/MOL
REMARK 927      BINDING AFFINITY PREDICTED BY RF-SCORE:    0.00 PKD
ROOT
HETATM    1  C   UNL     1     -10.095  17.360  68.126  1.00  0.00    -0.328 C  
HETATM    2  C   UNL     1      -9.691  16.803  66.760  1.00  0.00    -0.264 C  
HETATM    3  C   UNL     1      -8.368  16.053  66.857  1.00  0.00    -0.278 C  
ENDROOT
BRANCH   2   4
HETATM    4  N   UNL     1     -10.728  15.944  66.202  1.00  0.00    -0.301 N  
HETATM    5  H   UNL     1     -11.232  15.302  66.814  1.00  0.00     0.000 HD 
BRANCH   4   6
HETATM    6  C   UNL     1     -11.034  15.985  64.869  1.00  0.00    -0.384 C  
HETATM    7  O   UNL     1     -11.343  17.003  64.274  1.00  0.00    -1.191 OA 
BRANCH   6   8
HETATM    8  N   UNL     1     -11.045  14.736  64.268  1.00  0.00    -0.606 N  
HETATM    9  H   UNL     1     -10.390  14.571  63.504  1.00  0.00     0.000 HD 
BRANCH   8  10
HETATM   10  S   UNL     1     -12.058  13.483  64.709  1.00  0.00    -0.421 S  
HETATM   11  O   UNL     1     -12.971  13.940  65.733  1.00  0.00    -0.506 OA 
HETATM   12  O   UNL     1     -12.564  12.969  63.450  1.00  0.00    -0.722 OA 
BRANCH  10  13
HETATM   13  C   UNL     1     -11.041  12.226  65.398  1.00  0.00    -0.311 A  
HETATM   14  C   UNL     1     -10.485  12.342  66.679  1.00  0.00    -0.229 A  
HETATM   15  N   UNL     1      -9.940  10.091  65.038  1.00  0.00    -0.315 NA 
HETATM   16  C   UNL     1      -9.597  11.326  67.068  1.00  0.00    -0.197 A  
HETATM   17  C   UNL     1      -9.357  10.244  66.238  1.00  0.00    -0.167 A  
HETATM   18  C   UNL     1     -10.758  11.094  64.643  1.00  0.00    -0.280 A  
BRANCH  14  19
HETATM   19  N   UNL     1     -10.871  13.345  67.602  1.00  0.00    -0.256 NA 
HETATM   20  H   UNL     1     -10.736  14.306  67.287  1.00  0.00     0.000 HD 
BRANCH  19  21
HETATM   21  C   UNL     1     -11.416  13.199  68.898  1.00  0.00    -0.298 A  
HETATM   22  C   UNL     1     -12.344  11.756  70.624  1.00  0.00    -0.421 A  
HETATM   23  C   UNL     1     -11.645  11.922  69.422  1.00  0.00    -0.388 A  
HETATM   24  C   UNL     1     -12.856  12.864  71.301  1.00  0.00    -0.361 A  
HETATM   25  C   UNL     1     -12.627  14.149  70.809  1.00  0.00    -0.432 A  
HETATM   26  C   UNL     1     -11.864  14.301  69.643  1.00  0.00    -0.370 A  
HETATM   27  C   UNL     1     -13.242  15.360  71.444  1.00  0.00    -0.578 C  
ENDBRANCH  19  21
ENDBRANCH  14  19
ENDBRANCH  10  13
ENDBRANCH   8  10
ENDBRANCH   6   8
ENDBRANCH   4   6
ENDBRANCH   2   4
TORSDOF 7
ENDMDL
MODEL        5
REMARK 921   NORMALIZED FREE ENERGY PREDICTED BY IDOCK:   -6.60 KCAL/MOL
REMARK 922        TOTAL FREE ENERGY PREDICTED BY IDOCK:  -11.15 KCAL/MOL
REMARK 923 INTER-LIGAND FREE ENERGY PREDICTED BY IDOCK:   -9.98 KCAL/MOL
REMARK 924 INTRA-LIGAND FREE ENERGY PREDICTED BY IDOCK:   -1.17 KCAL/MOL
REMARK 927      BINDING AFFINITY PREDICTED BY RF-SCORE:    0.00 PKD
ROOT
HETATM    1  C   UNL     1     -10.075  11.335  63.585  1.00  0.00    -0.432 C  
HETATM    2  C   UNL     1     -11.155  12.393  63.360  1.00  0.00    -0.402 C  
HETATM    3  C   UNL     1     -12.544  11.790  63.538  1.00  0.00    -0.485 C  
ENDROOT
BRANCH   2   4
HETATM    4  N   UNL     1     -10.977  13.539  64.242  1.00  0.00    -0.519 N  
HETATM    5  H   UNL     1     -10.040  13.790  64.557  1.00  0.00     0.000 HD 
BRANCH   4   6
HETATM    6  C   UNL     1     -12.049  14.284  64.654  1.00  0.00    -0.463 C  
HETATM    7  O   UNL     1     -12.774  14.907  63.898  1.00  0.00    -0.789 OA 
BRANCH   6   8
HETATM    8  N   UNL     1     -12.185  14.337  66.032  1.00  0.00    -0.421 N  
HETATM    9  H   UNL     1     -12.777  15.070  66.423  1.00  0.00     0.000 HD 
BRANCH   8  10
HETATM   10  S   UNL     1     -11.447  13.282  67.098  1.00  0.00    -0.361 S  
HETATM   11  O   UNL     1     -12.005  11.960  66.929  1.00  0.00    -0.614 OA 
HETATM   12  O   UNL     1     -10.027  13.510  66.903  1.00  0.00    -0.245 OA 
BRANCH  10  13
HETATM   13  C   UNL     1     -11.833  13.844  68.718  1.00  0.00    -0.361 A  
HETATM   14  C   UNL     1     -11.865  12.972  69.815  1.00  0.00    -0.311 A  
HETATM   15  N   UNL     1     -12.513  15.721  70.100  1.00  0.00    -0.312 NA 
HETATM   16  C   UNL     1     -12.301  13.520  71.034  1.00  0.00    -0.422 A  
HETATM   17  C   UNL     1     -12.608  14.867  71.131  1.00  0.00    -0.335 A  
HETATM   18  C   UNL     1     -12.139  15.184  68.916  1.00  0.00    -0.194 A  
BRANCH  14  19
HETATM   19  N   UNL     1     -11.374  11.645  69.764  1.00  0.00    -0.448 NA 
HETATM   20  H   UNL     1     -10.620  11.481  69.097  1.00  0.00     0.000 HD 
BRANCH  19  21
HETATM   21  C   UNL     1     -11.785  10.515  70.509  1.00  0.00    -0.350 A  
HETATM   22  C   UNL     1     -13.532   9.339  71.729  1.00  0.00    -0.483 A  
HETATM   23  C   UNL     1     -13.133  10.350  70.846  1.00  0.00    -0.412 A  
HETATM   24  C   UNL     1     -12.583   8.500  72.315  1.00  0.00    -0.438 A  
HETATM   25  C   UNL     1     -11.235   8.632  71.982  1.00  0.00    -0.434 A  
HETATM   26  C   UNL     1     -10.862   9.603  71.043  1.00  0.00    -0.412 A  
HETATM   27  C   UNL     1     -10.170   7.823  72.661  1.00  0.00    -0.340 C  
ENDBRANCH  19  21
ENDBRANCH  14  19
ENDBRANCH  10  13
ENDBRANCH   8  10
ENDBRANCH   6   8
ENDBRANCH   4   6
ENDBRANCH   2   4
TORSDOF 7
ENDMDL
MODEL        6
REMARK 921   NORMALIZED FREE ENERGY PREDICTED BY IDOCK:   -6.56 KCAL/MOL
REMARK 922        TOTAL FREE ENERGY PREDICTED BY IDOCK:  -11.10 KCAL/MOL
REMARK 923 INTER-LIGAND FREE ENERGY PREDICTED BY IDOCK:   -9.64 KCAL/MOL
REMARK 924 INTRA-LIGAND FREE ENERGY PREDICTED BY IDOCK:   -1.46 KCAL/MOL
REMARK 927      BINDING AFFINITY PREDICTED BY RF-SCORE:    0.00 PKD
ROOT
HETATM    1  C   UNL     1     -14.382  14.970  71.946  1.00  0.00    -0.677 C  
HETATM    2  C   UNL     1     -12.955  15.515  72.025  1.00  0.00    -0.434 C  
HETATM    3  C   UNL     1     -12.613  15.918  73.455  1.00  0.00    -0.666 C  
ENDROOT
BRANCH   2   4
HETATM    4  N   UNL     1     -11.984  14.554  71.518  1.00  0.00    -0.393 N  
HETATM    5  H   UNL     1     -11.011  14.618  71.815  1.00  0.00     0.000 HD 
BRANCH   4   6
HETATM    6  C   UNL     1     -12.360  13.566  70.648  1.00  0.00    -0.358 C  
HETATM    7  O   UNL     1     -12.532  12.404  70.973  1.00  0.00    -0.368 OA 
BRANCH   6   8
HETATM    8  N   UNL     1     -12.443  13.994  69.332  1.00  0.00    -0.451 N  
HETATM    9  H   UNL     1     -13.232  13.668  68.775  1.00  0.00     0.000 HD 
BRANCH   8  10
HETATM   10  S   UNL     1     -11.338  15.008  68.595  1.00  0.00    -0.313 S  
HETATM   11  O   UNL     1     -11.627  16.377  68.956  1.00  0.00    -0.276 OA 
HETATM   12  O   UNL     1     -10.048  14.422  68.908  1.00  0.00    -0.230 OA 
BRANCH  10  13
HETATM   13  C   UNL     1     -11.566  14.834  66.861  1.00  0.00    -0.327 A  
HETATM   14  C   UNL     1     -10.786  15.541  65.937  1.00  0.00    -0.339 A  
HETATM   15  N   UNL     1     -12.878  13.822  65.085  1.00  0.00    -0.748 NA 
HETATM   16  C   UNL     1     -11.144  15.405  64.585  1.00  0.00    -0.361 A  
HETATM   17  C   UNL     1     -12.171  14.555  64.210  1.00  0.00    -0.415 A  
HETATM   18  C   UNL     1     -12.565  13.990  66.390  1.00  0.00    -0.245 A  
BRANCH  14  19
HETATM   19  N   UNL     1      -9.620  16.260  66.297  1.00  0.00    -0.287 NA 
HETATM   20  H   UNL     1      -8.746  15.736  66.240  1.00  0.00     0.000 HD 
BRANCH  19  21
HETATM   21  C   UNL     1      -9.499  17.602  66.727  1.00  0.00    -0.280 A  
HETATM   22  C   UNL     1     -10.184  19.928  66.528  1.00  0.00    -0.611 A  
HETATM   23  C   UNL     1     -10.393  18.570  66.257  1.00  0.00    -0.459 A  
HETATM   24  C   UNL     1      -9.058  20.340  67.242  1.00  0.00    -0.504 A  
HETATM   25  C   UNL     1      -8.161  19.393  67.736  1.00  0.00    -0.326 A  
HETATM   26  C   UNL     1      -8.423  18.034  67.517  1.00  0.00    -0.237 A  
HETATM   27  C   UNL     1      -6.887  19.792  68.419  1.00  0.00    -0.332 C  
ENDBRANCH  19  21
ENDBRANCH  14  19
ENDBRANCH  10  13
ENDBRANCH   8  10
ENDBRANCH   6   8
ENDBRANCH   4   6
ENDBRANCH   2   4
TORSDOF 7
ENDMDL
MODEL        7
REMARK 921   NORMALIZED FREE ENERGY PREDICTED BY IDOCK:   -6.54 KCAL/MOL
REMARK 922        TOTAL FREE ENERGY PREDICTED BY IDOCK:  -11.07 KCAL/MOL
REMARK 923 INTER-LIGAND FREE ENERGY PREDICTED BY IDOCK:   -9.61 KCAL/MOL
REMARK 924 INTRA-LIGAND FREE ENERGY PREDICTED BY IDOCK:   -1.47 KCAL/MOL
REMARK 927      BINDING AFFINITY PREDICTED BY RF-SCORE:    0.00 PKD
ROOT
HETATM    1  C   UNL     1     -10.103  11.678  63.331  1.00  0.00    -0.468 C  
HETATM    2  C   UNL     1     -11.110  12.115  64.396  1.00  0.00    -0.333 C  
HETATM    3  C   UNL     1     -10.618  11.733  65.787  1.00  0.00    -0.312 C  
ENDROOT
BRANCH   2   4
HETATM    4  N   UNL     1     -11.382  13.544  64.324  1.00  0.00    -0.460 N  
HETATM    5  H   UNL     1     -10.935  14.105  63.599  1.00  0.00     0.000 HD 
BRANCH   4   6
HETATM    6  C   UNL     1     -12.230  14.145  65.215  1.00  0.00    -0.434 C  
HETATM    7  O   UNL     1     -13.409  13.861  65.328  1.00  0.00    -0.732 OA 
BRANCH   6   8
HETATM    8  N   UNL     1     -11.639  15.179  65.924  1.00  0.00    -0.170 N  
HETATM    9  H   UNL     1     -11.875  15.274  66.912  1.00  0.00     0.000 HD 
BRANCH   8  10
HETATM   10  S   UNL     1     -10.566  16.282  65.273  1.00  0.00    -0.245 S  
HETATM   11  O   UNL     1      -9.281  15.647  65.081  1.00  0.00     0.041 OA 
HETATM   12  O   UNL     1     -11.278  16.854  64.145  1.00  0.00    -1.176 OA 
BRANCH  10  13
HETATM   13  C   UNL     1     -10.376  17.567  66.457  1.00  0.00    -0.325 A  
HETATM   14  C   UNL     1     -10.170  17.296  67.816  1.00  0.00    -0.332 A  
HETATM   15  N   UNL     1     -10.390  19.961  66.864  1.00  0.00    -0.454 NA 
HETATM   16  C   UNL     1     -10.151  18.406  68.678  1.00  0.00    -0.407 A  
HETATM   17  C   UNL     1     -10.262  19.691  68.173  1.00  0.00    -0.461 A  
HETATM   18  C   UNL     1     -10.456  18.890  66.040  1.00  0.00    -0.446 A  
BRANCH  14  19
HETATM   19  N   UNL     1      -9.870  16.004  68.311  1.00  0.00    -0.216 NA 
HETATM   20  H   UNL     1      -9.015  15.582  67.948  1.00  0.00     0.000 HD 
BRANCH  19  21
HETATM   21  C   UNL     1     -10.591  15.217  69.240  1.00  0.00    -0.253 A  
HETATM   22  C   UNL     1     -11.891  13.216  69.716  1.00  0.00    -0.386 A  
HETATM   23  C   UNL     1     -11.029  13.937  68.881  1.00  0.00    -0.290 A  
HETATM   24  C   UNL     1     -12.356  13.779  70.906  1.00  0.00    -0.456 A  
HETATM   25  C   UNL     1     -11.921  15.046  71.294  1.00  0.00    -0.388 A  
HETATM   26  C   UNL     1     -11.002  15.725  70.481  1.00  0.00    -0.361 A  
HETATM   27  C   UNL     1     -12.471  15.733  72.509  1.00  0.00    -0.542 C  
ENDBRANCH  19  21
ENDBRANCH  14  19
ENDBRANCH  10  13
ENDBRANCH   8  10
ENDBRANCH   6   8
ENDBRANCH   4   6
ENDBRANCH   2   4
TORSDOF 7
ENDMDL
MODEL        8
REMARK 921   NORMALIZED FREE ENERGY PREDICTED BY IDOCK:   -6.53 KCAL/MOL
REMARK 922        TOTAL FREE ENERGY PREDICTED BY IDOCK:  -11.06 KCAL/MOL
REMARK 923 INTER-LIGAND FREE ENERGY PREDICTED BY IDOCK:   -9.39 KCAL/MOL
REMARK 924 INTRA-LIGAND FREE ENERGY PREDICTED BY IDOCK:   -1.67 KCAL/MOL
REMARK 927      BINDING AFFINITY PREDICTED BY RF-SCORE:    0.00 PKD
ROOT
HETATM    1  C   UNL     1     -10.624  18.416  67.493  1.00  0.00    -0.447 C  
HETATM    2  C   UNL     1     -10.089  17.739  66.231  1.00  0.00    -0.344 C  
HETATM    3  C   UNL     1      -8.566  17.691  66.254  1.00  0.00    -0.224 C  
ENDROOT
BRANCH   2   4
HETATM    4  N   UNL     1     -10.642  16.402  66.063  1.00  0.00    -0.302 N  
HETATM    5  H   UNL     1     -10.760  15.800  66.878  1.00  0.00     0.000 HD 
BRANCH   4   6
HETATM    6  C   UNL     1     -11.005  15.941  64.826  1.00  0.00    -0.375 C  
HETATM    7  O   UNL     1     -11.597  16.610  63.998  1.00  0.00    -1.197 OA 
BRANCH   6   8
HETATM    8  N   UNL     1     -10.712  14.600  64.632  1.00  0.00    -0.609 N  
HETATM    9  H   UNL     1      -9.730  14.335  64.554  1.00  0.00     0.000 HD 
BRANCH   8  10
HETATM   10  S   UNL     1     -11.856  13.388  64.515  1.00  0.00    -0.420 S  
HETATM   11  O   UNL     1     -13.044  13.777  65.241  1.00  0.00    -0.756 OA 
HETATM   12  O   UNL     1     -11.925  13.093  63.096  1.00  0.00    -0.517 OA 
BRANCH  10  13
HETATM   13  C   UNL     1     -11.173  11.968  65.295  1.00  0.00    -0.322 A  
HETATM   14  C   UNL     1     -11.194  11.806  66.686  1.00  0.00    -0.323 A  
HETATM   15  N   UNL     1      -9.959   9.885  65.000  1.00  0.00    -0.270 NA 
HETATM   16  C   UNL     1     -10.513  10.686  67.194  1.00  0.00    -0.295 A  
HETATM   17  C   UNL     1      -9.923   9.772  66.337  1.00  0.00    -0.247 A  
HETATM   18  C   UNL     1     -10.574  10.988  64.513  1.00  0.00    -0.313 A  
BRANCH  14  19
HETATM   19  N   UNL     1     -11.952  12.632  67.551  1.00  0.00    -0.429 NA 
HETATM   20  H   UNL     1     -12.964  12.593  67.420  1.00  0.00     0.000 HD 
BRANCH  19  21
HETATM   21  C   UNL     1     -11.503  13.503  68.571  1.00  0.00    -0.310 A  
HETATM   22  C   UNL     1     -12.013  14.923  70.479  1.00  0.00    -0.365 A  
HETATM   23  C   UNL     1     -12.387  13.927  69.569  1.00  0.00    -0.275 A  
HETATM   24  C   UNL     1     -10.762  15.534  70.383  1.00  0.00    -0.342 A  
HETATM   25  C   UNL     1      -9.856  15.117  69.407  1.00  0.00    -0.216 A  
HETATM   26  C   UNL     1     -10.220  14.070  68.550  1.00  0.00    -0.237 A  
HETATM   27  C   UNL     1      -8.543  15.811  69.200  1.00  0.00    -0.256 C  
ENDBRANCH  19  21
ENDBRANCH  14  19
ENDBRANCH  10  13
ENDBRANCH   8  10
ENDBRANCH   6   8
ENDBRANCH   4   6
ENDBRANCH   2   4
TORSDOF 7
ENDMDL
MODEL        9
REMARK 921   NORMALIZED FREE ENERGY PREDICTED BY IDOCK:   -6.48 KCAL/MOL
REMARK 922        TOTAL FREE ENERGY PREDICTED BY IDOCK:  -10.99 KCAL/MOL
REMARK 923 INTER-LIGAND FREE ENERGY PREDICTED BY IDOCK:   -9.49 KCAL/MOL
REMARK 924 INTRA-LIGAND FREE ENERGY PREDICTED BY IDOCK:   -1.50 KCAL/MOL
REMARK 927      BINDING AFFINITY PREDICTED BY RF-SCORE:    0.00 PKD
ROOT
HETATM    1  C   UNL     1      -9.861  20.417  67.272  1.00  0.00    -0.597 C  
HETATM    2  C   UNL     1      -9.155  19.164  67.792  1.00  0.00    -0.299 C  
HETATM    3  C   UNL     1      -7.831  19.530  68.452  1.00  0.00    -0.374 C  
ENDROOT
BRANCH   2   4
HETATM    4  N   UNL     1      -9.998  18.416  68.715  1.00  0.00    -0.381 N  
HETATM    5  H   UNL     1     -10.496  18.911  69.455  1.00  0.00     0.000 HD 
BRANCH   4   6
HETATM    6  C   UNL     1     -10.131  17.058  68.605  1.00  0.00    -0.303 C  
HETATM    7  O   UNL     1      -9.538  16.258  69.308  1.00  0.00    -0.248 OA 
BRANCH   6   8
HETATM    8  N   UNL     1     -10.943  16.669  67.551  1.00  0.00    -0.214 N  
HETATM    9  H   UNL     1     -11.951  16.678  67.700  1.00  0.00     0.000 HD 
BRANCH   8  10
HETATM   10  S   UNL     1     -10.382  16.184  66.053  1.00  0.00    -0.366 S  
HETATM   11  O   UNL     1     -10.677  17.209  65.076  1.00  0.00    -0.712 OA 
HETATM   12  O   UNL     1      -9.012  15.774  66.297  1.00  0.00    -0.296 OA 
BRANCH  10  13
HETATM   13  C   UNL     1     -11.277  14.735  65.621  1.00  0.00    -0.343 A  
HETATM   14  C   UNL     1     -11.379  13.641  66.490  1.00  0.00    -0.319 A  
HETATM   15  N   UNL     1     -12.540  13.575  63.901  1.00  0.00    -0.694 NA 
HETATM   16  C   UNL     1     -12.020  12.498  65.983  1.00  0.00    -0.456 A  
HETATM   17  C   UNL     1     -12.574  12.506  64.714  1.00  0.00    -0.413 A  
HETATM   18  C   UNL     1     -11.881  14.658  64.372  1.00  0.00    -0.390 A  
BRANCH  14  19
HETATM   19  N   UNL     1     -10.982  13.692  67.849  1.00  0.00    -0.254 NA 
HETATM   20  H   UNL     1     -10.049  14.069  68.020  1.00  0.00     0.000 HD 
BRANCH  19  21
HETATM   21  C   UNL     1     -11.698  13.293  69.001  1.00  0.00    -0.322 A  
HETATM   22  C   UNL     1     -12.843  13.897  71.062  1.00  0.00    -0.394 A  
HETATM   23  C   UNL     1     -12.285  14.256  69.829  1.00  0.00    -0.390 A  
HETATM   24  C   UNL     1     -12.790  12.572  71.501  1.00  0.00    -0.367 A  
HETATM   25  C   UNL     1     -12.226  11.590  70.687  1.00  0.00    -0.473 A  
HETATM   26  C   UNL     1     -11.736  11.956  69.425  1.00  0.00    -0.401 A  
HETATM   27  C   UNL     1     -12.055  10.177  71.157  1.00  0.00    -0.485 C  
ENDBRANCH  19  21
ENDBRANCH  14  19
ENDBRANCH  10  13
ENDBRANCH   8  10
ENDBRANCH   6   8
ENDBRANCH   4   6
ENDBRANCH   2   4
TORSDOF 7
ENDMDL
MODEL       10
REMARK 921   NORMALIZED FREE ENERGY PREDICTED BY IDOCK:   -6.44 KCAL/MOL
REMARK 922        TOTAL FREE ENERGY PREDICTED BY IDOCK:  -10.93 KCAL/MOL
REMARK 923 INTER-LIGAND FREE ENERGY PREDICTED BY IDOCK:   -9.23 KCAL/MOL
REMARK 924 INTRA-LIGAND FREE ENERGY PREDICTED BY IDOCK:   -1.70 KCAL/MOL
REMARK 927      BINDING AFFINITY PREDICTED BY RF-SCORE:    0.00 PKD
ROOT
HETATM    1  C   UNL     1      -7.272  19.760  67.974  1.00  0.00    -0.321 C  
HETATM    2  C   UNL     1      -8.783  19.530  68.009  1.00  0.00    -0.324 C  
HETATM    3  C   UNL     1      -9.501  20.547  67.129  1.00  0.00    -0.544 C  
ENDROOT
BRANCH   2   4
HETATM    4  N   UNL     1      -9.129  18.172  67.609  1.00  0.00    -0.258 N  
HETATM    5  H   UNL     1      -8.645  17.741  66.821  1.00  0.00     0.000 HD 
BRANCH   4   6
HETATM    6  C   UNL     1     -10.094  17.466  68.275  1.00  0.00    -0.339 C  
HETATM    7  O   UNL     1     -10.295  17.555  69.474  1.00  0.00    -0.219 OA 
BRANCH   6   8
HETATM    8  N   UNL     1     -10.774  16.567  67.468  1.00  0.00    -0.311 N  
HETATM    9  H   UNL     1     -11.646  16.175  67.823  1.00  0.00     0.000 HD 
BRANCH   8  10
HETATM   10  S   UNL     1     -10.262  16.080  65.954  1.00  0.00    -0.384 S  
HETATM   11  O   UNL     1     -10.573  17.109  64.988  1.00  0.00    -0.704 OA 
HETATM   12  O   UNL     1      -8.890  15.654  66.158  1.00  0.00    -0.321 OA 
BRANCH  10  13
HETATM   13  C   UNL     1     -11.184  14.640  65.545  1.00  0.00    -0.343 A  
HETATM   14  C   UNL     1     -11.171  13.498  66.356  1.00  0.00    -0.307 A  
HETATM   15  N   UNL     1     -12.626  13.556  63.919  1.00  0.00    -0.694 NA 
HETATM   16  C   UNL     1     -11.854  12.374  65.861  1.00  0.00    -0.467 A  
HETATM   17  C   UNL     1     -12.552  12.443  64.667  1.00  0.00    -0.375 A  
HETATM   18  C   UNL     1     -11.929  14.623  64.372  1.00  0.00    -0.437 A  
BRANCH  14  19
HETATM   19  N   UNL     1     -10.619  13.480  67.660  1.00  0.00    -0.239 NA 
HETATM   20  H   UNL     1      -9.636  13.745  67.724  1.00  0.00     0.000 HD 
BRANCH  19  21
HETATM   21  C   UNL     1     -11.241  13.145  68.886  1.00  0.00    -0.277 A  
HETATM   22  C   UNL     1     -12.176  11.450  70.359  1.00  0.00    -0.450 A  
HETATM   23  C   UNL     1     -11.409  11.803  69.242  1.00  0.00    -0.348 A  
HETATM   24  C   UNL     1     -12.816  12.433  71.116  1.00  0.00    -0.299 A  
HETATM   25  C   UNL     1     -12.650  13.780  70.791  1.00  0.00    -0.410 A  
HETATM   26  C   UNL     1     -11.821  14.119  69.713  1.00  0.00    -0.381 A  
HETATM   27  C   UNL     1     -13.397  14.863  71.510  1.00  0.00    -0.476 C  
ENDBRANCH  19  21
ENDBRANCH  14  19
ENDBRANCH  10  13
ENDBRANCH   8  10
ENDBRANCH   6   8
ENDBRANCH   4   6
ENDBRANCH   2   4
TORSDOF 7
ENDMDL
MODEL       11
REMARK 921   NORMALIZED FREE ENERGY PREDICTED BY IDOCK:   -6.44 KCAL/MOL
REMARK 922        TOTAL FREE ENERGY PREDICTED BY IDOCK:  -10.92 KCAL/MOL
REMARK 923 INTER-LIGAND FREE ENERGY PREDICTED BY IDOCK:   -9.44 KCAL/MOL
REMARK 924 INTRA-LIGAND FREE ENERGY PREDICTED BY IDOCK:   -1.49 KCAL/MOL
REMARK 927      BINDING AFFINITY PREDICTED BY RF-SCORE:    0.00 PKD
ROOT
HETATM    1  C   UNL     1     -14.352  15.162  71.844  1.00  0.00    -0.693 C  
HETATM    2  C   UNL     1     -12.913  15.641  72.038  1.00  0.00    -0.452 C  
HETATM    3  C   UNL     1     -12.598  15.806  73.521  1.00  0.00    -0.680 C  
ENDROOT
BRANCH   2   4
HETATM    4  N   UNL     1     -11.956  14.739  71.409  1.00  0.00    -0.334 N  
HETATM    5  H   UNL     1     -11.590  13.947  71.936  1.00  0.00     0.000 HD 
BRANCH   4   6
HETATM    6  C   UNL     1     -11.543  14.941  70.120  1.00  0.00    -0.289 C  
HETATM    7  O   UNL     1     -10.735  15.792  69.790  1.00  0.00    -0.263 OA 
BRANCH   6   8
HETATM    8  N   UNL     1     -12.198  14.137  69.200  1.00  0.00    -0.500 N  
HETATM    9  H   UNL     1     -13.208  14.244  69.109  1.00  0.00     0.000 HD 
BRANCH   8  10
HETATM   10  S   UNL     1     -11.446  13.003  68.229  1.00  0.00    -0.336 S  
HETATM   11  O   UNL     1     -10.043  12.936  68.567  1.00  0.00    -0.233 OA 
HETATM   12  O   UNL     1     -12.286  11.825  68.336  1.00  0.00    -0.467 OA 
BRANCH  10  13
HETATM   13  C   UNL     1     -11.589  13.578  66.574  1.00  0.00    -0.359 A  
HETATM   14  C   UNL     1     -11.001  14.779  66.154  1.00  0.00    -0.332 A  
HETATM   15  N   UNL     1     -12.558  13.204  64.378  1.00  0.00    -0.653 NA 
HETATM   16  C   UNL     1     -11.286  15.187  64.840  1.00  0.00    -0.424 A  
HETATM   17  C   UNL     1     -12.050  14.389  64.005  1.00  0.00    -0.280 A  
HETATM   18  C   UNL     1     -12.324  12.834  65.659  1.00  0.00    -0.382 A  
BRANCH  14  19
HETATM   19  N   UNL     1     -10.070  15.502  66.939  1.00  0.00    -0.256 NA 
HETATM   20  H   UNL     1      -9.902  15.129  67.874  1.00  0.00     0.000 HD 
BRANCH  19  21
HETATM   21  C   UNL     1      -9.342  16.668  66.608  1.00  0.00    -0.250 A  
HETATM   22  C   UNL     1      -7.198  17.756  66.238  1.00  0.00    -0.331 A  
HETATM   23  C   UNL     1      -7.962  16.594  66.390  1.00  0.00    -0.360 A  
HETATM   24  C   UNL     1      -7.798  19.013  66.336  1.00  0.00    -0.291 A  
HETATM   25  C   UNL     1      -9.174  19.114  66.535  1.00  0.00    -0.374 A  
HETATM   26  C   UNL     1      -9.935  17.940  66.615  1.00  0.00    -0.355 A  
HETATM   27  C   UNL     1      -9.847  20.438  66.749  1.00  0.00    -0.541 C  
ENDBRANCH  19  21
ENDBRANCH  14  19
ENDBRANCH  10  13
ENDBRANCH   8  10
ENDBRANCH   6   8
ENDBRANCH   4   6
ENDBRANCH   2   4
TORSDOF 7
ENDMDL
MODEL       12
REMARK 921   NORMALIZED FREE ENERGY PREDICTED BY IDOCK:   -6.43 KCAL/MOL
REMARK 922        TOTAL FREE ENERGY PREDICTED BY IDOCK:  -10.92 KCAL/MOL
REMARK 923 INTER-LIGAND FREE ENERGY PREDICTED BY IDOCK:   -9.61 KCAL/MOL
REMARK 924 INTRA-LIGAND FREE ENERGY PREDICTED BY IDOCK:   -1.30 KCAL/MOL
REMARK 927      BINDING AFFINITY PREDICTED BY RF-SCORE:    0.00 PKD
ROOT
HETATM    1  C   UNL     1     -12.458  12.205  63.373  1.00  0.00    -0.625 C  
HETATM    2  C   UNL     1     -11.417  11.880  64.443  1.00  0.00    -0.320 C  
HETATM    3  C   UNL     1     -10.031  11.751  63.822  1.00  0.00    -0.379 C  
ENDROOT
BRANCH   2   4
HETATM    4  N   UNL     1     -11.411  12.875  65.508  1.00  0.00    -0.299 N  
HETATM    5  H   UNL     1     -11.140  13.836  65.296  1.00  0.00     0.000 HD 
BRANCH   4   6
HETATM    6  C   UNL     1     -11.762  12.540  66.787  1.00  0.00    -0.384 C  
HETATM    7  O   UNL     1     -11.699  11.408  67.235  1.00  0.00    -0.577 OA 
BRANCH   6   8
HETATM    8  N   UNL     1     -12.284  13.601  67.511  1.00  0.00    -0.381 N  
HETATM    9  H   UNL     1     -13.254  13.863  67.336  1.00  0.00     0.000 HD 
BRANCH   8  10
HETATM   10  S   UNL     1     -11.434  14.480  68.650  1.00  0.00    -0.311 S  
HETATM   11  O   UNL     1     -10.118  13.905  68.815  1.00  0.00    -0.221 OA 
HETATM   12  O   UNL     1     -11.585  15.859  68.226  1.00  0.00    -0.355 OA 
BRANCH  10  13
HETATM   13  C   UNL     1     -12.303  14.317  70.169  1.00  0.00    -0.353 A  
HETATM   14  C   UNL     1     -12.525  13.068  70.765  1.00  0.00    -0.302 A  
HETATM   15  N   UNL     1     -13.544  15.452  71.921  1.00  0.00    -0.455 NA 
HETATM   16  C   UNL     1     -13.332  13.061  71.915  1.00  0.00    -0.539 A  
HETATM   17  C   UNL     1     -13.810  14.246  72.448  1.00  0.00    -0.518 A  
HETATM   18  C   UNL     1     -12.806  15.455  70.787  1.00  0.00    -0.466 A  
BRANCH  14  19
HETATM   19  N   UNL     1     -11.886  11.880  70.333  1.00  0.00    -0.509 NA 
HETATM   20  H   UNL     1     -11.235  11.989  69.556  1.00  0.00     0.000 HD 
BRANCH  19  21
HETATM   21  C   UNL     1     -12.026  10.564  70.831  1.00  0.00    -0.377 A  
HETATM   22  C   UNL     1     -13.469   8.774  71.627  1.00  0.00    -0.411 A  
HETATM   23  C   UNL     1     -13.298  10.000  70.974  1.00  0.00    -0.334 A  
HETATM   24  C   UNL     1     -12.372   8.109  72.178  1.00  0.00    -0.383 A  
HETATM   25  C   UNL     1     -11.090   8.641  72.033  1.00  0.00    -0.437 A  
HETATM   26  C   UNL     1     -10.930   9.833  71.315  1.00  0.00    -0.331 A  
HETATM   27  C   UNL     1      -9.897   8.017  72.693  1.00  0.00    -0.347 C  
ENDBRANCH  19  21
ENDBRANCH  14  19
ENDBRANCH  10  13
ENDBRANCH   8  10
ENDBRANCH   6   8
ENDBRANCH   4   6
ENDBRANCH   2   4
TORSDOF 7
ENDMDL
MODEL       13
REMARK 921   NORMALIZED FREE ENERGY PREDICTED BY IDOCK:   -6.42 KCAL/MOL
REMARK 922        TOTAL FREE ENERGY PREDICTED BY IDOCK:  -10.90 KCAL/MOL
REMARK 923 INTER-LIGAND FREE ENERGY PREDICTED BY IDOCK:   -9.73 KCAL/MOL
REMARK 924 INTRA-LIGAND FREE ENERGY PREDICTED BY IDOCK:   -1.17 KCAL/MOL
REMARK 927      BINDING AFFINITY PREDICTED BY RF-SCORE:    0.00 PKD
ROOT
HETATM    1  C   UNL     1      -9.549  10.265  64.769  1.00  0.00    -0.369 C  
HETATM    2  C   UNL     1      -9.787  11.231  63.608  1.00  0.00    -0.340 C  
HETATM    3  C   UNL     1      -8.839  10.925  62.454  1.00  0.00    -0.358 C  
ENDROOT
BRANCH   2   4
HETATM    4  N   UNL     1     -11.172  11.198  63.156  1.00  0.00    -0.784 N  
HETATM    5  H   UNL     1     -11.507  10.395  62.624  1.00  0.00     0.000 HD 
BRANCH   4   6
HETATM    6  C   UNL     1     -12.028  12.228  63.436  1.00  0.00    -0.494 C  
HETATM    7  O   UNL     1     -13.225  12.197  63.210  1.00  0.00    -0.620 OA 
BRANCH   6   8
HETATM    8  N   UNL     1     -11.389  13.357  63.924  1.00  0.00    -0.585 N  
HETATM    9  H   UNL     1     -10.387  13.445  63.759  1.00  0.00     0.000 HD 
BRANCH   8  10
HETATM   10  S   UNL     1     -12.149  14.586  64.764  1.00  0.00    -0.429 S  
HETATM   11  O   UNL     1     -12.405  15.692  63.870  1.00  0.00    -0.673 OA 
HETATM   12  O   UNL     1     -13.245  13.927  65.451  1.00  0.00    -0.750 OA 
BRANCH  10  13
HETATM   13  C   UNL     1     -11.025  15.125  66.003  1.00  0.00    -0.332 A  
HETATM   14  C   UNL     1     -10.770  14.365  67.152  1.00  0.00    -0.283 A  
HETATM   15  N   UNL     1      -9.554  16.900  66.765  1.00  0.00    -0.251 NA 
HETATM   16  C   UNL     1      -9.943  14.958  68.121  1.00  0.00    -0.222 A  
HETATM   17  C   UNL     1      -9.369  16.197  67.894  1.00  0.00    -0.212 A  
HETATM   18  C   UNL     1     -10.388  16.351  65.853  1.00  0.00    -0.362 A  
BRANCH  14  19
HETATM   19  N   UNL     1     -11.201  13.025  67.306  1.00  0.00    -0.277 NA 
HETATM   20  H   UNL     1     -11.795  12.666  66.558  1.00  0.00     0.000 HD 
BRANCH  19  21
HETATM   21  C   UNL     1     -10.921  12.114  68.351  1.00  0.00    -0.235 A  
HETATM   22  C   UNL     1      -9.590  10.269  69.214  1.00  0.00    -0.239 A  
HETATM   23  C   UNL     1      -9.789  11.295  68.283  1.00  0.00    -0.201 A  
HETATM   24  C   UNL     1     -10.541  10.023  70.206  1.00  0.00    -0.354 A  
HETATM   25  C   UNL     1     -11.670  10.835  70.306  1.00  0.00    -0.442 A  
HETATM   26  C   UNL     1     -11.817  11.903  69.410  1.00  0.00    -0.389 A  
HETATM   27  C   UNL     1     -12.767  10.547  71.288  1.00  0.00    -0.532 C  
ENDBRANCH  19  21
ENDBRANCH  14  19
ENDBRANCH  10  13
ENDBRANCH   8  10
ENDBRANCH   6   8
ENDBRANCH   4   6
ENDBRANCH   2   4
TORSDOF 7
ENDMDL
MODEL       14
REMARK 921   NORMALIZED FREE ENERGY PREDICTED BY IDOCK:   -6.34 KCAL/MOL
REMARK 922        TOTAL FREE ENERGY PREDICTED BY IDOCK:  -10.79 KCAL/MOL
REMARK 923 INTER-LIGAND FREE ENERGY PREDICTED BY IDOCK:   -8.99 KCAL/MOL
REMARK 924 INTRA-LIGAND FREE ENERGY PREDICTED BY IDOCK:   -1.80 KCAL/MOL
REMARK 927      BINDING AFFINITY PREDICTED BY RF-SCORE:    0.00 PKD
ROOT
HETATM    1  C   UNL     1      -9.978  11.194  63.609  1.00  0.00    -0.411 C  
HETATM    2  C   UNL     1     -10.443  12.604  63.975  1.00  0.00    -0.416 C  
HETATM    3  C   UNL     1     -11.831  12.876  63.405  1.00  0.00    -0.576 C  
ENDROOT
BRANCH   2   4
HETATM    4  N   UNL     1     -10.431  12.817  65.416  1.00  0.00    -0.281 N  
HETATM    5  H   UNL     1     -11.093  12.312  66.005  1.00  0.00     0.000 HD 
BRANCH   4   6
HETATM    6  C   UNL     1      -9.542  13.685  65.992  1.00  0.00    -0.166 C  
HETATM    7  O   UNL     1      -8.821  13.395  66.930  1.00  0.00    -0.220 OA 
BRANCH   6   8
HETATM    8  N   UNL     1      -9.601  14.964  65.462  1.00  0.00    -0.472 N  
HETATM    9  H   UNL     1      -8.774  15.317  64.981  1.00  0.00     0.000 HD 
BRANCH   8  10
HETATM   10  S   UNL     1     -10.934  15.968  65.556  1.00  0.00    -0.148 S  
HETATM   11  O   UNL     1     -11.203  16.532  64.252  1.00  0.00    -0.992 OA 
HETATM   12  O   UNL     1     -11.938  15.169  66.233  1.00  0.00    -0.037 OA 
BRANCH  10  13
HETATM   13  C   UNL     1     -10.507  17.278  66.647  1.00  0.00    -0.257 A  
HETATM   14  C   UNL     1     -10.248  17.055  68.006  1.00  0.00    -0.319 A  
HETATM   15  N   UNL     1     -10.194  19.672  66.909  1.00  0.00    -0.408 NA 
HETATM   16  C   UNL     1     -10.033  18.197  68.796  1.00  0.00    -0.389 A  
HETATM   17  C   UNL     1     -10.015  19.457  68.222  1.00  0.00    -0.422 A  
HETATM   18  C   UNL     1     -10.448  18.577  66.156  1.00  0.00    -0.413 A  
BRANCH  14  19
HETATM   19  N   UNL     1     -10.080  15.762  68.560  1.00  0.00    -0.212 NA 
HETATM   20  H   UNL     1      -9.325  15.207  68.158  1.00  0.00     0.000 HD 
BRANCH  19  21
HETATM   21  C   UNL     1     -10.814  15.134  69.593  1.00  0.00    -0.286 A  
HETATM   22  C   UNL     1     -12.281  13.332  70.315  1.00  0.00    -0.391 A  
HETATM   23  C   UNL     1     -11.407  13.886  69.372  1.00  0.00    -0.311 A  
HETATM   24  C   UNL     1     -12.603  14.035  71.478  1.00  0.00    -0.432 A  
HETATM   25  C   UNL     1     -12.012  15.273  71.729  1.00  0.00    -0.453 A  
HETATM   26  C   UNL     1     -11.085  15.781  70.809  1.00  0.00    -0.371 A  
HETATM   27  C   UNL     1     -12.403  16.110  72.911  1.00  0.00    -0.607 C  
ENDBRANCH  19  21
ENDBRANCH  14  19
ENDBRANCH  10  13
ENDBRANCH   8  10
ENDBRANCH   6   8
ENDBRANCH   4   6
ENDBRANCH   2   4
TORSDOF 7
ENDMDL
MODEL       15
REMARK 921   NORMALIZED FREE ENERGY PREDICTED BY IDOCK:   -6.24 KCAL/MOL
REMARK 922        TOTAL FREE ENERGY PREDICTED BY IDOCK:  -10.65 KCAL/MOL
REMARK 923 INTER-LIGAND FREE ENERGY PREDICTED BY IDOCK:   -8.91 KCAL/MOL
REMARK 924 INTRA-LIGAND FREE ENERGY PREDICTED BY IDOCK:   -1.74 KCAL/MOL
REMARK 927      BINDING AFFINITY PREDICTED BY RF-SCORE:    0.00 PKD
ROOT
HETATM    1  C   UNL     1     -12.405  12.187  63.538  1.00  0.00    -0.682 C  
HETATM    2  C   UNL     1     -10.975  11.979  64.037  1.00  0.00    -0.381 C  
HETATM    3  C   UNL     1     -10.274  10.898  63.222  1.00  0.00    -0.317 C  
ENDROOT
BRANCH   2   4
HETATM    4  N   UNL     1     -10.210  13.220  64.008  1.00  0.00    -0.614 N  
HETATM    5  H   UNL     1      -9.495  13.352  63.292  1.00  0.00     0.000 HD 
BRANCH   4   6
HETATM    6  C   UNL     1     -10.437  14.209  64.926  1.00  0.00    -0.438 C  
HETATM    7  O   UNL     1     -10.442  15.397  64.657  1.00  0.00    -0.290 OA 
BRANCH   6   8
HETATM    8  N   UNL     1     -10.576  13.735  66.221  1.00  0.00    -0.286 N  
HETATM    9  H   UNL     1      -9.738  13.404  66.698  1.00  0.00     0.000 HD 
BRANCH   8  10
HETATM   10  S   UNL     1     -12.022  13.670  67.055  1.00  0.00    -0.391 S  
HETATM   11  O   UNL     1     -13.036  14.389  66.316  1.00  0.00    -0.047 OA 
HETATM   12  O   UNL     1     -12.197  12.263  67.363  1.00  0.00    -0.478 OA 
BRANCH  10  13
HETATM   13  C   UNL     1     -11.764  14.495  68.585  1.00  0.00    -0.329 A  
HETATM   14  C   UNL     1     -11.181  15.768  68.651  1.00  0.00    -0.351 A  
HETATM   15  N   UNL     1     -11.920  14.365  71.006  1.00  0.00    -0.333 NA 
HETATM   16  C   UNL     1     -10.922  16.269  69.938  1.00  0.00    -0.365 A  
HETATM   17  C   UNL     1     -11.298  15.554  71.062  1.00  0.00    -0.376 A  
HETATM   18  C   UNL     1     -12.126  13.861  69.767  1.00  0.00    -0.345 A  
BRANCH  14  19
HETATM   19  N   UNL     1     -10.968  16.581  67.512  1.00  0.00    -0.229 NA 
HETATM   20  H   UNL     1     -11.534  16.351  66.695  1.00  0.00     0.000 HD 
BRANCH  19  21
HETATM   21  C   UNL     1     -10.077  17.668  67.348  1.00  0.00    -0.331 A  
HETATM   22  C   UNL     1      -9.729  20.063  67.094  1.00  0.00    -0.545 A  
HETATM   23  C   UNL     1     -10.554  18.981  67.427  1.00  0.00    -0.559 A  
HETATM   24  C   UNL     1      -8.426  19.844  66.643  1.00  0.00    -0.381 A  
HETATM   25  C   UNL     1      -7.922  18.546  66.572  1.00  0.00    -0.295 A  
HETATM   26  C   UNL     1      -8.737  17.480  66.977  1.00  0.00    -0.254 A  
HETATM   27  C   UNL     1      -6.567  18.254  65.999  1.00  0.00    -0.290 C  
ENDBRANCH  19  21
ENDBRANCH  14  19
ENDBRANCH  10  13
ENDBRANCH   8  10
ENDBRANCH   6   8
ENDBRANCH   4   6
ENDBRANCH   2   4
TORSDOF 7
ENDMDL
MODEL       16
REMARK 921   NORMALIZED FREE ENERGY PREDICTED BY IDOCK:   -6.23 KCAL/MOL
REMARK 922        TOTAL FREE ENERGY PREDICTED BY IDOCK:  -10.64 KCAL/MOL
REMARK 923 INTER-LIGAND FREE ENERGY PREDICTED BY IDOCK:   -9.28 KCAL/MOL
REMARK 924 INTRA-LIGAND FREE ENERGY PREDICTED BY IDOCK:   -1.35 KCAL/MOL
REMARK 927      BINDING AFFINITY PREDICTED BY RF-SCORE:    0.00 PKD
ROOT
HETATM    1  C   UNL     1      -9.530   9.994  64.532  1.00  0.00    -0.359 C  
HETATM    2  C   UNL     1      -9.635  11.217  63.622  1.00  0.00    -0.274 C  
HETATM    3  C   UNL     1      -8.731  11.060  62.405  1.00  0.00    -0.356 C  
ENDROOT
BRANCH   2   4
HETATM    4  N   UNL     1     -11.010  11.465  63.210  1.00  0.00    -0.792 N  
HETATM    5  H   UNL     1     -11.472  10.809  62.579  1.00  0.00     0.000 HD 
BRANCH   4   6
HETATM    6  C   UNL     1     -11.692  12.565  63.655  1.00  0.00    -0.515 C  
HETATM    7  O   UNL     1     -12.719  12.979  63.148  1.00  0.00    -0.611 OA 
BRANCH   6   8
HETATM    8  N   UNL     1     -11.053  13.225  64.694  1.00  0.00    -0.339 N  
HETATM    9  H   UNL     1     -10.136  13.630  64.506  1.00  0.00     0.000 HD 
BRANCH   8  10
HETATM   10  S   UNL     1     -11.682  13.402  66.231  1.00  0.00    -0.387 S  
HETATM   11  O   UNL     1     -12.648  14.478  66.235  1.00  0.00    -0.274 OA 
HETATM   12  O   UNL     1     -12.078  12.059  66.615  1.00  0.00    -0.615 OA 
BRANCH  10  13
HETATM   13  C   UNL     1     -10.345  13.856  67.278  1.00  0.00    -0.257 A  
HETATM   14  C   UNL     1     -10.527  14.682  68.395  1.00  0.00    -0.243 A  
HETATM   15  N   UNL     1      -7.951  13.735  67.669  1.00  0.00    -0.160 NA 
HETATM   16  C   UNL     1      -9.363  15.067  69.082  1.00  0.00    -0.189 A  
HETATM   17  C   UNL     1      -8.125  14.582  68.696  1.00  0.00    -0.150 A  
HETATM   18  C   UNL     1      -9.066  13.403  66.979  1.00  0.00    -0.243 A  
BRANCH  14  19
HETATM   19  N   UNL     1     -11.803  15.026  68.904  1.00  0.00    -0.438 NA 
HETATM   20  H   UNL     1     -12.262  15.812  68.443  1.00  0.00     0.000 HD 
BRANCH  19  21
HETATM   21  C   UNL     1     -12.528  14.433  69.963  1.00  0.00    -0.301 A  
HETATM   22  C   UNL     1     -13.783  14.683  72.033  1.00  0.00    -0.527 A  
HETATM   23  C   UNL     1     -13.210  15.238  70.882  1.00  0.00    -0.506 A  
HETATM   24  C   UNL     1     -13.652  13.319  72.299  1.00  0.00    -0.703 A  
HETATM   25  C   UNL     1     -12.992  12.492  71.390  1.00  0.00    -0.347 A  
HETATM   26  C   UNL     1     -12.487  13.052  70.209  1.00  0.00    -0.217 A  
HETATM   27  C   UNL     1     -12.738  11.043  71.680  1.00  0.00    -0.483 C  
ENDBRANCH  19  21
ENDBRANCH  14  19
ENDBRANCH  10  13
ENDBRANCH   8  10
ENDBRANCH   6   8
ENDBRANCH   4   6
ENDBRANCH   2   4
TORSDOF 7
ENDMDL
MODEL       17
REMARK 921   NORMALIZED FREE ENERGY PREDICTED BY IDOCK:   -6.22 KCAL/MOL
REMARK 922        TOTAL FREE ENERGY PREDICTED BY IDOCK:  -10.61 KCAL/MOL
REMARK 923 INTER-LIGAND FREE ENERGY PREDICTED BY IDOCK:   -8.04 KCAL/MOL
REMARK 924 INTRA-LIGAND FREE ENERGY PREDICTED BY IDOCK:   -2.58 KCAL/MOL
REMARK 927      BINDING AFFINITY PREDICTED BY RF-SCORE:    0.00 PKD
ROOT
HETATM    1  C   UNL     1     -11.600  12.538  63.433  1.00  0.00    -0.547 C  
HETATM    2  C   UNL     1     -12.026  13.754  64.257  1.00  0.00    -0.443 C  
HETATM    3  C   UNL     1     -12.796  13.318  65.498  1.00  0.00    -0.288 C  
ENDROOT
BRANCH   2   4
HETATM    4  N   UNL     1     -10.884  14.580  64.627  1.00  0.00    -0.587 N  
HETATM    5  H   UNL     1     -10.004  14.133  64.886  1.00  0.00     0.000 HD 
BRANCH   4   6
HETATM    6  C   UNL     1     -10.974  15.945  64.631  1.00  0.00    -0.305 C  
HETATM    7  O   UNL     1     -11.735  16.578  63.921  1.00  0.00    -1.148 OA 
BRANCH   6   8
HETATM    8  N   UNL     1     -10.049  16.555  65.465  1.00  0.00    -0.243 N  
HETATM    9  H   UNL     1      -9.199  16.924  65.040  1.00  0.00     0.000 HD 
BRANCH   8  10
HETATM   10  S   UNL     1     -10.232  16.727  67.117  1.00  0.00    -0.298 S  
HETATM   11  O   UNL     1     -10.466  18.118  67.432  1.00  0.00    -0.375 OA 
HETATM   12  O   UNL     1     -11.210  15.717  67.477  1.00  0.00    -0.308 OA 
BRANCH  10  13
HETATM   13  C   UNL     1      -8.710  16.242  67.849  1.00  0.00    -0.175 A  
HETATM   14  C   UNL     1      -8.205  14.942  67.717  1.00  0.00    -0.156 A  
HETATM   15  N   UNL     1      -6.848  16.896  69.266  1.00  0.00    -0.238 NA 
HETATM   16  C   UNL     1      -7.040  14.648  68.446  1.00  0.00    -0.116 A  
HETATM   17  C   UNL     1      -6.408  15.630  69.190  1.00  0.00    -0.127 A  
HETATM   18  C   UNL     1      -7.996  17.167  68.602  1.00  0.00    -0.265 A  
BRANCH  14  19
HETATM   19  N   UNL     1      -8.740  13.993  66.813  1.00  0.00    -0.419 NA 
HETATM   20  H   UNL     1      -8.660  14.234  65.824  1.00  0.00     0.000 HD 
BRANCH  19  21
HETATM   21  C   UNL     1      -9.369  12.756  67.089  1.00  0.00    -0.216 A  
HETATM   22  C   UNL     1     -10.128  10.579  66.311  1.00  0.00    -0.290 A  
HETATM   23  C   UNL     1      -9.364  11.738  66.130  1.00  0.00    -0.236 A  
HETATM   24  C   UNL     1     -10.938  10.438  67.440  1.00  0.00    -0.335 A  
HETATM   25  C   UNL     1     -10.949  11.432  68.419  1.00  0.00    -0.263 A  
HETATM   26  C   UNL     1     -10.123  12.552  68.255  1.00  0.00    -0.228 A  
HETATM   27  C   UNL     1     -11.877  11.372  69.595  1.00  0.00    -0.431 C  
ENDBRANCH  19  21
ENDBRANCH  14  19
ENDBRANCH  10  13
ENDBRANCH   8  10
ENDBRANCH   6   8
ENDBRANCH   4   6
ENDBRANCH   2   4
TORSDOF 7
ENDMDL
MODEL       18
REMARK 921   NORMALIZED FREE ENERGY PREDICTED BY IDOCK:   -6.17 KCAL/MOL
REMARK 922        TOTAL FREE ENERGY PREDICTED BY IDOCK:  -10.55 KCAL/MOL
REMARK 923 INTER-LIGAND FREE ENERGY PREDICTED BY IDOCK:   -9.23 KCAL/MOL
REMARK 924 INTRA-LIGAND FREE ENERGY PREDICTED BY IDOCK:   -1.32 KCAL/MOL
REMARK 927      BINDING AFFINITY PREDICTED BY RF-SCORE:    0.00 PKD
ROOT
HETATM    1  C   UNL     1     -10.705   9.138  71.618  1.00  0.00    -0.441 C  
HETATM    2  C   UNL     1     -11.713   9.942  70.796  1.00  0.00    -0.341 C  
HETATM    3  C   UNL     1     -12.856  10.431  71.677  1.00  0.00    -0.579 C  
ENDROOT
BRANCH   2   4
HETATM    4  N   UNL     1     -11.077  11.061  70.112  1.00  0.00    -0.473 N  
HETATM    5  H   UNL     1     -10.249  11.495  70.521  1.00  0.00     0.000 HD 
BRANCH   4   6
HETATM    6  C   UNL     1     -11.575  11.539  68.930  1.00  0.00    -0.320 C  
HETATM    7  O   UNL     1     -11.669  10.873  67.914  1.00  0.00    -0.557 OA 
BRANCH   6   8
HETATM    8  N   UNL     1     -11.886  12.889  68.970  1.00  0.00    -0.311 N  
HETATM    9  H   UNL     1     -12.797  13.156  69.343  1.00  0.00     0.000 HD 
BRANCH   8  10
HETATM   10  S   UNL     1     -10.871  14.110  68.449  1.00  0.00    -0.263 S  
HETATM   11  O   UNL     1     -11.120  15.305  69.223  1.00  0.00    -0.244 OA 
HETATM   12  O   UNL     1      -9.553  13.503  68.440  1.00  0.00    -0.217 OA 
BRANCH  10  13
HETATM   13  C   UNL     1     -11.290  14.439  66.774  1.00  0.00    -0.352 A  
HETATM   14  C   UNL     1     -10.674  15.465  66.045  1.00  0.00    -0.322 A  
HETATM   15  N   UNL     1     -12.729  13.876  64.901  1.00  0.00    -0.693 NA 
HETATM   16  C   UNL     1     -11.178  15.703  64.755  1.00  0.00    -0.391 A  
HETATM   17  C   UNL     1     -12.182  14.905  64.233  1.00  0.00    -0.344 A  
HETATM   18  C   UNL     1     -12.277  13.677  66.160  1.00  0.00    -0.444 A  
BRANCH  14  19
HETATM   19  N   UNL     1      -9.526  16.157  66.501  1.00  0.00    -0.245 NA 
HETATM   20  H   UNL     1      -8.680  15.594  66.591  1.00  0.00     0.000 HD 
BRANCH  19  21
HETATM   21  C   UNL     1      -9.389  17.521  66.849  1.00  0.00    -0.269 A  
HETATM   22  C   UNL     1     -10.401  19.585  67.646  1.00  0.00    -0.574 A  
HETATM   23  C   UNL     1     -10.451  18.199  67.457  1.00  0.00    -0.425 A  
HETATM   24  C   UNL     1      -9.301  20.320  67.198  1.00  0.00    -0.536 A  
HETATM   25  C   UNL     1      -8.222  19.665  66.604  1.00  0.00    -0.342 A  
HETATM   26  C   UNL     1      -8.258  18.269  66.487  1.00  0.00    -0.290 A  
HETATM   27  C   UNL     1      -7.067  20.420  66.016  1.00  0.00    -0.255 C  
ENDBRANCH  19  21
ENDBRANCH  14  19
ENDBRANCH  10  13
ENDBRANCH   8  10
ENDBRANCH   6   8
ENDBRANCH   4   6
ENDBRANCH   2   4
TORSDOF 7
ENDMDL
MODEL       19
REMARK 921   NORMALIZED FREE ENERGY PREDICTED BY IDOCK:   -6.16 KCAL/MOL
REMARK 922        TOTAL FREE ENERGY PREDICTED BY IDOCK:  -10.53 KCAL/MOL
REMARK 923 INTER-LIGAND FREE ENERGY PREDICTED BY IDOCK:   -9.31 KCAL/MOL
REMARK 924 INTRA-LIGAND FREE ENERGY PREDICTED BY IDOCK:   -1.22 KCAL/MOL
REMARK 927      BINDING AFFINITY PREDICTED BY RF-SCORE:    0.00 PKD
ROOT
HETATM    1  C   UNL     1     -10.451  11.200  64.583  1.00  0.00    -0.400 C  
HETATM    2  C   UNL     1     -11.025  12.273  63.659  1.00  0.00    -0.471 C  
HETATM    3  C   UNL     1     -12.508  12.025  63.405  1.00  0.00    -0.625 C  
ENDROOT
BRANCH   2   4
HETATM    4  N   UNL     1     -10.814  13.613  64.193  1.00  0.00    -0.570 N  
HETATM    5  H   UNL     1      -9.886  14.032  64.147  1.00  0.00     0.000 HD 
BRANCH   4   6
HETATM    6  C   UNL     1     -11.844  14.316  64.756  1.00  0.00    -0.429 C  
HETATM    7  O   UNL     1     -12.617  15.013  64.123  1.00  0.00    -0.770 OA 
BRANCH   6   8
HETATM    8  N   UNL     1     -11.875  14.233  66.140  1.00  0.00    -0.391 N  
HETATM    9  H   UNL     1     -12.766  14.007  66.582  1.00  0.00     0.000 HD 
BRANCH   8  10
HETATM   10  S   UNL     1     -10.554  14.475  67.133  1.00  0.00    -0.277 S  
HETATM   11  O   UNL     1      -9.734  13.285  67.142  1.00  0.00    -0.225 OA 
HETATM   12  O   UNL     1     -10.002  15.744  66.694  1.00  0.00    -0.241 OA 
BRANCH  10  13
HETATM   13  C   UNL     1     -11.178  14.729  68.756  1.00  0.00    -0.270 A  
HETATM   14  C   UNL     1     -11.916  13.745  69.427  1.00  0.00    -0.347 A  
HETATM   15  N   UNL     1     -11.436  16.283  70.605  1.00  0.00    -0.349 NA 
HETATM   16  C   UNL     1     -12.459  14.112  70.671  1.00  0.00    -0.432 A  
HETATM   17  C   UNL     1     -12.201  15.361  71.211  1.00  0.00    -0.371 A  
HETATM   18  C   UNL     1     -10.954  15.947  69.386  1.00  0.00    -0.309 A  
BRANCH  14  19
HETATM   19  N   UNL     1     -12.025  12.410  68.967  1.00  0.00    -0.279 NA 
HETATM   20  H   UNL     1     -12.321  12.303  67.997  1.00  0.00     0.000 HD 
BRANCH  19  21
HETATM   21  C   UNL     1     -11.781  11.205  69.666  1.00  0.00    -0.339 A  
HETATM   22  C   UNL     1     -10.688   9.033  69.766  1.00  0.00    -0.233 A  
HETATM   23  C   UNL     1     -10.820  10.304  69.194  1.00  0.00    -0.270 A  
HETATM   24  C   UNL     1     -11.540   8.631  70.797  1.00  0.00    -0.273 A  
HETATM   25  C   UNL     1     -12.494   9.517  71.297  1.00  0.00    -0.432 A  
HETATM   26  C   UNL     1     -12.565  10.810  70.761  1.00  0.00    -0.476 A  
HETATM   27  C   UNL     1     -13.497   9.098  72.331  1.00  0.00    -0.535 C  
ENDBRANCH  19  21
ENDBRANCH  14  19
ENDBRANCH  10  13
ENDBRANCH   8  10
ENDBRANCH   6   8
ENDBRANCH   4   6
ENDBRANCH   2   4
TORSDOF 7
ENDMDL
MODEL       20
REMARK 921   NORMALIZED FREE ENERGY PREDICTED BY IDOCK:   -6.11 KCAL/MOL
REMARK 922        TOTAL FREE ENERGY PREDICTED BY IDOCK:  -10.46 KCAL/MOL
REMARK 923 INTER-LIGAND FREE ENERGY PREDICTED BY IDOCK:   -8.82 KCAL/MOL
REMARK 924 INTRA-LIGAND FREE ENERGY PREDICTED BY IDOCK:   -1.64 KCAL/MOL
REMARK 927      BINDING AFFINITY PREDICTED BY RF-SCORE:    0.00 PKD
ROOT
HETATM    1  C   UNL     1     -10.056  10.272  64.959  1.00  0.00    -0.353 C  
HETATM    2  C   UNL     1      -9.661  11.150  63.771  1.00  0.00    -0.301 C  
HETATM    3  C   UNL     1      -8.653  10.430  62.884  1.00  0.00    -0.197 C  
ENDROOT
BRANCH   2   4
HETATM    4  N   UNL     1     -10.825  11.561  62.995  1.00  0.00    -0.762 N  
HETATM    5  H   UNL     1     -10.962  11.184  62.058  1.00  0.00     0.000 HD 
BRANCH   4   6
HETATM    6  C   UNL     1     -11.735  12.445  63.506  1.00  0.00    -0.510 C  
HETATM    7  O   UNL     1     -12.936  12.243  63.535  1.00  0.00    -0.776 OA 
BRANCH   6   8
HETATM    8  N   UNL     1     -11.169  13.644  63.914  1.00  0.00    -0.570 N  
HETATM    9  H   UNL     1     -10.199  13.822  63.657  1.00  0.00     0.000 HD 
BRANCH   8  10
HETATM   10  S   UNL     1     -11.968  14.816  64.796  1.00  0.00    -0.369 S  
HETATM   11  O   UNL     1     -12.832  15.573  63.918  1.00  0.00    -0.605 OA 
HETATM   12  O   UNL     1     -12.521  14.099  65.930  1.00  0.00    -0.471 OA 
BRANCH  10  13
HETATM   13  C   UNL     1     -10.739  15.900  65.431  1.00  0.00    -0.399 A  
HETATM   14  C   UNL     1      -9.577  15.420  66.048  1.00  0.00    -0.347 A  
HETATM   15  N   UNL     1     -10.094  18.204  65.848  1.00  0.00    -0.583 NA 
HETATM   16  C   UNL     1      -8.729  16.385  66.618  1.00  0.00    -0.291 A  
HETATM   17  C   UNL     1      -9.017  17.735  66.499  1.00  0.00    -0.261 A  
HETATM   18  C   UNL     1     -10.934  17.273  65.341  1.00  0.00     0.078 A  
BRANCH  14  19
HETATM   19  N   UNL     1      -9.184  14.060  66.009  1.00  0.00    -0.503 NA 
HETATM   20  H   UNL     1      -8.849  13.726  65.105  1.00  0.00     0.000 HD 
BRANCH  19  21
HETATM   21  C   UNL     1      -9.192  13.101  67.048  1.00  0.00    -0.233 A  
HETATM   22  C   UNL     1      -8.158  11.181  68.127  1.00  0.00    -0.128 A  
HETATM   23  C   UNL     1      -8.097  12.249  67.223  1.00  0.00    -0.182 A  
HETATM   24  C   UNL     1      -9.330  10.928  68.843  1.00  0.00    -0.169 A  
HETATM   25  C   UNL     1     -10.430  11.773  68.699  1.00  0.00    -0.242 A  
HETATM   26  C   UNL     1     -10.327  12.879  67.844  1.00  0.00    -0.233 A  
HETATM   27  C   UNL     1     -11.741  11.485  69.368  1.00  0.00    -0.413 C  
ENDBRANCH  19  21
ENDBRANCH  14  19
ENDBRANCH  10  13
ENDBRANCH   8  10
ENDBRANCH   6   8
ENDBRANCH   4   6
ENDBRANCH   2   4
TORSDOF 7
ENDMDL
MODEL       21
REMARK 921   NORMALIZED FREE ENERGY PREDICTED BY IDOCK:   -6.07 KCAL/MOL
REMARK 922        TOTAL FREE ENERGY PREDICTED BY IDOCK:  -10.41 KCAL/MOL
REMARK 923 INTER-LIGAND FREE ENERGY PREDICTED BY IDOCK:   -9.24 KCAL/MOL
REMARK 924 INTRA-LIGAND FREE ENERGY PREDICTED BY IDOCK:   -1.17 KCAL/MOL
REMARK 927      BINDING AFFINITY PREDICTED BY RF-SCORE:    0.00 PKD
ROOT
HETATM    1  C   UNL     1      -9.270  11.011  62.912  1.00  0.00    -0.362 C  
HETATM    2  C   UNL     1     -10.626  11.171  63.600  1.00  0.00    -0.347 C  
HETATM    3  C   UNL     1     -10.469  11.114  65.115  1.00  0.00    -0.341 C  
ENDROOT
BRANCH   2   4
HETATM    4  N   UNL     1     -11.290  12.404  63.200  1.00  0.00    -0.702 N  
HETATM    5  H   UNL     1     -10.949  12.918  62.387  1.00  0.00     0.000 HD 
BRANCH   4   6
HETATM    6  C   UNL     1     -12.365  12.884  63.898  1.00  0.00    -0.396 C  
HETATM    7  O   UNL     1     -13.288  12.191  64.286  1.00  0.00    -0.761 OA 
BRANCH   6   8
HETATM    8  N   UNL     1     -12.350  14.262  64.052  1.00  0.00    -0.878 N  
HETATM    9  H   UNL     1     -13.166  14.784  63.732  1.00  0.00     0.000 HD 
BRANCH   8  10
HETATM   10  S   UNL     1     -11.088  15.126  64.725  1.00  0.00    -0.347 S  
HETATM   11  O   UNL     1      -9.843  14.442  64.460  1.00  0.00    -0.033 OA 
HETATM   12  O   UNL     1     -11.293  16.485  64.257  1.00  0.00    -1.020 OA 
BRANCH  10  13
HETATM   13  C   UNL     1     -11.353  15.142  66.462  1.00  0.00    -0.234 A  
HETATM   14  C   UNL     1     -10.916  16.203  67.267  1.00  0.00    -0.175 A  
HETATM   15  N   UNL     1     -12.195  13.931  68.391  1.00  0.00    -0.275 NA 
HETATM   16  C   UNL     1     -11.083  16.043  68.654  1.00  0.00    -0.349 A  
HETATM   17  C   UNL     1     -11.712  14.919  69.162  1.00  0.00    -0.309 A  
HETATM   18  C   UNL     1     -11.991  14.063  67.060  1.00  0.00    -0.438 A  
BRANCH  14  19
HETATM   19  N   UNL     1     -10.445  17.431  66.743  1.00  0.00    -0.292 NA 
HETATM   20  H   UNL     1     -11.167  18.088  66.447  1.00  0.00     0.000 HD 
BRANCH  19  21
HETATM   21  C   UNL     1      -9.113  17.873  66.571  1.00  0.00    -0.261 A  
HETATM   22  C   UNL     1      -6.771  17.344  66.173  1.00  0.00    -0.262 A  
HETATM   23  C   UNL     1      -8.120  16.970  66.177  1.00  0.00    -0.292 A  
HETATM   24  C   UNL     1      -6.392  18.619  66.599  1.00  0.00    -0.203 A  
HETATM   25  C   UNL     1      -7.364  19.544  66.981  1.00  0.00    -0.237 A  
HETATM   26  C   UNL     1      -8.714  19.175  66.910  1.00  0.00    -0.318 A  
HETATM   27  C   UNL     1      -7.000  20.887  67.541  1.00  0.00    -0.406 C  
ENDBRANCH  19  21
ENDBRANCH  14  19
ENDBRANCH  10  13
ENDBRANCH   8  10
ENDBRANCH   6   8
ENDBRANCH   4   6
ENDBRANCH   2   4
TORSDOF 7
ENDMDL
MODEL       22
REMARK 921   NORMALIZED FREE ENERGY PREDICTED BY IDOCK:   -6.06 KCAL/MOL
REMARK 922        TOTAL FREE ENERGY PREDICTED BY IDOCK:  -10.39 KCAL/MOL
REMARK 923 INTER-LIGAND FREE ENERGY PREDICTED BY IDOCK:   -8.84 KCAL/MOL
REMARK 924 INTRA-LIGAND FREE ENERGY PREDICTED BY IDOCK:   -1.56 KCAL/MOL
REMARK 927      BINDING AFFINITY PREDICTED BY RF-SCORE:    0.00 PKD
ROOT
HETATM    1  C   UNL     1     -10.902   9.552  71.089  1.00  0.00    -0.425 C  
HETATM    2  C   UNL     1     -12.174  10.363  70.842  1.00  0.00    -0.383 C  
HETATM    3  C   UNL     1     -13.174  10.150  71.973  1.00  0.00    -0.534 C  
ENDROOT
BRANCH   2   4
HETATM    4  N   UNL     1     -11.884  11.782  70.676  1.00  0.00    -0.469 N  
HETATM    5  H   UNL     1     -11.839  12.385  71.497  1.00  0.00     0.000 HD 
BRANCH   4   6
HETATM    6  C   UNL     1     -11.670  12.315  69.434  1.00  0.00    -0.330 C  
HETATM    7  O   UNL     1     -12.076  11.815  68.400  1.00  0.00    -0.490 OA 
BRANCH   6   8
HETATM    8  N   UNL     1     -10.865  13.444  69.452  1.00  0.00    -0.449 N  
HETATM    9  H   UNL     1      -9.866  13.318  69.292  1.00  0.00     0.000 HD 
BRANCH   8  10
HETATM   10  S   UNL     1     -11.420  14.998  69.717  1.00  0.00    -0.316 S  
HETATM   11  O   UNL     1     -12.865  15.009  69.658  1.00  0.00    -0.022 OA 
HETATM   12  O   UNL     1     -10.731  15.426  70.920  1.00  0.00    -0.301 OA 
BRANCH  10  13
HETATM   13  C   UNL     1     -10.806  15.988  68.401  1.00  0.00    -0.310 A  
HETATM   14  C   UNL     1     -10.905  15.585  67.063  1.00  0.00    -0.314 A  
HETATM   15  N   UNL     1      -9.614  18.011  67.777  1.00  0.00    -0.272 NA 
HETATM   16  C   UNL     1     -10.272  16.408  66.115  1.00  0.00    -0.363 A  
HETATM   17  C   UNL     1      -9.653  17.584  66.505  1.00  0.00    -0.285 A  
HETATM   18  C   UNL     1     -10.182  17.195  68.695  1.00  0.00    -0.336 A  
BRANCH  14  19
HETATM   19  N   UNL     1     -11.695  14.488  66.641  1.00  0.00    -0.380 NA 
HETATM   20  H   UNL     1     -12.525  14.302  67.204  1.00  0.00     0.000 HD 
BRANCH  19  21
HETATM   21  C   UNL     1     -11.492  13.614  65.548  1.00  0.00    -0.305 A  
HETATM   22  C   UNL     1     -12.207  12.789  63.373  1.00  0.00    -0.594 A  
HETATM   23  C   UNL     1     -12.267  13.749  64.391  1.00  0.00    -0.440 A  
HETATM   24  C   UNL     1     -11.396  11.661  63.514  1.00  0.00    -0.447 A  
HETATM   25  C   UNL     1     -10.601  11.512  64.650  1.00  0.00    -0.369 A  
HETATM   26  C   UNL     1     -10.620  12.517  65.626  1.00  0.00    -0.298 A  
HETATM   27  C   UNL     1      -9.794  10.271  64.893  1.00  0.00    -0.404 C  
ENDBRANCH  19  21
ENDBRANCH  14  19
ENDBRANCH  10  13
ENDBRANCH   8  10
ENDBRANCH   6   8
ENDBRANCH   4   6
ENDBRANCH   2   4
TORSDOF 7
ENDMDL
MODEL       23
REMARK 921   NORMALIZED FREE ENERGY PREDICTED BY IDOCK:   -6.05 KCAL/MOL
REMARK 922        TOTAL FREE ENERGY PREDICTED BY IDOCK:  -10.38 KCAL/MOL
REMARK 923 INTER-LIGAND FREE ENERGY PREDICTED BY IDOCK:   -8.30 KCAL/MOL
REMARK 924 INTRA-LIGAND FREE ENERGY PREDICTED BY IDOCK:   -2.08 KCAL/MOL
REMARK 927      BINDING AFFINITY PREDICTED BY RF-SCORE:    0.00 PKD
ROOT
HETATM    1  C   UNL     1      -8.325   8.793  66.871  1.00  0.00    -0.108 C  
HETATM    2  C   UNL     1      -9.735   8.644  66.300  1.00  0.00    -0.251 C  
HETATM    3  C   UNL     1     -10.553   7.668  67.138  1.00  0.00    -0.410 C  
ENDROOT
BRANCH   2   4
HETATM    4  N   UNL     1     -10.414   9.930  66.204  1.00  0.00    -0.136 N  
HETATM    5  H   UNL     1     -11.114  10.183  66.902  1.00  0.00     0.000 HD 
BRANCH   4   6
HETATM    6  C   UNL     1     -10.127  10.804  65.190  1.00  0.00    -0.299 C  
HETATM    7  O   UNL     1      -9.865  10.460  64.051  1.00  0.00    -0.313 OA 
BRANCH   6   8
HETATM    8  N   UNL     1     -10.077  12.127  65.601  1.00  0.00    -0.244 N  
HETATM    9  H   UNL     1      -9.196  12.472  65.981  1.00  0.00     0.000 HD 
BRANCH   8  10
HETATM   10  S   UNL     1     -11.359  13.194  65.516  1.00  0.00    -0.307 S  
HETATM   11  O   UNL     1     -11.104  14.171  64.482  1.00  0.00    -0.376 OA 
HETATM   12  O   UNL     1     -12.532  12.342  65.448  1.00  0.00    -0.637 OA 
BRANCH  10  13
HETATM   13  C   UNL     1     -11.428  14.029  67.061  1.00  0.00    -0.351 A  
HETATM   14  C   UNL     1     -11.802  13.372  68.241  1.00  0.00    -0.358 A  
HETATM   15  N   UNL     1     -11.206  16.147  68.228  1.00  0.00    -0.357 NA 
HETATM   16  C   UNL     1     -11.932  14.175  69.388  1.00  0.00    -0.382 A  
HETATM   17  C   UNL     1     -11.632  15.526  69.339  1.00  0.00    -0.355 A  
HETATM   18  C   UNL     1     -11.127  15.384  67.114  1.00  0.00    -0.291 A  
BRANCH  14  19
HETATM   19  N   UNL     1     -11.927  11.965  68.338  1.00  0.00    -0.453 NA 
HETATM   20  H   UNL     1     -12.348  11.505  67.530  1.00  0.00     0.000 HD 
BRANCH  19  21
HETATM   21  C   UNL     1     -11.551  11.108  69.399  1.00  0.00    -0.318 A  
HETATM   22  C   UNL     1      -9.923   9.590  70.380  1.00  0.00    -0.325 A  
HETATM   23  C   UNL     1     -10.259  10.574  69.442  1.00  0.00    -0.245 A  
HETATM   24  C   UNL     1     -10.885   9.100  71.265  1.00  0.00    -0.402 A  
HETATM   25  C   UNL     1     -12.176   9.629  71.253  1.00  0.00    -0.452 A  
HETATM   26  C   UNL     1     -12.475  10.663  70.356  1.00  0.00    -0.421 A  
HETATM   27  C   UNL     1     -13.268   9.066  72.113  1.00  0.00    -0.504 C  
ENDBRANCH  19  21
ENDBRANCH  14  19
ENDBRANCH  10  13
ENDBRANCH   8  10
ENDBRANCH   6   8
ENDBRANCH   4   6
ENDBRANCH   2   4
TORSDOF 7
ENDMDL
MODEL       24
REMARK 921   NORMALIZED FREE ENERGY PREDICTED BY IDOCK:   -6.04 KCAL/MOL
REMARK 922        TOTAL FREE ENERGY PREDICTED BY IDOCK:  -10.37 KCAL/MOL
REMARK 923 INTER-LIGAND FREE ENERGY PREDICTED BY IDOCK:   -8.95 KCAL/MOL
REMARK 924 INTRA-LIGAND FREE ENERGY PREDICTED BY IDOCK:   -1.42 KCAL/MOL
REMARK 927      BINDING AFFINITY PREDICTED BY RF-SCORE:    0.00 PKD
ROOT
HETATM    1  C   UNL     1     -12.961   9.223  71.742  1.00  0.00    -0.471 C  
HETATM    2  C   UNL     1     -11.950  10.238  71.208  1.00  0.00    -0.363 C  
HETATM    3  C   UNL     1     -10.998   9.578  70.217  1.00  0.00    -0.317 C  
ENDROOT
BRANCH   2   4
HETATM    4  N   UNL     1     -12.610  11.385  70.597  1.00  0.00    -0.298 N  
HETATM    5  H   UNL     1     -13.029  11.289  69.671  1.00  0.00     0.000 HD 
BRANCH   4   6
HETATM    6  C   UNL     1     -12.677  12.588  71.246  1.00  0.00    -0.252 C  
HETATM    7  O   UNL     1     -13.394  12.803  72.207  1.00  0.00    -0.532 OA 
BRANCH   6   8
HETATM    8  N   UNL     1     -11.909  13.577  70.651  1.00  0.00    -0.530 N  
HETATM    9  H   UNL     1     -11.135  13.284  70.055  1.00  0.00     0.000 HD 
BRANCH   8  10
HETATM   10  S   UNL     1     -12.165  15.217  70.842  1.00  0.00    -0.395 S  
HETATM   11  O   UNL     1     -13.582  15.495  70.764  1.00  0.00    -0.487 OA 
HETATM   12  O   UNL     1     -11.414  15.562  72.035  1.00  0.00    -0.423 OA 
BRANCH  10  13
HETATM   13  C   UNL     1     -11.370  16.016  69.493  1.00  0.00    -0.344 A  
HETATM   14  C   UNL     1     -11.387  15.477  68.200  1.00  0.00    -0.345 A  
HETATM   15  N   UNL     1      -9.984  17.877  68.777  1.00  0.00    -0.376 NA 
HETATM   16  C   UNL     1     -10.617  16.149  67.235  1.00  0.00    -0.305 A  
HETATM   17  C   UNL     1      -9.947  17.317  67.557  1.00  0.00    -0.296 A  
HETATM   18  C   UNL     1     -10.685  17.204  69.718  1.00  0.00     0.161 A  
BRANCH  14  19
HETATM   19  N   UNL     1     -12.217  14.395  67.823  1.00  0.00    -0.624 NA 
HETATM   20  H   UNL     1     -13.166  14.418  68.196  1.00  0.00     0.000 HD 
BRANCH  19  21
HETATM   21  C   UNL     1     -11.914  13.285  67.000  1.00  0.00    -0.365 A  
HETATM   22  C   UNL     1     -10.572  11.299  66.583  1.00  0.00    -0.309 A  
HETATM   23  C   UNL     1     -11.020  12.306  67.446  1.00  0.00    -0.298 A  
HETATM   24  C   UNL     1     -10.986  11.276  65.249  1.00  0.00    -0.207 A  
HETATM   25  C   UNL     1     -11.890  12.231  64.785  1.00  0.00    -0.428 A  
HETATM   26  C   UNL     1     -12.383  13.189  65.681  1.00  0.00    -0.519 A  
HETATM   27  C   UNL     1     -12.284  12.309  63.340  1.00  0.00    -0.630 C  
ENDBRANCH  19  21
ENDBRANCH  14  19
ENDBRANCH  10  13
ENDBRANCH   8  10
ENDBRANCH   6   8
ENDBRANCH   4   6
ENDBRANCH   2   4
TORSDOF 7
ENDMDL
MODEL       25
REMARK 921   NORMALIZED FREE ENERGY PREDICTED BY IDOCK:   -6.01 KCAL/MOL
REMARK 922        TOTAL FREE ENERGY PREDICTED BY IDOCK:  -10.32 KCAL/MOL
REMARK 923 INTER-LIGAND FREE ENERGY PREDICTED BY IDOCK:   -8.85 KCAL/MOL
REMARK 924 INTRA-LIGAND FREE ENERGY PREDICTED BY IDOCK:   -1.47 KCAL/MOL
REMARK 927      BINDING AFFINITY PREDICTED BY RF-SCORE:    0.00 PKD
ROOT
HETATM    1  C   UNL     1     -12.453  15.470  73.927  1.00  0.00    -0.769 C  
HETATM    2  C   UNL     1     -12.649  15.190  72.437  1.00  0.00    -0.351 C  
HETATM    3  C   UNL     1     -14.133  15.126  72.093  1.00  0.00    -0.654 C  
ENDROOT
BRANCH   2   4
HETATM    4  N   UNL     1     -11.974  16.182  71.610  1.00  0.00    -0.597 N  
HETATM    5  H   UNL     1     -11.741  17.092  72.007  1.00  0.00     0.000 HD 
BRANCH   4   6
HETATM    6  C   UNL     1     -11.650  15.911  70.308  1.00  0.00    -0.354 C  
HETATM    7  O   UNL     1     -12.392  16.118  69.365  1.00  0.00    -0.059 OA 
BRANCH   6   8
HETATM    8  N   UNL     1     -10.418  15.290  70.167  1.00  0.00    -0.457 N  
HETATM    9  H   UNL     1      -9.981  14.906  71.004  1.00  0.00     0.000 HD 
BRANCH   8  10
HETATM   10  S   UNL     1      -9.601  15.127  68.718  1.00  0.00    -0.227 S  
HETATM   11  O   UNL     1      -9.497  16.419  68.078  1.00  0.00    -0.213 OA 
HETATM   12  O   UNL     1      -8.406  14.379  69.062  1.00  0.00    -0.118 OA 
BRANCH  10  13
HETATM   13  C   UNL     1     -10.578  14.081  67.698  1.00  0.00    -0.249 A  
HETATM   14  C   UNL     1     -10.884  12.765  68.066  1.00  0.00    -0.233 A  
HETATM   15  N   UNL     1     -11.746  13.836  65.583  1.00  0.00    -0.335 NA 
HETATM   16  C   UNL     1     -11.573  11.995  67.113  1.00  0.00    -0.387 A  
HETATM   17  C   UNL     1     -11.976  12.555  65.913  1.00  0.00    -0.409 A  
HETATM   18  C   UNL     1     -11.042  14.564  66.480  1.00  0.00    -0.332 A  
BRANCH  14  19
HETATM   19  N   UNL     1     -10.641  12.246  69.361  1.00  0.00    -0.425 NA 
HETATM   20  H   UNL     1      -9.793  12.583  69.817  1.00  0.00     0.000 HD 
BRANCH  19  21
HETATM   21  C   UNL     1     -11.410  11.326  70.111  1.00  0.00    -0.164 A  
HETATM   22  C   UNL     1     -13.139  10.914  71.773  1.00  0.00    -0.564 A  
HETATM   23  C   UNL     1     -12.480  11.778  70.890  1.00  0.00    -0.416 A  
HETATM   24  C   UNL     1     -12.713   9.592  71.915  1.00  0.00    -0.496 A  
HETATM   25  C   UNL     1     -11.660   9.111  71.137  1.00  0.00    -0.386 A  
HETATM   26  C   UNL     1     -11.058   9.971  70.207  1.00  0.00    -0.381 A  
HETATM   27  C   UNL     1     -11.101   7.732  71.327  1.00  0.00    -0.271 C  
ENDBRANCH  19  21
ENDBRANCH  14  19
ENDBRANCH  10  13
ENDBRANCH   8  10
ENDBRANCH   6   8
ENDBRANCH   4   6
ENDBRANCH   2   4
TORSDOF 7
ENDMDL
MODEL       26
REMARK 921   NORMALIZED FREE ENERGY PREDICTED BY IDOCK:   -6.00 KCAL/MOL
REMARK 922        TOTAL FREE ENERGY PREDICTED BY IDOCK:  -10.31 KCAL/MOL
REMARK 923 INTER-LIGAND FREE ENERGY PREDICTED BY IDOCK:   -8.64 KCAL/MOL
REMARK 924 INTRA-LIGAND FREE ENERGY PREDICTED BY IDOCK:   -1.67 KCAL/MOL
REMARK 927      BINDING AFFINITY PREDICTED BY RF-SCORE:    0.00 PKD
ROOT
HETATM    1  C   UNL     1     -12.814   7.290  71.259  1.00  0.00    -0.391 C  
HETATM    2  C   UNL     1     -11.407   7.336  70.664  1.00  0.00    -0.284 C  
HETATM    3  C   UNL     1     -11.176   6.147  69.738  1.00  0.00    -0.494 C  
ENDROOT
BRANCH   2   4
HETATM    4  N   UNL     1     -11.160   8.588  69.961  1.00  0.00    -0.390 N  
HETATM    5  H   UNL     1     -11.707   8.814  69.131  1.00  0.00     0.000 HD 
BRANCH   4   6
HETATM    6  C   UNL     1     -10.205   9.465  70.399  1.00  0.00    -0.255 C  
HETATM    7  O   UNL     1      -9.286   9.157  71.137  1.00  0.00    -0.253 OA 
BRANCH   6   8
HETATM    8  N   UNL     1     -10.430  10.772  69.993  1.00  0.00    -0.435 N  
HETATM    9  H   UNL     1      -9.617  11.362  69.820  1.00  0.00     0.000 HD 
BRANCH   8  10
HETATM   10  S   UNL     1     -11.942  11.445  69.766  1.00  0.00    -0.355 S  
HETATM   11  O   UNL     1     -12.411  11.137  68.434  1.00  0.00    -0.556 OA 
HETATM   12  O   UNL     1     -12.702  11.023  70.928  1.00  0.00    -0.354 OA 
BRANCH  10  13
HETATM   13  C   UNL     1     -11.747  13.187  69.894  1.00  0.00    -0.257 A  
HETATM   14  C   UNL     1     -10.913  13.904  69.026  1.00  0.00    -0.250 A  
HETATM   15  N   UNL     1     -12.300  15.199  71.138  1.00  0.00    -0.311 NA 
HETATM   16  C   UNL     1     -10.750  15.272  69.305  1.00  0.00    -0.252 A  
HETATM   17  C   UNL     1     -11.445  15.866  70.345  1.00  0.00    -0.378 A  
HETATM   18  C   UNL     1     -12.419  13.873  70.899  1.00  0.00    -0.375 A  
BRANCH  14  19
HETATM   19  N   UNL     1     -10.350  13.344  67.854  1.00  0.00    -0.233 NA 
HETATM   20  H   UNL     1      -9.461  12.860  67.982  1.00  0.00     0.000 HD 
BRANCH  19  21
HETATM   21  C   UNL     1     -10.849  13.361  66.531  1.00  0.00    -0.282 A  
HETATM   22  C   UNL     1     -12.643  13.912  64.982  1.00  0.00    -0.422 A  
HETATM   23  C   UNL     1     -12.042  14.031  66.241  1.00  0.00    -0.482 A  
HETATM   24  C   UNL     1     -12.077  13.091  64.005  1.00  0.00    -0.519 A  
HETATM   25  C   UNL     1     -10.879  12.425  64.263  1.00  0.00    -0.395 A  
HETATM   26  C   UNL     1     -10.254  12.612  65.504  1.00  0.00    -0.298 A  
HETATM   27  C   UNL     1     -10.288  11.454  63.285  1.00  0.00    -0.422 C  
ENDBRANCH  19  21
ENDBRANCH  14  19
ENDBRANCH  10  13
ENDBRANCH   8  10
ENDBRANCH   6   8
ENDBRANCH   4   6
ENDBRANCH   2   4
TORSDOF 7
ENDMDL
MODEL       27
REMARK 921   NORMALIZED FREE ENERGY PREDICTED BY IDOCK:   -5.97 KCAL/MOL
REMARK 922        TOTAL FREE ENERGY PREDICTED BY IDOCK:  -10.27 KCAL/MOL
REMARK 923 INTER-LIGAND FREE ENERGY PREDICTED BY IDOCK:   -8.84 KCAL/MOL
REMARK 924 INTRA-LIGAND FREE ENERGY PREDICTED BY IDOCK:   -1.43 KCAL/MOL
REMARK 927      BINDING AFFINITY PREDICTED BY RF-SCORE:    0.00 PKD
ROOT
HETATM    1  C   UNL     1     -11.366  12.730  63.470  1.00  0.00    -0.480 C  
HETATM    2  C   UNL     1     -11.494  11.733  64.621  1.00  0.00    -0.234 C  
HETATM    3  C   UNL     1     -10.265  10.833  64.691  1.00  0.00    -0.419 C  
ENDROOT
BRANCH   2   4
HETATM    4  N   UNL     1     -11.709  12.407  65.895  1.00  0.00    -0.412 N  
HETATM    5  H   UNL     1     -11.320  12.004  66.748  1.00  0.00     0.000 HD 
BRANCH   4   6
HETATM    6  C   UNL     1     -12.424  13.571  65.964  1.00  0.00    -0.399 C  
HETATM    7  O   UNL     1     -13.471  13.761  65.371  1.00  0.00    -0.620 OA 
BRANCH   6   8
HETATM    8  N   UNL     1     -11.797  14.559  66.709  1.00  0.00    -0.392 N  
HETATM    9  H   UNL     1     -12.373  15.115  67.340  1.00  0.00     0.000 HD 
BRANCH   8  10
HETATM   10  S   UNL     1     -10.163  14.901  66.642  1.00  0.00    -0.268 S  
HETATM   11  O   UNL     1      -9.436  13.923  67.420  1.00  0.00    -0.213 OA 
HETATM   12  O   UNL     1      -9.888  15.066  65.227  1.00  0.00    -0.323 OA 
BRANCH  10  13
HETATM   13  C   UNL     1      -9.943  16.476  67.390  1.00  0.00    -0.267 A  
HETATM   14  C   UNL     1     -10.224  16.698  68.744  1.00  0.00    -0.288 A  
HETATM   15  N   UNL     1      -9.354  18.808  67.057  1.00  0.00    -0.290 NA 
HETATM   16  C   UNL     1     -10.119  18.025  69.194  1.00  0.00    -0.204 A  
HETATM   17  C   UNL     1      -9.691  19.027  68.338  1.00  0.00    -0.383 A  
HETATM   18  C   UNL     1      -9.501  17.539  66.612  1.00  0.00    -0.275 A  
BRANCH  14  19
HETATM   19  N   UNL     1     -10.478  15.652  69.664  1.00  0.00    -0.262 NA 
HETATM   20  H   UNL     1      -9.767  14.922  69.706  1.00  0.00     0.000 HD 
BRANCH  19  21
HETATM   21  C   UNL     1     -11.581  15.478  70.532  1.00  0.00    -0.346 A  
HETATM   22  C   UNL     1     -13.988  15.289  70.839  1.00  0.00    -0.250 A  
HETATM   23  C   UNL     1     -12.863  15.285  70.006  1.00  0.00    -0.123 A  
HETATM   24  C   UNL     1     -13.850  15.522  72.209  1.00  0.00    -0.639 A  
HETATM   25  C   UNL     1     -12.581  15.699  72.761  1.00  0.00    -0.536 A  
HETATM   26  C   UNL     1     -11.461  15.621  71.923  1.00  0.00    -0.501 A  
HETATM   27  C   UNL     1     -12.391  16.053  74.206  1.00  0.00    -0.717 C  
ENDBRANCH  19  21
ENDBRANCH  14  19
ENDBRANCH  10  13
ENDBRANCH   8  10
ENDBRANCH   6   8
ENDBRANCH   4   6
ENDBRANCH   2   4
TORSDOF 7
ENDMDL
MODEL       28
REMARK 921   NORMALIZED FREE ENERGY PREDICTED BY IDOCK:   -5.96 KCAL/MOL
REMARK 922        TOTAL FREE ENERGY PREDICTED BY IDOCK:  -10.26 KCAL/MOL
REMARK 923 INTER-LIGAND FREE ENERGY PREDICTED BY IDOCK:   -8.60 KCAL/MOL
REMARK 924 INTRA-LIGAND FREE ENERGY PREDICTED BY IDOCK:   -1.65 KCAL/MOL
REMARK 927      BINDING AFFINITY PREDICTED BY RF-SCORE:    0.00 PKD
ROOT
HETATM    1  C   UNL     1     -11.744  12.732  63.460  1.00  0.00    -0.597 C  
HETATM    2  C   UNL     1     -10.644  11.890  64.106  1.00  0.00    -0.350 C  
HETATM    3  C   UNL     1      -9.679  11.366  63.049  1.00  0.00    -0.393 C  
ENDROOT
BRANCH   2   4
HETATM    4  N   UNL     1      -9.925  12.638  65.130  1.00  0.00    -0.434 N  
HETATM    5  H   UNL     1      -9.559  13.564  64.912  1.00  0.00     0.000 HD 
BRANCH   4   6
HETATM    6  C   UNL     1      -9.734  12.115  66.380  1.00  0.00    -0.231 C  
HETATM    7  O   UNL     1      -9.529  10.934  66.598  1.00  0.00    -0.174 OA 
BRANCH   6   8
HETATM    8  N   UNL     1      -9.884  13.047  67.395  1.00  0.00    -0.212 N  
HETATM    9  H   UNL     1      -9.236  13.002  68.181  1.00  0.00     0.000 HD 
BRANCH   8  10
HETATM   10  S   UNL     1     -11.055  14.239  67.420  1.00  0.00    -0.315 S  
HETATM   11  O   UNL     1     -10.498  15.469  66.903  1.00  0.00    -0.289 OA 
HETATM   12  O   UNL     1     -12.205  13.628  66.781  1.00  0.00    -0.406 OA 
BRANCH  10  13
HETATM   13  C   UNL     1     -11.486  14.493  69.105  1.00  0.00    -0.294 A  
HETATM   14  C   UNL     1     -12.058  13.478  69.883  1.00  0.00    -0.341 A  
HETATM   15  N   UNL     1     -11.626  16.076  70.941  1.00  0.00    -0.409 NA 
HETATM   16  C   UNL     1     -12.465  13.839  71.179  1.00  0.00    -0.450 A  
HETATM   17  C   UNL     1     -12.236  15.119  71.658  1.00  0.00    -0.345 A  
HETATM   18  C   UNL     1     -11.277  15.742  69.678  1.00  0.00    -0.319 A  
BRANCH  14  19
HETATM   19  N   UNL     1     -12.122  12.126  69.467  1.00  0.00    -0.244 NA 
HETATM   20  H   UNL     1     -12.304  11.981  68.474  1.00  0.00     0.000 HD 
BRANCH  19  21
HETATM   21  C   UNL     1     -11.970  10.949  70.236  1.00  0.00    -0.361 A  
HETATM   22  C   UNL     1     -12.832   9.441  71.940  1.00  0.00    -0.497 A  
HETATM   23  C   UNL     1     -13.022  10.497  71.040  1.00  0.00    -0.475 A  
HETATM   24  C   UNL     1     -11.577   8.845  72.075  1.00  0.00    -0.435 A  
HETATM   25  C   UNL     1     -10.517   9.266  71.273  1.00  0.00    -0.408 A  
HETATM   26  C   UNL     1     -10.742  10.276  70.327  1.00  0.00    -0.310 A  
HETATM   27  C   UNL     1      -9.128   8.728  71.452  1.00  0.00    -0.313 C  
ENDBRANCH  19  21
ENDBRANCH  14  19
ENDBRANCH  10  13
ENDBRANCH   8  10
ENDBRANCH   6   8
ENDBRANCH   4   6
ENDBRANCH   2   4
TORSDOF 7
ENDMDL
MODEL       29
REMARK 921   NORMALIZED FREE ENERGY PREDICTED BY IDOCK:   -5.95 KCAL/MOL
REMARK 922        TOTAL FREE ENERGY PREDICTED BY IDOCK:  -10.24 KCAL/MOL
REMARK 923 INTER-LIGAND FREE ENERGY PREDICTED BY IDOCK:   -8.45 KCAL/MOL
REMARK 924 INTRA-LIGAND FREE ENERGY PREDICTED BY IDOCK:   -1.79 KCAL/MOL
REMARK 927      BINDING AFFINITY PREDICTED BY RF-SCORE:    0.00 PKD
ROOT
HETATM    1  C   UNL     1     -10.994  11.002  67.367  1.00  0.00    -0.349 C  
HETATM    2  C   UNL     1     -10.183  11.160  66.081  1.00  0.00    -0.244 C  
HETATM    3  C   UNL     1      -9.583   9.824  65.658  1.00  0.00    -0.329 C  
ENDROOT
BRANCH   2   4
HETATM    4  N   UNL     1     -10.987  11.724  65.005  1.00  0.00    -0.306 N  
HETATM    5  H   UNL     1     -11.999  11.599  65.014  1.00  0.00     0.000 HD 
BRANCH   4   6
HETATM    6  C   UNL     1     -10.404  12.421  63.981  1.00  0.00    -0.409 C  
HETATM    7  O   UNL     1      -9.985  11.904  62.960  1.00  0.00    -0.387 OA 
BRANCH   6   8
HETATM    8  N   UNL     1     -10.252  13.772  64.251  1.00  0.00    -0.595 N  
HETATM    9  H   UNL     1      -9.357  14.204  64.023  1.00  0.00     0.000 HD 
BRANCH   8  10
HETATM   10  S   UNL     1     -11.434  14.741  64.925  1.00  0.00    -0.412 S  
HETATM   11  O   UNL     1     -11.275  16.096  64.447  1.00  0.00    -0.605 OA 
HETATM   12  O   UNL     1     -12.670  14.019  64.687  1.00  0.00    -0.648 OA 
BRANCH  10  13
HETATM   13  C   UNL     1     -11.169  14.734  66.662  1.00  0.00    -0.346 A  
HETATM   14  C   UNL     1      -9.920  15.035  67.221  1.00  0.00    -0.233 A  
HETATM   15  N   UNL     1     -12.122  14.293  68.852  1.00  0.00    -0.314 NA 
HETATM   16  C   UNL     1      -9.806  14.880  68.614  1.00  0.00    -0.225 A  
HETATM   17  C   UNL     1     -10.905  14.517  69.374  1.00  0.00    -0.226 A  
HETATM   18  C   UNL     1     -12.220  14.396  67.507  1.00  0.00    -0.175 A  
BRANCH  14  19
HETATM   19  N   UNL     1      -8.851  15.587  66.475  1.00  0.00    -0.291 NA 
HETATM   20  H   UNL     1      -8.292  14.916  65.947  1.00  0.00     0.000 HD 
BRANCH  19  21
HETATM   21  C   UNL     1      -8.448  16.938  66.361  1.00  0.00    -0.290 A  
HETATM   22  C   UNL     1      -6.662  18.589  66.318  1.00  0.00    -0.259 A  
HETATM   23  C   UNL     1      -7.091  17.258  66.253  1.00  0.00    -0.311 A  
HETATM   24  C   UNL     1      -7.582  19.618  66.526  1.00  0.00    -0.284 A  
HETATM   25  C   UNL     1      -8.943  19.327  66.618  1.00  0.00    -0.369 A  
HETATM   26  C   UNL     1      -9.362  17.996  66.481  1.00  0.00    -0.294 A  
HETATM   27  C   UNL     1      -9.957  20.383  66.943  1.00  0.00    -0.549 C  
ENDBRANCH  19  21
ENDBRANCH  14  19
ENDBRANCH  10  13
ENDBRANCH   8  10
ENDBRANCH   6   8
ENDBRANCH   4   6
ENDBRANCH   2   4
TORSDOF 7
ENDMDL
MODEL       30
REMARK 921   NORMALIZED FREE ENERGY PREDICTED BY IDOCK:   -5.91 KCAL/MOL
REMARK 922        TOTAL FREE ENERGY PREDICTED BY IDOCK:  -10.18 KCAL/MOL
REMARK 923 INTER-LIGAND FREE ENERGY PREDICTED BY IDOCK:   -8.69 KCAL/MOL
REMARK 924 INTRA-LIGAND FREE ENERGY PREDICTED BY IDOCK:   -1.49 KCAL/MOL
REMARK 927      BINDING AFFINITY PREDICTED BY RF-SCORE:    0.00 PKD
ROOT
HETATM    1  C   UNL     1     -12.762  14.245  65.761  1.00  0.00    -0.365 C  
HETATM    2  C   UNL     1     -12.001  14.664  64.504  1.00  0.00    -0.460 C  
HETATM    3  C   UNL     1     -10.818  15.555  64.865  1.00  0.00    -0.447 C  
ENDROOT
BRANCH   2   4
HETATM    4  N   UNL     1     -11.556  13.509  63.734  1.00  0.00    -0.641 N  
HETATM    5  H   UNL     1     -10.800  13.617  63.058  1.00  0.00     0.000 HD 
BRANCH   4   6
HETATM    6  C   UNL     1     -12.138  12.283  63.905  1.00  0.00    -0.506 C  
HETATM    7  O   UNL     1     -13.044  11.858  63.210  1.00  0.00    -0.674 OA 
BRANCH   6   8
HETATM    8  N   UNL     1     -11.657  11.594  65.008  1.00  0.00    -0.137 N  
HETATM    9  H   UNL     1     -12.338  11.190  65.650  1.00  0.00     0.000 HD 
BRANCH   8  10
HETATM   10  S   UNL     1     -10.037  11.380  65.357  1.00  0.00    -0.274 S  
HETATM   11  O   UNL     1      -9.307  11.147  64.131  1.00  0.00    -0.213 OA 
HETATM   12  O   UNL     1      -9.701  12.506  66.209  1.00  0.00    -0.247 OA 
BRANCH  10  13
HETATM   13  C   UNL     1      -9.918   9.937  66.353  1.00  0.00    -0.244 A  
HETATM   14  C   UNL     1     -10.671   9.783  67.525  1.00  0.00    -0.264 A  
HETATM   15  N   UNL     1      -8.811   7.804  66.700  1.00  0.00    -0.140 NA 
HETATM   16  C   UNL     1     -10.400   8.638  68.294  1.00  0.00    -0.252 A  
HETATM   17  C   UNL     1      -9.485   7.696  67.856  1.00  0.00    -0.143 A  
HETATM   18  C   UNL     1      -9.036   8.929  65.984  1.00  0.00    -0.214 A  
BRANCH  14  19
HETATM   19  N   UNL     1     -11.737  10.644  67.880  1.00  0.00    -0.724 NA 
HETATM   20  H   UNL     1     -12.473  10.743  67.180  1.00  0.00     0.000 HD 
BRANCH  19  21
HETATM   21  C   UNL     1     -11.924  11.387  69.069  1.00  0.00    -0.320 A  
HETATM   22  C   UNL     1     -12.751  11.497  71.355  1.00  0.00    -0.469 A  
HETATM   23  C   UNL     1     -12.392  10.753  70.225  1.00  0.00    -0.423 A  
HETATM   24  C   UNL     1     -12.680  12.892  71.333  1.00  0.00    -0.366 A  
HETATM   25  C   UNL     1     -12.201  13.547  70.199  1.00  0.00    -0.400 A  
HETATM   26  C   UNL     1     -11.779  12.782  69.102  1.00  0.00    -0.375 A  
HETATM   27  C   UNL     1     -12.203  15.043  70.090  1.00  0.00    -0.392 C  
ENDBRANCH  19  21
ENDBRANCH  14  19
ENDBRANCH  10  13
ENDBRANCH   8  10
ENDBRANCH   6   8
ENDBRANCH   4   6
ENDBRANCH   2   4
TORSDOF 7
ENDMDL
MODEL       31
REMARK 921   NORMALIZED FREE ENERGY PREDICTED BY IDOCK:   -5.91 KCAL/MOL
REMARK 922        TOTAL FREE ENERGY PREDICTED BY IDOCK:  -10.18 KCAL/MOL
REMARK 923 INTER-LIGAND FREE ENERGY PREDICTED BY IDOCK:   -8.44 KCAL/MOL
REMARK 924 INTRA-LIGAND FREE ENERGY PREDICTED BY IDOCK:   -1.74 KCAL/MOL
REMARK 927      BINDING AFFINITY PREDICTED BY RF-SCORE:    0.00 PKD
ROOT
HETATM    1  C   UNL     1      -9.851  11.191  63.069  1.00  0.00    -0.368 C  
HETATM    2  C   UNL     1     -10.557  12.238  63.930  1.00  0.00    -0.427 C  
HETATM    3  C   UNL     1     -11.943  12.545  63.374  1.00  0.00    -0.602 C  
ENDROOT
BRANCH   2   4
HETATM    4  N   UNL     1     -10.646  11.818  65.323  1.00  0.00    -0.269 N  
HETATM    5  H   UNL     1     -11.416  11.218  65.618  1.00  0.00     0.000 HD 
BRANCH   4   6
HETATM    6  C   UNL     1      -9.712  12.217  66.240  1.00  0.00    -0.238 C  
HETATM    7  O   UNL     1      -8.577  11.779  66.288  1.00  0.00    -0.158 OA 
BRANCH   6   8
HETATM    8  N   UNL     1     -10.208  13.112  67.176  1.00  0.00    -0.243 N  
HETATM    9  H   UNL     1      -9.539  13.707  67.665  1.00  0.00     0.000 HD 
BRANCH   8  10
HETATM   10  S   UNL     1     -11.825  13.283  67.559  1.00  0.00    -0.335 S  
HETATM   11  O   UNL     1     -12.485  14.047  66.524  1.00  0.00    -0.442 OA 
HETATM   12  O   UNL     1     -12.265  11.936  67.871  1.00  0.00    -0.508 OA 
BRANCH  10  13
HETATM   13  C   UNL     1     -11.899  14.200  69.056  1.00  0.00    -0.348 A  
HETATM   14  C   UNL     1     -11.367  15.492  69.159  1.00  0.00    -0.328 A  
HETATM   15  N   UNL     1     -12.537  14.200  71.399  1.00  0.00    -0.350 NA 
HETATM   16  C   UNL     1     -11.384  16.073  70.439  1.00  0.00    -0.405 A  
HETATM   17  C   UNL     1     -11.964  15.410  71.506  1.00  0.00    -0.379 A  
HETATM   18  C   UNL     1     -12.479  13.621  70.178  1.00  0.00    -0.239 A  
BRANCH  14  19
HETATM   19  N   UNL     1     -10.945  16.248  68.038  1.00  0.00    -0.340 NA 
HETATM   20  H   UNL     1     -11.201  15.864  67.129  1.00  0.00     0.000 HD 
BRANCH  19  21
HETATM   21  C   UNL     1     -10.216  17.459  68.005  1.00  0.00    -0.345 A  
HETATM   22  C   UNL     1     -10.087  19.802  67.361  1.00  0.00    -0.555 A  
HETATM   23  C   UNL     1     -10.834  18.637  67.570  1.00  0.00    -0.373 A  
HETATM   24  C   UNL     1      -8.704  19.798  67.551  1.00  0.00    -0.388 A  
HETATM   25  C   UNL     1      -8.066  18.642  68.000  1.00  0.00    -0.296 A  
HETATM   26  C   UNL     1      -8.839  17.505  68.273  1.00  0.00    -0.274 A  
HETATM   27  C   UNL     1      -6.574  18.558  68.120  1.00  0.00    -0.227 C  
ENDBRANCH  19  21
ENDBRANCH  14  19
ENDBRANCH  10  13
ENDBRANCH   8  10
ENDBRANCH   6   8
ENDBRANCH   4   6
ENDBRANCH   2   4
TORSDOF 7
ENDMDL
MODEL       32
REMARK 921   NORMALIZED FREE ENERGY PREDICTED BY IDOCK:   -5.90 KCAL/MOL
REMARK 922        TOTAL FREE ENERGY PREDICTED BY IDOCK:  -10.17 KCAL/MOL
REMARK 923 INTER-LIGAND FREE ENERGY PREDICTED BY IDOCK:   -8.75 KCAL/MOL
REMARK 924 INTRA-LIGAND FREE ENERGY PREDICTED BY IDOCK:   -1.42 KCAL/MOL
REMARK 927      BINDING AFFINITY PREDICTED BY RF-SCORE:    0.00 PKD
ROOT
HETATM    1  C   UNL     1     -13.332  15.764  72.971  1.00  0.00    -0.679 C  
HETATM    2  C   UNL     1     -13.054  14.693  71.916  1.00  0.00    -0.333 C  
HETATM    3  C   UNL     1     -13.991  13.504  72.098  1.00  0.00    -0.575 C  
ENDROOT
BRANCH   2   4
HETATM    4  N   UNL     1     -13.161  15.228  70.565  1.00  0.00    -0.697 N  
HETATM    5  H   UNL     1     -14.081  15.325  70.135  1.00  0.00     0.000 HD 
BRANCH   4   6
HETATM    6  C   UNL     1     -12.047  15.603  69.865  1.00  0.00    -0.341 C  
HETATM    7  O   UNL     1     -11.258  16.450  70.246  1.00  0.00    -0.367 OA 
BRANCH   6   8
HETATM    8  N   UNL     1     -11.941  14.986  68.628  1.00  0.00    -0.545 N  
HETATM    9  H   UNL     1     -12.410  15.425  67.837  1.00  0.00     0.000 HD 
BRANCH   8  10
HETATM   10  S   UNL     1     -11.096  13.572  68.344  1.00  0.00    -0.287 S  
HETATM   11  O   UNL     1      -9.679  13.823  68.479  1.00  0.00    -0.225 OA 
HETATM   12  O   UNL     1     -11.751  12.587  69.185  1.00  0.00    -0.289 OA 
BRANCH  10  13
HETATM   13  C   UNL     1     -11.420  13.112  66.679  1.00  0.00    -0.348 A  
HETATM   14  C   UNL     1     -10.605  12.205  65.990  1.00  0.00    -0.257 A  
HETATM   15  N   UNL     1     -12.813  13.457  64.720  1.00  0.00    -0.706 NA 
HETATM   16  C   UNL     1     -10.900  12.009  64.630  1.00  0.00    -0.357 A  
HETATM   17  C   UNL     1     -11.987  12.640  64.048  1.00  0.00    -0.451 A  
HETATM   18  C   UNL     1     -12.501  13.682  66.017  1.00  0.00    -0.426 A  
BRANCH  14  19
HETATM   19  N   UNL     1      -9.614  11.418  66.625  1.00  0.00    -0.187 NA 
HETATM   20  H   UNL     1      -8.650  11.711  66.462  1.00  0.00     0.000 HD 
BRANCH  19  21
HETATM   21  C   UNL     1      -9.773  10.282  67.453  1.00  0.00    -0.160 A  
HETATM   22  C   UNL     1      -9.118   9.036  69.437  1.00  0.00    -0.146 A  
HETATM   23  C   UNL     1      -9.116  10.218  68.687  1.00  0.00    -0.152 A  
HETATM   24  C   UNL     1      -9.747   7.890  68.947  1.00  0.00    -0.158 A  
HETATM   25  C   UNL     1     -10.423   7.933  67.728  1.00  0.00    -0.278 A  
HETATM   26  C   UNL     1     -10.472   9.144  67.024  1.00  0.00    -0.311 A  
HETATM   27  C   UNL     1     -11.024   6.704  67.114  1.00  0.00    -0.478 C  
ENDBRANCH  19  21
ENDBRANCH  14  19
ENDBRANCH  10  13
ENDBRANCH   8  10
ENDBRANCH   6   8
ENDBRANCH   4   6
ENDBRANCH   2   4
TORSDOF 7
ENDMDL
MODEL       33
REMARK 921   NORMALIZED FREE ENERGY PREDICTED BY IDOCK:   -5.90 KCAL/MOL
REMARK 922        TOTAL FREE ENERGY PREDICTED BY IDOCK:  -10.17 KCAL/MOL
REMARK 923 INTER-LIGAND FREE ENERGY PREDICTED BY IDOCK:   -8.27 KCAL/MOL
REMARK 924 INTRA-LIGAND FREE ENERGY PREDICTED BY IDOCK:   -1.90 KCAL/MOL
REMARK 927      BINDING AFFINITY PREDICTED BY RF-SCORE:    0.00 PKD
ROOT
HETATM    1  C   UNL     1     -11.093   7.740  72.880  1.00  0.00    -0.457 C  
HETATM    2  C   UNL     1     -10.417   8.734  71.935  1.00  0.00    -0.353 C  
HETATM    3  C   UNL     1      -9.015   8.260  71.571  1.00  0.00    -0.223 C  
ENDROOT
BRANCH   2   4
HETATM    4  N   UNL     1     -11.210   8.958  70.733  1.00  0.00    -0.264 N  
HETATM    5  H   UNL     1     -11.169   8.282  69.970  1.00  0.00     0.000 HD 
BRANCH   4   6
HETATM    6  C   UNL     1     -12.009  10.063  70.612  1.00  0.00    -0.313 C  
HETATM    7  O   UNL     1     -12.682  10.517  71.520  1.00  0.00    -0.387 OA 
BRANCH   6   8
HETATM    8  N   UNL     1     -12.051  10.573  69.323  1.00  0.00    -0.544 N  
HETATM    9  H   UNL     1     -12.936  10.957  68.993  1.00  0.00     0.000 HD 
BRANCH   8  10
HETATM   10  S   UNL     1     -10.752  10.600  68.273  1.00  0.00    -0.240 S  
HETATM   11  O   UNL     1      -9.535  10.829  69.019  1.00  0.00    -0.191 OA 
HETATM   12  O   UNL     1     -10.909   9.398  67.475  1.00  0.00    -0.269 OA 
BRANCH  10  13
HETATM   13  C   UNL     1     -11.002  11.962  67.191  1.00  0.00    -0.269 A  
HETATM   14  C   UNL     1     -11.083  13.278  67.665  1.00  0.00    -0.269 A  
HETATM   15  N   UNL     1     -11.406  12.685  64.908  1.00  0.00    -0.302 NA 
HETATM   16  C   UNL     1     -11.401  14.265  66.716  1.00  0.00    -0.357 A  
HETATM   17  C   UNL     1     -11.551  13.934  65.379  1.00  0.00    -0.325 A  
HETATM   18  C   UNL     1     -11.147  11.729  65.829  1.00  0.00    -0.297 A  
BRANCH  14  19
HETATM   19  N   UNL     1     -10.747  13.646  68.990  1.00  0.00    -0.377 NA 
HETATM   20  H   UNL     1      -9.827  13.343  69.310  1.00  0.00     0.000 HD 
BRANCH  19  21
HETATM   21  C   UNL     1     -11.509  14.376  69.932  1.00  0.00    -0.260 A  
HETATM   22  C   UNL     1     -11.689  16.255  71.468  1.00  0.00    -0.467 A  
HETATM   23  C   UNL     1     -11.042  15.605  70.410  1.00  0.00    -0.369 A  
HETATM   24  C   UNL     1     -12.793  15.666  72.088  1.00  0.00    -0.517 A  
HETATM   25  C   UNL     1     -13.289  14.450  71.619  1.00  0.00    -0.442 A  
HETATM   26  C   UNL     1     -12.672  13.848  70.514  1.00  0.00    -0.318 A  
HETATM   27  C   UNL     1     -14.405  13.731  72.315  1.00  0.00    -0.462 C  
ENDBRANCH  19  21
ENDBRANCH  14  19
ENDBRANCH  10  13
ENDBRANCH   8  10
ENDBRANCH   6   8
ENDBRANCH   4   6
ENDBRANCH   2   4
TORSDOF 7
ENDMDL
MODEL       34
REMARK 921   NORMALIZED FREE ENERGY PREDICTED BY IDOCK:   -5.89 KCAL/MOL
REMARK 922        TOTAL FREE ENERGY PREDICTED BY IDOCK:  -10.15 KCAL/MOL
REMARK 923 INTER-LIGAND FREE ENERGY PREDICTED BY IDOCK:   -9.25 KCAL/MOL
REMARK 924 INTRA-LIGAND FREE ENERGY PREDICTED BY IDOCK:   -0.90 KCAL/MOL
REMARK 927      BINDING AFFINITY PREDICTED BY RF-SCORE:    0.00 PKD
ROOT
HETATM    1  C   UNL     1     -12.545  12.066  63.523  1.00  0.00    -0.625 C  
HETATM    2  C   UNL     1     -11.304  12.047  64.416  1.00  0.00    -0.345 C  
HETATM    3  C   UNL     1     -10.044  11.856  63.580  1.00  0.00    -0.450 C  
ENDROOT
BRANCH   2   4
HETATM    4  N   UNL     1     -11.205  13.256  65.224  1.00  0.00    -0.292 N  
HETATM    5  H   UNL     1     -10.344  13.803  65.206  1.00  0.00     0.000 HD 
BRANCH   4   6
HETATM    6  C   UNL     1     -12.250  13.669  66.006  1.00  0.00    -0.449 C  
HETATM    7  O   UNL     1     -13.308  14.080  65.564  1.00  0.00    -0.673 OA 
BRANCH   6   8
HETATM    8  N   UNL     1     -11.960  13.658  67.362  1.00  0.00    -0.384 N  
HETATM    9  H   UNL     1     -12.137  14.511  67.892  1.00  0.00     0.000 HD 
BRANCH   8  10
HETATM   10  S   UNL     1     -11.339  12.344  68.187  1.00  0.00    -0.315 S  
HETATM   11  O   UNL     1     -11.770  11.124  67.542  1.00  0.00    -0.574 OA 
HETATM   12  O   UNL     1      -9.925  12.642  68.325  1.00  0.00    -0.223 OA 
BRANCH  10  13
HETATM   13  C   UNL     1     -12.026  12.389  69.804  1.00  0.00    -0.289 A  
HETATM   14  C   UNL     1     -12.315  11.218  70.517  1.00  0.00    -0.356 A  
HETATM   15  N   UNL     1     -12.903  13.779  71.592  1.00  0.00    -0.354 NA 
HETATM   16  C   UNL     1     -12.970  11.384  71.750  1.00  0.00    -0.519 A  
HETATM   17  C   UNL     1     -13.239  12.652  72.239  1.00  0.00    -0.360 A  
HETATM   18  C   UNL     1     -12.315  13.618  70.384  1.00  0.00    -0.345 A  
BRANCH  14  19
HETATM   19  N   UNL     1     -11.876   9.935  70.111  1.00  0.00    -0.426 NA 
HETATM   20  H   UNL     1     -11.876   9.769  69.104  1.00  0.00     0.000 HD 
BRANCH  19  21
HETATM   21  C   UNL     1     -11.437   8.851  70.906  1.00  0.00    -0.288 A  
HETATM   22  C   UNL     1     -11.902   6.701  71.947  1.00  0.00    -0.375 A  
HETATM   23  C   UNL     1     -12.232   7.706  71.030  1.00  0.00    -0.261 A  
HETATM   24  C   UNL     1     -10.791   6.843  72.780  1.00  0.00    -0.305 A  
HETATM   25  C   UNL     1      -9.973   7.967  72.665  1.00  0.00    -0.330 A  
HETATM   26  C   UNL     1     -10.277   8.929  71.692  1.00  0.00    -0.415 A  
HETATM   27  C   UNL     1      -8.830   8.212  73.605  1.00  0.00    -0.296 C  
ENDBRANCH  19  21
ENDBRANCH  14  19
ENDBRANCH  10  13
ENDBRANCH   8  10
ENDBRANCH   6   8
ENDBRANCH   4   6
ENDBRANCH   2   4
TORSDOF 7
ENDMDL
MODEL       35
REMARK 921   NORMALIZED FREE ENERGY PREDICTED BY IDOCK:   -5.87 KCAL/MOL
REMARK 922        TOTAL FREE ENERGY PREDICTED BY IDOCK:  -10.12 KCAL/MOL
REMARK 923 INTER-LIGAND FREE ENERGY PREDICTED BY IDOCK:   -8.46 KCAL/MOL
REMARK 924 INTRA-LIGAND FREE ENERGY PREDICTED BY IDOCK:   -1.67 KCAL/MOL
REMARK 927      BINDING AFFINITY PREDICTED BY RF-SCORE:    0.00 PKD
ROOT
HETATM    1  C   UNL     1     -11.786   7.889  72.131  1.00  0.00    -0.385 C  
HETATM    2  C   UNL     1     -11.341   9.218  71.520  1.00  0.00    -0.385 C  
HETATM    3  C   UNL     1      -9.882   9.147  71.085  1.00  0.00    -0.371 C  
ENDROOT
BRANCH   2   4
HETATM    4  N   UNL     1     -12.191   9.607  70.402  1.00  0.00    -0.475 N  
HETATM    5  H   UNL     1     -12.723   8.894  69.903  1.00  0.00     0.000 HD 
BRANCH   4   6
HETATM    6  C   UNL     1     -12.285  10.915  70.010  1.00  0.00    -0.347 C  
HETATM    7  O   UNL     1     -12.483  11.841  70.777  1.00  0.00    -0.357 OA 
BRANCH   6   8
HETATM    8  N   UNL     1     -12.220  11.084  68.636  1.00  0.00    -0.326 N  
HETATM    9  H   UNL     1     -13.096  11.219  68.132  1.00  0.00     0.000 HD 
BRANCH   8  10
HETATM   10  S   UNL     1     -10.804  11.082  67.748  1.00  0.00    -0.270 S  
HETATM   11  O   UNL     1      -9.819  11.905  68.412  1.00  0.00    -0.198 OA 
HETATM   12  O   UNL     1     -10.539   9.678  67.497  1.00  0.00    -0.253 OA 
BRANCH  10  13
HETATM   13  C   UNL     1     -11.179  11.813  66.194  1.00  0.00    -0.306 A  
HETATM   14  C   UNL     1     -12.049  12.905  66.080  1.00  0.00    -0.422 A  
HETATM   15  N   UNL     1     -10.876  11.713  63.786  1.00  0.00    -0.391 NA 
HETATM   16  C   UNL     1     -12.358  13.323  64.774  1.00  0.00    -0.454 A  
HETATM   17  C   UNL     1     -11.764  12.715  63.681  1.00  0.00    -0.522 A  
HETATM   18  C   UNL     1     -10.615  11.280  65.041  1.00  0.00    -0.289 A  
BRANCH  14  19
HETATM   19  N   UNL     1     -12.510  13.647  67.194  1.00  0.00    -0.346 NA 
HETATM   20  H   UNL     1     -13.430  13.384  67.547  1.00  0.00     0.000 HD 
BRANCH  19  21
HETATM   21  C   UNL     1     -11.871  14.703  67.887  1.00  0.00    -0.320 A  
HETATM   22  C   UNL     1     -10.084  16.350  67.995  1.00  0.00    -0.248 A  
HETATM   23  C   UNL     1     -10.845  15.426  67.269  1.00  0.00    -0.316 A  
HETATM   24  C   UNL     1     -10.316  16.540  69.359  1.00  0.00    -0.298 A  
HETATM   25  C   UNL     1     -11.345  15.844  69.994  1.00  0.00    -0.358 A  
HETATM   26  C   UNL     1     -12.143  14.975  69.236  1.00  0.00    -0.282 A  
HETATM   27  C   UNL     1     -11.565  15.937  71.474  1.00  0.00    -0.537 C  
ENDBRANCH  19  21
ENDBRANCH  14  19
ENDBRANCH  10  13
ENDBRANCH   8  10
ENDBRANCH   6   8
ENDBRANCH   4   6
ENDBRANCH   2   4
TORSDOF 7
ENDMDL
MODEL       36
REMARK 921   NORMALIZED FREE ENERGY PREDICTED BY IDOCK:   -5.86 KCAL/MOL
REMARK 922        TOTAL FREE ENERGY PREDICTED BY IDOCK:  -10.10 KCAL/MOL
REMARK 923 INTER-LIGAND FREE ENERGY PREDICTED BY IDOCK:   -8.44 KCAL/MOL
REMARK 924 INTRA-LIGAND FREE ENERGY PREDICTED BY IDOCK:   -1.67 KCAL/MOL
REMARK 927      BINDING AFFINITY PREDICTED BY RF-SCORE:    0.00 PKD
ROOT
HETATM    1  C   UNL     1     -12.036   6.325  71.857  1.00  0.00    -0.342 C  
HETATM    2  C   UNL     1     -11.134   6.962  70.799  1.00  0.00    -0.275 C  
HETATM    3  C   UNL     1     -11.234   6.202  69.481  1.00  0.00    -0.482 C  
ENDROOT
BRANCH   2   4
HETATM    4  N   UNL     1     -11.450   8.371  70.602  1.00  0.00    -0.352 N  
HETATM    5  H   UNL     1     -12.337   8.633  70.172  1.00  0.00     0.000 HD 
BRANCH   4   6
HETATM    6  C   UNL     1     -10.573   9.349  70.987  1.00  0.00    -0.330 C  
HETATM    7  O   UNL     1      -9.449   9.128  71.404  1.00  0.00    -0.267 OA 
BRANCH   6   8
HETATM    8  N   UNL     1     -11.115  10.624  70.940  1.00  0.00    -0.228 N  
HETATM    9  H   UNL     1     -10.471  11.411  70.865  1.00  0.00     0.000 HD 
BRANCH   8  10
HETATM   10  S   UNL     1     -12.751  10.959  70.996  1.00  0.00    -0.406 S  
HETATM   11  O   UNL     1     -13.344  10.677  69.709  1.00  0.00     0.090 OA 
HETATM   12  O   UNL     1     -13.218  10.273  72.187  1.00  0.00    -0.452 OA 
BRANCH  10  13
HETATM   13  C   UNL     1     -12.906  12.682  71.310  1.00  0.00    -0.250 A  
HETATM   14  C   UNL     1     -12.092  13.626  70.672  1.00  0.00    -0.323 A  
HETATM   15  N   UNL     1     -14.015  14.410  72.607  1.00  0.00    -0.575 NA 
HETATM   16  C   UNL     1     -12.233  14.959  71.094  1.00  0.00    -0.380 A  
HETATM   17  C   UNL     1     -13.184  15.300  72.042  1.00  0.00    -0.407 A  
HETATM   18  C   UNL     1     -13.846  13.120  72.235  1.00  0.00    -0.490 A  
BRANCH  14  19
HETATM   19  N   UNL     1     -11.254  13.311  69.574  1.00  0.00    -0.450 NA 
HETATM   20  H   UNL     1     -10.390  12.823  69.807  1.00  0.00     0.000 HD 
BRANCH  19  21
HETATM   21  C   UNL     1     -11.450  13.580  68.199  1.00  0.00    -0.303 A  
HETATM   22  C   UNL     1     -11.881  12.756  65.951  1.00  0.00    -0.490 A  
HETATM   23  C   UNL     1     -11.854  12.556  67.336  1.00  0.00    -0.381 A  
HETATM   24  C   UNL     1     -11.470  13.974  65.406  1.00  0.00    -0.315 A  
HETATM   25  C   UNL     1     -11.079  15.017  66.245  1.00  0.00    -0.334 A  
HETATM   26  C   UNL     1     -11.126  14.822  67.633  1.00  0.00    -0.311 A  
HETATM   27  C   UNL     1     -10.533  16.305  65.705  1.00  0.00    -0.386 C  
ENDBRANCH  19  21
ENDBRANCH  14  19
ENDBRANCH  10  13
ENDBRANCH   8  10
ENDBRANCH   6   8
ENDBRANCH   4   6
ENDBRANCH   2   4
TORSDOF 7
ENDMDL
MODEL       37
REMARK 921   NORMALIZED FREE ENERGY PREDICTED BY IDOCK:   -5.85 KCAL/MOL
REMARK 922        TOTAL FREE ENERGY PREDICTED BY IDOCK:  -10.09 KCAL/MOL
REMARK 923 INTER-LIGAND FREE ENERGY PREDICTED BY IDOCK:   -8.64 KCAL/MOL
REMARK 924 INTRA-LIGAND FREE ENERGY PREDICTED BY IDOCK:   -1.45 KCAL/MOL
REMARK 927      BINDING AFFINITY PREDICTED BY RF-SCORE:    0.00 PKD
ROOT
HETATM    1  C   UNL     1     -11.042  10.672  67.533  1.00  0.00    -0.367 C  
HETATM    2  C   UNL     1     -10.380  11.097  66.223  1.00  0.00    -0.249 C  
HETATM    3  C   UNL     1      -9.850   9.883  65.470  1.00  0.00    -0.381 C  
ENDROOT
BRANCH   2   4
HETATM    4  N   UNL     1     -11.293  11.862  65.383  1.00  0.00    -0.308 N  
HETATM    5  H   UNL     1     -12.292  11.852  65.588  1.00  0.00     0.000 HD 
BRANCH   4   6
HETATM    6  C   UNL     1     -10.830  12.593  64.323  1.00  0.00    -0.379 C  
HETATM    7  O   UNL     1     -10.931  12.243  63.160  1.00  0.00    -0.377 OA 
BRANCH   6   8
HETATM    8  N   UNL     1     -10.150  13.740  64.701  1.00  0.00    -0.619 N  
HETATM    9  H   UNL     1      -9.181  13.839  64.399  1.00  0.00     0.000 HD 
BRANCH   8  10
HETATM   10  S   UNL     1     -10.808  14.973  65.617  1.00  0.00    -0.368 S  
HETATM   11  O   UNL     1     -10.768  16.206  64.863  1.00  0.00    -0.612 OA 
HETATM   12  O   UNL     1     -12.074  14.438  66.083  1.00  0.00    -0.399 OA 
BRANCH  10  13
HETATM   13  C   UNL     1      -9.783  15.157  67.033  1.00  0.00    -0.231 A  
HETATM   14  C   UNL     1     -10.314  15.428  68.301  1.00  0.00    -0.238 A  
HETATM   15  N   UNL     1      -7.512  15.242  67.889  1.00  0.00    -0.131 NA 
HETATM   16  C   UNL     1      -9.386  15.669  69.328  1.00  0.00    -0.267 A  
HETATM   17  C   UNL     1      -8.026  15.568  69.085  1.00  0.00    -0.222 A  
HETATM   18  C   UNL     1      -8.405  15.056  66.889  1.00  0.00    -0.212 A  
BRANCH  14  19
HETATM   19  N   UNL     1     -11.697  15.347  68.594  1.00  0.00    -0.426 NA 
HETATM   20  H   UNL     1     -12.317  15.782  67.912  1.00  0.00     0.000 HD 
BRANCH  19  21
HETATM   21  C   UNL     1     -12.338  14.746  69.703  1.00  0.00    -0.215 A  
HETATM   22  C   UNL     1     -13.342  14.969  71.908  1.00  0.00    -0.475 A  
HETATM   23  C   UNL     1     -12.865  15.544  70.724  1.00  0.00    -0.513 A  
HETATM   24  C   UNL     1     -13.267  13.588  72.102  1.00  0.00    -0.551 A  
HETATM   25  C   UNL     1     -12.762  12.769  71.093  1.00  0.00    -0.355 A  
HETATM   26  C   UNL     1     -12.355  13.355  69.886  1.00  0.00    -0.259 A  
HETATM   27  C   UNL     1     -12.567  11.296  71.294  1.00  0.00    -0.487 C  
ENDBRANCH  19  21
ENDBRANCH  14  19
ENDBRANCH  10  13
ENDBRANCH   8  10
ENDBRANCH   6   8
ENDBRANCH   4   6
ENDBRANCH   2   4
TORSDOF 7
ENDMDL
MODEL       38
REMARK 921   NORMALIZED FREE ENERGY PREDICTED BY IDOCK:   -5.82 KCAL/MOL
REMARK 922        TOTAL FREE ENERGY PREDICTED BY IDOCK:  -10.05 KCAL/MOL
REMARK 923 INTER-LIGAND FREE ENERGY PREDICTED BY IDOCK:   -8.41 KCAL/MOL
REMARK 924 INTRA-LIGAND FREE ENERGY PREDICTED BY IDOCK:   -1.64 KCAL/MOL
REMARK 927      BINDING AFFINITY PREDICTED BY RF-SCORE:    0.00 PKD
ROOT
HETATM    1  C   UNL     1      -9.279  11.040  62.655  1.00  0.00    -0.363 C  
HETATM    2  C   UNL     1     -10.481  11.419  63.520  1.00  0.00    -0.417 C  
HETATM    3  C   UNL     1     -10.445  10.669  64.847  1.00  0.00    -0.282 C  
ENDROOT
BRANCH   2   4
HETATM    4  N   UNL     1     -10.550  12.857  63.747  1.00  0.00    -0.498 N  
HETATM    5  H   UNL     1      -9.715  13.427  63.609  1.00  0.00     0.000 HD 
BRANCH   4   6
HETATM    6  C   UNL     1     -11.716  13.453  64.141  1.00  0.00    -0.419 C  
HETATM    7  O   UNL     1     -12.653  13.673  63.394  1.00  0.00    -0.799 OA 
BRANCH   6   8
HETATM    8  N   UNL     1     -11.703  13.867  65.464  1.00  0.00    -0.337 N  
HETATM    9  H   UNL     1     -12.562  13.765  66.003  1.00  0.00     0.000 HD 
BRANCH   8  10
HETATM   10  S   UNL     1     -10.374  14.524  66.237  1.00  0.00    -0.306 S  
HETATM   11  O   UNL     1      -9.314  13.543  66.285  1.00  0.00    -0.225 OA 
HETATM   12  O   UNL     1     -10.167  15.798  65.575  1.00  0.00    -0.344 OA 
BRANCH  10  13
HETATM   13  C   UNL     1     -10.871  14.882  67.884  1.00  0.00    -0.276 A  
HETATM   14  C   UNL     1     -11.537  13.940  68.678  1.00  0.00    -0.328 A  
HETATM   15  N   UNL     1     -11.006  16.559  69.636  1.00  0.00    -0.320 NA 
HETATM   16  C   UNL     1     -11.985  14.387  69.933  1.00  0.00    -0.391 A  
HETATM   17  C   UNL     1     -11.705  15.673  70.364  1.00  0.00    -0.357 A  
HETATM   18  C   UNL     1     -10.617  16.144  68.409  1.00  0.00    -0.286 A  
BRANCH  14  19
HETATM   19  N   UNL     1     -11.661  12.575  68.321  1.00  0.00    -0.307 NA 
HETATM   20  H   UNL     1     -12.065  12.397  67.402  1.00  0.00     0.000 HD 
BRANCH  19  21
HETATM   21  C   UNL     1     -11.301  11.425  69.062  1.00  0.00    -0.280 A  
HETATM   22  C   UNL     1     -11.785   9.867  70.866  1.00  0.00    -0.449 A  
HETATM   23  C   UNL     1     -12.189  10.891  70.001  1.00  0.00    -0.422 A  
HETATM   24  C   UNL     1     -10.475   9.386  70.828  1.00  0.00    -0.372 A  
HETATM   25  C   UNL     1      -9.576   9.889  69.888  1.00  0.00    -0.265 A  
HETATM   26  C   UNL     1     -10.017  10.864  68.983  1.00  0.00    -0.206 A  
HETATM   27  C   UNL     1      -8.133   9.478  69.876  1.00  0.00    -0.163 C  
ENDBRANCH  19  21
ENDBRANCH  14  19
ENDBRANCH  10  13
ENDBRANCH   8  10
ENDBRANCH   6   8
ENDBRANCH   4   6
ENDBRANCH   2   4
TORSDOF 7
ENDMDL
MODEL       39
REMARK 921   NORMALIZED FREE ENERGY PREDICTED BY IDOCK:   -5.82 KCAL/MOL
REMARK 922        TOTAL FREE ENERGY PREDICTED BY IDOCK:  -10.05 KCAL/MOL
REMARK 923 INTER-LIGAND FREE ENERGY PREDICTED BY IDOCK:   -8.40 KCAL/MOL
REMARK 924 INTRA-LIGAND FREE ENERGY PREDICTED BY IDOCK:   -1.65 KCAL/MOL
REMARK 927      BINDING AFFINITY PREDICTED BY RF-SCORE:    0.00 PKD
ROOT
HETATM    1  C   UNL     1     -11.772   6.532  71.196  1.00  0.00    -0.392 C  
HETATM    2  C   UNL     1     -11.755   7.912  71.853  1.00  0.00    -0.297 C  
HETATM    3  C   UNL     1     -10.332   8.308  72.233  1.00  0.00    -0.386 C  
ENDROOT
BRANCH   2   4
HETATM    4  N   UNL     1     -12.356   8.924  70.993  1.00  0.00    -0.454 N  
HETATM    5  H   UNL     1     -12.398   8.767  69.986  1.00  0.00     0.000 HD 
BRANCH   4   6
HETATM    6  C   UNL     1     -12.864  10.082  71.517  1.00  0.00    -0.432 C  
HETATM    7  O   UNL     1     -13.767  10.119  72.334  1.00  0.00    -0.252 OA 
BRANCH   6   8
HETATM    8  N   UNL     1     -12.310  11.226  70.963  1.00  0.00    -0.380 N  
HETATM    9  H   UNL     1     -12.337  12.082  71.516  1.00  0.00     0.000 HD 
BRANCH   8  10
HETATM   10  S   UNL     1     -11.602  11.298  69.451  1.00  0.00    -0.353 S  
HETATM   11  O   UNL     1     -10.224  10.871  69.546  1.00  0.00    -0.178 OA 
HETATM   12  O   UNL     1     -12.531  10.597  68.585  1.00  0.00    -0.252 OA 
BRANCH  10  13
HETATM   13  C   UNL     1     -11.625  12.985  68.960  1.00  0.00    -0.318 A  
HETATM   14  C   UNL     1     -11.695  13.363  67.612  1.00  0.00    -0.359 A  
HETATM   15  N   UNL     1     -11.492  15.303  69.675  1.00  0.00    -0.282 NA 
HETATM   16  C   UNL     1     -11.588  14.738  67.343  1.00  0.00    -0.377 A  
HETATM   17  C   UNL     1     -11.490  15.653  68.378  1.00  0.00    -0.369 A  
HETATM   18  C   UNL     1     -11.547  13.976  69.932  1.00  0.00    -0.254 A  
BRANCH  14  19
HETATM   19  N   UNL     1     -11.982  12.452  66.567  1.00  0.00    -0.605 NA 
HETATM   20  H   UNL     1     -12.952  12.141  66.510  1.00  0.00     0.000 HD 
BRANCH  19  21
HETATM   21  C   UNL     1     -11.112  11.913  65.591  1.00  0.00    -0.310 A  
HETATM   22  C   UNL     1     -10.468  11.705  63.254  1.00  0.00    -0.438 A  
HETATM   23  C   UNL     1     -11.193  12.348  64.264  1.00  0.00    -0.408 A  
HETATM   24  C   UNL     1      -9.677  10.593  63.552  1.00  0.00    -0.389 A  
HETATM   25  C   UNL     1      -9.565  10.151  64.870  1.00  0.00    -0.369 A  
HETATM   26  C   UNL     1     -10.242  10.850  65.878  1.00  0.00    -0.314 A  
HETATM   27  C   UNL     1      -8.812   8.903  65.224  1.00  0.00    -0.227 C  
ENDBRANCH  19  21
ENDBRANCH  14  19
ENDBRANCH  10  13
ENDBRANCH   8  10
ENDBRANCH   6   8
ENDBRANCH   4   6
ENDBRANCH   2   4
TORSDOF 7
ENDMDL
MODEL       40
REMARK 921   NORMALIZED FREE ENERGY PREDICTED BY IDOCK:   -5.82 KCAL/MOL
REMARK 922        TOTAL FREE ENERGY PREDICTED BY IDOCK:  -10.05 KCAL/MOL
REMARK 923 INTER-LIGAND FREE ENERGY PREDICTED BY IDOCK:   -8.49 KCAL/MOL
REMARK 924 INTRA-LIGAND FREE ENERGY PREDICTED BY IDOCK:   -1.56 KCAL/MOL
REMARK 927      BINDING AFFINITY PREDICTED BY RF-SCORE:    0.00 PKD
ROOT
HETATM    1  C   UNL     1     -12.036   8.079  72.156  1.00  0.00    -0.391 C  
HETATM    2  C   UNL     1     -11.328   9.262  71.495  1.00  0.00    -0.385 C  
HETATM    3  C   UNL     1      -9.846   8.961  71.303  1.00  0.00    -0.361 C  
ENDROOT
BRANCH   2   4
HETATM    4  N   UNL     1     -11.947   9.619  70.225  1.00  0.00    -0.463 N  
HETATM    5  H   UNL     1     -12.229   8.882  69.579  1.00  0.00     0.000 HD 
BRANCH   4   6
HETATM    6  C   UNL     1     -12.157  10.928  69.887  1.00  0.00    -0.354 C  
HETATM    7  O   UNL     1     -12.404  11.807  70.694  1.00  0.00    -0.358 OA 
BRANCH   6   8
HETATM    8  N   UNL     1     -12.149  11.151  68.519  1.00  0.00    -0.309 N  
HETATM    9  H   UNL     1     -13.042  11.338  68.063  1.00  0.00     0.000 HD 
BRANCH   8  10
HETATM   10  S   UNL     1     -10.777  11.136  67.565  1.00  0.00    -0.254 S  
HETATM   11  O   UNL     1      -9.746  11.930  68.194  1.00  0.00    -0.183 OA 
HETATM   12  O   UNL     1     -10.552   9.730  67.282  1.00  0.00    -0.258 OA 
BRANCH  10  13
HETATM   13  C   UNL     1     -11.209  11.897  66.041  1.00  0.00    -0.324 A  
HETATM   14  C   UNL     1     -12.026  13.034  65.987  1.00  0.00    -0.440 A  
HETATM   15  N   UNL     1     -11.064  11.800  63.619  1.00  0.00    -0.420 NA 
HETATM   16  C   UNL     1     -12.395  13.477  64.705  1.00  0.00    -0.435 A  
HETATM   17  C   UNL     1     -11.903  12.847  63.574  1.00  0.00    -0.536 A  
HETATM   18  C   UNL     1     -10.748  11.344  64.852  1.00  0.00    -0.286 A  
BRANCH  14  19
HETATM   19  N   UNL     1     -12.377  13.790  67.131  1.00  0.00    -0.442 NA 
HETATM   20  H   UNL     1     -13.287  13.574  67.538  1.00  0.00     0.000 HD 
BRANCH  19  21
HETATM   21  C   UNL     1     -11.641  14.804  67.789  1.00  0.00    -0.357 A  
HETATM   22  C   UNL     1     -11.218  16.108  69.798  1.00  0.00    -0.343 A  
HETATM   23  C   UNL     1     -11.798  15.003  69.164  1.00  0.00    -0.338 A  
HETATM   24  C   UNL     1     -10.501  17.050  69.058  1.00  0.00    -0.337 A  
HETATM   25  C   UNL     1     -10.315  16.865  67.688  1.00  0.00    -0.317 A  
HETATM   26  C   UNL     1     -10.843  15.717  67.083  1.00  0.00    -0.297 A  
HETATM   27  C   UNL     1      -9.642  17.899  66.836  1.00  0.00    -0.300 C  
ENDBRANCH  19  21
ENDBRANCH  14  19
ENDBRANCH  10  13
ENDBRANCH   8  10
ENDBRANCH   6   8
ENDBRANCH   4   6
ENDBRANCH   2   4
TORSDOF 7
ENDMDL
MODEL       41
REMARK 921   NORMALIZED FREE ENERGY PREDICTED BY IDOCK:   -5.82 KCAL/MOL
REMARK 922        TOTAL FREE ENERGY PREDICTED BY IDOCK:  -10.05 KCAL/MOL
REMARK 923 INTER-LIGAND FREE ENERGY PREDICTED BY IDOCK:   -8.02 KCAL/MOL
REMARK 924 INTRA-LIGAND FREE ENERGY PREDICTED BY IDOCK:   -2.03 KCAL/MOL
REMARK 927      BINDING AFFINITY PREDICTED BY RF-SCORE:    0.00 PKD
ROOT
HETATM    1  C   UNL     1     -11.490  16.587  68.366  1.00  0.00    -0.104 C  
HETATM    2  C   UNL     1     -11.298  15.521  69.445  1.00  0.00    -0.316 C  
HETATM    3  C   UNL     1     -11.408  16.137  70.835  1.00  0.00    -0.394 C  
ENDROOT
BRANCH   2   4
HETATM    4  N   UNL     1     -12.247  14.425  69.293  1.00  0.00    -0.504 N  
HETATM    5  H   UNL     1     -13.184  14.617  68.939  1.00  0.00     0.000 HD 
BRANCH   4   6
HETATM    6  C   UNL     1     -11.899  13.142  69.620  1.00  0.00    -0.324 C  
HETATM    7  O   UNL     1     -12.479  12.473  70.457  1.00  0.00    -0.277 OA 
BRANCH   6   8
HETATM    8  N   UNL     1     -10.760  12.698  68.967  1.00  0.00    -0.411 N  
HETATM    9  H   UNL     1      -9.856  12.934  69.376  1.00  0.00     0.000 HD 
BRANCH   8  10
HETATM   10  S   UNL     1     -10.765  11.803  67.556  1.00  0.00    -0.233 S  
HETATM   11  O   UNL     1      -9.437  11.287  67.309  1.00  0.00    -0.171 OA 
HETATM   12  O   UNL     1     -11.888  10.897  67.709  1.00  0.00    -0.579 OA 
BRANCH  10  13
HETATM   13  C   UNL     1     -11.179  12.909  66.254  1.00  0.00    -0.301 A  
HETATM   14  C   UNL     1     -10.323  13.947  65.865  1.00  0.00    -0.311 A  
HETATM   15  N   UNL     1     -12.858  13.591  64.637  1.00  0.00    -0.680 NA 
HETATM   16  C   UNL     1     -10.819  14.833  64.893  1.00  0.00    -0.433 A  
HETATM   17  C   UNL     1     -12.061  14.624  64.318  1.00  0.00    -0.415 A  
HETATM   18  C   UNL     1     -12.401  12.766  65.607  1.00  0.00    -0.382 A  
BRANCH  14  19
HETATM   19  N   UNL     1      -8.983  14.054  66.311  1.00  0.00    -0.484 NA 
HETATM   20  H   UNL     1      -8.387  13.251  66.109  1.00  0.00     0.000 HD 
BRANCH  19  21
HETATM   21  C   UNL     1      -8.356  15.120  66.998  1.00  0.00    -0.231 A  
HETATM   22  C   UNL     1      -7.519  16.057  69.081  1.00  0.00    -0.216 A  
HETATM   23  C   UNL     1      -7.976  14.964  68.335  1.00  0.00    -0.134 A  
HETATM   24  C   UNL     1      -7.469  17.330  68.511  1.00  0.00    -0.241 A  
HETATM   25  C   UNL     1      -7.827  17.509  67.175  1.00  0.00    -0.229 A  
HETATM   26  C   UNL     1      -8.214  16.392  66.422  1.00  0.00    -0.366 A  
HETATM   27  C   UNL     1      -7.889  18.871  66.549  1.00  0.00    -0.280 C  
ENDBRANCH  19  21
ENDBRANCH  14  19
ENDBRANCH  10  13
ENDBRANCH   8  10
ENDBRANCH   6   8
ENDBRANCH   4   6
ENDBRANCH   2   4
TORSDOF 7
ENDMDL
MODEL       42
REMARK 921   NORMALIZED FREE ENERGY PREDICTED BY IDOCK:   -5.81 KCAL/MOL
REMARK 922        TOTAL FREE ENERGY PREDICTED BY IDOCK:  -10.04 KCAL/MOL
REMARK 923 INTER-LIGAND FREE ENERGY PREDICTED BY IDOCK:   -8.58 KCAL/MOL
REMARK 924 INTRA-LIGAND FREE ENERGY PREDICTED BY IDOCK:   -1.46 KCAL/MOL
REMARK 927      BINDING AFFINITY PREDICTED BY RF-SCORE:    0.00 PKD
ROOT
HETATM    1  C   UNL     1     -12.761  10.912  71.478  1.00  0.00    -0.533 C  
HETATM    2  C   UNL     1     -13.144  12.372  71.234  1.00  0.00    -0.126 C  
HETATM    3  C   UNL     1     -13.648  13.017  72.520  1.00  0.00    -0.537 C  
ENDROOT
BRANCH   2   4
HETATM    4  N   UNL     1     -12.032  13.134  70.680  1.00  0.00    -0.533 N  
HETATM    5  H   UNL     1     -11.079  12.789  70.796  1.00  0.00     0.000 HD 
BRANCH   4   6
HETATM    6  C   UNL     1     -12.247  14.307  70.009  1.00  0.00    -0.359 C  
HETATM    7  O   UNL     1     -12.497  15.367  70.555  1.00  0.00    -0.372 OA 
BRANCH   6   8
HETATM    8  N   UNL     1     -12.241  14.160  68.630  1.00  0.00    -0.554 N  
HETATM    9  H   UNL     1     -12.766  14.838  68.078  1.00  0.00     0.000 HD 
BRANCH   8  10
HETATM   10  S   UNL     1     -11.432  12.949  67.810  1.00  0.00    -0.344 S  
HETATM   11  O   UNL     1     -10.023  13.016  68.124  1.00  0.00    -0.220 OA 
HETATM   12  O   UNL     1     -12.194  11.749  68.100  1.00  0.00    -0.507 OA 
BRANCH  10  13
HETATM   13  C   UNL     1     -11.633  13.275  66.095  1.00  0.00    -0.348 A  
HETATM   14  C   UNL     1     -10.969  14.333  65.460  1.00  0.00    -0.319 A  
HETATM   15  N   UNL     1     -12.779  12.668  64.041  1.00  0.00    -0.722 NA 
HETATM   16  C   UNL     1     -11.303  14.561  64.114  1.00  0.00     0.009 A  
HETATM   17  C   UNL     1     -12.191  13.725  63.457  1.00  0.00    -0.179 A  
HETATM   18  C   UNL     1     -12.493  12.478  65.350  1.00  0.00    -0.240 A  
BRANCH  14  19
HETATM   19  N   UNL     1      -9.926  15.070  66.070  1.00  0.00    -0.290 NA 
HETATM   20  H   UNL     1      -9.012  14.615  66.076  1.00  0.00     0.000 HD 
BRANCH  19  21
HETATM   21  C   UNL     1      -9.973  16.349  66.673  1.00  0.00    -0.272 A  
HETATM   22  C   UNL     1     -10.236  17.705  68.676  1.00  0.00    -0.377 A  
HETATM   23  C   UNL     1     -10.011  16.465  68.067  1.00  0.00    -0.242 A  
HETATM   24  C   UNL     1     -10.462  18.842  67.898  1.00  0.00    -0.459 A  
HETATM   25  C   UNL     1     -10.413  18.756  66.507  1.00  0.00    -0.484 A  
HETATM   26  C   UNL     1     -10.115  17.521  65.915  1.00  0.00    -0.197 A  
HETATM   27  C   UNL     1     -10.750  19.926  65.630  1.00  0.00    -0.377 C  
ENDBRANCH  19  21
ENDBRANCH  14  19
ENDBRANCH  10  13
ENDBRANCH   8  10
ENDBRANCH   6   8
ENDBRANCH   4   6
ENDBRANCH   2   4
TORSDOF 7
ENDMDL
MODEL       43
REMARK 921   NORMALIZED FREE ENERGY PREDICTED BY IDOCK:   -5.80 KCAL/MOL
REMARK 922        TOTAL FREE ENERGY PREDICTED BY IDOCK:  -10.02 KCAL/MOL
REMARK 923 INTER-LIGAND FREE ENERGY PREDICTED BY IDOCK:   -8.63 KCAL/MOL
REMARK 924 INTRA-LIGAND FREE ENERGY PREDICTED BY IDOCK:   -1.40 KCAL/MOL
REMARK 927      BINDING AFFINITY PREDICTED BY RF-SCORE:    0.00 PKD
ROOT
HETATM    1  C   UNL     1     -13.624   9.364  72.121  1.00  0.00    -0.528 C  
HETATM    2  C   UNL     1     -12.199   9.541  71.595  1.00  0.00    -0.398 C  
HETATM    3  C   UNL     1     -11.283   8.458  72.153  1.00  0.00    -0.431 C  
ENDROOT
BRANCH   2   4
HETATM    4  N   UNL     1     -12.161   9.545  70.139  1.00  0.00    -0.459 N  
HETATM    5  H   UNL     1     -13.005   9.320  69.613  1.00  0.00     0.000 HD 
BRANCH   4   6
HETATM    6  C   UNL     1     -11.008   9.846  69.466  1.00  0.00    -0.242 C  
HETATM    7  O   UNL     1     -10.340   9.025  68.862  1.00  0.00    -0.207 OA 
BRANCH   6   8
HETATM    8  N   UNL     1     -10.617  11.169  69.608  1.00  0.00    -0.454 N  
HETATM    9  H   UNL     1      -9.942  11.388  70.340  1.00  0.00     0.000 HD 
BRANCH   8  10
HETATM   10  S   UNL     1     -11.175  12.428  68.662  1.00  0.00    -0.293 S  
HETATM   11  O   UNL     1     -10.059  13.059  67.995  1.00  0.00    -0.222 OA 
HETATM   12  O   UNL     1     -12.258  11.845  67.891  1.00  0.00    -0.508 OA 
BRANCH  10  13
HETATM   13  C   UNL     1     -11.902  13.599  69.752  1.00  0.00    -0.327 A  
HETATM   14  C   UNL     1     -11.800  14.979  69.531  1.00  0.00    -0.330 A  
HETATM   15  N   UNL     1     -13.122  13.950  71.823  1.00  0.00    -0.356 NA 
HETATM   16  C   UNL     1     -12.322  15.812  70.536  1.00  0.00    -0.388 A  
HETATM   17  C   UNL     1     -12.960  15.270  71.639  1.00  0.00    -0.408 A  
HETATM   18  C   UNL     1     -12.578  13.147  70.879  1.00  0.00    -0.295 A  
BRANCH  14  19
HETATM   19  N   UNL     1     -11.319  15.535  68.321  1.00  0.00    -0.344 NA 
HETATM   20  H   UNL     1     -11.753  15.178  67.470  1.00  0.00     0.000 HD 
BRANCH  19  21
HETATM   21  C   UNL     1     -10.320  16.518  68.129  1.00  0.00    -0.296 A  
HETATM   22  C   UNL     1      -8.111  17.385  68.668  1.00  0.00    -0.264 A  
HETATM   23  C   UNL     1      -9.052  16.349  68.696  1.00  0.00    -0.233 A  
HETATM   24  C   UNL     1      -8.437  18.619  68.103  1.00  0.00    -0.336 A  
HETATM   25  C   UNL     1      -9.688  18.808  67.515  1.00  0.00    -0.343 A  
HETATM   26  C   UNL     1     -10.592  17.737  67.489  1.00  0.00    -0.365 A  
HETATM   27  C   UNL     1     -10.119  20.143  66.988  1.00  0.00    -0.599 C  
ENDBRANCH  19  21
ENDBRANCH  14  19
ENDBRANCH  10  13
ENDBRANCH   8  10
ENDBRANCH   6   8
ENDBRANCH   4   6
ENDBRANCH   2   4
TORSDOF 7
ENDMDL
MODEL       44
REMARK 921   NORMALIZED FREE ENERGY PREDICTED BY IDOCK:   -5.79 KCAL/MOL
REMARK 922        TOTAL FREE ENERGY PREDICTED BY IDOCK:  -10.01 KCAL/MOL
REMARK 923 INTER-LIGAND FREE ENERGY PREDICTED BY IDOCK:   -8.57 KCAL/MOL
REMARK 924 INTRA-LIGAND FREE ENERGY PREDICTED BY IDOCK:   -1.44 KCAL/MOL
REMARK 927      BINDING AFFINITY PREDICTED BY RF-SCORE:    0.00 PKD
ROOT
HETATM    1  C   UNL     1     -13.421  13.618  72.383  1.00  0.00    -0.685 C  
HETATM    2  C   UNL     1     -12.695  14.963  72.405  1.00  0.00    -0.344 C  
HETATM    3  C   UNL     1     -12.386  15.383  73.838  1.00  0.00    -0.764 C  
ENDROOT
BRANCH   2   4
HETATM    4  N   UNL     1     -11.476  14.929  71.607  1.00  0.00    -0.521 N  
HETATM    5  H   UNL     1     -10.570  14.887  72.075  1.00  0.00     0.000 HD 
BRANCH   4   6
HETATM    6  C   UNL     1     -11.528  14.954  70.240  1.00  0.00    -0.271 C  
HETATM    7  O   UNL     1     -12.271  15.678  69.601  1.00  0.00    -0.352 OA 
BRANCH   6   8
HETATM    8  N   UNL     1     -10.712  14.007  69.641  1.00  0.00    -0.452 N  
HETATM    9  H   UNL     1     -10.724  13.061  70.021  1.00  0.00     0.000 HD 
BRANCH   8  10
HETATM   10  S   UNL     1      -9.709  14.309  68.339  1.00  0.00    -0.226 S  
HETATM   11  O   UNL     1      -9.100  15.611  68.493  1.00  0.00    -0.184 OA 
HETATM   12  O   UNL     1      -8.883  13.120  68.238  1.00  0.00    -0.188 OA 
BRANCH  10  13
HETATM   13  C   UNL     1     -10.729  14.341  66.909  1.00  0.00    -0.290 A  
HETATM   14  C   UNL     1     -11.550  13.261  66.561  1.00  0.00    -0.350 A  
HETATM   15  N   UNL     1     -11.394  15.576  64.926  1.00  0.00    -0.368 NA 
HETATM   16  C   UNL     1     -12.227  13.361  65.334  1.00  0.00    -0.492 A  
HETATM   17  C   UNL     1     -12.125  14.509  64.565  1.00  0.00    -0.484 A  
HETATM   18  C   UNL     1     -10.705  15.459  66.084  1.00  0.00    -0.314 A  
BRANCH  14  19
HETATM   19  N   UNL     1     -11.805  12.171  67.429  1.00  0.00    -0.565 NA 
HETATM   20  H   UNL     1     -12.557  12.313  68.103  1.00  0.00     0.000 HD 
BRANCH  19  21
HETATM   21  C   UNL     1     -11.162  10.913  67.490  1.00  0.00    -0.293 A  
HETATM   22  C   UNL     1     -10.340   9.050  68.823  1.00  0.00    -0.236 A  
HETATM   23  C   UNL     1     -11.120  10.206  68.697  1.00  0.00    -0.254 A  
HETATM   24  C   UNL     1      -9.563   8.603  67.753  1.00  0.00    -0.178 A  
HETATM   25  C   UNL     1      -9.600   9.280  66.534  1.00  0.00    -0.285 A  
HETATM   26  C   UNL     1     -10.441  10.394  66.404  1.00  0.00    -0.246 A  
HETATM   27  C   UNL     1      -8.707   8.900  65.391  1.00  0.00    -0.224 C  
ENDBRANCH  19  21
ENDBRANCH  14  19
ENDBRANCH  10  13
ENDBRANCH   8  10
ENDBRANCH   6   8
ENDBRANCH   4   6
ENDBRANCH   2   4
TORSDOF 7
ENDMDL
MODEL       45
REMARK 921   NORMALIZED FREE ENERGY PREDICTED BY IDOCK:   -5.78 KCAL/MOL
REMARK 922        TOTAL FREE ENERGY PREDICTED BY IDOCK:  -10.00 KCAL/MOL
REMARK 923 INTER-LIGAND FREE ENERGY PREDICTED BY IDOCK:   -8.63 KCAL/MOL
REMARK 924 INTRA-LIGAND FREE ENERGY PREDICTED BY IDOCK:   -1.38 KCAL/MOL
REMARK 927      BINDING AFFINITY PREDICTED BY RF-SCORE:    0.00 PKD
ROOT
HETATM    1  C   UNL     1      -9.483   9.927  64.697  1.00  0.00    -0.343 C  
HETATM    2  C   UNL     1      -9.832  11.064  63.737  1.00  0.00    -0.330 C  
HETATM    3  C   UNL     1      -9.016  10.954  62.454  1.00  0.00    -0.353 C  
ENDROOT
BRANCH   2   4
HETATM    4  N   UNL     1     -11.258  11.095  63.435  1.00  0.00    -0.718 N  
HETATM    5  H   UNL     1     -11.692  10.293  62.978  1.00  0.00     0.000 HD 
BRANCH   4   6
HETATM    6  C   UNL     1     -12.022  12.183  63.758  1.00  0.00    -0.513 C  
HETATM    7  O   UNL     1     -13.150  12.371  63.335  1.00  0.00    -0.689 OA 
BRANCH   6   8
HETATM    8  N   UNL     1     -11.358  13.108  64.548  1.00  0.00    -0.334 N  
HETATM    9  H   UNL     1     -10.674  13.715  64.096  1.00  0.00     0.000 HD 
BRANCH   8  10
HETATM   10  S   UNL     1     -11.599  13.296  66.191  1.00  0.00    -0.366 S  
HETATM   11  O   UNL     1     -12.354  14.506  66.430  1.00  0.00    -0.350 OA 
HETATM   12  O   UNL     1     -12.114  12.012  66.628  1.00  0.00    -0.615 OA 
BRANCH  10  13
HETATM   13  C   UNL     1     -10.011  13.482  66.920  1.00  0.00    -0.256 A  
HETATM   14  C   UNL     1      -9.222  14.617  66.696  1.00  0.00    -0.267 A  
HETATM   15  N   UNL     1      -8.281  12.463  68.287  1.00  0.00    -0.168 NA 
HETATM   16  C   UNL     1      -7.926  14.594  67.239  1.00  0.00    -0.223 A  
HETATM   17  C   UNL     1      -7.505  13.523  68.010  1.00  0.00    -0.140 A  
HETATM   18  C   UNL     1      -9.511  12.464  67.724  1.00  0.00    -0.199 A  
BRANCH  14  19
HETATM   19  N   UNL     1      -9.711  15.789  66.070  1.00  0.00    -0.318 NA 
HETATM   20  H   UNL     1     -10.197  15.645  65.185  1.00  0.00     0.000 HD 
BRANCH  19  21
HETATM   21  C   UNL     1      -9.622  17.133  66.503  1.00  0.00    -0.279 A  
HETATM   22  C   UNL     1     -10.723  19.143  67.320  1.00  0.00    -0.585 A  
HETATM   23  C   UNL     1     -10.740  17.769  67.052  1.00  0.00    -0.192 A  
HETATM   24  C   UNL     1      -9.598  19.908  67.010  1.00  0.00    -0.515 A  
HETATM   25  C   UNL     1      -8.464  19.296  66.478  1.00  0.00    -0.336 A  
HETATM   26  C   UNL     1      -8.473  17.908  66.282  1.00  0.00    -0.218 A  
HETATM   27  C   UNL     1      -7.271  20.090  66.034  1.00  0.00    -0.320 C  
ENDBRANCH  19  21
ENDBRANCH  14  19
ENDBRANCH  10  13
ENDBRANCH   8  10
ENDBRANCH   6   8
ENDBRANCH   4   6
ENDBRANCH   2   4
TORSDOF 7
ENDMDL
MODEL       46
REMARK 921   NORMALIZED FREE ENERGY PREDICTED BY IDOCK:   -5.78 KCAL/MOL
REMARK 922        TOTAL FREE ENERGY PREDICTED BY IDOCK:  -10.00 KCAL/MOL
REMARK 923 INTER-LIGAND FREE ENERGY PREDICTED BY IDOCK:   -8.33 KCAL/MOL
REMARK 924 INTRA-LIGAND FREE ENERGY PREDICTED BY IDOCK:   -1.67 KCAL/MOL
REMARK 927      BINDING AFFINITY PREDICTED BY RF-SCORE:    0.00 PKD
ROOT
HETATM    1  C   UNL     1      -7.766  10.091  65.973  1.00  0.00    -0.110 C  
HETATM    2  C   UNL     1      -8.320  10.056  64.549  1.00  0.00    -0.167 C  
HETATM    3  C   UNL     1      -8.218   8.650  63.968  1.00  0.00    -0.149 C  
ENDROOT
BRANCH   2   4
HETATM    4  N   UNL     1      -9.696  10.532  64.496  1.00  0.00    -0.287 N  
HETATM    5  H   UNL     1     -10.333  10.317  65.264  1.00  0.00     0.000 HD 
BRANCH   4   6
HETATM    6  C   UNL     1     -10.147  11.264  63.431  1.00  0.00    -0.400 C  
HETATM    7  O   UNL     1      -9.420  11.750  62.583  1.00  0.00    -0.283 OA 
BRANCH   6   8
HETATM    8  N   UNL     1     -11.517  11.480  63.453  1.00  0.00    -0.803 N  
HETATM    9  H   UNL     1     -12.119  10.748  63.077  1.00  0.00     0.000 HD 
BRANCH   8  10
HETATM   10  S   UNL     1     -12.249  12.858  64.053  1.00  0.00    -0.428 S  
HETATM   11  O   UNL     1     -12.383  13.831  62.992  1.00  0.00    -0.661 OA 
HETATM   12  O   UNL     1     -13.422  12.366  64.751  1.00  0.00    -0.600 OA 
BRANCH  10  13
HETATM   13  C   UNL     1     -11.169  13.516  65.274  1.00  0.00    -0.292 A  
HETATM   14  C   UNL     1     -11.091  12.972  66.563  1.00  0.00    -0.288 A  
HETATM   15  N   UNL     1      -9.569  15.255  65.834  1.00  0.00    -0.335 NA 
HETATM   16  C   UNL     1     -10.279  13.659  67.481  1.00  0.00    -0.241 A  
HETATM   17  C   UNL     1      -9.552  14.769  67.086  1.00  0.00    -0.227 A  
HETATM   18  C   UNL     1     -10.388  14.622  64.963  1.00  0.00    -0.402 A  
BRANCH  14  19
HETATM   19  N   UNL     1     -11.681  11.735  66.918  1.00  0.00    -0.584 NA 
HETATM   20  H   UNL     1     -12.353  11.360  66.248  1.00  0.00     0.000 HD 
BRANCH  19  21
HETATM   21  C   UNL     1     -11.469  10.946  68.073  1.00  0.00    -0.281 A  
HETATM   22  C   UNL     1     -11.820  10.593  70.455  1.00  0.00    -0.441 A  
HETATM   23  C   UNL     1     -12.147  11.245  69.260  1.00  0.00    -0.372 A  
HETATM   24  C   UNL     1     -10.786   9.656  70.488  1.00  0.00    -0.374 A  
HETATM   25  C   UNL     1     -10.106   9.328  69.315  1.00  0.00    -0.201 A  
HETATM   26  C   UNL     1     -10.493   9.938  68.114  1.00  0.00    -0.256 A  
HETATM   27  C   UNL     1      -8.923   8.406  69.319  1.00  0.00    -0.150 C  
ENDBRANCH  19  21
ENDBRANCH  14  19
ENDBRANCH  10  13
ENDBRANCH   8  10
ENDBRANCH   6   8
ENDBRANCH   4   6
ENDBRANCH   2   4
TORSDOF 7
ENDMDL
MODEL       47
REMARK 921   NORMALIZED FREE ENERGY PREDICTED BY IDOCK:   -5.77 KCAL/MOL
REMARK 922        TOTAL FREE ENERGY PREDICTED BY IDOCK:   -9.98 KCAL/MOL
REMARK 923 INTER-LIGAND FREE ENERGY PREDICTED BY IDOCK:   -8.42 KCAL/MOL
REMARK 924 INTRA-LIGAND FREE ENERGY PREDICTED BY IDOCK:   -1.56 KCAL/MOL
REMARK 927      BINDING AFFINITY PREDICTED BY RF-SCORE:    0.00 PKD
ROOT
HETATM    1  C   UNL     1     -14.293  14.920  72.015  1.00  0.00    -0.651 C  
HETATM    2  C   UNL     1     -12.841  15.268  71.687  1.00  0.00    -0.395 C  
HETATM    3  C   UNL     1     -12.263  16.206  72.740  1.00  0.00    -0.628 C  
ENDROOT
BRANCH   2   4
HETATM    4  N   UNL     1     -12.017  14.073  71.559  1.00  0.00    -0.350 N  
HETATM    5  H   UNL     1     -11.402  13.801  72.326  1.00  0.00     0.000 HD 
BRANCH   4   6
HETATM    6  C   UNL     1     -12.055  13.309  70.424  1.00  0.00    -0.327 C  
HETATM    7  O   UNL     1     -12.091  12.091  70.425  1.00  0.00    -0.351 OA 
BRANCH   6   8
HETATM    8  N   UNL     1     -11.961  14.052  69.257  1.00  0.00    -0.337 N  
HETATM    9  H   UNL     1     -12.800  14.146  68.685  1.00  0.00     0.000 HD 
BRANCH   8  10
HETATM   10  S   UNL     1     -10.568  14.806  68.724  1.00  0.00    -0.258 S  
HETATM   11  O   UNL     1     -10.346  16.007  69.498  1.00  0.00    -0.241 OA 
HETATM   12  O   UNL     1      -9.573  13.750  68.705  1.00  0.00    -0.202 OA 
BRANCH  10  13
HETATM   13  C   UNL     1     -10.849  15.269  67.053  1.00  0.00    -0.321 A  
HETATM   14  C   UNL     1     -11.244  14.338  66.083  1.00  0.00    -0.331 A  
HETATM   15  N   UNL     1     -10.774  17.055  65.408  1.00  0.00    -0.548 NA 
HETATM   16  C   UNL     1     -11.321  14.809  64.761  1.00  0.00    -0.399 A  
HETATM   17  C   UNL     1     -11.084  16.143  64.473  1.00  0.00    -0.221 A  
HETATM   18  C   UNL     1     -10.652  16.591  66.673  1.00  0.00    -0.216 A  
BRANCH  14  19
HETATM   19  N   UNL     1     -11.668  13.024  66.398  1.00  0.00    -0.370 NA 
HETATM   20  H   UNL     1     -12.630  12.940  66.725  1.00  0.00     0.000 HD 
BRANCH  19  21
HETATM   21  C   UNL     1     -10.943  11.812  66.322  1.00  0.00    -0.300 A  
HETATM   22  C   UNL     1      -9.856  10.110  64.966  1.00  0.00    -0.392 A  
HETATM   23  C   UNL     1     -10.419  11.385  65.097  1.00  0.00    -0.351 A  
HETATM   24  C   UNL     1      -9.839   9.230  66.050  1.00  0.00    -0.363 A  
HETATM   25  C   UNL     1     -10.339   9.639  67.286  1.00  0.00    -0.310 A  
HETATM   26  C   UNL     1     -10.834  10.943  67.418  1.00  0.00    -0.333 A  
HETATM   27  C   UNL     1     -10.436   8.697  68.449  1.00  0.00    -0.220 C  
ENDBRANCH  19  21
ENDBRANCH  14  19
ENDBRANCH  10  13
ENDBRANCH   8  10
ENDBRANCH   6   8
ENDBRANCH   4   6
ENDBRANCH   2   4
TORSDOF 7
ENDMDL
MODEL       48
REMARK 921   NORMALIZED FREE ENERGY PREDICTED BY IDOCK:   -5.76 KCAL/MOL
REMARK 922        TOTAL FREE ENERGY PREDICTED BY IDOCK:   -9.97 KCAL/MOL
REMARK 923 INTER-LIGAND FREE ENERGY PREDICTED BY IDOCK:   -8.40 KCAL/MOL
REMARK 924 INTRA-LIGAND FREE ENERGY PREDICTED BY IDOCK:   -1.57 KCAL/MOL
REMARK 927      BINDING AFFINITY PREDICTED BY RF-SCORE:    0.00 PKD
ROOT
HETATM    1  C   UNL     1     -13.610  15.215  71.265  1.00  0.00    -0.559 C  
HETATM    2  C   UNL     1     -12.260  15.815  71.659  1.00  0.00    -0.456 C  
HETATM    3  C   UNL     1     -12.130  15.895  73.176  1.00  0.00    -0.611 C  
ENDROOT
BRANCH   2   4
HETATM    4  N   UNL     1     -11.150  15.062  71.089  1.00  0.00    -0.554 N  
HETATM    5  H   UNL     1     -10.822  14.217  71.557  1.00  0.00     0.000 HD 
BRANCH   4   6
HETATM    6  C   UNL     1     -10.541  15.471  69.933  1.00  0.00    -0.313 C  
HETATM    7  O   UNL     1     -10.418  16.639  69.607  1.00  0.00    -0.296 OA 
BRANCH   6   8
HETATM    8  N   UNL     1     -10.150  14.422  69.116  1.00  0.00    -0.398 N  
HETATM    9  H   UNL     1      -9.234  14.005  69.285  1.00  0.00     0.000 HD 
BRANCH   8  10
HETATM   10  S   UNL     1     -11.074  13.793  67.874  1.00  0.00    -0.275 S  
HETATM   11  O   UNL     1     -12.399  13.492  68.367  1.00  0.00    -0.218 OA 
HETATM   12  O   UNL     1     -10.892  14.730  66.781  1.00  0.00    -0.303 OA 
BRANCH  10  13
HETATM   13  C   UNL     1     -10.310  12.288  67.384  1.00  0.00    -0.206 A  
HETATM   14  C   UNL     1      -9.907  11.325  68.318  1.00  0.00    -0.197 A  
HETATM   15  N   UNL     1      -9.442  10.967  65.540  1.00  0.00    -0.208 NA 
HETATM   16  C   UNL     1      -9.203  10.219  67.809  1.00  0.00    -0.149 A  
HETATM   17  C   UNL     1      -8.997  10.082  66.447  1.00  0.00    -0.144 A  
HETATM   18  C   UNL     1     -10.077  12.055  66.034  1.00  0.00    -0.230 A  
BRANCH  14  19
HETATM   19  N   UNL     1     -10.278  11.367  69.684  1.00  0.00    -0.345 NA 
HETATM   20  H   UNL     1      -9.935  12.173  70.207  1.00  0.00     0.000 HD 
BRANCH  19  21
HETATM   21  C   UNL     1     -11.057  10.447  70.424  1.00  0.00    -0.296 A  
HETATM   22  C   UNL     1     -13.196   9.842  71.411  1.00  0.00    -0.487 A  
HETATM   23  C   UNL     1     -12.438  10.636  70.542  1.00  0.00    -0.445 A  
HETATM   24  C   UNL     1     -12.578   8.872  72.202  1.00  0.00    -0.467 A  
HETATM   25  C   UNL     1     -11.205   8.653  72.090  1.00  0.00    -0.438 A  
HETATM   26  C   UNL     1     -10.473   9.407  71.163  1.00  0.00    -0.392 A  
HETATM   27  C   UNL     1     -10.482   7.695  72.989  1.00  0.00    -0.414 C  
ENDBRANCH  19  21
ENDBRANCH  14  19
ENDBRANCH  10  13
ENDBRANCH   8  10
ENDBRANCH   6   8
ENDBRANCH   4   6
ENDBRANCH   2   4
TORSDOF 7
ENDMDL
MODEL       49
REMARK 921   NORMALIZED FREE ENERGY PREDICTED BY IDOCK:   -5.73 KCAL/MOL
REMARK 922        TOTAL FREE ENERGY PREDICTED BY IDOCK:   -9.92 KCAL/MOL
REMARK 923 INTER-LIGAND FREE ENERGY PREDICTED BY IDOCK:   -8.20 KCAL/MOL
REMARK 924 INTRA-LIGAND FREE ENERGY PREDICTED BY IDOCK:   -1.72 KCAL/MOL
REMARK 927      BINDING AFFINITY PREDICTED BY RF-SCORE:    0.00 PKD
ROOT
HETATM    1  C   UNL     1     -13.203  13.889  72.470  1.00  0.00    -0.601 C  
HETATM    2  C   UNL     1     -12.573  14.846  71.459  1.00  0.00    -0.328 C  
HETATM    3  C   UNL     1     -11.932  16.033  72.170  1.00  0.00    -0.629 C  
ENDROOT
BRANCH   2   4
HETATM    4  N   UNL     1     -11.599  14.170  70.612  1.00  0.00    -0.507 N  
HETATM    5  H   UNL     1     -10.606  14.372  70.728  1.00  0.00     0.000 HD 
BRANCH   4   6
HETATM    6  C   UNL     1     -11.998  13.268  69.663  1.00  0.00    -0.314 C  
HETATM    7  O   UNL     1     -11.956  12.060  69.813  1.00  0.00    -0.308 OA 
BRANCH   6   8
HETATM    8  N   UNL     1     -12.377  13.859  68.467  1.00  0.00    -0.458 N  
HETATM    9  H   UNL     1     -13.114  14.563  68.497  1.00  0.00     0.000 HD 
BRANCH   8  10
HETATM   10  S   UNL     1     -11.708  13.497  66.979  1.00  0.00    -0.401 S  
HETATM   11  O   UNL     1     -12.209  12.219  66.525  1.00  0.00    -0.588 OA 
HETATM   12  O   UNL     1     -11.924  14.694  66.187  1.00  0.00    -0.338 OA 
BRANCH  10  13
HETATM   13  C   UNL     1      -9.973  13.356  67.222  1.00  0.00    -0.232 A  
HETATM   14  C   UNL     1      -9.203  14.426  67.696  1.00  0.00    -0.196 A  
HETATM   15  N   UNL     1      -8.007  11.948  66.998  1.00  0.00    -0.164 NA 
HETATM   16  C   UNL     1      -7.813  14.224  67.735  1.00  0.00    -0.173 A  
HETATM   17  C   UNL     1      -7.268  12.999  67.386  1.00  0.00    -0.116 A  
HETATM   18  C   UNL     1      -9.341  12.157  66.914  1.00  0.00    -0.203 A  
BRANCH  14  19
HETATM   19  N   UNL     1      -9.767  15.610  68.229  1.00  0.00    -0.200 NA 
HETATM   20  H   UNL     1     -10.515  15.472  68.910  1.00  0.00     0.000 HD 
BRANCH  19  21
HETATM   21  C   UNL     1      -9.439  16.957  67.950  1.00  0.00    -0.239 A  
HETATM   22  C   UNL     1      -8.409  19.045  68.655  1.00  0.00    -0.397 A  
HETATM   23  C   UNL     1      -8.602  17.668  68.816  1.00  0.00    -0.202 A  
HETATM   24  C   UNL     1      -9.079  19.739  67.645  1.00  0.00    -0.416 A  
HETATM   25  C   UNL     1      -9.907  19.050  66.758  1.00  0.00    -0.395 A  
HETATM   26  C   UNL     1     -10.032  17.660  66.890  1.00  0.00    -0.323 A  
HETATM   27  C   UNL     1     -10.726  19.764  65.725  1.00  0.00    -0.474 C  
ENDBRANCH  19  21
ENDBRANCH  14  19
ENDBRANCH  10  13
ENDBRANCH   8  10
ENDBRANCH   6   8
ENDBRANCH   4   6
ENDBRANCH   2   4
TORSDOF 7
ENDMDL
MODEL       50
REMARK 921   NORMALIZED FREE ENERGY PREDICTED BY IDOCK:   -5.68 KCAL/MOL
REMARK 922        TOTAL FREE ENERGY PREDICTED BY IDOCK:   -9.86 KCAL/MOL
REMARK 923 INTER-LIGAND FREE ENERGY PREDICTED BY IDOCK:   -8.78 KCAL/MOL
REMARK 924 INTRA-LIGAND FREE ENERGY PREDICTED BY IDOCK:   -1.08 KCAL/MOL
REMARK 927      BINDING AFFINITY PREDICTED BY RF-SCORE:    0.00 PKD
ROOT
HETATM    1  C   UNL     1      -9.454  20.138  67.688  1.00  0.00    -0.514 C  
HETATM    2  C   UNL     1     -10.523  19.191  67.142  1.00  0.00    -0.447 C  
HETATM    3  C   UNL     1     -10.873  19.549  65.703  1.00  0.00    -0.354 C  
ENDROOT
BRANCH   2   4
HETATM    4  N   UNL     1     -10.106  17.798  67.237  1.00  0.00    -0.324 N  
HETATM    5  H   UNL     1     -10.342  17.150  66.485  1.00  0.00     0.000 HD 
BRANCH   4   6
HETATM    6  C   UNL     1      -9.403  17.345  68.320  1.00  0.00    -0.278 C  
HETATM    7  O   UNL     1      -8.186  17.295  68.368  1.00  0.00    -0.241 OA 
BRANCH   6   8
HETATM    8  N   UNL     1     -10.211  16.862  69.338  1.00  0.00    -0.249 N  
HETATM    9  H   UNL     1     -10.299  17.426  70.183  1.00  0.00     0.000 HD 
BRANCH   8  10
HETATM   10  S   UNL     1     -11.051  15.419  69.275  1.00  0.00    -0.305 S  
HETATM   11  O   UNL     1     -12.086  15.508  68.270  1.00  0.00    -0.163 OA 
HETATM   12  O   UNL     1     -10.017  14.405  69.177  1.00  0.00    -0.180 OA 
BRANCH  10  13
HETATM   13  C   UNL     1     -11.818  15.209  70.842  1.00  0.00    -0.325 A  
HETATM   14  C   UNL     1     -12.570  14.068  71.152  1.00  0.00    -0.371 A  
HETATM   15  N   UNL     1     -12.293  16.196  73.010  1.00  0.00    -0.497 NA 
HETATM   16  C   UNL     1     -13.229  14.073  72.393  1.00  0.00    -0.585 A  
HETATM   17  C   UNL     1     -13.068  15.131  73.272  1.00  0.00    -0.505 A  
HETATM   18  C   UNL     1     -11.698  16.213  71.796  1.00  0.00    -0.488 A  
BRANCH  14  19
HETATM   19  N   UNL     1     -12.586  12.908  70.340  1.00  0.00    -0.141 NA 
HETATM   20  H   UNL     1     -12.849  13.057  69.366  1.00  0.00     0.000 HD 
BRANCH  19  21
HETATM   21  C   UNL     1     -12.288  11.571  70.692  1.00  0.00    -0.364 A  
HETATM   22  C   UNL     1     -10.949   9.569  70.347  1.00  0.00    -0.333 A  
HETATM   23  C   UNL     1     -11.163  10.939  70.152  1.00  0.00    -0.317 A  
HETATM   24  C   UNL     1     -11.877   8.803  71.055  1.00  0.00    -0.315 A  
HETATM   25  C   UNL     1     -12.998   9.413  71.618  1.00  0.00    -0.471 A  
HETATM   26  C   UNL     1     -13.160  10.798  71.474  1.00  0.00    -0.517 A  
HETATM   27  C   UNL     1     -14.072   8.618  72.298  1.00  0.00    -0.491 C  
ENDBRANCH  19  21
ENDBRANCH  14  19
ENDBRANCH  10  13
ENDBRANCH   8  10
ENDBRANCH   6   8
ENDBRANCH   4   6
ENDBRANCH   2   4
TORSDOF 7
ENDMDL
MODEL       51
REMARK 921   NORMALIZED FREE ENERGY PREDICTED BY IDOCK:   -5.67 KCAL/MOL
REMARK 922        TOTAL FREE ENERGY PREDICTED BY IDOCK:   -9.84 KCAL/MOL
REMARK 923 INTER-LIGAND FREE ENERGY PREDICTED BY IDOCK:   -8.29 KCAL/MOL
REMARK 924 INTRA-LIGAND FREE ENERGY PREDICTED BY IDOCK:   -1.55 KCAL/MOL
REMARK 927      BINDING AFFINITY PREDICTED BY RF-SCORE:    0.00 PKD
ROOT
HETATM    1  C   UNL     1     -11.699  16.179  72.391  1.00  0.00    -0.550 C  
HETATM    2  C   UNL     1     -11.772  15.077  71.333  1.00  0.00    -0.357 C  
HETATM    3  C   UNL     1     -13.165  15.014  70.718  1.00  0.00    -0.397 C  
ENDROOT
BRANCH   2   4
HETATM    4  N   UNL     1     -10.762  15.259  70.298  1.00  0.00    -0.418 N  
HETATM    5  H   UNL     1     -10.032  14.556  70.179  1.00  0.00     0.000 HD 
BRANCH   4   6
HETATM    6  C   UNL     1     -10.780  16.358  69.483  1.00  0.00    -0.325 C  
HETATM    7  O   UNL     1     -10.392  17.462  69.823  1.00  0.00    -0.065 OA 
BRANCH   6   8
HETATM    8  N   UNL     1     -11.366  16.119  68.249  1.00  0.00    -0.349 N  
HETATM    9  H   UNL     1     -12.383  16.057  68.211  1.00  0.00     0.000 HD 
BRANCH   8  10
HETATM   10  S   UNL     1     -10.520  15.926  66.821  1.00  0.00    -0.303 S  
HETATM   11  O   UNL     1     -10.534  17.169  66.083  1.00  0.00    -0.332 OA 
HETATM   12  O   UNL     1      -9.262  15.327  67.226  1.00  0.00    -0.191 OA 
BRANCH  10  13
HETATM   13  C   UNL     1     -11.380  14.715  65.881  1.00  0.00    -0.338 A  
HETATM   14  C   UNL     1     -11.839  13.522  66.455  1.00  0.00    -0.394 A  
HETATM   15  N   UNL     1     -12.180  14.050  63.686  1.00  0.00    -0.660 NA 
HETATM   16  C   UNL     1     -12.407  12.585  65.575  1.00  0.00    -0.364 A  
HETATM   17  C   UNL     1     -12.555  12.881  64.230  1.00  0.00    -0.286 A  
HETATM   18  C   UNL     1     -11.590  14.933  64.525  1.00  0.00    -0.352 A  
BRANCH  14  19
HETATM   19  N   UNL     1     -11.861  13.293  67.852  1.00  0.00    -0.352 NA 
HETATM   20  H   UNL     1     -12.390  13.971  68.400  1.00  0.00     0.000 HD 
BRANCH  19  21
HETATM   21  C   UNL     1     -11.251  12.254  68.593  1.00  0.00    -0.259 A  
HETATM   22  C   UNL     1      -9.550  10.521  68.751  1.00  0.00    -0.181 A  
HETATM   23  C   UNL     1     -10.070  11.663  68.130  1.00  0.00    -0.202 A  
HETATM   24  C   UNL     1     -10.223   9.932  69.823  1.00  0.00    -0.278 A  
HETATM   25  C   UNL     1     -11.392  10.512  70.315  1.00  0.00    -0.407 A  
HETATM   26  C   UNL     1     -11.860  11.695  69.727  1.00  0.00    -0.428 A  
HETATM   27  C   UNL     1     -12.203   9.861  71.395  1.00  0.00    -0.499 C  
ENDBRANCH  19  21
ENDBRANCH  14  19
ENDBRANCH  10  13
ENDBRANCH   8  10
ENDBRANCH   6   8
ENDBRANCH   4   6
ENDBRANCH   2   4
TORSDOF 7
ENDMDL
MODEL       52
REMARK 921   NORMALIZED FREE ENERGY PREDICTED BY IDOCK:   -5.66 KCAL/MOL
REMARK 922        TOTAL FREE ENERGY PREDICTED BY IDOCK:   -9.83 KCAL/MOL
REMARK 923 INTER-LIGAND FREE ENERGY PREDICTED BY IDOCK:   -8.22 KCAL/MOL
REMARK 924 INTRA-LIGAND FREE ENERGY PREDICTED BY IDOCK:   -1.61 KCAL/MOL
REMARK 927      BINDING AFFINITY PREDICTED BY RF-SCORE:    0.00 PKD
ROOT
HETATM    1  C   UNL     1     -12.561  12.092  63.454  1.00  0.00    -0.584 C  
HETATM    2  C   UNL     1     -11.733  13.009  64.356  1.00  0.00    -0.373 C  
HETATM    3  C   UNL     1     -12.344  14.404  64.408  1.00  0.00    -0.428 C  
ENDROOT
BRANCH   2   4
HETATM    4  N   UNL     1     -11.594  12.460  65.698  1.00  0.00    -0.375 N  
HETATM    5  H   UNL     1     -12.406  12.431  66.316  1.00  0.00     0.000 HD 
BRANCH   4   6
HETATM    6  C   UNL     1     -10.391  11.983  66.143  1.00  0.00    -0.224 C  
HETATM    7  O   UNL     1      -9.683  11.224  65.505  1.00  0.00    -0.211 OA 
BRANCH   6   8
HETATM    8  N   UNL     1     -10.088  12.378  67.437  1.00  0.00    -0.201 N  
HETATM    9  H   UNL     1     -10.232  11.701  68.186  1.00  0.00     0.000 HD 
BRANCH   8  10
HETATM   10  S   UNL     1      -9.502  13.886  67.855  1.00  0.00    -0.219 S  
HETATM   11  O   UNL     1      -8.231  13.738  68.526  1.00  0.00    -0.150 OA 
HETATM   12  O   UNL     1      -9.601  14.661  66.632  1.00  0.00    -0.252 OA 
BRANCH  10  13
HETATM   13  C   UNL     1     -10.650  14.580  68.990  1.00  0.00    -0.247 A  
HETATM   14  C   UNL     1     -10.430  15.824  69.597  1.00  0.00    -0.289 A  
HETATM   15  N   UNL     1     -12.720  14.267  70.220  1.00  0.00    -0.314 NA 
HETATM   16  C   UNL     1     -11.363  16.215  70.573  1.00  0.00    -0.392 A  
HETATM   17  C   UNL     1     -12.467  15.426  70.848  1.00  0.00    -0.418 A  
HETATM   18  C   UNL     1     -11.797  13.867  69.315  1.00  0.00    -0.348 A  
BRANCH  14  19
HETATM   19  N   UNL     1      -9.410  16.716  69.187  1.00  0.00    -0.223 NA 
HETATM   20  H   UNL     1      -8.463  16.459  69.466  1.00  0.00     0.000 HD 
BRANCH  19  21
HETATM   21  C   UNL     1      -9.522  17.916  68.445  1.00  0.00    -0.303 A  
HETATM   22  C   UNL     1     -10.653  19.208  66.722  1.00  0.00    -0.528 A  
HETATM   23  C   UNL     1     -10.614  18.114  67.594  1.00  0.00    -0.424 A  
HETATM   24  C   UNL     1      -9.582  20.102  66.664  1.00  0.00    -0.547 A  
HETATM   25  C   UNL     1      -8.489  19.936  67.513  1.00  0.00    -0.378 A  
HETATM   26  C   UNL     1      -8.499  18.876  68.430  1.00  0.00    -0.385 A  
HETATM   27  C   UNL     1      -7.273  20.809  67.416  1.00  0.00    -0.406 C  
ENDBRANCH  19  21
ENDBRANCH  14  19
ENDBRANCH  10  13
ENDBRANCH   8  10
ENDBRANCH   6   8
ENDBRANCH   4   6
ENDBRANCH   2   4
TORSDOF 7
ENDMDL
MODEL       53
REMARK 921   NORMALIZED FREE ENERGY PREDICTED BY IDOCK:   -5.65 KCAL/MOL
REMARK 922        TOTAL FREE ENERGY PREDICTED BY IDOCK:   -9.82 KCAL/MOL
REMARK 923 INTER-LIGAND FREE ENERGY PREDICTED BY IDOCK:   -8.69 KCAL/MOL
REMARK 924 INTRA-LIGAND FREE ENERGY PREDICTED BY IDOCK:   -1.13 KCAL/MOL
REMARK 927      BINDING AFFINITY PREDICTED BY RF-SCORE:    0.00 PKD
ROOT
HETATM    1  C   UNL     1     -11.021  16.615  68.671  1.00  0.00    -0.328 C  
HETATM    2  C   UNL     1     -10.554  17.234  67.354  1.00  0.00    -0.303 C  
HETATM    3  C   UNL     1      -9.460  18.266  67.604  1.00  0.00    -0.275 C  
ENDROOT
BRANCH   2   4
HETATM    4  N   UNL     1     -10.095  16.218  66.415  1.00  0.00    -0.289 N  
HETATM    5  H   UNL     1      -9.401  15.533  66.715  1.00  0.00     0.000 HD 
BRANCH   4   6
HETATM    6  C   UNL     1     -10.581  16.169  65.137  1.00  0.00    -0.343 C  
HETATM    7  O   UNL     1     -11.062  17.126  64.556  1.00  0.00    -1.105 OA 
BRANCH   6   8
HETATM    8  N   UNL     1     -10.556  14.897  64.587  1.00  0.00    -0.585 N  
HETATM    9  H   UNL     1      -9.822  14.686  63.912  1.00  0.00     0.000 HD 
BRANCH   8  10
HETATM   10  S   UNL     1     -11.646  13.685  64.954  1.00  0.00    -0.362 S  
HETATM   11  O   UNL     1     -12.056  13.810  66.335  1.00  0.00    -0.406 OA 
HETATM   12  O   UNL     1     -12.628  13.750  63.888  1.00  0.00    -0.701 OA 
BRANCH  10  13
HETATM   13  C   UNL     1     -10.793  12.160  64.767  1.00  0.00    -0.307 A  
HETATM   14  C   UNL     1     -10.124  11.550  65.836  1.00  0.00    -0.231 A  
HETATM   15  N   UNL     1     -10.086  10.413  63.235  1.00  0.00    -0.068 NA 
HETATM   16  C   UNL     1      -9.383  10.396  65.530  1.00  0.00    -0.244 A  
HETATM   17  C   UNL     1      -9.390   9.873  64.248  1.00  0.00    -0.253 A  
HETATM   18  C   UNL     1     -10.760  11.551  63.518  1.00  0.00    -0.414 A  
BRANCH  14  19
HETATM   19  N   UNL     1     -10.265  11.973  67.180  1.00  0.00    -0.201 NA 
HETATM   20  H   UNL     1     -10.034  12.950  67.360  1.00  0.00     0.000 HD 
BRANCH  19  21
HETATM   21  C   UNL     1     -10.681  11.228  68.308  1.00  0.00    -0.194 A  
HETATM   22  C   UNL     1     -12.305  10.854  70.081  1.00  0.00    -0.399 A  
HETATM   23  C   UNL     1     -11.945  11.448  68.865  1.00  0.00    -0.371 A  
HETATM   24  C   UNL     1     -11.392  10.057  70.774  1.00  0.00    -0.439 A  
HETATM   25  C   UNL     1     -10.132   9.808  70.232  1.00  0.00    -0.323 A  
HETATM   26  C   UNL     1      -9.814  10.353  68.980  1.00  0.00    -0.222 A  
HETATM   27  C   UNL     1      -9.084   9.044  70.985  1.00  0.00    -0.322 C  
ENDBRANCH  19  21
ENDBRANCH  14  19
ENDBRANCH  10  13
ENDBRANCH   8  10
ENDBRANCH   6   8
ENDBRANCH   4   6
ENDBRANCH   2   4
TORSDOF 7
ENDMDL
MODEL       54
REMARK 921   NORMALIZED FREE ENERGY PREDICTED BY IDOCK:   -5.65 KCAL/MOL
REMARK 922        TOTAL FREE ENERGY PREDICTED BY IDOCK:   -9.82 KCAL/MOL
REMARK 923 INTER-LIGAND FREE ENERGY PREDICTED BY IDOCK:   -8.49 KCAL/MOL
REMARK 924 INTRA-LIGAND FREE ENERGY PREDICTED BY IDOCK:   -1.33 KCAL/MOL
REMARK 927      BINDING AFFINITY PREDICTED BY RF-SCORE:    0.00 PKD
ROOT
HETATM    1  C   UNL     1     -12.646  13.935  65.559  1.00  0.00    -0.560 C  
HETATM    2  C   UNL     1     -12.204  12.516  65.201  1.00  0.00    -0.448 C  
HETATM    3  C   UNL     1     -12.178  12.327  63.689  1.00  0.00    -0.665 C  
ENDROOT
BRANCH   2   4
HETATM    4  N   UNL     1     -10.906  12.194  65.780  1.00  0.00    -0.271 N  
HETATM    5  H   UNL     1     -10.268  12.949  66.032  1.00  0.00     0.000 HD 
BRANCH   4   6
HETATM    6  C   UNL     1     -10.531  10.895  65.990  1.00  0.00    -0.225 C  
HETATM    7  O   UNL     1      -9.918  10.225  65.178  1.00  0.00    -0.299 OA 
BRANCH   6   8
HETATM    8  N   UNL     1     -10.993  10.376  67.190  1.00  0.00    -0.241 N  
HETATM    9  H   UNL     1     -11.959  10.050  67.226  1.00  0.00     0.000 HD 
BRANCH   8  10
HETATM   10  S   UNL     1     -10.077  10.249  68.582  1.00  0.00    -0.184 S  
HETATM   11  O   UNL     1      -9.245   9.070  68.503  1.00  0.00    -0.136 OA 
HETATM   12  O   UNL     1      -9.478  11.561  68.739  1.00  0.00    -0.175 OA 
BRANCH  10  13
HETATM   13  C   UNL     1     -11.204  10.043  69.915  1.00  0.00    -0.275 A  
HETATM   14  C   UNL     1     -12.040  11.082  70.345  1.00  0.00    -0.373 A  
HETATM   15  N   UNL     1     -12.029   8.565  71.656  1.00  0.00    -0.297 NA 
HETATM   16  C   UNL     1     -12.809  10.830  71.493  1.00  0.00    -0.567 A  
HETATM   17  C   UNL     1     -12.776   9.587  72.104  1.00  0.00    -0.362 A  
HETATM   18  C   UNL     1     -11.252   8.824  70.579  1.00  0.00    -0.247 A  
BRANCH  14  19
HETATM   19  N   UNL     1     -12.218  12.284  69.617  1.00  0.00    -0.172 NA 
HETATM   20  H   UNL     1     -12.466  12.170  68.634  1.00  0.00     0.000 HD 
BRANCH  19  21
HETATM   21  C   UNL     1     -12.099  13.621  70.063  1.00  0.00    -0.348 A  
HETATM   22  C   UNL     1     -10.833  15.698  70.125  1.00  0.00    -0.356 A  
HETATM   23  C   UNL     1     -11.075  14.436  69.568  1.00  0.00    -0.267 A  
HETATM   24  C   UNL     1     -11.588  16.148  71.209  1.00  0.00    -0.470 A  
HETATM   25  C   UNL     1     -12.625  15.362  71.710  1.00  0.00    -0.455 A  
HETATM   26  C   UNL     1     -12.901  14.133  71.095  1.00  0.00    -0.431 A  
HETATM   27  C   UNL     1     -13.396  15.757  72.935  1.00  0.00    -0.661 C  
ENDBRANCH  19  21
ENDBRANCH  14  19
ENDBRANCH  10  13
ENDBRANCH   8  10
ENDBRANCH   6   8
ENDBRANCH   4   6
ENDBRANCH   2   4
TORSDOF 7
ENDMDL
MODEL       55
REMARK 921   NORMALIZED FREE ENERGY PREDICTED BY IDOCK:   -5.65 KCAL/MOL
REMARK 922        TOTAL FREE ENERGY PREDICTED BY IDOCK:   -9.82 KCAL/MOL
REMARK 923 INTER-LIGAND FREE ENERGY PREDICTED BY IDOCK:   -8.07 KCAL/MOL
REMARK 924 INTRA-LIGAND FREE ENERGY PREDICTED BY IDOCK:   -1.75 KCAL/MOL
REMARK 927      BINDING AFFINITY PREDICTED BY RF-SCORE:    0.00 PKD
ROOT
HETATM    1  C   UNL     1     -11.244   6.144  69.907  1.00  0.00    -0.484 C  
HETATM    2  C   UNL     1     -11.174   7.298  70.908  1.00  0.00    -0.272 C  
HETATM    3  C   UNL     1      -9.728   7.717  71.144  1.00  0.00    -0.172 C  
ENDROOT
BRANCH   2   4
HETATM    4  N   UNL     1     -11.973   8.436  70.471  1.00  0.00    -0.487 N  
HETATM    5  H   UNL     1     -11.976   8.699  69.486  1.00  0.00     0.000 HD 
BRANCH   4   6
HETATM    6  C   UNL     1     -12.718   9.157  71.365  1.00  0.00    -0.318 C  
HETATM    7  O   UNL     1     -13.560   8.669  72.098  1.00  0.00    -0.371 OA 
BRANCH   6   8
HETATM    8  N   UNL     1     -12.487  10.523  71.298  1.00  0.00    -0.389 N  
HETATM    9  H   UNL     1     -12.763  11.091  72.098  1.00  0.00     0.000 HD 
BRANCH   8  10
HETATM   10  S   UNL     1     -11.788  11.302  69.995  1.00  0.00    -0.391 S  
HETATM   11  O   UNL     1     -10.367  11.037  69.983  1.00  0.00     0.118 OA 
HETATM   12  O   UNL     1     -12.616  10.925  68.864  1.00  0.00    -0.338 OA 
BRANCH  10  13
HETATM   13  C   UNL     1     -12.028  13.025  70.246  1.00  0.00    -0.285 A  
HETATM   14  C   UNL     1     -11.337  13.985  69.495  1.00  0.00    -0.245 A  
HETATM   15  N   UNL     1     -13.128  14.744  71.562  1.00  0.00    -0.331 NA 
HETATM   16  C   UNL     1     -11.528  15.326  69.870  1.00  0.00    -0.325 A  
HETATM   17  C   UNL     1     -12.411  15.655  70.884  1.00  0.00    -0.445 A  
HETATM   18  C   UNL     1     -12.909  13.450  71.233  1.00  0.00    -0.323 A  
BRANCH  14  19
HETATM   19  N   UNL     1     -10.581  13.668  68.340  1.00  0.00    -0.245 NA 
HETATM   20  H   UNL     1      -9.575  13.582  68.484  1.00  0.00     0.000 HD 
BRANCH  19  21
HETATM   21  C   UNL     1     -11.027  13.454  67.015  1.00  0.00    -0.287 A  
HETATM   22  C   UNL     1     -12.730  13.775  65.307  1.00  0.00    -0.481 A  
HETATM   23  C   UNL     1     -12.173  14.106  66.548  1.00  0.00    -0.463 A  
HETATM   24  C   UNL     1     -12.169  12.760  64.530  1.00  0.00    -0.500 A  
HETATM   25  C   UNL     1     -11.017  12.105  64.965  1.00  0.00    -0.355 A  
HETATM   26  C   UNL     1     -10.431  12.499  66.177  1.00  0.00    -0.272 A  
HETATM   27  C   UNL     1     -10.437  10.942  64.217  1.00  0.00    -0.405 C  
ENDBRANCH  19  21
ENDBRANCH  14  19
ENDBRANCH  10  13
ENDBRANCH   8  10
ENDBRANCH   6   8
ENDBRANCH   4   6
ENDBRANCH   2   4
TORSDOF 7
ENDMDL
MODEL       56
REMARK 921   NORMALIZED FREE ENERGY PREDICTED BY IDOCK:   -5.64 KCAL/MOL
REMARK 922        TOTAL FREE ENERGY PREDICTED BY IDOCK:   -9.80 KCAL/MOL
REMARK 923 INTER-LIGAND FREE ENERGY PREDICTED BY IDOCK:   -8.21 KCAL/MOL
REMARK 924 INTRA-LIGAND FREE ENERGY PREDICTED BY IDOCK:   -1.59 KCAL/MOL
REMARK 927      BINDING AFFINITY PREDICTED BY RF-SCORE:    0.00 PKD
ROOT
HETATM    1  C   UNL     1     -12.384  12.208  63.563  1.00  0.00    -0.682 C  
HETATM    2  C   UNL     1     -12.147  13.552  64.252  1.00  0.00    -0.431 C  
HETATM    3  C   UNL     1     -12.744  13.549  65.655  1.00  0.00    -0.478 C  
ENDROOT
BRANCH   2   4
HETATM    4  N   UNL     1     -10.730  13.890  64.300  1.00  0.00    -0.585 N  
HETATM    5  H   UNL     1     -10.055  13.292  63.823  1.00  0.00     0.000 HD 
BRANCH   4   6
HETATM    6  C   UNL     1     -10.292  14.996  64.975  1.00  0.00    -0.357 C  
HETATM    7  O   UNL     1     -10.703  16.125  64.769  1.00  0.00    -0.648 OA 
BRANCH   6   8
HETATM    8  N   UNL     1      -9.264  14.727  65.865  1.00  0.00    -0.512 N  
HETATM    9  H   UNL     1      -8.595  14.000  65.612  1.00  0.00     0.000 HD 
BRANCH   8  10
HETATM   10  S   UNL     1      -9.045  15.510  67.325  1.00  0.00    -0.211 S  
HETATM   11  O   UNL     1      -7.781  15.111  67.900  1.00  0.00    -0.117 OA 
HETATM   12  O   UNL     1      -9.308  16.906  67.026  1.00  0.00    -0.225 OA 
BRANCH  10  13
HETATM   13  C   UNL     1     -10.333  14.968  68.390  1.00  0.00    -0.231 A  
HETATM   14  C   UNL     1     -10.534  13.612  68.678  1.00  0.00    -0.234 A  
HETATM   15  N   UNL     1     -12.257  15.609  69.727  1.00  0.00    -0.332 NA 
HETATM   16  C   UNL     1     -11.667  13.298  69.448  1.00  0.00    -0.383 A  
HETATM   17  C   UNL     1     -12.483  14.303  69.941  1.00  0.00    -0.264 A  
HETATM   18  C   UNL     1     -11.194  15.907  68.946  1.00  0.00    -0.343 A  
BRANCH  14  19
HETATM   19  N   UNL     1      -9.603  12.601  68.336  1.00  0.00    -0.315 NA 
HETATM   20  H   UNL     1      -8.638  12.780  68.616  1.00  0.00     0.000 HD 
BRANCH  19  21
HETATM   21  C   UNL     1      -9.823  11.379  67.659  1.00  0.00    -0.176 A  
HETATM   22  C   UNL     1     -10.043   8.957  67.740  1.00  0.00    -0.263 A  
HETATM   23  C   UNL     1     -10.001  10.198  68.388  1.00  0.00    -0.173 A  
HETATM   24  C   UNL     1      -9.873   8.877  66.357  1.00  0.00    -0.353 A  
HETATM   25  C   UNL     1      -9.711  10.041  65.606  1.00  0.00    -0.336 A  
HETATM   26  C   UNL     1      -9.743  11.280  66.262  1.00  0.00    -0.246 A  
HETATM   27  C   UNL     1      -9.424  10.000  64.135  1.00  0.00    -0.314 C  
ENDBRANCH  19  21
ENDBRANCH  14  19
ENDBRANCH  10  13
ENDBRANCH   8  10
ENDBRANCH   6   8
ENDBRANCH   4   6
ENDBRANCH   2   4
TORSDOF 7
ENDMDL
MODEL       57
REMARK 921   NORMALIZED FREE ENERGY PREDICTED BY IDOCK:   -5.62 KCAL/MOL
REMARK 922        TOTAL FREE ENERGY PREDICTED BY IDOCK:   -9.78 KCAL/MOL
REMARK 923 INTER-LIGAND FREE ENERGY PREDICTED BY IDOCK:   -8.34 KCAL/MOL
REMARK 924 INTRA-LIGAND FREE ENERGY PREDICTED BY IDOCK:   -1.43 KCAL/MOL
REMARK 927      BINDING AFFINITY PREDICTED BY RF-SCORE:    0.00 PKD
ROOT
HETATM    1  C   UNL     1     -10.287   9.972  69.804  1.00  0.00    -0.290 C  
HETATM    2  C   UNL     1     -10.174   9.893  68.281  1.00  0.00    -0.176 C  
HETATM    3  C   UNL     1     -10.439   8.473  67.796  1.00  0.00    -0.287 C  
ENDROOT
BRANCH   2   4
HETATM    4  N   UNL     1     -11.074  10.834  67.627  1.00  0.00    -0.305 N  
HETATM    5  H   UNL     1     -12.017  10.966  67.994  1.00  0.00     0.000 HD 
BRANCH   4   6
HETATM    6  C   UNL     1     -10.673  11.543  66.527  1.00  0.00    -0.273 C  
HETATM    7  O   UNL     1     -10.407  11.035  65.451  1.00  0.00    -0.261 OA 
BRANCH   6   8
HETATM    8  N   UNL     1     -10.510  12.897  66.774  1.00  0.00    -0.252 N  
HETATM    9  H   UNL     1      -9.825  13.173  67.477  1.00  0.00     0.000 HD 
BRANCH   8  10
HETATM   10  S   UNL     1     -11.360  14.110  65.999  1.00  0.00    -0.338 S  
HETATM   11  O   UNL     1     -11.026  14.106  64.592  1.00  0.00    -0.391 OA 
HETATM   12  O   UNL     1     -12.733  13.918  66.428  1.00  0.00    -0.355 OA 
BRANCH  10  13
HETATM   13  C   UNL     1     -10.819  15.632  66.692  1.00  0.00    -0.266 A  
HETATM   14  C   UNL     1     -10.713  15.818  68.076  1.00  0.00    -0.296 A  
HETATM   15  N   UNL     1     -10.146  17.925  66.261  1.00  0.00    -0.404 NA 
HETATM   16  C   UNL     1     -10.384  17.114  68.508  1.00  0.00    -0.364 A  
HETATM   17  C   UNL     1     -10.114  18.115  67.589  1.00  0.00    -0.359 A  
HETATM   18  C   UNL     1     -10.510  16.690  65.846  1.00  0.00    -0.313 A  
BRANCH  14  19
HETATM   19  N   UNL     1     -10.803  14.757  69.010  1.00  0.00    -0.237 NA 
HETATM   20  H   UNL     1     -10.002  14.125  69.034  1.00  0.00     0.000 HD 
BRANCH  19  21
HETATM   21  C   UNL     1     -11.848  14.451  69.912  1.00  0.00    -0.323 A  
HETATM   22  C   UNL     1     -13.432  15.194  71.603  1.00  0.00    -0.535 A  
HETATM   23  C   UNL     1     -12.521  15.480  70.579  1.00  0.00    -0.472 A  
HETATM   24  C   UNL     1     -13.657  13.874  71.999  1.00  0.00    -0.566 A  
HETATM   25  C   UNL     1     -13.011  12.829  71.339  1.00  0.00    -0.359 A  
HETATM   26  C   UNL     1     -12.157  13.129  70.269  1.00  0.00    -0.399 A  
HETATM   27  C   UNL     1     -13.141  11.406  71.795  1.00  0.00    -0.523 C  
ENDBRANCH  19  21
ENDBRANCH  14  19
ENDBRANCH  10  13
ENDBRANCH   8  10
ENDBRANCH   6   8
ENDBRANCH   4   6
ENDBRANCH   2   4
TORSDOF 7
ENDMDL
MODEL       58
REMARK 921   NORMALIZED FREE ENERGY PREDICTED BY IDOCK:   -5.62 KCAL/MOL
REMARK 922        TOTAL FREE ENERGY PREDICTED BY IDOCK:   -9.77 KCAL/MOL
REMARK 923 INTER-LIGAND FREE ENERGY PREDICTED BY IDOCK:   -7.53 KCAL/MOL
REMARK 924 INTRA-LIGAND FREE ENERGY PREDICTED BY IDOCK:   -2.24 KCAL/MOL
REMARK 927      BINDING AFFINITY PREDICTED BY RF-SCORE:    0.00 PKD
ROOT
HETATM    1  C   UNL     1     -11.529  16.091  64.197  1.00  0.00    -0.018 C  
HETATM    2  C   UNL     1     -11.041  14.904  65.028  1.00  0.00    -0.414 C  
HETATM    3  C   UNL     1      -9.646  15.174  65.581  1.00  0.00    -0.295 C  
ENDROOT
BRANCH   2   4
HETATM    4  N   UNL     1     -11.967  14.585  66.107  1.00  0.00    -0.350 N  
HETATM    5  H   UNL     1     -12.465  15.339  66.581  1.00  0.00     0.000 HD 
BRANCH   4   6
HETATM    6  C   UNL     1     -12.178  13.290  66.494  1.00  0.00    -0.327 C  
HETATM    7  O   UNL     1     -12.039  12.329  65.757  1.00  0.00    -0.587 OA 
BRANCH   6   8
HETATM    8  N   UNL     1     -12.653  13.174  67.791  1.00  0.00     0.304 N  
HETATM    9  H   UNL     1     -13.650  13.324  67.947  1.00  0.00     0.000 HD 
BRANCH   8  10
HETATM   10  S   UNL     1     -11.706  12.803  69.117  1.00  0.00    -0.317 S  
HETATM   11  O   UNL     1     -12.059  11.489  69.606  1.00  0.00    -0.309 OA 
HETATM   12  O   UNL     1     -10.351  13.085  68.681  1.00  0.00    -0.241 OA 
BRANCH  10  13
HETATM   13  C   UNL     1     -12.094  13.980  70.363  1.00  0.00    -0.356 A  
HETATM   14  C   UNL     1     -11.884  15.352  70.176  1.00  0.00    -0.335 A  
HETATM   15  N   UNL     1     -12.877  14.338  72.634  1.00  0.00    -0.392 NA 
HETATM   16  C   UNL     1     -12.124  16.177  71.288  1.00  0.00    -0.332 A  
HETATM   17  C   UNL     1     -12.608  15.643  72.470  1.00  0.00    -0.429 A  
HETATM   18  C   UNL     1     -12.601  13.537  71.579  1.00  0.00    -0.266 A  
BRANCH  14  19
HETATM   19  N   UNL     1     -11.571  15.923  68.919  1.00  0.00    -0.389 NA 
HETATM   20  H   UNL     1     -12.233  15.723  68.168  1.00  0.00     0.000 HD 
BRANCH  19  21
HETATM   21  C   UNL     1     -10.468  16.732  68.558  1.00  0.00    -0.335 A  
HETATM   22  C   UNL     1      -8.100  17.251  68.772  1.00  0.00    -0.242 A  
HETATM   23  C   UNL     1      -9.177  16.377  68.965  1.00  0.00    -0.247 A  
HETATM   24  C   UNL     1      -8.306  18.509  68.202  1.00  0.00    -0.316 A  
HETATM   25  C   UNL     1      -9.580  18.879  67.772  1.00  0.00    -0.357 A  
HETATM   26  C   UNL     1     -10.633  17.964  67.908  1.00  0.00    -0.387 A  
HETATM   27  C   UNL     1      -9.868  20.255  67.248  1.00  0.00    -0.593 C  
ENDBRANCH  19  21
ENDBRANCH  14  19
ENDBRANCH  10  13
ENDBRANCH   8  10
ENDBRANCH   6   8
ENDBRANCH   4   6
ENDBRANCH   2   4
TORSDOF 7
ENDMDL
MODEL       59
REMARK 921   NORMALIZED FREE ENERGY PREDICTED BY IDOCK:   -5.62 KCAL/MOL
REMARK 922        TOTAL FREE ENERGY PREDICTED BY IDOCK:   -9.77 KCAL/MOL
REMARK 923 INTER-LIGAND FREE ENERGY PREDICTED BY IDOCK:   -8.20 KCAL/MOL
REMARK 924 INTRA-LIGAND FREE ENERGY PREDICTED BY IDOCK:   -1.57 KCAL/MOL
REMARK 927      BINDING AFFINITY PREDICTED BY RF-SCORE:    0.00 PKD
ROOT
HETATM    1  C   UNL     1     -10.576   8.015  67.138  1.00  0.00    -0.367 C  
HETATM    2  C   UNL     1     -10.283   9.504  67.321  1.00  0.00    -0.234 C  
HETATM    3  C   UNL     1      -9.960  10.156  65.981  1.00  0.00    -0.322 C  
ENDROOT
BRANCH   2   4
HETATM    4  N   UNL     1     -11.389  10.194  67.972  1.00  0.00    -0.523 N  
HETATM    5  H   UNL     1     -12.335  10.081  67.608  1.00  0.00     0.000 HD 
BRANCH   4   6
HETATM    6  C   UNL     1     -11.177  10.990  69.065  1.00  0.00    -0.258 C  
HETATM    7  O   UNL     1     -10.777  10.577  70.139  1.00  0.00    -0.268 OA 
BRANCH   6   8
HETATM    8  N   UNL     1     -11.545  12.311  68.862  1.00  0.00    -0.293 N  
HETATM    9  H   UNL     1     -12.504  12.576  69.084  1.00  0.00     0.000 HD 
BRANCH   8  10
HETATM   10  S   UNL     1     -10.524  13.500  68.281  1.00  0.00    -0.257 S  
HETATM   11  O   UNL     1     -10.607  14.664  69.134  1.00  0.00    -0.239 OA 
HETATM   12  O   UNL     1      -9.256  12.821  68.086  1.00  0.00    -0.204 OA 
BRANCH  10  13
HETATM   13  C   UNL     1     -11.114  13.940  66.685  1.00  0.00    -0.306 A  
HETATM   14  C   UNL     1     -10.502  14.942  65.920  1.00  0.00    -0.315 A  
HETATM   15  N   UNL     1     -12.819  13.590  64.991  1.00  0.00    -0.727 NA 
HETATM   16  C   UNL     1     -11.138  15.282  64.714  1.00  0.00    -0.407 A  
HETATM   17  C   UNL     1     -12.267  14.598  64.296  1.00  0.00    -0.408 A  
HETATM   18  C   UNL     1     -12.235  13.296  66.175  1.00  0.00    -0.405 A  
BRANCH  14  19
HETATM   19  N   UNL     1      -9.249  15.511  66.251  1.00  0.00    -0.305 NA 
HETATM   20  H   UNL     1      -8.485  14.848  66.379  1.00  0.00     0.000 HD 
BRANCH  19  21
HETATM   21  C   UNL     1      -8.909  16.873  66.429  1.00  0.00    -0.287 A  
HETATM   22  C   UNL     1      -7.215  18.619  66.433  1.00  0.00    -0.268 A  
HETATM   23  C   UNL     1      -7.626  17.323  66.101  1.00  0.00    -0.318 A  
HETATM   24  C   UNL     1      -8.070  19.473  67.132  1.00  0.00    -0.301 A  
HETATM   25  C   UNL     1      -9.360  19.054  67.457  1.00  0.00    -0.341 A  
HETATM   26  C   UNL     1      -9.779  17.779  67.053  1.00  0.00    -0.290 A  
HETATM   27  C   UNL     1     -10.277  19.896  68.294  1.00  0.00    -0.562 C  
ENDBRANCH  19  21
ENDBRANCH  14  19
ENDBRANCH  10  13
ENDBRANCH   8  10
ENDBRANCH   6   8
ENDBRANCH   4   6
ENDBRANCH   2   4
TORSDOF 7
ENDMDL
MODEL       60
REMARK 921   NORMALIZED FREE ENERGY PREDICTED BY IDOCK:   -5.59 KCAL/MOL
REMARK 922        TOTAL FREE ENERGY PREDICTED BY IDOCK:   -9.73 KCAL/MOL
REMARK 923 INTER-LIGAND FREE ENERGY PREDICTED BY IDOCK:   -8.24 KCAL/MOL
REMARK 924 INTRA-LIGAND FREE ENERGY PREDICTED BY IDOCK:   -1.49 KCAL/MOL
REMARK 927      BINDING AFFINITY PREDICTED BY RF-SCORE:    0.00 PKD
ROOT
HETATM    1  C   UNL     1      -7.854  18.069  66.985  1.00  0.00    -0.236 C  
HETATM    2  C   UNL     1      -9.022  18.246  67.955  1.00  0.00    -0.290 C  
HETATM    3  C   UNL     1      -9.199  19.716  68.319  1.00  0.00    -0.412 C  
ENDROOT
BRANCH   2   4
HETATM    4  N   UNL     1     -10.260  17.700  67.412  1.00  0.00    -0.332 N  
HETATM    5  H   UNL     1     -10.954  17.303  68.045  1.00  0.00     0.000 HD 
BRANCH   4   6
HETATM    6  C   UNL     1     -10.503  17.712  66.066  1.00  0.00    -0.278 C  
HETATM    7  O   UNL     1     -10.785  18.716  65.435  1.00  0.00    -0.572 OA 
BRANCH   6   8
HETATM    8  N   UNL     1     -10.486  16.450  65.492  1.00  0.00    -0.362 N  
HETATM    9  H   UNL     1     -10.474  16.392  64.474  1.00  0.00     0.000 HD 
BRANCH   8  10
HETATM   10  S   UNL     1     -10.483  15.019  66.354  1.00  0.00    -0.304 S  
HETATM   11  O   UNL     1      -9.127  14.685  66.726  1.00  0.00    -0.241 OA 
HETATM   12  O   UNL     1     -11.499  15.210  67.372  1.00  0.00    -0.332 OA 
BRANCH  10  13
HETATM   13  C   UNL     1     -11.082  13.772  65.269  1.00  0.00    -0.313 A  
HETATM   14  C   UNL     1     -10.667  12.438  65.375  1.00  0.00    -0.282 A  
HETATM   15  N   UNL     1     -12.454  13.265  63.330  1.00  0.00    -0.744 NA 
HETATM   16  C   UNL     1     -11.126  11.561  64.377  1.00  0.00    -0.359 A  
HETATM   17  C   UNL     1     -11.998  12.004  63.396  1.00  0.00    -0.471 A  
HETATM   18  C   UNL     1     -11.974  14.120  64.262  1.00  0.00    -0.435 A  
BRANCH  14  19
HETATM   19  N   UNL     1      -9.931  11.941  66.478  1.00  0.00    -0.199 NA 
HETATM   20  H   UNL     1      -8.919  12.056  66.418  1.00  0.00     0.000 HD 
BRANCH  19  21
HETATM   21  C   UNL     1     -10.404  11.306  67.650  1.00  0.00    -0.184 A  
HETATM   22  C   UNL     1     -12.102  11.115  69.382  1.00  0.00    -0.396 A  
HETATM   23  C   UNL     1     -11.684  11.594  68.134  1.00  0.00    -0.365 A  
HETATM   24  C   UNL     1     -11.231  10.371  70.180  1.00  0.00    -0.393 A  
HETATM   25  C   UNL     1      -9.955  10.056  69.713  1.00  0.00    -0.276 A  
HETATM   26  C   UNL     1      -9.579  10.482  68.432  1.00  0.00    -0.164 A  
HETATM   27  C   UNL     1      -8.951   9.348  70.573  1.00  0.00    -0.303 C  
ENDBRANCH  19  21
ENDBRANCH  14  19
ENDBRANCH  10  13
ENDBRANCH   8  10
ENDBRANCH   6   8
ENDBRANCH   4   6
ENDBRANCH   2   4
TORSDOF 7
ENDMDL
MODEL       61
REMARK 921   NORMALIZED FREE ENERGY PREDICTED BY IDOCK:   -5.58 KCAL/MOL
REMARK 922        TOTAL FREE ENERGY PREDICTED BY IDOCK:   -9.72 KCAL/MOL
REMARK 923 INTER-LIGAND FREE ENERGY PREDICTED BY IDOCK:   -7.83 KCAL/MOL
REMARK 924 INTRA-LIGAND FREE ENERGY PREDICTED BY IDOCK:   -1.89 KCAL/MOL
REMARK 927      BINDING AFFINITY PREDICTED BY RF-SCORE:    0.00 PKD
ROOT
HETATM    1  C   UNL     1     -12.364  10.073  71.541  1.00  0.00    -0.513 C  
HETATM    2  C   UNL     1     -10.986   9.686  71.004  1.00  0.00    -0.361 C  
HETATM    3  C   UNL     1     -11.001   8.261  70.465  1.00  0.00    -0.253 C  
ENDROOT
BRANCH   2   4
HETATM    4  N   UNL     1     -10.527  10.616  69.980  1.00  0.00    -0.449 N  
HETATM    5  H   UNL     1     -11.150  11.357  69.659  1.00  0.00     0.000 HD 
BRANCH   4   6
HETATM    6  C   UNL     1      -9.273  10.510  69.444  1.00  0.00    -0.107 C  
HETATM    7  O   UNL     1      -8.323  10.020  70.028  1.00  0.00    -0.188 OA 
BRANCH   6   8
HETATM    8  N   UNL     1      -9.158  11.097  68.193  1.00  0.00    -0.153 N  
HETATM    9  H   UNL     1      -8.585  11.937  68.113  1.00  0.00     0.000 HD 
BRANCH   8  10
HETATM   10  S   UNL     1      -9.894  10.523  66.807  1.00  0.00    -0.200 S  
HETATM   11  O   UNL     1      -8.886  10.027  65.898  1.00  0.00    -0.137 OA 
HETATM   12  O   UNL     1     -10.941   9.644  67.293  1.00  0.00    -0.224 OA 
BRANCH  10  13
HETATM   13  C   UNL     1     -10.693  11.894  66.051  1.00  0.00    -0.285 A  
HETATM   14  C   UNL     1     -11.639  12.668  66.735  1.00  0.00    -0.374 A  
HETATM   15  N   UNL     1     -10.992  13.195  64.022  1.00  0.00    -0.385 NA 
HETATM   16  C   UNL     1     -12.292  13.662  65.985  1.00  0.00    -0.493 A  
HETATM   17  C   UNL     1     -11.947  13.887  64.663  1.00  0.00    -0.419 A  
HETATM   18  C   UNL     1     -10.398  12.207  64.730  1.00  0.00    -0.288 A  
BRANCH  14  19
HETATM   19  N   UNL     1     -11.860  12.567  68.130  1.00  0.00    -0.341 NA 
HETATM   20  H   UNL     1     -12.086  11.633  68.472  1.00  0.00     0.000 HD 
BRANCH  19  21
HETATM   21  C   UNL     1     -11.811  13.581  69.115  1.00  0.00    -0.340 A  
HETATM   22  C   UNL     1     -10.662  15.490  70.092  1.00  0.00    -0.345 A  
HETATM   23  C   UNL     1     -10.840  14.585  69.039  1.00  0.00    -0.265 A  
HETATM   24  C   UNL     1     -11.430  15.382  71.253  1.00  0.00    -0.444 A  
HETATM   25  C   UNL     1     -12.416  14.401  71.347  1.00  0.00    -0.433 A  
HETATM   26  C   UNL     1     -12.629  13.548  70.255  1.00  0.00    -0.221 A  
HETATM   27  C   UNL     1     -13.195  14.181  72.610  1.00  0.00    -0.612 C  
ENDBRANCH  19  21
ENDBRANCH  14  19
ENDBRANCH  10  13
ENDBRANCH   8  10
ENDBRANCH   6   8
ENDBRANCH   4   6
ENDBRANCH   2   4
TORSDOF 7
ENDMDL
MODEL       62
REMARK 921   NORMALIZED FREE ENERGY PREDICTED BY IDOCK:   -5.57 KCAL/MOL
REMARK 922        TOTAL FREE ENERGY PREDICTED BY IDOCK:   -9.71 KCAL/MOL
REMARK 923 INTER-LIGAND FREE ENERGY PREDICTED BY IDOCK:   -7.94 KCAL/MOL
REMARK 924 INTRA-LIGAND FREE ENERGY PREDICTED BY IDOCK:   -1.77 KCAL/MOL
REMARK 927      BINDING AFFINITY PREDICTED BY RF-SCORE:    0.00 PKD
ROOT
HETATM    1  C   UNL     1     -10.098   8.476  70.219  1.00  0.00    -0.199 C  
HETATM    2  C   UNL     1     -11.246   9.474  70.376  1.00  0.00    -0.270 C  
HETATM    3  C   UNL     1     -11.905   9.323  71.742  1.00  0.00    -0.454 C  
ENDROOT
BRANCH   2   4
HETATM    4  N   UNL     1     -10.797  10.845  70.172  1.00  0.00    -0.462 N  
HETATM    5  H   UNL     1      -9.814  11.079  70.314  1.00  0.00     0.000 HD 
BRANCH   4   6
HETATM    6  C   UNL     1     -11.675  11.824  69.794  1.00  0.00    -0.335 C  
HETATM    7  O   UNL     1     -12.264  12.549  70.577  1.00  0.00    -0.365 OA 
BRANCH   6   8
HETATM    8  N   UNL     1     -11.904  11.860  68.427  1.00  0.00    -0.319 N  
HETATM    9  H   UNL     1     -12.853  12.055  68.109  1.00  0.00     0.000 HD 
BRANCH   8  10
HETATM   10  S   UNL     1     -10.731  11.606  67.264  1.00  0.00    -0.252 S  
HETATM   11  O   UNL     1      -9.499  12.239  67.678  1.00  0.00    -0.179 OA 
HETATM   12  O   UNL     1     -10.775  10.177  67.015  1.00  0.00    -0.244 OA 
BRANCH  10  13
HETATM   13  C   UNL     1     -11.291  12.394  65.796  1.00  0.00    -0.352 A  
HETATM   14  C   UNL     1     -11.578  13.765  65.756  1.00  0.00    -0.331 A  
HETATM   15  N   UNL     1     -11.965  12.113  63.480  1.00  0.00    -0.510 NA 
HETATM   16  C   UNL     1     -12.129  14.252  64.558  1.00  0.00    -0.499 A  
HETATM   17  C   UNL     1     -12.303  13.412  63.470  1.00  0.00    -0.326 A  
HETATM   18  C   UNL     1     -11.479  11.634  64.648  1.00  0.00    -0.178 A  
BRANCH  14  19
HETATM   19  N   UNL     1     -11.229  14.660  66.796  1.00  0.00    -0.336 NA 
HETATM   20  H   UNL     1     -11.697  14.500  67.688  1.00  0.00     0.000 HD 
BRANCH  19  21
HETATM   21  C   UNL     1     -10.323  15.746  66.770  1.00  0.00    -0.293 A  
HETATM   22  C   UNL     1      -8.118  16.613  66.216  1.00  0.00    -0.361 A  
HETATM   23  C   UNL     1      -9.099  15.620  66.104  1.00  0.00    -0.378 A  
HETATM   24  C   UNL     1      -8.334  17.730  67.025  1.00  0.00    -0.242 A  
HETATM   25  C   UNL     1      -9.552  17.887  67.685  1.00  0.00    -0.270 A  
HETATM   26  C   UNL     1     -10.550  16.919  67.505  1.00  0.00    -0.307 A  
HETATM   27  C   UNL     1      -9.792  19.016  68.644  1.00  0.00    -0.474 C  
ENDBRANCH  19  21
ENDBRANCH  14  19
ENDBRANCH  10  13
ENDBRANCH   8  10
ENDBRANCH   6   8
ENDBRANCH   4   6
ENDBRANCH   2   4
TORSDOF 7
ENDMDL
MODEL       63
REMARK 921   NORMALIZED FREE ENERGY PREDICTED BY IDOCK:   -5.56 KCAL/MOL
REMARK 922        TOTAL FREE ENERGY PREDICTED BY IDOCK:   -9.69 KCAL/MOL
REMARK 923 INTER-LIGAND FREE ENERGY PREDICTED BY IDOCK:   -7.55 KCAL/MOL
REMARK 924 INTRA-LIGAND FREE ENERGY PREDICTED BY IDOCK:   -2.14 KCAL/MOL
REMARK 927      BINDING AFFINITY PREDICTED BY RF-SCORE:    0.00 PKD
ROOT
HETATM    1  C   UNL     1      -7.937   9.258  68.203  1.00  0.00    -0.099 C  
HETATM    2  C   UNL     1      -9.205   9.859  67.595  1.00  0.00    -0.133 C  
HETATM    3  C   UNL     1     -10.352   8.856  67.646  1.00  0.00    -0.313 C  
ENDROOT
BRANCH   2   4
HETATM    4  N   UNL     1      -9.581  11.102  68.256  1.00  0.00    -0.178 N  
HETATM    5  H   UNL     1      -9.952  11.073  69.206  1.00  0.00     0.000 HD 
BRANCH   4   6
HETATM    6  C   UNL     1      -9.445  12.307  67.621  1.00  0.00    -0.188 C  
HETATM    7  O   UNL     1      -8.797  12.468  66.603  1.00  0.00    -0.207 OA 
BRANCH   6   8
HETATM    8  N   UNL     1     -10.047  13.356  68.298  1.00  0.00    -0.243 N  
HETATM    9  H   UNL     1      -9.461  13.927  68.907  1.00  0.00     0.000 HD 
BRANCH   8  10
HETATM   10  S   UNL     1     -11.667  13.751  68.185  1.00  0.00    -0.373 S  
HETATM   11  O   UNL     1     -11.802  15.066  67.601  1.00  0.00    -0.328 OA 
HETATM   12  O   UNL     1     -12.274  12.598  67.547  1.00  0.00    -0.389 OA 
BRANCH  10  13
HETATM   13  C   UNL     1     -12.291  13.808  69.827  1.00  0.00    -0.255 A  
HETATM   14  C   UNL     1     -12.384  12.659  70.624  1.00  0.00    -0.290 A  
HETATM   15  N   UNL     1     -13.285  15.181  71.567  1.00  0.00    -0.391 NA 
HETATM   16  C   UNL     1     -13.008  12.816  71.874  1.00  0.00    -0.400 A  
HETATM   17  C   UNL     1     -13.434  14.064  72.297  1.00  0.00    -0.501 A  
HETATM   18  C   UNL     1     -12.728  15.022  70.344  1.00  0.00    -0.325 A  
BRANCH  14  19
HETATM   19  N   UNL     1     -11.784  11.425  70.277  1.00  0.00    -0.429 NA 
HETATM   20  H   UNL     1     -11.282  11.416  69.389  1.00  0.00     0.000 HD 
BRANCH  19  21
HETATM   21  C   UNL     1     -11.785  10.203  70.989  1.00  0.00    -0.382 A  
HETATM   22  C   UNL     1     -10.540   8.355  71.966  1.00  0.00    -0.387 A  
HETATM   23  C   UNL     1     -10.577   9.643  71.419  1.00  0.00    -0.185 A  
HETATM   24  C   UNL     1     -11.707   7.593  72.058  1.00  0.00    -0.340 A  
HETATM   25  C   UNL     1     -12.926   8.135  71.651  1.00  0.00    -0.352 A  
HETATM   26  C   UNL     1     -12.956   9.452  71.173  1.00  0.00    -0.307 A  
HETATM   27  C   UNL     1     -14.186   7.321  71.635  1.00  0.00    -0.558 C  
ENDBRANCH  19  21
ENDBRANCH  14  19
ENDBRANCH  10  13
ENDBRANCH   8  10
ENDBRANCH   6   8
ENDBRANCH   4   6
ENDBRANCH   2   4
TORSDOF 7
ENDMDL
MODEL       64
REMARK 921   NORMALIZED FREE ENERGY PREDICTED BY IDOCK:   -5.55 KCAL/MOL
REMARK 922        TOTAL FREE ENERGY PREDICTED BY IDOCK:   -9.67 KCAL/MOL
REMARK 923 INTER-LIGAND FREE ENERGY PREDICTED BY IDOCK:   -8.07 KCAL/MOL
REMARK 924 INTRA-LIGAND FREE ENERGY PREDICTED BY IDOCK:   -1.60 KCAL/MOL
REMARK 927      BINDING AFFINITY PREDICTED BY RF-SCORE:    0.00 PKD
ROOT
HETATM    1  C   UNL     1     -10.567   5.810  69.109  1.00  0.00    -0.365 C  
HETATM    2  C   UNL     1     -10.302   6.388  67.719  1.00  0.00    -0.193 C  
HETATM    3  C   UNL     1     -10.488   5.319  66.649  1.00  0.00    -0.345 C  
ENDROOT
BRANCH   2   4
HETATM    4  N   UNL     1     -11.150   7.541  67.445  1.00  0.00    -0.541 N  
HETATM    5  H   UNL     1     -12.159   7.464  67.574  1.00  0.00     0.000 HD 
BRANCH   4   6
HETATM    6  C   UNL     1     -10.613   8.724  67.016  1.00  0.00    -0.213 C  
HETATM    7  O   UNL     1      -9.743   8.808  66.167  1.00  0.00    -0.258 OA 
BRANCH   6   8
HETATM    8  N   UNL     1     -11.092   9.827  67.706  1.00  0.00    -0.486 N  
HETATM    9  H   UNL     1     -11.732  10.453  67.216  1.00  0.00     0.000 HD 
BRANCH   8  10
HETATM   10  S   UNL     1     -10.694  10.203  69.284  1.00  0.00    -0.245 S  
HETATM   11  O   UNL     1     -11.272   9.221  70.173  1.00  0.00    -0.248 OA 
HETATM   12  O   UNL     1      -9.258  10.410  69.253  1.00  0.00    -0.194 OA 
BRANCH  10  13
HETATM   13  C   UNL     1     -11.424  11.763  69.635  1.00  0.00    -0.270 A  
HETATM   14  C   UNL     1     -11.104  12.912  68.899  1.00  0.00    -0.255 A  
HETATM   15  N   UNL     1     -12.902  13.023  71.093  1.00  0.00    -0.295 NA 
HETATM   16  C   UNL     1     -11.665  14.119  69.352  1.00  0.00    -0.361 A  
HETATM   17  C   UNL     1     -12.538  14.130  70.426  1.00  0.00    -0.332 A  
HETATM   18  C   UNL     1     -12.326  11.869  70.687  1.00  0.00    -0.313 A  
BRANCH  14  19
HETATM   19  N   UNL     1     -10.365  12.877  67.692  1.00  0.00    -0.216 NA 
HETATM   20  H   UNL     1      -9.351  12.931  67.796  1.00  0.00     0.000 HD 
BRANCH  19  21
HETATM   21  C   UNL     1     -10.836  12.779  66.362  1.00  0.00    -0.271 A  
HETATM   22  C   UNL     1     -12.698  12.837  64.796  1.00  0.00    -0.469 A  
HETATM   23  C   UNL     1     -12.166  13.095  66.065  1.00  0.00    -0.478 A  
HETATM   24  C   UNL     1     -11.915  12.225  63.814  1.00  0.00    -0.609 A  
HETATM   25  C   UNL     1     -10.581  11.916  64.080  1.00  0.00    -0.422 A  
HETATM   26  C   UNL     1     -10.046  12.247  65.332  1.00  0.00    -0.292 A  
HETATM   27  C   UNL     1      -9.733  11.167  63.095  1.00  0.00    -0.401 C  
ENDBRANCH  19  21
ENDBRANCH  14  19
ENDBRANCH  10  13
ENDBRANCH   8  10
ENDBRANCH   6   8
ENDBRANCH   4   6
ENDBRANCH   2   4
TORSDOF 7
ENDMDL
MODEL       65
REMARK 921   NORMALIZED FREE ENERGY PREDICTED BY IDOCK:   -5.54 KCAL/MOL
REMARK 922        TOTAL FREE ENERGY PREDICTED BY IDOCK:   -9.66 KCAL/MOL
REMARK 923 INTER-LIGAND FREE ENERGY PREDICTED BY IDOCK:   -8.10 KCAL/MOL
REMARK 924 INTRA-LIGAND FREE ENERGY PREDICTED BY IDOCK:   -1.56 KCAL/MOL
REMARK 927      BINDING AFFINITY PREDICTED BY RF-SCORE:    0.00 PKD
ROOT
HETATM    1  C   UNL     1     -10.381  19.447  66.081  1.00  0.00    -0.595 C  
HETATM    2  C   UNL     1      -8.983  18.935  66.431  1.00  0.00    -0.310 C  
HETATM    3  C   UNL     1      -7.972  20.075  66.404  1.00  0.00    -0.325 C  
ENDROOT
BRANCH   2   4
HETATM    4  N   UNL     1      -8.964  18.263  67.724  1.00  0.00    -0.264 N  
HETATM    5  H   UNL     1      -8.306  17.500  67.884  1.00  0.00     0.000 HD 
BRANCH   4   6
HETATM    6  C   UNL     1      -9.816  18.641  68.726  1.00  0.00    -0.379 C  
HETATM    7  O   UNL     1      -9.822  19.749  69.231  1.00  0.00    -0.385 OA 
BRANCH   6   8
HETATM    8  N   UNL     1     -10.622  17.609  69.180  1.00  0.00    -0.387 N  
HETATM    9  H   UNL     1     -11.321  17.829  69.890  1.00  0.00     0.000 HD 
BRANCH   8  10
HETATM   10  S   UNL     1     -10.529  16.028  68.645  1.00  0.00    -0.266 S  
HETATM   11  O   UNL     1     -11.088  15.938  67.315  1.00  0.00    -0.281 OA 
HETATM   12  O   UNL     1      -9.151  15.646  68.890  1.00  0.00    -0.186 OA 
BRANCH  10  13
HETATM   13  C   UNL     1     -11.522  15.065  69.729  1.00  0.00    -0.295 A  
HETATM   14  C   UNL     1     -11.474  13.665  69.729  1.00  0.00    -0.187 A  
HETATM   15  N   UNL     1     -13.257  15.076  71.428  1.00  0.00    -0.386 NA 
HETATM   16  C   UNL     1     -12.400  13.009  70.558  1.00  0.00    -0.365 A  
HETATM   17  C   UNL     1     -13.253  13.734  71.372  1.00  0.00    -0.305 A  
HETATM   18  C   UNL     1     -12.399  15.707  70.595  1.00  0.00    -0.413 A  
BRANCH  14  19
HETATM   19  N   UNL     1     -10.481  12.924  69.042  1.00  0.00    -0.437 NA 
HETATM   20  H   UNL     1      -9.594  12.817  69.535  1.00  0.00     0.000 HD 
BRANCH  19  21
HETATM   21  C   UNL     1     -10.548  12.313  67.769  1.00  0.00    -0.219 A  
HETATM   22  C   UNL     1      -9.442  11.095  65.976  1.00  0.00    -0.234 A  
HETATM   23  C   UNL     1      -9.469  11.558  67.297  1.00  0.00    -0.176 A  
HETATM   24  C   UNL     1     -10.479  11.411  65.096  1.00  0.00    -0.351 A  
HETATM   25  C   UNL     1     -11.574  12.147  65.547  1.00  0.00    -0.398 A  
HETATM   26  C   UNL     1     -11.618  12.542  66.891  1.00  0.00    -0.436 A  
HETATM   27  C   UNL     1     -12.661  12.597  64.616  1.00  0.00    -0.517 C  
ENDBRANCH  19  21
ENDBRANCH  14  19
ENDBRANCH  10  13
ENDBRANCH   8  10
ENDBRANCH   6   8
ENDBRANCH   4   6
ENDBRANCH   2   4
TORSDOF 7
ENDMDL
MODEL       66
REMARK 921   NORMALIZED FREE ENERGY PREDICTED BY IDOCK:   -5.54 KCAL/MOL
REMARK 922        TOTAL FREE ENERGY PREDICTED BY IDOCK:   -9.66 KCAL/MOL
REMARK 923 INTER-LIGAND FREE ENERGY PREDICTED BY IDOCK:   -8.40 KCAL/MOL
REMARK 924 INTRA-LIGAND FREE ENERGY PREDICTED BY IDOCK:   -1.26 KCAL/MOL
REMARK 927      BINDING AFFINITY PREDICTED BY RF-SCORE:    0.00 PKD
ROOT
HETATM    1  C   UNL     1     -12.979  13.959  65.388  1.00  0.00    -0.368 C  
HETATM    2  C   UNL     1     -11.795  13.297  64.682  1.00  0.00    -0.378 C  
HETATM    3  C   UNL     1     -12.225  12.721  63.338  1.00  0.00    -0.594 C  
ENDROOT
BRANCH   2   4
HETATM    4  N   UNL     1     -10.685  14.225  64.510  1.00  0.00    -0.613 N  
HETATM    5  H   UNL     1     -10.433  14.539  63.573  1.00  0.00     0.000 HD 
BRANCH   4   6
HETATM    6  C   UNL     1      -9.975  14.682  65.588  1.00  0.00    -0.351 C  
HETATM    7  O   UNL     1      -9.971  15.843  65.955  1.00  0.00    -0.288 OA 
BRANCH   6   8
HETATM    8  N   UNL     1      -9.184  13.708  66.177  1.00  0.00    -0.490 N  
HETATM    9  H   UNL     1      -8.335  13.425  65.688  1.00  0.00     0.000 HD 
BRANCH   8  10
HETATM   10  S   UNL     1      -9.524  12.967  67.636  1.00  0.00    -0.209 S  
HETATM   11  O   UNL     1      -8.369  13.055  68.501  1.00  0.00    -0.139 OA 
HETATM   12  O   UNL     1     -10.793  13.541  68.044  1.00  0.00    -0.240 OA 
BRANCH  10  13
HETATM   13  C   UNL     1      -9.825  11.271  67.286  1.00  0.00    -0.182 A  
HETATM   14  C   UNL     1     -10.125  10.349  68.296  1.00  0.00    -0.153 A  
HETATM   15  N   UNL     1      -9.885   9.536  65.587  1.00  0.00    -0.306 NA 
HETATM   16  C   UNL     1     -10.229   9.004  67.903  1.00  0.00    -0.272 A  
HETATM   17  C   UNL     1     -10.105   8.648  66.570  1.00  0.00    -0.269 A  
HETATM   18  C   UNL     1      -9.738  10.824  65.973  1.00  0.00    -0.217 A  
BRANCH  14  19
HETATM   19  N   UNL     1     -10.438  10.729  69.624  1.00  0.00    -0.406 NA 
HETATM   20  H   UNL     1     -10.310  11.718  69.839  1.00  0.00     0.000 HD 
BRANCH  19  21
HETATM   21  C   UNL     1     -10.902   9.929  70.694  1.00  0.00    -0.330 A  
HETATM   22  C   UNL     1     -10.458   8.227  72.375  1.00  0.00    -0.404 A  
HETATM   23  C   UNL     1     -10.000   9.156  71.433  1.00  0.00    -0.373 A  
HETATM   24  C   UNL     1     -11.828   8.032  72.566  1.00  0.00    -0.419 A  
HETATM   25  C   UNL     1     -12.747   8.802  71.853  1.00  0.00    -0.427 A  
HETATM   26  C   UNL     1     -12.270   9.777  70.967  1.00  0.00    -0.436 A  
HETATM   27  C   UNL     1     -14.224   8.558  71.948  1.00  0.00    -0.536 C  
ENDBRANCH  19  21
ENDBRANCH  14  19
ENDBRANCH  10  13
ENDBRANCH   8  10
ENDBRANCH   6   8
ENDBRANCH   4   6
ENDBRANCH   2   4
TORSDOF 7
ENDMDL
MODEL       67
REMARK 921   NORMALIZED FREE ENERGY PREDICTED BY IDOCK:   -5.54 KCAL/MOL
REMARK 922        TOTAL FREE ENERGY PREDICTED BY IDOCK:   -9.65 KCAL/MOL
REMARK 923 INTER-LIGAND FREE ENERGY PREDICTED BY IDOCK:   -8.04 KCAL/MOL
REMARK 924 INTRA-LIGAND FREE ENERGY PREDICTED BY IDOCK:   -1.62 KCAL/MOL
REMARK 927      BINDING AFFINITY PREDICTED BY RF-SCORE:    0.00 PKD
ROOT
HETATM    1  C   UNL     1      -8.497   8.248  68.338  1.00  0.00    -0.129 C  
HETATM    2  C   UNL     1      -9.978   8.596  68.187  1.00  0.00    -0.178 C  
HETATM    3  C   UNL     1     -10.653   7.652  67.199  1.00  0.00    -0.410 C  
ENDROOT
BRANCH   2   4
HETATM    4  N   UNL     1     -10.669   8.574  69.470  1.00  0.00    -0.318 N  
HETATM    5  H   UNL     1     -11.416   7.897  69.627  1.00  0.00     0.000 HD 
BRANCH   4   6
HETATM    6  C   UNL     1     -10.331   9.449  70.467  1.00  0.00    -0.281 C  
HETATM    7  O   UNL     1      -9.901   9.106  71.554  1.00  0.00    -0.304 OA 
BRANCH   6   8
HETATM    8  N   UNL     1     -10.607  10.771  70.156  1.00  0.00    -0.438 N  
HETATM    9  H   UNL     1      -9.822  11.377  69.919  1.00  0.00     0.000 HD 
BRANCH   8  10
HETATM   10  S   UNL     1     -12.138  11.441  70.143  1.00  0.00    -0.353 S  
HETATM   11  O   UNL     1     -12.982  10.691  69.241  1.00  0.00     0.019 OA 
HETATM   12  O   UNL     1     -12.489  11.564  71.545  1.00  0.00    -0.270 OA 
BRANCH  10  13
HETATM   13  C   UNL     1     -11.972  13.074  69.516  1.00  0.00    -0.289 A  
HETATM   14  C   UNL     1     -11.877  13.334  68.142  1.00  0.00    -0.353 A  
HETATM   15  N   UNL     1     -11.721  15.430  70.050  1.00  0.00    -0.300 NA 
HETATM   16  C   UNL     1     -11.630  14.668  67.775  1.00  0.00    -0.382 A  
HETATM   17  C   UNL     1     -11.561  15.662  68.737  1.00  0.00    -0.384 A  
HETATM   18  C   UNL     1     -11.910  14.139  70.407  1.00  0.00    -0.297 A  
BRANCH  14  19
HETATM   19  N   UNL     1     -12.133  12.357  67.150  1.00  0.00    -0.512 NA 
HETATM   20  H   UNL     1     -12.833  11.656  67.395  1.00  0.00     0.000 HD 
BRANCH  19  21
HETATM   21  C   UNL     1     -11.554  12.217  65.867  1.00  0.00    -0.393 A  
HETATM   22  C   UNL     1     -11.699  12.556  63.462  1.00  0.00    -0.595 A  
HETATM   23  C   UNL     1     -12.152  12.827  64.759  1.00  0.00    -0.488 A  
HETATM   24  C   UNL     1     -10.663  11.645  63.253  1.00  0.00    -0.404 A  
HETATM   25  C   UNL     1     -10.038  11.037  64.342  1.00  0.00    -0.393 A  
HETATM   26  C   UNL     1     -10.458  11.373  65.636  1.00  0.00    -0.316 A  
HETATM   27  C   UNL     1      -8.993   9.977  64.163  1.00  0.00    -0.268 C  
ENDBRANCH  19  21
ENDBRANCH  14  19
ENDBRANCH  10  13
ENDBRANCH   8  10
ENDBRANCH   6   8
ENDBRANCH   4   6
ENDBRANCH   2   4
TORSDOF 7
ENDMDL
MODEL       68
REMARK 921   NORMALIZED FREE ENERGY PREDICTED BY IDOCK:   -5.54 KCAL/MOL
REMARK 922        TOTAL FREE ENERGY PREDICTED BY IDOCK:   -9.65 KCAL/MOL
REMARK 923 INTER-LIGAND FREE ENERGY PREDICTED BY IDOCK:   -8.52 KCAL/MOL
REMARK 924 INTRA-LIGAND FREE ENERGY PREDICTED BY IDOCK:   -1.13 KCAL/MOL
REMARK 927      BINDING AFFINITY PREDICTED BY RF-SCORE:    0.00 PKD
ROOT
HETATM    1  C   UNL     1     -11.811   8.865  71.919  1.00  0.00    -0.440 C  
HETATM    2  C   UNL     1     -12.265  10.006  71.009  1.00  0.00    -0.365 C  
HETATM    3  C   UNL     1     -13.065  11.036  71.798  1.00  0.00    -0.554 C  
ENDROOT
BRANCH   2   4
HETATM    4  N   UNL     1     -11.138  10.639  70.337  1.00  0.00    -0.440 N  
HETATM    5  H   UNL     1     -10.579  11.331  70.837  1.00  0.00     0.000 HD 
BRANCH   4   6
HETATM    6  C   UNL     1     -10.818  10.319  69.045  1.00  0.00    -0.230 C  
HETATM    7  O   UNL     1     -10.076   9.404  68.735  1.00  0.00    -0.180 OA 
BRANCH   6   8
HETATM    8  N   UNL     1     -11.352  11.196  68.113  1.00  0.00    -0.289 N  
HETATM    9  H   UNL     1     -11.877  10.799  67.334  1.00  0.00     0.000 HD 
BRANCH   8  10
HETATM   10  S   UNL     1     -11.195  12.858  68.179  1.00  0.00    -0.292 S  
HETATM   11  O   UNL     1     -12.215  13.403  69.046  1.00  0.00    -0.295 OA 
HETATM   12  O   UNL     1      -9.790  13.076  68.470  1.00  0.00    -0.218 OA 
BRANCH  10  13
HETATM   13  C   UNL     1     -11.474  13.459  66.551  1.00  0.00    -0.341 A  
HETATM   14  C   UNL     1     -10.926  14.669  66.105  1.00  0.00    -0.329 A  
HETATM   15  N   UNL     1     -12.619  13.117  64.437  1.00  0.00    -0.653 NA 
HETATM   16  C   UNL     1     -11.318  15.097  64.825  1.00  0.00    -0.399 A  
HETATM   17  C   UNL     1     -12.146  14.310  64.042  1.00  0.00    -0.316 A  
HETATM   18  C   UNL     1     -12.280  12.728  65.687  1.00  0.00    -0.444 A  
BRANCH  14  19
HETATM   19  N   UNL     1      -9.935  15.382  66.823  1.00  0.00    -0.243 NA 
HETATM   20  H   UNL     1      -9.140  14.828  67.140  1.00  0.00     0.000 HD 
BRANCH  19  21
HETATM   21  C   UNL     1      -9.896  16.755  67.161  1.00  0.00    -0.259 A  
HETATM   22  C   UNL     1      -9.875  18.485  68.872  1.00  0.00    -0.377 A  
HETATM   23  C   UNL     1      -9.739  17.143  68.496  1.00  0.00    -0.291 A  
HETATM   24  C   UNL     1     -10.204  19.454  67.922  1.00  0.00    -0.530 A  
HETATM   25  C   UNL     1     -10.349  19.095  66.582  1.00  0.00    -0.515 A  
HETATM   26  C   UNL     1     -10.139  17.760  66.212  1.00  0.00    -0.345 A  
HETATM   27  C   UNL     1     -10.801  20.080  65.545  1.00  0.00    -0.179 C  
ENDBRANCH  19  21
ENDBRANCH  14  19
ENDBRANCH  10  13
ENDBRANCH   8  10
ENDBRANCH   6   8
ENDBRANCH   4   6
ENDBRANCH   2   4
TORSDOF 7
ENDMDL
MODEL       69
REMARK 921   NORMALIZED FREE ENERGY PREDICTED BY IDOCK:   -5.53 KCAL/MOL
REMARK 922        TOTAL FREE ENERGY PREDICTED BY IDOCK:   -9.65 KCAL/MOL
REMARK 923 INTER-LIGAND FREE ENERGY PREDICTED BY IDOCK:   -7.88 KCAL/MOL
REMARK 924 INTRA-LIGAND FREE ENERGY PREDICTED BY IDOCK:   -1.77 KCAL/MOL
REMARK 927      BINDING AFFINITY PREDICTED BY RF-SCORE:    0.00 PKD
ROOT
HETATM    1  C   UNL     1     -10.458  16.287  65.475  1.00  0.00    -0.383 C  
HETATM    2  C   UNL     1      -9.286  16.168  66.449  1.00  0.00    -0.300 C  
HETATM    3  C   UNL     1      -8.113  17.023  65.984  1.00  0.00    -0.178 C  
ENDROOT
BRANCH   2   4
HETATM    4  N   UNL     1      -9.676  16.527  67.806  1.00  0.00    -0.233 N  
HETATM    5  H   UNL     1     -10.369  17.261  67.952  1.00  0.00     0.000 HD 
BRANCH   4   6
HETATM    6  C   UNL     1      -9.125  15.894  68.888  1.00  0.00    -0.233 C  
HETATM    7  O   UNL     1      -8.038  16.176  69.359  1.00  0.00    -0.226 OA 
BRANCH   6   8
HETATM    8  N   UNL     1      -9.888  14.833  69.351  1.00  0.00    -0.411 N  
HETATM    9  H   UNL     1      -9.417  13.942  69.504  1.00  0.00     0.000 HD 
BRANCH   8  10
HETATM   10  S   UNL     1     -11.525  14.915  69.677  1.00  0.00    -0.312 S  
HETATM   11  O   UNL     1     -11.763  15.911  70.697  1.00  0.00    -0.343 OA 
HETATM   12  O   UNL     1     -12.146  15.037  68.371  1.00  0.00    -0.242 OA 
BRANCH  10  13
HETATM   13  C   UNL     1     -11.994  13.346  70.317  1.00  0.00    -0.308 A  
HETATM   14  C   UNL     1     -11.585  12.149  69.715  1.00  0.00    -0.262 A  
HETATM   15  N   UNL     1     -13.292  12.147  71.983  1.00  0.00    -0.467 NA 
HETATM   16  C   UNL     1     -12.122  10.966  70.251  1.00  0.00    -0.440 A  
HETATM   17  C   UNL     1     -12.952  11.008  71.359  1.00  0.00    -0.414 A  
HETATM   18  C   UNL     1     -12.814  13.289  71.437  1.00  0.00    -0.322 A  
BRANCH  14  19
HETATM   19  N   UNL     1     -10.594  12.089  68.705  1.00  0.00    -0.286 NA 
HETATM   20  H   UNL     1      -9.653  12.356  68.997  1.00  0.00     0.000 HD 
BRANCH  19  21
HETATM   21  C   UNL     1     -10.726  11.710  67.349  1.00  0.00    -0.234 A  
HETATM   22  C   UNL     1      -9.981  10.340  65.481  1.00  0.00    -0.364 A  
HETATM   23  C   UNL     1     -10.002  10.621  66.852  1.00  0.00    -0.245 A  
HETATM   24  C   UNL     1     -10.657  11.167  64.581  1.00  0.00    -0.386 A  
HETATM   25  C   UNL     1     -11.401  12.249  65.053  1.00  0.00    -0.376 A  
HETATM   26  C   UNL     1     -11.468  12.473  66.435  1.00  0.00    -0.418 A  
HETATM   27  C   UNL     1     -12.058  13.222  64.120  1.00  0.00    -0.494 C  
ENDBRANCH  19  21
ENDBRANCH  14  19
ENDBRANCH  10  13
ENDBRANCH   8  10
ENDBRANCH   6   8
ENDBRANCH   4   6
ENDBRANCH   2   4
TORSDOF 7
ENDMDL
MODEL       70
REMARK 921   NORMALIZED FREE ENERGY PREDICTED BY IDOCK:   -5.51 KCAL/MOL
REMARK 922        TOTAL FREE ENERGY PREDICTED BY IDOCK:   -9.61 KCAL/MOL
REMARK 923 INTER-LIGAND FREE ENERGY PREDICTED BY IDOCK:   -8.14 KCAL/MOL
REMARK 924 INTRA-LIGAND FREE ENERGY PREDICTED BY IDOCK:   -1.48 KCAL/MOL
REMARK 927      BINDING AFFINITY PREDICTED BY RF-SCORE:    0.00 PKD
ROOT
HETATM    1  C   UNL     1     -14.182  14.938  72.029  1.00  0.00    -0.638 C  
HETATM    2  C   UNL     1     -12.806  15.324  71.485  1.00  0.00    -0.398 C  
HETATM    3  C   UNL     1     -12.026  16.128  72.519  1.00  0.00    -0.660 C  
ENDROOT
BRANCH   2   4
HETATM    4  N   UNL     1     -12.046  14.154  71.065  1.00  0.00    -0.395 N  
HETATM    5  H   UNL     1     -11.750  13.471  71.763  1.00  0.00     0.000 HD 
BRANCH   4   6
HETATM    6  C   UNL     1     -11.723  13.958  69.750  1.00  0.00    -0.309 C  
HETATM    7  O   UNL     1     -12.153  14.639  68.836  1.00  0.00    -0.286 OA 
BRANCH   6   8
HETATM    8  N   UNL     1     -10.922  12.846  69.540  1.00  0.00    -0.453 N  
HETATM    9  H   UNL     1      -9.936  13.004  69.331  1.00  0.00     0.000 HD 
BRANCH   8  10
HETATM   10  S   UNL     1     -11.459  11.266  69.605  1.00  0.00    -0.320 S  
HETATM   11  O   UNL     1     -11.963  10.984  70.931  1.00  0.00    -0.329 OA 
HETATM   12  O   UNL     1     -12.324  11.132  68.447  1.00  0.00    -0.556 OA 
BRANCH  10  13
HETATM   13  C   UNL     1     -10.061  10.241  69.315  1.00  0.00    -0.227 A  
HETATM   14  C   UNL     1      -9.240  10.410  68.193  1.00  0.00    -0.145 A  
HETATM   15  N   UNL     1      -8.766   8.327  70.063  1.00  0.00    -0.132 NA 
HETATM   16  C   UNL     1      -8.225   9.454  68.013  1.00  0.00    -0.114 A  
HETATM   17  C   UNL     1      -8.026   8.453  68.949  1.00  0.00    -0.115 A  
HETATM   18  C   UNL     1      -9.773   9.218  70.211  1.00  0.00    -0.232 A  
BRANCH  14  19
HETATM   19  N   UNL     1      -9.319  11.535  67.338  1.00  0.00    -0.165 NA 
HETATM   20  H   UNL     1      -8.762  12.342  67.621  1.00  0.00     0.000 HD 
BRANCH  19  21
HETATM   21  C   UNL     1     -10.063  11.698  66.146  1.00  0.00    -0.224 A  
HETATM   22  C   UNL     1     -10.527  11.000  63.862  1.00  0.00    -0.422 A  
HETATM   23  C   UNL     1      -9.940  10.765  65.111  1.00  0.00    -0.351 A  
HETATM   24  C   UNL     1     -11.218  12.189  63.619  1.00  0.00    -0.540 A  
HETATM   25  C   UNL     1     -11.369  13.127  64.640  1.00  0.00    -0.363 A  
HETATM   26  C   UNL     1     -10.836  12.844  65.904  1.00  0.00    -0.294 A  
HETATM   27  C   UNL     1     -12.012  14.460  64.398  1.00  0.00    -0.471 C  
ENDBRANCH  19  21
ENDBRANCH  14  19
ENDBRANCH  10  13
ENDBRANCH   8  10
ENDBRANCH   6   8
ENDBRANCH   4   6
ENDBRANCH   2   4
TORSDOF 7
ENDMDL
MODEL       71
REMARK 921   NORMALIZED FREE ENERGY PREDICTED BY IDOCK:   -5.50 KCAL/MOL
REMARK 922        TOTAL FREE ENERGY PREDICTED BY IDOCK:   -9.60 KCAL/MOL
REMARK 923 INTER-LIGAND FREE ENERGY PREDICTED BY IDOCK:   -8.41 KCAL/MOL
REMARK 924 INTRA-LIGAND FREE ENERGY PREDICTED BY IDOCK:   -1.18 KCAL/MOL
REMARK 927      BINDING AFFINITY PREDICTED BY RF-SCORE:    0.00 PKD
ROOT
HETATM    1  C   UNL     1     -10.352  20.184  66.518  1.00  0.00    -0.508 C  
HETATM    2  C   UNL     1      -9.856  18.893  67.170  1.00  0.00    -0.322 C  
HETATM    3  C   UNL     1      -9.692  19.080  68.674  1.00  0.00    -0.468 C  
ENDROOT
BRANCH   2   4
HETATM    4  N   UNL     1     -10.744  17.772  66.888  1.00  0.00    -0.231 N  
HETATM    5  H   UNL     1     -11.483  17.537  67.550  1.00  0.00     0.000 HD 
BRANCH   4   6
HETATM    6  C   UNL     1     -10.601  17.031  65.747  1.00  0.00    -0.211 C  
HETATM    7  O   UNL     1     -11.092  17.334  64.673  1.00  0.00    -1.052 OA 
BRANCH   6   8
HETATM    8  N   UNL     1      -9.911  15.845  65.944  1.00  0.00    -0.328 N  
HETATM    9  H   UNL     1      -9.045  15.706  65.423  1.00  0.00     0.000 HD 
BRANCH   8  10
HETATM   10  S   UNL     1     -10.400  14.626  66.977  1.00  0.00    -0.265 S  
HETATM   11  O   UNL     1      -9.357  14.370  67.946  1.00  0.00    -0.193 OA 
HETATM   12  O   UNL     1     -11.723  15.033  67.413  1.00  0.00    -0.338 OA 
BRANCH  10  13
HETATM   13  C   UNL     1     -10.610  13.183  65.997  1.00  0.00    -0.281 A  
HETATM   14  C   UNL     1     -11.139  11.999  66.527  1.00  0.00    -0.314 A  
HETATM   15  N   UNL     1     -10.271  12.143  63.828  1.00  0.00    -0.406 NA 
HETATM   16  C   UNL     1     -11.147  10.882  65.674  1.00  0.00     0.068 A  
HETATM   17  C   UNL     1     -10.715  10.994  64.363  1.00  0.00    -0.269 A  
HETATM   18  C   UNL     1     -10.219  13.206  64.664  1.00  0.00    -0.306 A  
BRANCH  14  19
HETATM   19  N   UNL     1     -11.753  11.927  67.801  1.00  0.00    -0.516 NA 
HETATM   20  H   UNL     1     -12.548  12.552  67.941  1.00  0.00     0.000 HD 
BRANCH  19  21
HETATM   21  C   UNL     1     -11.419  11.110  68.906  1.00  0.00    -0.295 A  
HETATM   22  C   UNL     1      -9.996   9.394  69.881  1.00  0.00    -0.237 A  
HETATM   23  C   UNL     1     -10.252  10.339  68.880  1.00  0.00    -0.220 A  
HETATM   24  C   UNL     1     -10.920   9.182  70.905  1.00  0.00    -0.349 A  
HETATM   25  C   UNL     1     -12.083   9.950  70.964  1.00  0.00    -0.450 A  
HETATM   26  C   UNL     1     -12.290  10.940  69.993  1.00  0.00    -0.385 A  
HETATM   27  C   UNL     1     -13.152   9.689  71.983  1.00  0.00    -0.537 C  
ENDBRANCH  19  21
ENDBRANCH  14  19
ENDBRANCH  10  13
ENDBRANCH   8  10
ENDBRANCH   6   8
ENDBRANCH   4   6
ENDBRANCH   2   4
TORSDOF 7
ENDMDL
MODEL       72
REMARK 921   NORMALIZED FREE ENERGY PREDICTED BY IDOCK:   -5.49 KCAL/MOL
REMARK 922        TOTAL FREE ENERGY PREDICTED BY IDOCK:   -9.60 KCAL/MOL
REMARK 923 INTER-LIGAND FREE ENERGY PREDICTED BY IDOCK:   -8.12 KCAL/MOL
REMARK 924 INTRA-LIGAND FREE ENERGY PREDICTED BY IDOCK:   -1.48 KCAL/MOL
REMARK 927      BINDING AFFINITY PREDICTED BY RF-SCORE:    0.00 PKD
ROOT
HETATM    1  C   UNL     1     -12.070  16.018  71.740  1.00  0.00    -0.570 C  
HETATM    2  C   UNL     1     -12.968  14.799  71.531  1.00  0.00    -0.336 C  
HETATM    3  C   UNL     1     -14.395  15.101  71.975  1.00  0.00    -0.682 C  
ENDROOT
BRANCH   2   4
HETATM    4  N   UNL     1     -12.948  14.347  70.146  1.00  0.00    -0.476 N  
HETATM    5  H   UNL     1     -13.743  13.828  69.775  1.00  0.00     0.000 HD 
BRANCH   4   6
HETATM    6  C   UNL     1     -11.877  14.610  69.335  1.00  0.00    -0.329 C  
HETATM    7  O   UNL     1     -11.797  15.585  68.609  1.00  0.00    -0.362 OA 
BRANCH   6   8
HETATM    8  N   UNL     1     -10.917  13.610  69.351  1.00  0.00    -0.426 N  
HETATM    9  H   UNL     1      -9.962  13.872  69.595  1.00  0.00     0.000 HD 
BRANCH   8  10
HETATM   10  S   UNL     1     -11.216  12.004  68.997  1.00  0.00    -0.261 S  
HETATM   11  O   UNL     1     -11.558  11.301  70.213  1.00  0.00    -0.311 OA 
HETATM   12  O   UNL     1     -12.150  12.049  67.887  1.00  0.00    -0.531 OA 
BRANCH  10  13
HETATM   13  C   UNL     1      -9.717  11.333  68.373  1.00  0.00    -0.194 A  
HETATM   14  C   UNL     1      -9.006  11.950  67.334  1.00  0.00    -0.173 A  
HETATM   15  N   UNL     1      -8.128   9.499  68.466  1.00  0.00    -0.100 NA 
HETATM   16  C   UNL     1      -7.887  11.254  66.845  1.00  0.00    -0.156 A  
HETATM   17  C   UNL     1      -7.492  10.060  67.426  1.00  0.00    -0.091 A  
HETATM   18  C   UNL     1      -9.233  10.145  68.905  1.00  0.00    -0.172 A  
BRANCH  14  19
HETATM   19  N   UNL     1      -9.295  13.254  66.866  1.00  0.00    -0.238 NA 
HETATM   20  H   UNL     1      -8.823  14.012  67.359  1.00  0.00     0.000 HD 
BRANCH  19  21
HETATM   21  C   UNL     1     -10.148  13.652  65.810  1.00  0.00    -0.298 A  
HETATM   22  C   UNL     1     -11.429  15.402  64.706  1.00  0.00    -0.337 A  
HETATM   23  C   UNL     1     -10.453  15.005  65.628  1.00  0.00    -0.368 A  
HETATM   24  C   UNL     1     -12.139  14.447  63.976  1.00  0.00    -0.312 A  
HETATM   25  C   UNL     1     -11.842  13.093  64.126  1.00  0.00    -0.487 A  
HETATM   26  C   UNL     1     -10.813  12.718  65.001  1.00  0.00    -0.319 A  
HETATM   27  C   UNL     1     -12.645  12.027  63.442  1.00  0.00    -0.592 C  
ENDBRANCH  19  21
ENDBRANCH  14  19
ENDBRANCH  10  13
ENDBRANCH   8  10
ENDBRANCH   6   8
ENDBRANCH   4   6
ENDBRANCH   2   4
TORSDOF 7
ENDMDL
MODEL       73
REMARK 921   NORMALIZED FREE ENERGY PREDICTED BY IDOCK:   -5.49 KCAL/MOL
REMARK 922        TOTAL FREE ENERGY PREDICTED BY IDOCK:   -9.59 KCAL/MOL
REMARK 923 INTER-LIGAND FREE ENERGY PREDICTED BY IDOCK:   -7.83 KCAL/MOL
REMARK 924 INTRA-LIGAND FREE ENERGY PREDICTED BY IDOCK:   -1.76 KCAL/MOL
REMARK 927      BINDING AFFINITY PREDICTED BY RF-SCORE:    0.00 PKD
ROOT
HETATM    1  C   UNL     1      -9.287   8.710  71.217  1.00  0.00    -0.288 C  
HETATM    2  C   UNL     1     -10.282   9.478  70.347  1.00  0.00    -0.279 C  
HETATM    3  C   UNL     1     -11.546   9.802  71.134  1.00  0.00    -0.469 C  
ENDROOT
BRANCH   2   4
HETATM    4  N   UNL     1      -9.692  10.695  69.802  1.00  0.00    -0.414 N  
HETATM    5  H   UNL     1      -9.644  11.533  70.382  1.00  0.00     0.000 HD 
BRANCH   4   6
HETATM    6  C   UNL     1      -9.202  10.729  68.525  1.00  0.00    -0.174 C  
HETATM    7  O   UNL     1      -8.404   9.922  68.081  1.00  0.00    -0.109 OA 
BRANCH   6   8
HETATM    8  N   UNL     1      -9.634  11.829  67.799  1.00  0.00    -0.179 N  
HETATM    9  H   UNL     1      -8.966  12.275  67.171  1.00  0.00     0.000 HD 
BRANCH   8  10
HETATM   10  S   UNL     1     -11.173  12.473  67.883  1.00  0.00    -0.285 S  
HETATM   11  O   UNL     1     -12.141  11.400  67.926  1.00  0.00    -0.646 OA 
HETATM   12  O   UNL     1     -11.100  13.440  68.963  1.00  0.00    -0.255 OA 
BRANCH  10  13
HETATM   13  C   UNL     1     -11.424  13.385  66.402  1.00  0.00    -0.329 A  
HETATM   14  C   UNL     1     -10.705  14.555  66.123  1.00  0.00    -0.310 A  
HETATM   15  N   UNL     1     -12.705  13.599  64.350  1.00  0.00    -0.653 NA 
HETATM   16  C   UNL     1     -11.079  15.256  64.964  1.00  0.00    -0.436 A  
HETATM   17  C   UNL     1     -12.061  14.755  64.124  1.00  0.00    -0.299 A  
HETATM   18  C   UNL     1     -12.378  12.949  65.491  1.00  0.00    -0.461 A  
BRANCH  14  19
HETATM   19  N   UNL     1      -9.578  14.970  66.874  1.00  0.00    -0.230 NA 
HETATM   20  H   UNL     1      -8.814  14.296  66.927  1.00  0.00     0.000 HD 
BRANCH  19  21
HETATM   21  C   UNL     1      -9.366  16.187  67.562  1.00  0.00    -0.217 A  
HETATM   22  C   UNL     1     -10.284  18.180  68.613  1.00  0.00    -0.382 A  
HETATM   23  C   UNL     1     -10.453  16.893  68.088  1.00  0.00    -0.350 A  
HETATM   24  C   UNL     1      -9.030  18.794  68.587  1.00  0.00    -0.368 A  
HETATM   25  C   UNL     1      -7.928  18.105  68.082  1.00  0.00    -0.290 A  
HETATM   26  C   UNL     1      -8.101  16.791  67.627  1.00  0.00    -0.188 A  
HETATM   27  C   UNL     1      -6.585  18.759  67.939  1.00  0.00    -0.223 C  
ENDBRANCH  19  21
ENDBRANCH  14  19
ENDBRANCH  10  13
ENDBRANCH   8  10
ENDBRANCH   6   8
ENDBRANCH   4   6
ENDBRANCH   2   4
TORSDOF 7
ENDMDL
MODEL       74
REMARK 921   NORMALIZED FREE ENERGY PREDICTED BY IDOCK:   -5.49 KCAL/MOL
REMARK 922        TOTAL FREE ENERGY PREDICTED BY IDOCK:   -9.58 KCAL/MOL
REMARK 923 INTER-LIGAND FREE ENERGY PREDICTED BY IDOCK:   -7.70 KCAL/MOL
REMARK 924 INTRA-LIGAND FREE ENERGY PREDICTED BY IDOCK:   -1.89 KCAL/MOL
REMARK 927      BINDING AFFINITY PREDICTED BY RF-SCORE:    0.00 PKD
ROOT
HETATM    1  C   UNL     1      -8.305   5.707  69.945  1.00  0.00    -0.117 C  
HETATM    2  C   UNL     1      -9.656   5.838  69.242  1.00  0.00    -0.139 C  
HETATM    3  C   UNL     1     -10.792   5.469  70.188  1.00  0.00    -0.299 C  
ENDROOT
BRANCH   2   4
HETATM    4  N   UNL     1      -9.853   7.178  68.703  1.00  0.00    -0.151 N  
HETATM    5  H   UNL     1      -9.345   7.963  69.110  1.00  0.00     0.000 HD 
BRANCH   4   6
HETATM    6  C   UNL     1     -10.710   7.397  67.658  1.00  0.00    -0.207 C  
HETATM    7  O   UNL     1     -11.117   6.520  66.917  1.00  0.00    -0.399 OA 
BRANCH   6   8
HETATM    8  N   UNL     1     -11.008   8.737  67.464  1.00  0.00    -0.453 N  
HETATM    9  H   UNL     1     -11.958   9.046  67.667  1.00  0.00     0.000 HD 
BRANCH   8  10
HETATM   10  S   UNL     1      -9.918   9.880  66.919  1.00  0.00    -0.224 S  
HETATM   11  O   UNL     1      -8.733   9.847  67.747  1.00  0.00    -0.128 OA 
HETATM   12  O   UNL     1      -9.823   9.636  65.492  1.00  0.00    -0.302 OA 
BRANCH  10  13
HETATM   13  C   UNL     1     -10.686  11.449  67.115  1.00  0.00    -0.249 A  
HETATM   14  C   UNL     1     -11.026  11.954  68.377  1.00  0.00    -0.232 A  
HETATM   15  N   UNL     1     -11.632  13.390  66.005  1.00  0.00    -0.332 NA 
HETATM   16  C   UNL     1     -11.740  13.164  68.392  1.00  0.00    -0.386 A  
HETATM   17  C   UNL     1     -12.016  13.834  67.212  1.00  0.00    -0.401 A  
HETATM   18  C   UNL     1     -10.987  12.202  65.986  1.00  0.00    -0.293 A  
BRANCH  14  19
HETATM   19  N   UNL     1     -10.584  11.371  69.589  1.00  0.00    -0.447 NA 
HETATM   20  H   UNL     1      -9.673  11.687  69.922  1.00  0.00     0.000 HD 
BRANCH  19  21
HETATM   21  C   UNL     1     -11.230  10.411  70.403  1.00  0.00    -0.321 A  
HETATM   22  C   UNL     1     -13.243   9.649  71.536  1.00  0.00    -0.484 A  
HETATM   23  C   UNL     1     -12.613  10.476  70.599  1.00  0.00    -0.457 A  
HETATM   24  C   UNL     1     -12.493   8.768  72.317  1.00  0.00    -0.455 A  
HETATM   25  C   UNL     1     -11.114   8.671  72.129  1.00  0.00    -0.434 A  
HETATM   26  C   UNL     1     -10.510   9.456  71.137  1.00  0.00    -0.392 A  
HETATM   27  C   UNL     1     -10.254   7.817  73.011  1.00  0.00    -0.393 C  
ENDBRANCH  19  21
ENDBRANCH  14  19
ENDBRANCH  10  13
ENDBRANCH   8  10
ENDBRANCH   6   8
ENDBRANCH   4   6
ENDBRANCH   2   4
TORSDOF 7
ENDMDL
MODEL       75
REMARK 921   NORMALIZED FREE ENERGY PREDICTED BY IDOCK:   -5.46 KCAL/MOL
REMARK 922        TOTAL FREE ENERGY PREDICTED BY IDOCK:   -9.55 KCAL/MOL
REMARK 923 INTER-LIGAND FREE ENERGY PREDICTED BY IDOCK:   -7.45 KCAL/MOL
REMARK 924 INTRA-LIGAND FREE ENERGY PREDICTED BY IDOCK:   -2.11 KCAL/MOL
REMARK 927      BINDING AFFINITY PREDICTED BY RF-SCORE:    0.00 PKD
ROOT
HETATM    1  C   UNL     1      -7.884  11.065  66.607  1.00  0.00    -0.153 C  
HETATM    2  C   UNL     1      -8.794  12.252  66.920  1.00  0.00    -0.207 C  
HETATM    3  C   UNL     1      -9.547  12.022  68.226  1.00  0.00    -0.204 C  
ENDROOT
BRANCH   2   4
HETATM    4  N   UNL     1      -8.048  13.503  66.974  1.00  0.00    -0.393 N  
HETATM    5  H   UNL     1      -7.902  14.037  66.117  1.00  0.00     0.000 HD 
BRANCH   4   6
HETATM    6  C   UNL     1      -7.541  13.971  68.155  1.00  0.00    -0.141 C  
HETATM    7  O   UNL     1      -6.769  13.343  68.859  1.00  0.00    -0.100 OA 
BRANCH   6   8
HETATM    8  N   UNL     1      -8.059  15.201  68.528  1.00  0.00    -0.138 N  
HETATM    9  H   UNL     1      -8.905  15.208  69.097  1.00  0.00     0.000 HD 
BRANCH   8  10
HETATM   10  S   UNL     1      -7.392  16.675  68.108  1.00  0.00    -0.176 S  
HETATM   11  O   UNL     1      -6.665  17.212  69.236  1.00  0.00    -0.230 OA 
HETATM   12  O   UNL     1      -6.713  16.418  66.852  1.00  0.00    -0.198 OA 
BRANCH  10  13
HETATM   13  C   UNL     1      -8.731  17.755  67.748  1.00  0.00    -0.241 A  
HETATM   14  C   UNL     1      -9.575  17.547  66.648  1.00  0.00    -0.282 A  
HETATM   15  N   UNL     1      -9.904  19.795  68.351  1.00  0.00    -0.409 NA 
HETATM   16  C   UNL     1     -10.534  18.544  66.401  1.00  0.00    -0.443 A  
HETATM   17  C   UNL     1     -10.663  19.625  67.256  1.00  0.00    -0.458 A  
HETATM   18  C   UNL     1      -8.949  18.860  68.562  1.00  0.00    -0.351 A  
BRANCH  14  19
HETATM   19  N   UNL     1      -9.571  16.355  65.884  1.00  0.00    -0.455 NA 
HETATM   20  H   UNL     1      -8.724  16.183  65.342  1.00  0.00     0.000 HD 
BRANCH  19  21
HETATM   21  C   UNL     1     -10.579  15.369  65.768  1.00  0.00    -0.348 A  
HETATM   22  C   UNL     1     -12.261  13.967  66.828  1.00  0.00    -0.438 A  
HETATM   23  C   UNL     1     -11.383  15.056  66.870  1.00  0.00    -0.302 A  
HETATM   24  C   UNL     1     -12.322  13.152  65.696  1.00  0.00    -0.519 A  
HETATM   25  C   UNL     1     -11.543  13.452  64.579  1.00  0.00    -0.405 A  
HETATM   26  C   UNL     1     -10.723  14.588  64.611  1.00  0.00    -0.332 A  
HETATM   27  C   UNL     1     -11.498  12.550  63.382  1.00  0.00    -0.523 C  
ENDBRANCH  19  21
ENDBRANCH  14  19
ENDBRANCH  10  13
ENDBRANCH   8  10
ENDBRANCH   6   8
ENDBRANCH   4   6
ENDBRANCH   2   4
TORSDOF 7
ENDMDL
MODEL       76
REMARK 921   NORMALIZED FREE ENERGY PREDICTED BY IDOCK:   -5.45 KCAL/MOL
REMARK 922        TOTAL FREE ENERGY PREDICTED BY IDOCK:   -9.53 KCAL/MOL
REMARK 923 INTER-LIGAND FREE ENERGY PREDICTED BY IDOCK:   -8.18 KCAL/MOL
REMARK 924 INTRA-LIGAND FREE ENERGY PREDICTED BY IDOCK:   -1.35 KCAL/MOL
REMARK 927      BINDING AFFINITY PREDICTED BY RF-SCORE:    0.00 PKD
ROOT
HETATM    1  C   UNL     1      -9.198   9.096  65.249  1.00  0.00    -0.243 C  
HETATM    2  C   UNL     1      -9.185  10.422  64.487  1.00  0.00    -0.246 C  
HETATM    3  C   UNL     1      -8.648  10.224  63.075  1.00  0.00    -0.190 C  
ENDROOT
BRANCH   2   4
HETATM    4  N   UNL     1     -10.507  11.035  64.452  1.00  0.00    -0.354 N  
HETATM    5  H   UNL     1     -11.330  10.467  64.651  1.00  0.00     0.000 HD 
BRANCH   4   6
HETATM    6  C   UNL     1     -10.659  12.363  64.156  1.00  0.00    -0.385 C  
HETATM    7  O   UNL     1     -11.128  12.776  63.110  1.00  0.00    -0.258 OA 
BRANCH   6   8
HETATM    8  N   UNL     1     -10.146  13.206  65.129  1.00  0.00    -0.460 N  
HETATM    9  H   UNL     1      -9.234  13.629  64.958  1.00  0.00     0.000 HD 
BRANCH   8  10
HETATM   10  S   UNL     1     -10.919  13.578  66.563  1.00  0.00    -0.293 S  
HETATM   11  O   UNL     1     -12.299  13.914  66.292  1.00  0.00    -0.453 OA 
HETATM   12  O   UNL     1     -10.592  12.473  67.445  1.00  0.00    -0.220 OA 
BRANCH  10  13
HETATM   13  C   UNL     1     -10.122  15.001  67.216  1.00  0.00    -0.235 A  
HETATM   14  C   UNL     1     -10.757  15.851  68.131  1.00  0.00    -0.302 A  
HETATM   15  N   UNL     1      -8.142  16.407  67.177  1.00  0.00    -0.167 NA 
HETATM   16  C   UNL     1     -10.059  17.018  68.488  1.00  0.00    -0.303 A  
HETATM   17  C   UNL     1      -8.784  17.252  68.000  1.00  0.00    -0.231 A  
HETATM   18  C   UNL     1      -8.833  15.309  66.797  1.00  0.00    -0.271 A  
BRANCH  14  19
HETATM   19  N   UNL     1     -11.975  15.525  68.774  1.00  0.00    -0.552 NA 
HETATM   20  H   UNL     1     -12.820  15.692  68.227  1.00  0.00     0.000 HD 
BRANCH  19  21
HETATM   21  C   UNL     1     -12.184  14.998  70.071  1.00  0.00    -0.328 A  
HETATM   22  C   UNL     1     -13.113  13.257  71.493  1.00  0.00    -0.414 A  
HETATM   23  C   UNL     1     -12.736  13.722  70.228  1.00  0.00    -0.208 A  
HETATM   24  C   UNL     1     -12.977  14.075  72.616  1.00  0.00    -0.481 A  
HETATM   25  C   UNL     1     -12.414  15.344  72.488  1.00  0.00    -0.466 A  
HETATM   26  C   UNL     1     -11.976  15.767  71.226  1.00  0.00    -0.485 A  
HETATM   27  C   UNL     1     -12.341  16.296  73.645  1.00  0.00    -0.637 C  
ENDBRANCH  19  21
ENDBRANCH  14  19
ENDBRANCH  10  13
ENDBRANCH   8  10
ENDBRANCH   6   8
ENDBRANCH   4   6
ENDBRANCH   2   4
TORSDOF 7
ENDMDL
MODEL       77
REMARK 921   NORMALIZED FREE ENERGY PREDICTED BY IDOCK:   -5.42 KCAL/MOL
REMARK 922        TOTAL FREE ENERGY PREDICTED BY IDOCK:   -9.49 KCAL/MOL
REMARK 923 INTER-LIGAND FREE ENERGY PREDICTED BY IDOCK:   -8.02 KCAL/MOL
REMARK 924 INTRA-LIGAND FREE ENERGY PREDICTED BY IDOCK:   -1.47 KCAL/MOL
REMARK 927      BINDING AFFINITY PREDICTED BY RF-SCORE:    0.00 PKD
ROOT
HETATM    1  C   UNL     1     -11.600   8.469  72.268  1.00  0.00    -0.444 C  
HETATM    2  C   UNL     1     -12.081   9.435  71.186  1.00  0.00    -0.328 C  
HETATM    3  C   UNL     1     -12.795  10.629  71.811  1.00  0.00    -0.549 C  
ENDROOT
BRANCH   2   4
HETATM    4  N   UNL     1     -10.984   9.882  70.337  1.00  0.00    -0.295 N  
HETATM    5  H   UNL     1     -10.642  10.839  70.420  1.00  0.00     0.000 HD 
BRANCH   4   6
HETATM    6  C   UNL     1     -10.407   9.035  69.430  1.00  0.00    -0.213 C  
HETATM    7  O   UNL     1      -9.753   8.054  69.736  1.00  0.00    -0.174 OA 
BRANCH   6   8
HETATM    8  N   UNL     1     -10.561   9.449  68.115  1.00  0.00    -0.300 N  
HETATM    9  H   UNL     1     -10.485   8.743  67.383  1.00  0.00     0.000 HD 
BRANCH   8  10
HETATM   10  S   UNL     1     -10.861  11.025  67.648  1.00  0.00    -0.276 S  
HETATM   11  O   UNL     1     -12.249  11.344  67.897  1.00  0.00    -0.592 OA 
HETATM   12  O   UNL     1      -9.806  11.795  68.280  1.00  0.00    -0.187 OA 
BRANCH  10  13
HETATM   13  C   UNL     1     -10.578  11.104  65.916  1.00  0.00    -0.234 A  
HETATM   14  C   UNL     1     -11.244  12.027  65.098  1.00  0.00    -0.315 A  
HETATM   15  N   UNL     1      -9.435  10.132  64.006  1.00  0.00    -0.286 NA 
HETATM   16  C   UNL     1     -11.019  11.912  63.716  1.00  0.00    -0.494 A  
HETATM   17  C   UNL     1     -10.128  10.973  63.223  1.00  0.00    -0.348 A  
HETATM   18  C   UNL     1      -9.687  10.211  65.333  1.00  0.00    -0.291 A  
BRANCH  14  19
HETATM   19  N   UNL     1     -12.006  13.105  65.610  1.00  0.00    -0.390 NA 
HETATM   20  H   UNL     1     -13.003  12.922  65.726  1.00  0.00     0.000 HD 
BRANCH  19  21
HETATM   21  C   UNL     1     -11.578  14.401  65.981  1.00  0.00    -0.363 A  
HETATM   22  C   UNL     1     -10.627  16.549  65.347  1.00  0.00    -0.293 A  
HETATM   23  C   UNL     1     -11.219  15.329  64.998  1.00  0.00    -0.409 A  
HETATM   24  C   UNL     1     -10.354  16.844  66.684  1.00  0.00    -0.299 A  
HETATM   25  C   UNL     1     -10.718  15.943  67.685  1.00  0.00    -0.312 A  
HETATM   26  C   UNL     1     -11.374  14.758  67.323  1.00  0.00    -0.366 A  
HETATM   27  C   UNL     1     -10.355  16.169  69.122  1.00  0.00    -0.259 C  
ENDBRANCH  19  21
ENDBRANCH  14  19
ENDBRANCH  10  13
ENDBRANCH   8  10
ENDBRANCH   6   8
ENDBRANCH   4   6
ENDBRANCH   2   4
TORSDOF 7
ENDMDL
MODEL       78
REMARK 921   NORMALIZED FREE ENERGY PREDICTED BY IDOCK:   -5.41 KCAL/MOL
REMARK 922        TOTAL FREE ENERGY PREDICTED BY IDOCK:   -9.47 KCAL/MOL
REMARK 923 INTER-LIGAND FREE ENERGY PREDICTED BY IDOCK:   -8.20 KCAL/MOL
REMARK 924 INTRA-LIGAND FREE ENERGY PREDICTED BY IDOCK:   -1.27 KCAL/MOL
REMARK 927      BINDING AFFINITY PREDICTED BY RF-SCORE:    0.00 PKD
ROOT
HETATM    1  C   UNL     1     -12.187  12.553  63.467  1.00  0.00    -0.652 C  
HETATM    2  C   UNL     1     -12.267  13.882  64.220  1.00  0.00    -0.408 C  
HETATM    3  C   UNL     1     -12.899  13.683  65.593  1.00  0.00    -0.425 C  
ENDROOT
BRANCH   2   4
HETATM    4  N   UNL     1     -10.958  14.510  64.344  1.00  0.00    -0.621 N  
HETATM    5  H   UNL     1     -10.148  14.072  63.905  1.00  0.00     0.000 HD 
BRANCH   4   6
HETATM    6  C   UNL     1     -10.800  15.677  65.041  1.00  0.00    -0.450 C  
HETATM    7  O   UNL     1     -11.148  16.768  64.626  1.00  0.00    -0.844 OA 
BRANCH   6   8
HETATM    8  N   UNL     1     -10.122  15.515  66.239  1.00  0.00    -0.277 N  
HETATM    9  H   UNL     1     -10.497  14.845  66.910  1.00  0.00     0.000 HD 
BRANCH   8  10
HETATM   10  S   UNL     1      -8.732  16.341  66.659  1.00  0.00    -0.290 S  
HETATM   11  O   UNL     1      -8.010  15.590  67.661  1.00  0.00    -0.132 OA 
HETATM   12  O   UNL     1      -8.107  16.662  65.389  1.00  0.00     0.425 OA 
BRANCH  10  13
HETATM   13  C   UNL     1      -9.243  17.865  67.372  1.00  0.00    -0.253 A  
HETATM   14  C   UNL     1      -9.807  17.930  68.653  1.00  0.00    -0.374 A  
HETATM   15  N   UNL     1      -9.519  20.256  67.051  1.00  0.00    -0.399 NA 
HETATM   16  C   UNL     1     -10.281  19.188  69.062  1.00  0.00    -0.242 A  
HETATM   17  C   UNL     1     -10.121  20.299  68.251  1.00  0.00    -0.245 A  
HETATM   18  C   UNL     1      -9.106  19.036  66.637  1.00  0.00    -0.329 A  
BRANCH  14  19
HETATM   19  N   UNL     1      -9.802  16.841  69.558  1.00  0.00    -0.078 NA 
HETATM   20  H   UNL     1      -8.912  16.658  70.021  1.00  0.00     0.000 HD 
BRANCH  19  21
HETATM   21  C   UNL     1     -10.860  15.970  69.908  1.00  0.00    -0.351 A  
HETATM   22  C   UNL     1     -12.650  15.371  71.444  1.00  0.00    -0.471 A  
HETATM   23  C   UNL     1     -11.713  16.296  70.968  1.00  0.00    -0.317 A  
HETATM   24  C   UNL     1     -12.724  14.092  70.888  1.00  0.00    -0.432 A  
HETATM   25  C   UNL     1     -11.897  13.748  69.819  1.00  0.00    -0.394 A  
HETATM   26  C   UNL     1     -11.014  14.711  69.309  1.00  0.00    -0.278 A  
HETATM   27  C   UNL     1     -11.868  12.358  69.257  1.00  0.00    -0.361 C  
ENDBRANCH  19  21
ENDBRANCH  14  19
ENDBRANCH  10  13
ENDBRANCH   8  10
ENDBRANCH   6   8
ENDBRANCH   4   6
ENDBRANCH   2   4
TORSDOF 7
ENDMDL
MODEL       79
REMARK 921   NORMALIZED FREE ENERGY PREDICTED BY IDOCK:   -5.41 KCAL/MOL
REMARK 922        TOTAL FREE ENERGY PREDICTED BY IDOCK:   -9.47 KCAL/MOL
REMARK 923 INTER-LIGAND FREE ENERGY PREDICTED BY IDOCK:   -7.80 KCAL/MOL
REMARK 924 INTRA-LIGAND FREE ENERGY PREDICTED BY IDOCK:   -1.66 KCAL/MOL
REMARK 927      BINDING AFFINITY PREDICTED BY RF-SCORE:    0.00 PKD
ROOT
HETATM    1  C   UNL     1     -12.726  14.209  71.728  1.00  0.00    -0.420 C  
HETATM    2  C   UNL     1     -12.512  13.566  70.358  1.00  0.00    -0.275 C  
HETATM    3  C   UNL     1     -11.924  14.575  69.377  1.00  0.00    -0.362 C  
ENDROOT
BRANCH   2   4
HETATM    4  N   UNL     1     -11.665  12.384  70.445  1.00  0.00    -0.540 N  
HETATM    5  H   UNL     1     -11.198  12.164  71.325  1.00  0.00     0.000 HD 
BRANCH   4   6
HETATM    6  C   UNL     1     -11.487  11.564  69.364  1.00  0.00    -0.309 C  
HETATM    7  O   UNL     1     -12.393  11.182  68.644  1.00  0.00    -0.549 OA 
BRANCH   6   8
HETATM    8  N   UNL     1     -10.179  11.130  69.211  1.00  0.00    -0.407 N  
HETATM    9  H   UNL     1      -9.552  11.702  68.647  1.00  0.00     0.000 HD 
BRANCH   8  10
HETATM   10  S   UNL     1      -9.560   9.734  69.889  1.00  0.00    -0.230 S  
HETATM   11  O   UNL     1      -8.115   9.794  69.878  1.00  0.00    -0.148 OA 
HETATM   12  O   UNL     1     -10.279   9.591  71.141  1.00  0.00    -0.301 OA 
BRANCH  10  13
HETATM   13  C   UNL     1     -10.065   8.402  68.859  1.00  0.00    -0.199 A  
HETATM   14  C   UNL     1     -10.074   8.508  67.462  1.00  0.00    -0.221 A  
HETATM   15  N   UNL     1     -10.963   6.147  68.763  1.00  0.00    -0.340 NA 
HETATM   16  C   UNL     1     -10.610   7.417  66.757  1.00  0.00    -0.281 A  
HETATM   17  C   UNL     1     -11.033   6.283  67.429  1.00  0.00    -0.356 A  
HETATM   18  C   UNL     1     -10.492   7.216  69.445  1.00  0.00    -0.222 A  
BRANCH  14  19
HETATM   19  N   UNL     1      -9.472   9.583  66.764  1.00  0.00    -0.158 NA 
HETATM   20  H   UNL     1      -8.598   9.930  67.160  1.00  0.00     0.000 HD 
BRANCH  19  21
HETATM   21  C   UNL     1      -9.914  10.243  65.593  1.00  0.00    -0.280 A  
HETATM   22  C   UNL     1      -9.614  10.723  63.227  1.00  0.00    -0.384 A  
HETATM   23  C   UNL     1      -9.316   9.958  64.361  1.00  0.00    -0.326 A  
HETATM   24  C   UNL     1     -10.488  11.808  63.317  1.00  0.00    -0.439 A  
HETATM   25  C   UNL     1     -11.110  12.102  64.530  1.00  0.00    -0.375 A  
HETATM   26  C   UNL     1     -10.855  11.282  65.638  1.00  0.00    -0.242 A  
HETATM   27  C   UNL     1     -11.975  13.316  64.701  1.00  0.00    -0.440 C  
ENDBRANCH  19  21
ENDBRANCH  14  19
ENDBRANCH  10  13
ENDBRANCH   8  10
ENDBRANCH   6   8
ENDBRANCH   4   6
ENDBRANCH   2   4
TORSDOF 7
ENDMDL
MODEL       80
REMARK 921   NORMALIZED FREE ENERGY PREDICTED BY IDOCK:   -5.40 KCAL/MOL
REMARK 922        TOTAL FREE ENERGY PREDICTED BY IDOCK:   -9.47 KCAL/MOL
REMARK 923 INTER-LIGAND FREE ENERGY PREDICTED BY IDOCK:   -8.01 KCAL/MOL
REMARK 924 INTRA-LIGAND FREE ENERGY PREDICTED BY IDOCK:   -1.46 KCAL/MOL
REMARK 927      BINDING AFFINITY PREDICTED BY RF-SCORE:    0.00 PKD
ROOT
HETATM    1  C   UNL     1     -12.573  12.101  63.579  1.00  0.00    -0.621 C  
HETATM    2  C   UNL     1     -11.817  12.856  64.673  1.00  0.00    -0.372 C  
HETATM    3  C   UNL     1     -12.772  13.727  65.481  1.00  0.00    -0.530 C  
ENDROOT
BRANCH   2   4
HETATM    4  N   UNL     1     -11.089  11.946  65.549  1.00  0.00    -0.309 N  
HETATM    5  H   UNL     1     -11.598  11.228  66.063  1.00  0.00     0.000 HD 
BRANCH   4   6
HETATM    6  C   UNL     1      -9.731  12.043  65.692  1.00  0.00    -0.223 C  
HETATM    7  O   UNL     1      -8.959  11.124  65.482  1.00  0.00    -0.200 OA 
BRANCH   6   8
HETATM    8  N   UNL     1      -9.316  13.270  66.186  1.00  0.00    -0.468 N  
HETATM    9  H   UNL     1      -9.402  14.082  65.575  1.00  0.00     0.000 HD 
BRANCH   8  10
HETATM   10  S   UNL     1      -8.683  13.509  67.714  1.00  0.00    -0.203 S  
HETATM   11  O   UNL     1      -8.351  12.232  68.302  1.00  0.00    -0.167 OA 
HETATM   12  O   UNL     1      -7.659  14.520  67.524  1.00  0.00    -0.164 OA 
BRANCH  10  13
HETATM   13  C   UNL     1      -9.952  14.249  68.679  1.00  0.00    -0.234 A  
HETATM   14  C   UNL     1     -11.145  13.576  68.974  1.00  0.00    -0.250 A  
HETATM   15  N   UNL     1     -10.709  16.245  69.838  1.00  0.00    -0.332 NA 
HETATM   16  C   UNL     1     -12.128  14.317  69.653  1.00  0.00    -0.396 A  
HETATM   17  C   UNL     1     -11.876  15.617  70.058  1.00  0.00    -0.367 A  
HETATM   18  C   UNL     1      -9.781  15.548  69.143  1.00  0.00    -0.252 A  
BRANCH  14  19
HETATM   19  N   UNL     1     -11.335  12.194  68.730  1.00  0.00    -0.264 NA 
HETATM   20  H   UNL     1     -11.385  11.925  67.748  1.00  0.00     0.000 HD 
BRANCH  19  21
HETATM   21  C   UNL     1     -11.466  11.136  69.659  1.00  0.00    -0.310 A  
HETATM   22  C   UNL     1     -12.659  10.130  71.526  1.00  0.00    -0.537 A  
HETATM   23  C   UNL     1     -12.594  11.062  70.483  1.00  0.00    -0.390 A  
HETATM   24  C   UNL     1     -11.581   9.281  71.782  1.00  0.00    -0.458 A  
HETATM   25  C   UNL     1     -10.452   9.322  70.965  1.00  0.00    -0.384 A  
HETATM   26  C   UNL     1     -10.433  10.212  69.882  1.00  0.00    -0.322 A  
HETATM   27  C   UNL     1      -9.231   8.503  71.261  1.00  0.00    -0.256 C  
ENDBRANCH  19  21
ENDBRANCH  14  19
ENDBRANCH  10  13
ENDBRANCH   8  10
ENDBRANCH   6   8
ENDBRANCH   4   6
ENDBRANCH   2   4
TORSDOF 7
ENDMDL
MODEL       81
REMARK 921   NORMALIZED FREE ENERGY PREDICTED BY IDOCK:   -5.38 KCAL/MOL
REMARK 922        TOTAL FREE ENERGY PREDICTED BY IDOCK:   -9.43 KCAL/MOL
REMARK 923 INTER-LIGAND FREE ENERGY PREDICTED BY IDOCK:   -7.66 KCAL/MOL
REMARK 924 INTRA-LIGAND FREE ENERGY PREDICTED BY IDOCK:   -1.77 KCAL/MOL
REMARK 927      BINDING AFFINITY PREDICTED BY RF-SCORE:    0.00 PKD
ROOT
HETATM    1  C   UNL     1      -9.337   8.946  65.838  1.00  0.00    -0.301 C  
HETATM    2  C   UNL     1      -9.268  10.440  66.156  1.00  0.00    -0.168 C  
HETATM    3  C   UNL     1     -10.079  11.242  65.145  1.00  0.00    -0.326 C  
ENDROOT
BRANCH   2   4
HETATM    4  N   UNL     1      -9.719  10.723  67.513  1.00  0.00    -0.165 N  
HETATM    5  H   UNL     1     -10.363  10.079  67.973  1.00  0.00     0.000 HD 
BRANCH   4   6
HETATM    6  C   UNL     1      -9.290  11.838  68.179  1.00  0.00    -0.190 C  
HETATM    7  O   UNL     1      -8.253  12.425  67.924  1.00  0.00    -0.141 OA 
BRANCH   6   8
HETATM    8  N   UNL     1     -10.108  12.194  69.241  1.00  0.00    -0.329 N  
HETATM    9  H   UNL     1      -9.722  12.817  69.950  1.00  0.00     0.000 HD 
BRANCH   8  10
HETATM   10  S   UNL     1     -11.683  11.672  69.438  1.00  0.00    -0.360 S  
HETATM   11  O   UNL     1     -12.350  11.662  68.156  1.00  0.00    -0.429 OA 
HETATM   12  O   UNL     1     -11.563  10.451  70.213  1.00  0.00    -0.278 OA 
BRANCH  10  13
HETATM   13  C   UNL     1     -12.483  12.849  70.468  1.00  0.00    -0.217 A  
HETATM   14  C   UNL     1     -12.511  14.214  70.150  1.00  0.00    -0.331 A  
HETATM   15  N   UNL     1     -13.675  13.239  72.548  1.00  0.00    -0.695 NA 
HETATM   16  C   UNL     1     -13.079  15.067  71.111  1.00  0.00    -0.479 A  
HETATM   17  C   UNL     1     -13.637  14.552  72.269  1.00  0.00    -0.440 A  
HETATM   18  C   UNL     1     -13.086  12.422  71.645  1.00  0.00    -0.307 A  
BRANCH  14  19
HETATM   19  N   UNL     1     -12.113  14.723  68.890  1.00  0.00    -0.539 NA 
HETATM   20  H   UNL     1     -12.712  14.468  68.105  1.00  0.00     0.000 HD 
BRANCH  19  21
HETATM   21  C   UNL     1     -11.001  15.535  68.569  1.00  0.00    -0.288 A  
HETATM   22  C   UNL     1      -8.841  16.464  69.198  1.00  0.00    -0.186 A  
HETATM   23  C   UNL     1      -9.874  15.540  69.399  1.00  0.00    -0.283 A  
HETATM   24  C   UNL     1      -8.937  17.420  68.185  1.00  0.00    -0.260 A  
HETATM   25  C   UNL     1     -10.041  17.425  67.334  1.00  0.00    -0.321 A  
HETATM   26  C   UNL     1     -11.032  16.449  67.504  1.00  0.00    -0.184 A  
HETATM   27  C   UNL     1     -10.236  18.493  66.299  1.00  0.00    -0.446 C  
ENDBRANCH  19  21
ENDBRANCH  14  19
ENDBRANCH  10  13
ENDBRANCH   8  10
ENDBRANCH   6   8
ENDBRANCH   4   6
ENDBRANCH   2   4
TORSDOF 7
ENDMDL
MODEL       82
REMARK 921   NORMALIZED FREE ENERGY PREDICTED BY IDOCK:   -5.36 KCAL/MOL
REMARK 922        TOTAL FREE ENERGY PREDICTED BY IDOCK:   -9.40 KCAL/MOL
REMARK 923 INTER-LIGAND FREE ENERGY PREDICTED BY IDOCK:   -7.07 KCAL/MOL
REMARK 924 INTRA-LIGAND FREE ENERGY PREDICTED BY IDOCK:   -2.34 KCAL/MOL
REMARK 927      BINDING AFFINITY PREDICTED BY RF-SCORE:    0.00 PKD
ROOT
HETATM    1  C   UNL     1      -7.872  11.592  66.636  1.00  0.00    -0.083 C  
HETATM    2  C   UNL     1      -9.369  11.392  66.869  1.00  0.00    -0.181 C  
HETATM    3  C   UNL     1     -10.099  11.209  65.543  1.00  0.00    -0.309 C  
ENDROOT
BRANCH   2   4
HETATM    4  N   UNL     1      -9.630  10.266  67.757  1.00  0.00    -0.151 N  
HETATM    5  H   UNL     1     -10.006   9.399  67.372  1.00  0.00     0.000 HD 
BRANCH   4   6
HETATM    6  C   UNL     1      -9.378  10.354  69.099  1.00  0.00    -0.199 C  
HETATM    7  O   UNL     1      -8.537   9.689  69.677  1.00  0.00    -0.153 OA 
BRANCH   6   8
HETATM    8  N   UNL     1     -10.236  11.217  69.764  1.00  0.00    -0.371 N  
HETATM    9  H   UNL     1      -9.824  12.005  70.262  1.00  0.00     0.000 HD 
BRANCH   8  10
HETATM   10  S   UNL     1     -11.898  11.053  69.805  1.00  0.00    -0.377 S  
HETATM   11  O   UNL     1     -12.415  11.052  68.455  1.00  0.00    -0.440 OA 
HETATM   12  O   UNL     1     -12.126   9.917  70.680  1.00  0.00    -0.275 OA 
BRANCH  10  13
HETATM   13  C   UNL     1     -12.528  12.467  70.637  1.00  0.00    -0.238 A  
HETATM   14  C   UNL     1     -12.488  13.743  70.060  1.00  0.00    -0.240 A  
HETATM   15  N   UNL     1     -13.514  13.343  72.676  1.00  0.00    -0.621 NA 
HETATM   16  C   UNL     1     -12.914  14.809  70.872  1.00  0.00    -0.422 A  
HETATM   17  C   UNL     1     -13.409  14.571  72.144  1.00  0.00    -0.381 A  
HETATM   18  C   UNL     1     -13.059  12.323  71.913  1.00  0.00    -0.363 A  
BRANCH  14  19
HETATM   19  N   UNL     1     -12.162  13.969  68.701  1.00  0.00    -0.527 NA 
HETATM   20  H   UNL     1     -12.878  13.699  68.027  1.00  0.00     0.000 HD 
BRANCH  19  21
HETATM   21  C   UNL     1     -10.981  14.517  68.147  1.00  0.00    -0.251 A  
HETATM   22  C   UNL     1      -9.723  15.216  66.186  1.00  0.00    -0.338 A  
HETATM   23  C   UNL     1     -10.930  14.841  66.788  1.00  0.00    -0.327 A  
HETATM   24  C   UNL     1      -8.541  15.237  66.929  1.00  0.00    -0.289 A  
HETATM   25  C   UNL     1      -8.568  14.934  68.290  1.00  0.00    -0.160 A  
HETATM   26  C   UNL     1      -9.797  14.631  68.891  1.00  0.00    -0.211 A  
HETATM   27  C   UNL     1      -7.312  14.844  69.104  1.00  0.00    -0.158 C  
ENDBRANCH  19  21
ENDBRANCH  14  19
ENDBRANCH  10  13
ENDBRANCH   8  10
ENDBRANCH   6   8
ENDBRANCH   4   6
ENDBRANCH   2   4
TORSDOF 7
ENDMDL
MODEL       83
REMARK 921   NORMALIZED FREE ENERGY PREDICTED BY IDOCK:   -5.34 KCAL/MOL
REMARK 922        TOTAL FREE ENERGY PREDICTED BY IDOCK:   -9.37 KCAL/MOL
REMARK 923 INTER-LIGAND FREE ENERGY PREDICTED BY IDOCK:   -7.70 KCAL/MOL
REMARK 924 INTRA-LIGAND FREE ENERGY PREDICTED BY IDOCK:   -1.67 KCAL/MOL
REMARK 927      BINDING AFFINITY PREDICTED BY RF-SCORE:    0.00 PKD
ROOT
HETATM    1  C   UNL     1     -10.783   8.391  72.374  1.00  0.00    -0.405 C  
HETATM    2  C   UNL     1     -11.556   8.651  71.081  1.00  0.00    -0.281 C  
HETATM    3  C   UNL     1     -12.795   9.495  71.357  1.00  0.00    -0.443 C  
ENDROOT
BRANCH   2   4
HETATM    4  N   UNL     1     -10.718   9.286  70.072  1.00  0.00    -0.224 N  
HETATM    5  H   UNL     1     -10.319  10.206  70.257  1.00  0.00     0.000 HD 
BRANCH   4   6
HETATM    6  C   UNL     1     -10.460   8.666  68.880  1.00  0.00    -0.192 C  
HETATM    7  O   UNL     1      -9.918   7.579  68.782  1.00  0.00    -0.163 OA 
BRANCH   6   8
HETATM    8  N   UNL     1     -10.797   9.434  67.776  1.00  0.00    -0.470 N  
HETATM    9  H   UNL     1     -10.979   8.949  66.897  1.00  0.00     0.000 HD 
BRANCH   8  10
HETATM   10  S   UNL     1     -10.925  11.100  67.786  1.00  0.00    -0.283 S  
HETATM   11  O   UNL     1     -12.149  11.484  68.452  1.00  0.00    -0.556 OA 
HETATM   12  O   UNL     1      -9.642  11.557  68.287  1.00  0.00    -0.177 OA 
BRANCH  10  13
HETATM   13  C   UNL     1     -11.025  11.612  66.107  1.00  0.00    -0.288 A  
HETATM   14  C   UNL     1     -11.612  12.829  65.738  1.00  0.00    -0.376 A  
HETATM   15  N   UNL     1     -10.606  11.031  63.787  1.00  0.00    -0.352 NA 
HETATM   16  C   UNL     1     -11.736  13.070  64.359  1.00  0.00    -0.426 A  
HETATM   17  C   UNL     1     -11.232  12.166  63.439  1.00  0.00    -0.414 A  
HETATM   18  C   UNL     1     -10.529  10.777  65.113  1.00  0.00    -0.229 A  
BRANCH  14  19
HETATM   19  N   UNL     1     -11.957  13.837  66.672  1.00  0.00    -0.413 NA 
HETATM   20  H   UNL     1     -12.956  13.952  66.844  1.00  0.00     0.000 HD 
BRANCH  19  21
HETATM   21  C   UNL     1     -11.110  14.705  67.399  1.00  0.00    -0.326 A  
HETATM   22  C   UNL     1     -10.809  16.284  69.225  1.00  0.00    -0.318 A  
HETATM   23  C   UNL     1     -11.560  15.289  68.588  1.00  0.00    -0.370 A  
HETATM   24  C   UNL     1      -9.613  16.735  68.664  1.00  0.00    -0.255 A  
HETATM   25  C   UNL     1      -9.134  16.156  67.488  1.00  0.00    -0.207 A  
HETATM   26  C   UNL     1      -9.863  15.113  66.902  1.00  0.00    -0.243 A  
HETATM   27  C   UNL     1      -7.910  16.675  66.794  1.00  0.00    -0.290 C  
ENDBRANCH  19  21
ENDBRANCH  14  19
ENDBRANCH  10  13
ENDBRANCH   8  10
ENDBRANCH   6   8
ENDBRANCH   4   6
ENDBRANCH   2   4
TORSDOF 7
ENDMDL
MODEL       84
REMARK 921   NORMALIZED FREE ENERGY PREDICTED BY IDOCK:   -5.33 KCAL/MOL
REMARK 922        TOTAL FREE ENERGY PREDICTED BY IDOCK:   -9.37 KCAL/MOL
REMARK 923 INTER-LIGAND FREE ENERGY PREDICTED BY IDOCK:   -7.61 KCAL/MOL
REMARK 924 INTRA-LIGAND FREE ENERGY PREDICTED BY IDOCK:   -1.76 KCAL/MOL
REMARK 927      BINDING AFFINITY PREDICTED BY RF-SCORE:    0.00 PKD
ROOT
HETATM    1  C   UNL     1      -8.322   5.205  71.226  1.00  0.00    -0.118 C  
HETATM    2  C   UNL     1      -9.355   4.962  70.125  1.00  0.00    -0.154 C  
HETATM    3  C   UNL     1      -9.409   3.484  69.757  1.00  0.00    -0.244 C  
ENDROOT
BRANCH   2   4
HETATM    4  N   UNL     1     -10.675   5.442  70.512  1.00  0.00    -0.240 N  
HETATM    5  H   UNL     1     -11.058   5.184  71.422  1.00  0.00     0.000 HD 
BRANCH   4   6
HETATM    6  C   UNL     1     -11.410   6.235  69.672  1.00  0.00    -0.422 C  
HETATM    7  O   UNL     1     -11.266   6.260  68.463  1.00  0.00    -0.352 OA 
BRANCH   6   8
HETATM    8  N   UNL     1     -12.284   7.080  70.338  1.00  0.00    -0.616 N  
HETATM    9  H   UNL     1     -13.274   7.025  70.098  1.00  0.00     0.000 HD 
BRANCH   8  10
HETATM   10  S   UNL     1     -11.828   8.183  71.508  1.00  0.00    -0.306 S  
HETATM   11  O   UNL     1     -12.819   9.232  71.591  1.00  0.00    -0.329 OA 
HETATM   12  O   UNL     1     -11.521   7.369  72.669  1.00  0.00    -0.309 OA 
BRANCH  10  13
HETATM   13  C   UNL     1     -10.314   8.894  70.972  1.00  0.00    -0.253 A  
HETATM   14  C   UNL     1     -10.222   9.633  69.784  1.00  0.00    -0.237 A  
HETATM   15  N   UNL     1      -7.935   9.144  71.393  1.00  0.00    -0.338 NA 
HETATM   16  C   UNL     1      -8.934  10.049  69.406  1.00  0.00    -0.205 A  
HETATM   17  C   UNL     1      -7.843   9.790  70.220  1.00  0.00    -0.171 A  
HETATM   18  C   UNL     1      -9.167   8.701  71.733  1.00  0.00    -0.268 A  
BRANCH  14  19
HETATM   19  N   UNL     1     -11.354  10.060  69.049  1.00  0.00    -0.450 NA 
HETATM   20  H   UNL     1     -12.054   9.341  68.864  1.00  0.00     0.000 HD 
BRANCH  19  21
HETATM   21  C   UNL     1     -11.649  11.344  68.534  1.00  0.00    -0.318 A  
HETATM   22  C   UNL     1     -11.669  12.886  66.652  1.00  0.00    -0.452 A  
HETATM   23  C   UNL     1     -11.555  11.586  67.160  1.00  0.00    -0.249 A  
HETATM   24  C   UNL     1     -11.842  13.968  67.517  1.00  0.00    -0.442 A  
HETATM   25  C   UNL     1     -11.955  13.752  68.890  1.00  0.00    -0.394 A  
HETATM   26  C   UNL     1     -11.911  12.437  69.374  1.00  0.00    -0.365 A  
HETATM   27  C   UNL     1     -12.040  14.888  69.865  1.00  0.00    -0.379 C  
ENDBRANCH  19  21
ENDBRANCH  14  19
ENDBRANCH  10  13
ENDBRANCH   8  10
ENDBRANCH   6   8
ENDBRANCH   4   6
ENDBRANCH   2   4
TORSDOF 7
ENDMDL
MODEL       85
REMARK 921   NORMALIZED FREE ENERGY PREDICTED BY IDOCK:   -5.33 KCAL/MOL
REMARK 922        TOTAL FREE ENERGY PREDICTED BY IDOCK:   -9.37 KCAL/MOL
REMARK 923 INTER-LIGAND FREE ENERGY PREDICTED BY IDOCK:   -8.47 KCAL/MOL
REMARK 924 INTRA-LIGAND FREE ENERGY PREDICTED BY IDOCK:   -0.90 KCAL/MOL
REMARK 927      BINDING AFFINITY PREDICTED BY RF-SCORE:    0.00 PKD
ROOT
HETATM    1  C   UNL     1     -12.520  11.908  63.259  1.00  0.00    -0.506 C  
HETATM    2  C   UNL     1     -11.139  12.106  63.884  1.00  0.00    -0.404 C  
HETATM    3  C   UNL     1     -10.061  11.469  63.014  1.00  0.00    -0.330 C  
ENDROOT
BRANCH   2   4
HETATM    4  N   UNL     1     -10.848  13.516  64.109  1.00  0.00    -0.565 N  
HETATM    5  H   UNL     1      -9.928  13.884  63.869  1.00  0.00     0.000 HD 
BRANCH   4   6
HETATM    6  C   UNL     1     -11.792  14.354  64.639  1.00  0.00    -0.451 C  
HETATM    7  O   UNL     1     -12.754  14.772  64.019  1.00  0.00    -0.786 OA 
BRANCH   6   8
HETATM    8  N   UNL     1     -11.505  14.758  65.933  1.00  0.00    -0.344 N  
HETATM    9  H   UNL     1     -11.241  15.732  66.079  1.00  0.00     0.000 HD 
BRANCH   8  10
HETATM   10  S   UNL     1     -11.562  13.759  67.272  1.00  0.00    -0.384 S  
HETATM   11  O   UNL     1     -12.080  14.498  68.401  1.00  0.00    -0.302 OA 
HETATM   12  O   UNL     1     -12.241  12.566  66.801  1.00  0.00    -0.532 OA 
BRANCH  10  13
HETATM   13  C   UNL     1      -9.906  13.293  67.629  1.00  0.00    -0.230 A  
HETATM   14  C   UNL     1      -9.605  12.154  68.388  1.00  0.00    -0.186 A  
HETATM   15  N   UNL     1      -7.555  13.869  67.431  1.00  0.00    -0.170 NA 
HETATM   16  C   UNL     1      -8.250  11.954  68.703  1.00  0.00    -0.072 A  
HETATM   17  C   UNL     1      -7.280  12.815  68.216  1.00  0.00    -0.114 A  
HETATM   18  C   UNL     1      -8.864  14.088  67.168  1.00  0.00    -0.228 A  
BRANCH  14  19
HETATM   19  N   UNL     1     -10.568  11.173  68.727  1.00  0.00    -0.193 NA 
HETATM   20  H   UNL     1     -10.758  10.477  68.007  1.00  0.00     0.000 HD 
BRANCH  19  21
HETATM   21  C   UNL     1     -11.303  11.025  69.927  1.00  0.00    -0.287 A  
HETATM   22  C   UNL     1     -12.354   9.566  71.565  1.00  0.00    -0.465 A  
HETATM   23  C   UNL     1     -11.486   9.755  70.483  1.00  0.00    -0.370 A  
HETATM   24  C   UNL     1     -13.080  10.640  72.084  1.00  0.00    -0.382 A  
HETATM   25  C   UNL     1     -12.902  11.919  71.558  1.00  0.00    -0.421 A  
HETATM   26  C   UNL     1     -11.976  12.103  70.522  1.00  0.00    -0.308 A  
HETATM   27  C   UNL     1     -13.732  13.083  72.013  1.00  0.00    -0.441 C  
ENDBRANCH  19  21
ENDBRANCH  14  19
ENDBRANCH  10  13
ENDBRANCH   8  10
ENDBRANCH   6   8
ENDBRANCH   4   6
ENDBRANCH   2   4
TORSDOF 7
ENDMDL
MODEL       86
REMARK 921   NORMALIZED FREE ENERGY PREDICTED BY IDOCK:   -5.32 KCAL/MOL
REMARK 922        TOTAL FREE ENERGY PREDICTED BY IDOCK:   -9.35 KCAL/MOL
REMARK 923 INTER-LIGAND FREE ENERGY PREDICTED BY IDOCK:   -7.46 KCAL/MOL
REMARK 924 INTRA-LIGAND FREE ENERGY PREDICTED BY IDOCK:   -1.89 KCAL/MOL
REMARK 927      BINDING AFFINITY PREDICTED BY RF-SCORE:    0.00 PKD
ROOT
HETATM    1  C   UNL     1     -12.649  14.016  65.548  1.00  0.00    -0.543 C  
HETATM    2  C   UNL     1     -11.261  14.021  64.907  1.00  0.00    -0.362 C  
HETATM    3  C   UNL     1     -10.639  15.411  64.986  1.00  0.00    -0.445 C  
ENDROOT
BRANCH   2   4
HETATM    4  N   UNL     1     -10.383  13.031  65.517  1.00  0.00    -0.290 N  
HETATM    5  H   UNL     1      -9.534  13.337  65.992  1.00  0.00     0.000 HD 
BRANCH   4   6
HETATM    6  C   UNL     1     -10.680  11.696  65.460  1.00  0.00    -0.281 C  
HETATM    7  O   UNL     1     -10.928  11.099  64.427  1.00  0.00    -0.322 OA 
BRANCH   6   8
HETATM    8  N   UNL     1     -10.760  11.097  66.707  1.00  0.00    -0.267 N  
HETATM    9  H   UNL     1     -11.687  10.879  67.071  1.00  0.00     0.000 HD 
BRANCH   8  10
HETATM   10  S   UNL     1      -9.441  10.708  67.657  1.00  0.00    -0.154 S  
HETATM   11  O   UNL     1      -8.627   9.730  66.970  1.00  0.00    -0.124 OA 
HETATM   12  O   UNL     1      -8.882  11.991  68.039  1.00  0.00    -0.165 OA 
BRANCH  10  13
HETATM   13  C   UNL     1     -10.071   9.971  69.123  1.00  0.00    -0.208 A  
HETATM   14  C   UNL     1     -11.116  10.552  69.853  1.00  0.00    -0.307 A  
HETATM   15  N   UNL     1      -9.855   8.166  70.734  1.00  0.00    -0.179 NA 
HETATM   16  C   UNL     1     -11.449   9.930  71.069  1.00  0.00    -0.466 A  
HETATM   17  C   UNL     1     -10.810   8.767  71.463  1.00  0.00    -0.304 A  
HETATM   18  C   UNL     1      -9.501   8.792  69.588  1.00  0.00    -0.170 A  
BRANCH  14  19
HETATM   19  N   UNL     1     -11.896  11.629  69.366  1.00  0.00    -0.326 NA 
HETATM   20  H   UNL     1     -12.475  11.418  68.553  1.00  0.00     0.000 HD 
BRANCH  19  21
HETATM   21  C   UNL     1     -11.984  12.955  69.849  1.00  0.00    -0.307 A  
HETATM   22  C   UNL     1     -12.985  14.558  71.381  1.00  0.00    -0.403 A  
HETATM   23  C   UNL     1     -12.741  13.236  70.991  1.00  0.00    -0.374 A  
HETATM   24  C   UNL     1     -12.505  15.621  70.613  1.00  0.00    -0.463 A  
HETATM   25  C   UNL     1     -11.733  15.368  69.479  1.00  0.00    -0.364 A  
HETATM   26  C   UNL     1     -11.438  14.039  69.144  1.00  0.00    -0.340 A  
HETATM   27  C   UNL     1     -11.282  16.470  68.568  1.00  0.00    -0.296 C  
ENDBRANCH  19  21
ENDBRANCH  14  19
ENDBRANCH  10  13
ENDBRANCH   8  10
ENDBRANCH   6   8
ENDBRANCH   4   6
ENDBRANCH   2   4
TORSDOF 7
ENDMDL
MODEL       87
REMARK 921   NORMALIZED FREE ENERGY PREDICTED BY IDOCK:   -5.30 KCAL/MOL
REMARK 922        TOTAL FREE ENERGY PREDICTED BY IDOCK:   -9.33 KCAL/MOL
REMARK 923 INTER-LIGAND FREE ENERGY PREDICTED BY IDOCK:   -7.88 KCAL/MOL
REMARK 924 INTRA-LIGAND FREE ENERGY PREDICTED BY IDOCK:   -1.45 KCAL/MOL
REMARK 927      BINDING AFFINITY PREDICTED BY RF-SCORE:    0.00 PKD
ROOT
HETATM    1  C   UNL     1      -9.799  11.665  65.201  1.00  0.00    -0.281 C  
HETATM    2  C   UNL     1     -10.468  12.744  64.350  1.00  0.00    -0.386 C  
HETATM    3  C   UNL     1     -11.562  12.139  63.479  1.00  0.00    -0.562 C  
ENDROOT
BRANCH   2   4
HETATM    4  N   UNL     1     -11.005  13.821  65.172  1.00  0.00    -0.320 N  
HETATM    5  H   UNL     1     -10.421  14.630  65.384  1.00  0.00     0.000 HD 
BRANCH   4   6
HETATM    6  C   UNL     1     -12.281  13.762  65.664  1.00  0.00    -0.454 C  
HETATM    7  O   UNL     1     -13.253  14.211  65.084  1.00  0.00    -0.743 OA 
BRANCH   6   8
HETATM    8  N   UNL     1     -12.355  13.217  66.936  1.00  0.00    -0.254 N  
HETATM    9  H   UNL     1     -12.959  12.406  67.071  1.00  0.00     0.000 HD 
BRANCH   8  10
HETATM   10  S   UNL     1     -11.525  13.798  68.265  1.00  0.00    -0.335 S  
HETATM   11  O   UNL     1     -10.110  13.559  68.089  1.00  0.00    -0.235 OA 
HETATM   12  O   UNL     1     -12.025  15.148  68.440  1.00  0.00    -0.299 OA 
BRANCH  10  13
HETATM   13  C   UNL     1     -12.074  12.869  69.653  1.00  0.00    -0.226 A  
HETATM   14  C   UNL     1     -12.195  11.474  69.609  1.00  0.00    -0.229 A  
HETATM   15  N   UNL     1     -12.916  12.941  71.930  1.00  0.00    -0.331 NA 
HETATM   16  C   UNL     1     -12.755  10.860  70.742  1.00  0.00    -0.431 A  
HETATM   17  C   UNL     1     -13.094  11.612  71.855  1.00  0.00    -0.385 A  
HETATM   18  C   UNL     1     -12.421  13.537  70.821  1.00  0.00    -0.353 A  
BRANCH  14  19
HETATM   19  N   UNL     1     -11.679  10.685  68.552  1.00  0.00    -0.663 NA 
HETATM   20  H   UNL     1     -12.112  10.834  67.641  1.00  0.00     0.000 HD 
BRANCH  19  21
HETATM   21  C   UNL     1     -10.646   9.719  68.585  1.00  0.00    -0.221 A  
HETATM   22  C   UNL     1      -8.679   8.800  69.684  1.00  0.00    -0.136 A  
HETATM   23  C   UNL     1      -9.812   9.623  69.703  1.00  0.00    -0.233 A  
HETATM   24  C   UNL     1      -8.346   8.086  68.531  1.00  0.00    -0.127 A  
HETATM   25  C   UNL     1      -9.171   8.151  67.409  1.00  0.00    -0.159 A  
HETATM   26  C   UNL     1     -10.339   8.924  67.470  1.00  0.00    -0.328 A  
HETATM   27  C   UNL     1      -8.802   7.485  66.117  1.00  0.00    -0.185 C  
ENDBRANCH  19  21
ENDBRANCH  14  19
ENDBRANCH  10  13
ENDBRANCH   8  10
ENDBRANCH   6   8
ENDBRANCH   4   6
ENDBRANCH   2   4
TORSDOF 7
ENDMDL
MODEL       88
REMARK 921   NORMALIZED FREE ENERGY PREDICTED BY IDOCK:   -5.30 KCAL/MOL
REMARK 922        TOTAL FREE ENERGY PREDICTED BY IDOCK:   -9.33 KCAL/MOL
REMARK 923 INTER-LIGAND FREE ENERGY PREDICTED BY IDOCK:   -8.00 KCAL/MOL
REMARK 924 INTRA-LIGAND FREE ENERGY PREDICTED BY IDOCK:   -1.33 KCAL/MOL
REMARK 927      BINDING AFFINITY PREDICTED BY RF-SCORE:    0.00 PKD
ROOT
HETATM    1  C   UNL     1      -9.278  16.475  66.183  1.00  0.00    -0.338 C  
HETATM    2  C   UNL     1     -10.098  16.616  67.466  1.00  0.00    -0.273 C  
HETATM    3  C   UNL     1     -10.497  18.070  67.691  1.00  0.00    -0.422 C  
ENDROOT
BRANCH   2   4
HETATM    4  N   UNL     1     -11.275  15.758  67.448  1.00  0.00    -0.240 N  
HETATM    5  H   UNL     1     -11.776  15.610  66.572  1.00  0.00     0.000 HD 
BRANCH   4   6
HETATM    6  C   UNL     1     -11.719  15.147  68.589  1.00  0.00    -0.341 C  
HETATM    7  O   UNL     1     -11.568  15.606  69.708  1.00  0.00    -0.303 OA 
BRANCH   6   8
HETATM    8  N   UNL     1     -12.286  13.903  68.363  1.00  0.00    -0.455 N  
HETATM    9  H   UNL     1     -13.297  13.815  68.467  1.00  0.00     0.000 HD 
BRANCH   8  10
HETATM   10  S   UNL     1     -11.428  12.536  67.930  1.00  0.00    -0.335 S  
HETATM   11  O   UNL     1     -10.029  12.731  68.236  1.00  0.00    -0.223 OA 
HETATM   12  O   UNL     1     -12.166  11.442  68.533  1.00  0.00    -0.557 OA 
BRANCH  10  13
HETATM   13  C   UNL     1     -11.594  12.361  66.189  1.00  0.00    -0.396 A  
HETATM   14  C   UNL     1     -10.678  11.623  65.428  1.00  0.00    -0.287 A  
HETATM   15  N   UNL     1     -12.847  12.985  64.204  1.00  0.00    -0.668 NA 
HETATM   16  C   UNL     1     -10.855  11.657  64.034  1.00  0.00    -0.455 A  
HETATM   17  C   UNL     1     -11.927  12.333  63.476  1.00  0.00    -0.533 A  
HETATM   18  C   UNL     1     -12.650  12.993  65.542  1.00  0.00    -0.362 A  
BRANCH  14  19
HETATM   19  N   UNL     1      -9.697  10.780  66.003  1.00  0.00    -0.208 NA 
HETATM   20  H   UNL     1      -8.896  11.257  66.418  1.00  0.00     0.000 HD 
BRANCH  19  21
HETATM   21  C   UNL     1      -9.671   9.368  66.081  1.00  0.00    -0.265 A  
HETATM   22  C   UNL     1     -10.393   7.323  67.184  1.00  0.00    -0.367 A  
HETATM   23  C   UNL     1     -10.525   8.699  66.964  1.00  0.00    -0.354 A  
HETATM   24  C   UNL     1      -9.379   6.601  66.551  1.00  0.00    -0.191 A  
HETATM   25  C   UNL     1      -8.525   7.241  65.653  1.00  0.00    -0.138 A  
HETATM   26  C   UNL     1      -8.717   8.604  65.390  1.00  0.00    -0.208 A  
HETATM   27  C   UNL     1      -7.361   6.532  65.028  1.00  0.00    -0.078 C  
ENDBRANCH  19  21
ENDBRANCH  14  19
ENDBRANCH  10  13
ENDBRANCH   8  10
ENDBRANCH   6   8
ENDBRANCH   4   6
ENDBRANCH   2   4
TORSDOF 7
ENDMDL
MODEL       89
REMARK 921   NORMALIZED FREE ENERGY PREDICTED BY IDOCK:   -5.30 KCAL/MOL
REMARK 922        TOTAL FREE ENERGY PREDICTED BY IDOCK:   -9.32 KCAL/MOL
REMARK 923 INTER-LIGAND FREE ENERGY PREDICTED BY IDOCK:   -7.65 KCAL/MOL
REMARK 924 INTRA-LIGAND FREE ENERGY PREDICTED BY IDOCK:   -1.67 KCAL/MOL
REMARK 927      BINDING AFFINITY PREDICTED BY RF-SCORE:    0.00 PKD
ROOT
HETATM    1  C   UNL     1      -8.478   8.886  71.206  1.00  0.00    -0.239 C  
HETATM    2  C   UNL     1      -9.274   9.228  69.946  1.00  0.00    -0.195 C  
HETATM    3  C   UNL     1     -10.629   8.530  69.963  1.00  0.00    -0.230 C  
ENDROOT
BRANCH   2   4
HETATM    4  N   UNL     1      -9.440  10.667  69.788  1.00  0.00    -0.388 N  
HETATM    5  H   UNL     1     -10.066  11.172  70.415  1.00  0.00     0.000 HD 
BRANCH   4   6
HETATM    6  C   UNL     1      -8.769  11.350  68.811  1.00  0.00    -0.076 C  
HETATM    7  O   UNL     1      -7.561  11.511  68.801  1.00  0.00    -0.127 OA 
BRANCH   6   8
HETATM    8  N   UNL     1      -9.607  11.925  67.867  1.00  0.00    -0.187 N  
HETATM    9  H   UNL     1      -9.444  12.901  67.619  1.00  0.00     0.000 HD 
BRANCH   8  10
HETATM   10  S   UNL     1     -10.865  11.129  67.108  1.00  0.00    -0.282 S  
HETATM   11  O   UNL     1     -10.393   9.863  66.596  1.00  0.00    -0.231 OA 
HETATM   12  O   UNL     1     -11.951  11.174  68.070  1.00  0.00    -0.625 OA 
BRANCH  10  13
HETATM   13  C   UNL     1     -11.351  12.129  65.747  1.00  0.00    -0.354 A  
HETATM   14  C   UNL     1     -12.104  13.298  65.919  1.00  0.00    -0.441 A  
HETATM   15  N   UNL     1     -11.369  12.389  63.332  1.00  0.00    -0.455 NA 
HETATM   16  C   UNL     1     -12.528  13.945  64.746  1.00  0.00    -0.386 A  
HETATM   17  C   UNL     1     -12.148  13.470  63.502  1.00  0.00    -0.364 A  
HETATM   18  C   UNL     1     -11.000  11.739  64.460  1.00  0.00    -0.324 A  
BRANCH  14  19
HETATM   19  N   UNL     1     -12.335  13.891  67.184  1.00  0.00    -0.500 NA 
HETATM   20  H   UNL     1     -13.129  13.518  67.705  1.00  0.00     0.000 HD 
BRANCH  19  21
HETATM   21  C   UNL     1     -11.619  14.928  67.826  1.00  0.00    -0.339 A  
HETATM   22  C   UNL     1     -11.220  16.269  69.817  1.00  0.00    -0.314 A  
HETATM   23  C   UNL     1     -11.779  15.144  69.199  1.00  0.00    -0.349 A  
HETATM   24  C   UNL     1     -10.522  17.215  69.063  1.00  0.00    -0.321 A  
HETATM   25  C   UNL     1     -10.334  17.014  67.695  1.00  0.00    -0.332 A  
HETATM   26  C   UNL     1     -10.839  15.846  67.107  1.00  0.00    -0.267 A  
HETATM   27  C   UNL     1      -9.681  18.048  66.827  1.00  0.00    -0.323 C  
ENDBRANCH  19  21
ENDBRANCH  14  19
ENDBRANCH  10  13
ENDBRANCH   8  10
ENDBRANCH   6   8
ENDBRANCH   4   6
ENDBRANCH   2   4
TORSDOF 7
ENDMDL
MODEL       90
REMARK 921   NORMALIZED FREE ENERGY PREDICTED BY IDOCK:   -5.29 KCAL/MOL
REMARK 922        TOTAL FREE ENERGY PREDICTED BY IDOCK:   -9.31 KCAL/MOL
REMARK 923 INTER-LIGAND FREE ENERGY PREDICTED BY IDOCK:   -7.61 KCAL/MOL
REMARK 924 INTRA-LIGAND FREE ENERGY PREDICTED BY IDOCK:   -1.70 KCAL/MOL
REMARK 927      BINDING AFFINITY PREDICTED BY RF-SCORE:    0.00 PKD
ROOT
HETATM    1  C   UNL     1      -8.127   9.788  64.817  1.00  0.00    -0.146 C  
HETATM    2  C   UNL     1      -9.408  10.099  65.592  1.00  0.00    -0.199 C  
HETATM    3  C   UNL     1      -9.869   8.877  66.378  1.00  0.00    -0.353 C  
ENDROOT
BRANCH   2   4
HETATM    4  N   UNL     1      -9.236  11.243  66.478  1.00  0.00    -0.182 N  
HETATM    5  H   UNL     1      -9.449  12.180  66.136  1.00  0.00     0.000 HD 
BRANCH   4   6
HETATM    6  C   UNL     1      -8.792  11.079  67.762  1.00  0.00    -0.133 C  
HETATM    7  O   UNL     1      -7.666  10.714  68.050  1.00  0.00    -0.097 OA 
BRANCH   6   8
HETATM    8  N   UNL     1      -9.778  11.283  68.715  1.00  0.00    -0.294 N  
HETATM    9  H   UNL     1      -9.661  10.834  69.623  1.00  0.00     0.000 HD 
BRANCH   8  10
HETATM   10  S   UNL     1     -11.144  12.216  68.479  1.00  0.00    -0.273 S  
HETATM   11  O   UNL     1     -10.752  13.568  68.151  1.00  0.00    -0.239 OA 
HETATM   12  O   UNL     1     -11.953  11.441  67.556  1.00  0.00    -0.626 OA 
BRANCH  10  13
HETATM   13  C   UNL     1     -12.009  12.246  70.009  1.00  0.00    -0.304 A  
HETATM   14  C   UNL     1     -12.451  11.072  70.633  1.00  0.00    -0.373 A  
HETATM   15  N   UNL     1     -12.995  13.625  71.748  1.00  0.00    -0.354 NA 
HETATM   16  C   UNL     1     -13.232  11.236  71.790  1.00  0.00    -0.480 A  
HETATM   17  C   UNL     1     -13.475  12.500  72.302  1.00  0.00    -0.386 A  
HETATM   18  C   UNL     1     -12.285  13.470  70.608  1.00  0.00    -0.358 A  
BRANCH  14  19
HETATM   19  N   UNL     1     -12.050   9.778  70.221  1.00  0.00    -0.469 NA 
HETATM   20  H   UNL     1     -12.105   9.600  69.218  1.00  0.00     0.000 HD 
BRANCH  19  21
HETATM   21  C   UNL     1     -11.584   8.698  71.007  1.00  0.00    -0.281 A  
HETATM   22  C   UNL     1     -12.002   6.539  72.048  1.00  0.00    -0.372 A  
HETATM   23  C   UNL     1     -12.360   7.542  71.138  1.00  0.00    -0.321 A  
HETATM   24  C   UNL     1     -10.882   6.695  72.865  1.00  0.00    -0.293 A  
HETATM   25  C   UNL     1     -10.082   7.831  72.742  1.00  0.00    -0.344 A  
HETATM   26  C   UNL     1     -10.414   8.792  71.776  1.00  0.00    -0.417 A  
HETATM   27  C   UNL     1      -8.930   8.091  73.666  1.00  0.00    -0.313 C  
ENDBRANCH  19  21
ENDBRANCH  14  19
ENDBRANCH  10  13
ENDBRANCH   8  10
ENDBRANCH   6   8
ENDBRANCH   4   6
ENDBRANCH   2   4
TORSDOF 7
ENDMDL
MODEL       91
REMARK 921   NORMALIZED FREE ENERGY PREDICTED BY IDOCK:   -5.26 KCAL/MOL
REMARK 922        TOTAL FREE ENERGY PREDICTED BY IDOCK:   -9.27 KCAL/MOL
REMARK 923 INTER-LIGAND FREE ENERGY PREDICTED BY IDOCK:   -8.72 KCAL/MOL
REMARK 924 INTRA-LIGAND FREE ENERGY PREDICTED BY IDOCK:   -0.55 KCAL/MOL
REMARK 927      BINDING AFFINITY PREDICTED BY RF-SCORE:    0.00 PKD
ROOT
HETATM    1  C   UNL     1      -9.429  16.669  65.986  1.00  0.00    -0.286 C  
HETATM    2  C   UNL     1      -8.284  17.009  66.940  1.00  0.00    -0.213 C  
HETATM    3  C   UNL     1      -7.322  17.998  66.292  1.00  0.00    -0.317 C  
ENDROOT
BRANCH   2   4
HETATM    4  N   UNL     1      -8.778  17.530  68.208  1.00  0.00    -0.263 N  
HETATM    5  H   UNL     1      -8.140  17.611  69.001  1.00  0.00     0.000 HD 
BRANCH   4   6
HETATM    6  C   UNL     1     -10.084  17.913  68.352  1.00  0.00    -0.383 C  
HETATM    7  O   UNL     1     -10.603  18.810  67.711  1.00  0.00    -0.410 OA 
BRANCH   6   8
HETATM    8  N   UNL     1     -10.747  17.239  69.365  1.00  0.00    -0.354 N  
HETATM    9  H   UNL     1     -11.168  17.795  70.109  1.00  0.00     0.000 HD 
BRANCH   8  10
HETATM   10  S   UNL     1     -10.903  15.577  69.452  1.00  0.00    -0.286 S  
HETATM   11  O   UNL     1     -11.681  15.108  68.328  1.00  0.00    -0.338 OA 
HETATM   12  O   UNL     1      -9.548  15.099  69.659  1.00  0.00    -0.205 OA 
BRANCH  10  13
HETATM   13  C   UNL     1     -11.795  15.227  70.925  1.00  0.00    -0.341 A  
HETATM   14  C   UNL     1     -12.417  13.990  71.138  1.00  0.00    -0.371 A  
HETATM   15  N   UNL     1     -12.620  16.084  73.043  1.00  0.00    -0.467 NA 
HETATM   16  C   UNL     1     -13.196  13.875  72.302  1.00  0.00    -0.568 A  
HETATM   17  C   UNL     1     -13.269  14.921  73.206  1.00  0.00    -0.386 A  
HETATM   18  C   UNL     1     -11.908  16.212  71.899  1.00  0.00    -0.525 A  
BRANCH  14  19
HETATM   19  N   UNL     1     -12.194  12.860  70.314  1.00  0.00    -0.326 NA 
HETATM   20  H   UNL     1     -12.025  13.061  69.329  1.00  0.00     0.000 HD 
BRANCH  19  21
HETATM   21  C   UNL     1     -12.173  11.490  70.668  1.00  0.00    -0.378 A  
HETATM   22  C   UNL     1     -13.010   9.680  72.062  1.00  0.00    -0.518 A  
HETATM   23  C   UNL     1     -13.121  10.984  71.564  1.00  0.00    -0.500 A  
HETATM   24  C   UNL     1     -11.929   8.875  71.698  1.00  0.00    -0.415 A  
HETATM   25  C   UNL     1     -10.980   9.351  70.794  1.00  0.00    -0.371 A  
HETATM   26  C   UNL     1     -11.145  10.632  70.250  1.00  0.00    -0.310 A  
HETATM   27  C   UNL     1      -9.749   8.564  70.453  1.00  0.00    -0.193 C  
ENDBRANCH  19  21
ENDBRANCH  14  19
ENDBRANCH  10  13
ENDBRANCH   8  10
ENDBRANCH   6   8
ENDBRANCH   4   6
ENDBRANCH   2   4
TORSDOF 7
ENDMDL
MODEL       92
REMARK 921   NORMALIZED FREE ENERGY PREDICTED BY IDOCK:   -5.26 KCAL/MOL
REMARK 922        TOTAL FREE ENERGY PREDICTED BY IDOCK:   -9.27 KCAL/MOL
REMARK 923 INTER-LIGAND FREE ENERGY PREDICTED BY IDOCK:   -7.62 KCAL/MOL
REMARK 924 INTRA-LIGAND FREE ENERGY PREDICTED BY IDOCK:   -1.65 KCAL/MOL
REMARK 927      BINDING AFFINITY PREDICTED BY RF-SCORE:    0.00 PKD
ROOT
HETATM    1  C   UNL     1      -6.437  12.862  67.529  1.00  0.00    -0.162 C  
HETATM    2  C   UNL     1      -7.812  12.693  68.176  1.00  0.00    -0.145 C  
HETATM    3  C   UNL     1      -7.964  11.290  68.754  1.00  0.00    -0.137 C  
ENDROOT
BRANCH   2   4
HETATM    4  N   UNL     1      -8.050  13.699  69.203  1.00  0.00    -0.321 N  
HETATM    5  H   UNL     1      -7.693  13.548  70.147  1.00  0.00     0.000 HD 
BRANCH   4   6
HETATM    6  C   UNL     1      -8.747  14.842  68.921  1.00  0.00    -0.180 C  
HETATM    7  O   UNL     1      -8.467  15.600  68.009  1.00  0.00    -0.145 OA 
BRANCH   6   8
HETATM    8  N   UNL     1      -9.758  15.109  69.830  1.00  0.00    -0.471 N  
HETATM    9  H   UNL     1      -9.488  15.381  70.775  1.00  0.00     0.000 HD 
BRANCH   8  10
HETATM   10  S   UNL     1     -11.391  15.016  69.485  1.00  0.00    -0.307 S  
HETATM   11  O   UNL     1     -12.115  14.653  70.683  1.00  0.00    -0.277 OA 
HETATM   12  O   UNL     1     -11.685  16.259  68.797  1.00  0.00    -0.317 OA 
BRANCH  10  13
HETATM   13  C   UNL     1     -11.588  13.725  68.308  1.00  0.00    -0.338 A  
HETATM   14  C   UNL     1     -11.391  12.380  68.645  1.00  0.00    -0.288 A  
HETATM   15  N   UNL     1     -12.044  13.152  65.993  1.00  0.00    -0.430 NA 
HETATM   16  C   UNL     1     -11.464  11.455  67.589  1.00  0.00    -0.348 A  
HETATM   17  C   UNL     1     -11.785  11.873  66.309  1.00  0.00    -0.147 A  
HETATM   18  C   UNL     1     -11.926  14.048  67.000  1.00  0.00    -0.438 A  
BRANCH  14  19
HETATM   19  N   UNL     1     -11.248  11.928  69.980  1.00  0.00    -0.485 NA 
HETATM   20  H   UNL     1     -10.733  12.552  70.601  1.00  0.00     0.000 HD 
BRANCH  19  21
HETATM   21  C   UNL     1     -11.721  10.734  70.571  1.00  0.00    -0.351 A  
HETATM   22  C   UNL     1     -13.501   9.531  71.714  1.00  0.00    -0.480 A  
HETATM   23  C   UNL     1     -13.058  10.631  70.970  1.00  0.00    -0.376 A  
HETATM   24  C   UNL     1     -12.604   8.533  72.100  1.00  0.00    -0.431 A  
HETATM   25  C   UNL     1     -11.269   8.603  71.700  1.00  0.00    -0.379 A  
HETATM   26  C   UNL     1     -10.859   9.675  70.896  1.00  0.00    -0.409 A  
HETATM   27  C   UNL     1     -10.249   7.612  72.175  1.00  0.00    -0.256 C  
ENDBRANCH  19  21
ENDBRANCH  14  19
ENDBRANCH  10  13
ENDBRANCH   8  10
ENDBRANCH   6   8
ENDBRANCH   4   6
ENDBRANCH   2   4
TORSDOF 7
ENDMDL
MODEL       93
REMARK 921   NORMALIZED FREE ENERGY PREDICTED BY IDOCK:   -5.25 KCAL/MOL
REMARK 922        TOTAL FREE ENERGY PREDICTED BY IDOCK:   -9.25 KCAL/MOL
REMARK 923 INTER-LIGAND FREE ENERGY PREDICTED BY IDOCK:   -8.12 KCAL/MOL
REMARK 924 INTRA-LIGAND FREE ENERGY PREDICTED BY IDOCK:   -1.13 KCAL/MOL
REMARK 927      BINDING AFFINITY PREDICTED BY RF-SCORE:    0.00 PKD
ROOT
HETATM    1  C   UNL     1      -6.680  11.895  67.870  1.00  0.00    -0.079 C  
HETATM    2  C   UNL     1      -8.011  11.161  68.031  1.00  0.00    -0.117 C  
HETATM    3  C   UNL     1      -7.821   9.871  68.821  1.00  0.00    -0.091 C  
ENDROOT
BRANCH   2   4
HETATM    4  N   UNL     1      -9.018  12.005  68.662  1.00  0.00    -0.373 N  
HETATM    5  H   UNL     1      -9.292  11.823  69.628  1.00  0.00     0.000 HD 
BRANCH   4   6
HETATM    6  C   UNL     1      -9.601  13.037  67.979  1.00  0.00    -0.224 C  
HETATM    7  O   UNL     1      -9.572  13.151  66.766  1.00  0.00    -0.236 OA 
BRANCH   6   8
HETATM    8  N   UNL     1     -10.158  14.000  68.806  1.00  0.00    -0.328 N  
HETATM    9  H   UNL     1      -9.562  14.414  69.522  1.00  0.00     0.000 HD 
BRANCH   8  10
HETATM   10  S   UNL     1     -11.740  14.529  68.711  1.00  0.00    -0.328 S  
HETATM   11  O   UNL     1     -11.757  15.944  68.417  1.00  0.00    -0.358 OA 
HETATM   12  O   UNL     1     -12.382  13.584  67.815  1.00  0.00    -0.237 OA 
BRANCH  10  13
HETATM   13  C   UNL     1     -12.454  14.286  70.299  1.00  0.00    -0.361 A  
HETATM   14  C   UNL     1     -12.557  13.014  70.877  1.00  0.00    -0.280 A  
HETATM   15  N   UNL     1     -13.579  15.313  72.190  1.00  0.00    -0.427 NA 
HETATM   16  C   UNL     1     -13.251  12.937  72.096  1.00  0.00    -0.552 A  
HETATM   17  C   UNL     1     -13.735  14.083  72.705  1.00  0.00    -0.477 A  
HETATM   18  C   UNL     1     -12.952  15.381  70.993  1.00  0.00    -0.492 A  
BRANCH  14  19
HETATM   19  N   UNL     1     -11.904  11.871  70.355  1.00  0.00    -0.509 NA 
HETATM   20  H   UNL     1     -11.451  11.998  69.450  1.00  0.00     0.000 HD 
BRANCH  19  21
HETATM   21  C   UNL     1     -11.792  10.576  70.914  1.00  0.00    -0.355 A  
HETATM   22  C   UNL     1     -12.790   8.755  72.181  1.00  0.00    -0.456 A  
HETATM   23  C   UNL     1     -12.915   9.953  71.468  1.00  0.00    -0.523 A  
HETATM   24  C   UNL     1     -11.534   8.180  72.381  1.00  0.00    -0.462 A  
HETATM   25  C   UNL     1     -10.400   8.772  71.825  1.00  0.00    -0.413 A  
HETATM   26  C   UNL     1     -10.552   9.933  71.054  1.00  0.00    -0.173 A  
HETATM   27  C   UNL     1      -9.021   8.250  72.097  1.00  0.00    -0.274 C  
ENDBRANCH  19  21
ENDBRANCH  14  19
ENDBRANCH  10  13
ENDBRANCH   8  10
ENDBRANCH   6   8
ENDBRANCH   4   6
ENDBRANCH   2   4
TORSDOF 7
ENDMDL
MODEL       94
REMARK 921   NORMALIZED FREE ENERGY PREDICTED BY IDOCK:   -5.24 KCAL/MOL
REMARK 922        TOTAL FREE ENERGY PREDICTED BY IDOCK:   -9.24 KCAL/MOL
REMARK 923 INTER-LIGAND FREE ENERGY PREDICTED BY IDOCK:   -7.99 KCAL/MOL
REMARK 924 INTRA-LIGAND FREE ENERGY PREDICTED BY IDOCK:   -1.26 KCAL/MOL
REMARK 927      BINDING AFFINITY PREDICTED BY RF-SCORE:    0.00 PKD
ROOT
HETATM    1  C   UNL     1     -10.629  19.735  65.665  1.00  0.00    -0.456 C  
HETATM    2  C   UNL     1      -9.913  18.659  66.483  1.00  0.00    -0.380 C  
HETATM    3  C   UNL     1      -8.529  19.139  66.906  1.00  0.00    -0.309 C  
ENDROOT
BRANCH   2   4
HETATM    4  N   UNL     1     -10.694  18.259  67.647  1.00  0.00    -0.403 N  
HETATM    5  H   UNL     1     -11.348  18.922  68.065  1.00  0.00     0.000 HD 
BRANCH   4   6
HETATM    6  C   UNL     1     -10.563  17.009  68.186  1.00  0.00    -0.369 C  
HETATM    7  O   UNL     1     -10.057  16.787  69.272  1.00  0.00    -0.271 OA 
BRANCH   6   8
HETATM    8  N   UNL     1     -10.985  15.997  67.338  1.00  0.00    -0.284 N  
HETATM    9  H   UNL     1     -11.896  16.099  66.892  1.00  0.00     0.000 HD 
BRANCH   8  10
HETATM   10  S   UNL     1     -10.102  14.620  66.995  1.00  0.00    -0.252 S  
HETATM   11  O   UNL     1      -8.752  14.991  66.637  1.00  0.00    -0.265 OA 
HETATM   12  O   UNL     1     -10.348  13.744  68.126  1.00  0.00    -0.238 OA 
BRANCH  10  13
HETATM   13  C   UNL     1     -10.858  13.867  65.598  1.00  0.00    -0.292 A  
HETATM   14  C   UNL     1     -10.328  12.716  65.001  1.00  0.00    -0.299 A  
HETATM   15  N   UNL     1     -12.632  13.992  63.945  1.00  0.00    -0.746 NA 
HETATM   16  C   UNL     1     -10.955  12.279  63.822  1.00  0.00    -0.495 A  
HETATM   17  C   UNL     1     -12.078  12.930  63.339  1.00  0.00    -0.530 A  
HETATM   18  C   UNL     1     -12.000  14.441  65.053  1.00  0.00    -0.412 A  
BRANCH  14  19
HETATM   19  N   UNL     1      -9.300  11.940  65.591  1.00  0.00    -0.387 NA 
HETATM   20  H   UNL     1      -8.359  12.327  65.514  1.00  0.00     0.000 HD 
BRANCH  19  21
HETATM   21  C   UNL     1      -9.397  10.704  66.272  1.00  0.00    -0.171 A  
HETATM   22  C   UNL     1      -9.463   8.273  66.189  1.00  0.00    -0.241 A  
HETATM   23  C   UNL     1      -9.199   9.505  65.579  1.00  0.00    -0.292 A  
HETATM   24  C   UNL     1      -9.964   8.224  67.491  1.00  0.00    -0.252 A  
HETATM   25  C   UNL     1     -10.154   9.404  68.210  1.00  0.00    -0.210 A  
HETATM   26  C   UNL     1      -9.817  10.624  67.608  1.00  0.00    -0.191 A  
HETATM   27  C   UNL     1     -10.785   9.408  69.570  1.00  0.00    -0.238 C  
ENDBRANCH  19  21
ENDBRANCH  14  19
ENDBRANCH  10  13
ENDBRANCH   8  10
ENDBRANCH   6   8
ENDBRANCH   4   6
ENDBRANCH   2   4
TORSDOF 7
ENDMDL
MODEL       95
REMARK 921   NORMALIZED FREE ENERGY PREDICTED BY IDOCK:   -5.24 KCAL/MOL
REMARK 922        TOTAL FREE ENERGY PREDICTED BY IDOCK:   -9.23 KCAL/MOL
REMARK 923 INTER-LIGAND FREE ENERGY PREDICTED BY IDOCK:   -7.51 KCAL/MOL
REMARK 924 INTRA-LIGAND FREE ENERGY PREDICTED BY IDOCK:   -1.72 KCAL/MOL
REMARK 927      BINDING AFFINITY PREDICTED BY RF-SCORE:    0.00 PKD
ROOT
HETATM    1  C   UNL     1      -9.465   9.714  65.626  1.00  0.00    -0.318 C  
HETATM    2  C   UNL     1      -8.692  10.409  66.748  1.00  0.00    -0.127 C  
HETATM    3  C   UNL     1      -7.533   9.539  67.219  1.00  0.00    -0.091 C  
ENDROOT
BRANCH   2   4
HETATM    4  N   UNL     1      -8.213  11.723  66.337  1.00  0.00    -0.367 N  
HETATM    5  H   UNL     1      -7.766  11.832  65.427  1.00  0.00     0.000 HD 
BRANCH   4   6
HETATM    6  C   UNL     1      -8.355  12.811  67.154  1.00  0.00    -0.164 C  
HETATM    7  O   UNL     1      -8.006  12.834  68.322  1.00  0.00    -0.139 OA 
BRANCH   6   8
HETATM    8  N   UNL     1      -9.018  13.869  66.552  1.00  0.00    -0.456 N  
HETATM    9  H   UNL     1      -8.458  14.551  66.041  1.00  0.00     0.000 HD 
BRANCH   8  10
HETATM   10  S   UNL     1     -10.672  14.104  66.607  1.00  0.00    -0.292 S  
HETATM   11  O   UNL     1     -11.026  15.223  65.763  1.00  0.00    -0.338 OA 
HETATM   12  O   UNL     1     -11.230  12.788  66.355  1.00  0.00    -0.277 OA 
BRANCH  10  13
HETATM   13  C   UNL     1     -11.072  14.515  68.268  1.00  0.00    -0.261 A  
HETATM   14  C   UNL     1     -10.338  15.463  68.993  1.00  0.00    -0.243 A  
HETATM   15  N   UNL     1     -12.495  14.049  70.180  1.00  0.00    -0.341 NA 
HETATM   16  C   UNL     1     -10.684  15.617  70.346  1.00  0.00    -0.336 A  
HETATM   17  C   UNL     1     -11.743  14.908  70.888  1.00  0.00    -0.323 A  
HETATM   18  C   UNL     1     -12.131  13.866  68.890  1.00  0.00    -0.319 A  
BRANCH  14  19
HETATM   19  N   UNL     1      -9.383  16.322  68.399  1.00  0.00    -0.204 NA 
HETATM   20  H   UNL     1      -8.497  15.885  68.144  1.00  0.00     0.000 HD 
BRANCH  19  21
HETATM   21  C   UNL     1      -9.485  17.703  68.110  1.00  0.00    -0.286 A  
HETATM   22  C   UNL     1     -10.737  19.545  67.130  1.00  0.00    -0.599 A  
HETATM   23  C   UNL     1     -10.673  18.223  67.587  1.00  0.00    -0.373 A  
HETATM   24  C   UNL     1      -9.601  20.356  67.158  1.00  0.00    -0.587 A  
HETATM   25  C   UNL     1      -8.408  19.867  67.690  1.00  0.00    -0.362 A  
HETATM   26  C   UNL     1      -8.382  18.565  68.208  1.00  0.00    -0.344 A  
HETATM   27  C   UNL     1      -7.138  20.664  67.648  1.00  0.00    -0.366 C  
ENDBRANCH  19  21
ENDBRANCH  14  19
ENDBRANCH  10  13
ENDBRANCH   8  10
ENDBRANCH   6   8
ENDBRANCH   4   6
ENDBRANCH   2   4
TORSDOF 7
ENDMDL
MODEL       96
REMARK 921   NORMALIZED FREE ENERGY PREDICTED BY IDOCK:   -5.20 KCAL/MOL
REMARK 922        TOTAL FREE ENERGY PREDICTED BY IDOCK:   -9.18 KCAL/MOL
REMARK 923 INTER-LIGAND FREE ENERGY PREDICTED BY IDOCK:   -7.42 KCAL/MOL
REMARK 924 INTRA-LIGAND FREE ENERGY PREDICTED BY IDOCK:   -1.76 KCAL/MOL
REMARK 927      BINDING AFFINITY PREDICTED BY RF-SCORE:    0.00 PKD
ROOT
HETATM    1  C   UNL     1     -10.419   9.074  67.133  1.00  0.00    -0.333 C  
HETATM    2  C   UNL     1      -9.043   9.671  66.834  1.00  0.00    -0.138 C  
HETATM    3  C   UNL     1      -8.538   9.200  65.475  1.00  0.00    -0.192 C  
ENDROOT
BRANCH   2   4
HETATM    4  N   UNL     1      -9.064  11.127  66.896  1.00  0.00    -0.156 N  
HETATM    5  H   UNL     1      -9.334  11.661  66.070  1.00  0.00     0.000 HD 
BRANCH   4   6
HETATM    6  C   UNL     1      -8.725  11.788  68.045  1.00  0.00    -0.167 C  
HETATM    7  O   UNL     1      -8.339  11.233  69.059  1.00  0.00    -0.114 OA 
BRANCH   6   8
HETATM    8  N   UNL     1      -8.947  13.154  67.980  1.00  0.00    -0.189 N  
HETATM    9  H   UNL     1      -8.367  13.758  68.562  1.00  0.00     0.000 HD 
BRANCH   8  10
HETATM   10  S   UNL     1     -10.100  13.881  67.013  1.00  0.00    -0.260 S  
HETATM   11  O   UNL     1      -9.692  13.791  65.629  1.00  0.00    -0.221 OA 
HETATM   12  O   UNL     1     -11.355  13.298  67.449  1.00  0.00    -0.277 OA 
BRANCH  10  13
HETATM   13  C   UNL     1     -10.146  15.579  67.466  1.00  0.00    -0.241 A  
HETATM   14  C   UNL     1     -10.494  15.991  68.759  1.00  0.00    -0.248 A  
HETATM   15  N   UNL     1      -9.915  17.879  66.719  1.00  0.00    -0.322 NA 
HETATM   16  C   UNL     1     -10.608  17.377  68.962  1.00  0.00    -0.207 A  
HETATM   17  C   UNL     1     -10.317  18.265  67.941  1.00  0.00    -0.399 A  
HETATM   18  C   UNL     1      -9.852  16.544  66.509  1.00  0.00    -0.278 A  
BRANCH  14  19
HETATM   19  N   UNL     1     -10.609  15.098  69.851  1.00  0.00    -0.365 NA 
HETATM   20  H   UNL     1      -9.845  14.429  69.954  1.00  0.00     0.000 HD 
BRANCH  19  21
HETATM   21  C   UNL     1     -11.636  15.003  70.820  1.00  0.00    -0.317 A  
HETATM   22  C   UNL     1     -13.974  14.589  71.351  1.00  0.00    -0.432 A  
HETATM   23  C   UNL     1     -12.899  14.524  70.457  1.00  0.00    -0.361 A  
HETATM   24  C   UNL     1     -13.809  15.167  72.612  1.00  0.00    -0.567 A  
HETATM   25  C   UNL     1     -12.556  15.636  73.004  1.00  0.00    -0.568 A  
HETATM   26  C   UNL     1     -11.475  15.499  72.122  1.00  0.00    -0.512 A  
HETATM   27  C   UNL     1     -12.353  16.356  74.304  1.00  0.00    -0.561 C  
ENDBRANCH  19  21
ENDBRANCH  14  19
ENDBRANCH  10  13
ENDBRANCH   8  10
ENDBRANCH   6   8
ENDBRANCH   4   6
ENDBRANCH   2   4
TORSDOF 7
ENDMDL
MODEL       97
REMARK 921   NORMALIZED FREE ENERGY PREDICTED BY IDOCK:   -5.20 KCAL/MOL
REMARK 922        TOTAL FREE ENERGY PREDICTED BY IDOCK:   -9.18 KCAL/MOL
REMARK 923 INTER-LIGAND FREE ENERGY PREDICTED BY IDOCK:   -7.56 KCAL/MOL
REMARK 924 INTRA-LIGAND FREE ENERGY PREDICTED BY IDOCK:   -1.62 KCAL/MOL
REMARK 927      BINDING AFFINITY PREDICTED BY RF-SCORE:    0.00 PKD
ROOT
HETATM    1  C   UNL     1      -5.636  12.551  67.909  1.00  0.00    -0.095 C  
HETATM    2  C   UNL     1      -7.008  12.901  67.332  1.00  0.00    -0.124 C  
HETATM    3  C   UNL     1      -7.870  11.650  67.200  1.00  0.00    -0.163 C  
ENDROOT
BRANCH   2   4
HETATM    4  N   UNL     1      -7.688  13.909  68.136  1.00  0.00    -0.128 N  
HETATM    5  H   UNL     1      -7.996  13.675  69.080  1.00  0.00     0.000 HD 
BRANCH   4   6
HETATM    6  C   UNL     1      -7.919  15.164  67.643  1.00  0.00    -0.161 C  
HETATM    7  O   UNL     1      -7.188  15.727  66.847  1.00  0.00    -0.196 OA 
BRANCH   6   8
HETATM    8  N   UNL     1      -9.028  15.779  68.204  1.00  0.00    -0.178 N  
HETATM    9  H   UNL     1      -8.992  16.010  69.197  1.00  0.00     0.000 HD 
BRANCH   8  10
HETATM   10  S   UNL     1     -10.419  16.170  67.365  1.00  0.00    -0.310 S  
HETATM   11  O   UNL     1     -11.400  16.703  68.283  1.00  0.00    -0.309 OA 
HETATM   12  O   UNL     1      -9.953  16.965  66.245  1.00  0.00    -0.282 OA 
BRANCH  10  13
HETATM   13  C   UNL     1     -11.047  14.671  66.696  1.00  0.00    -0.334 A  
HETATM   14  C   UNL     1     -11.110  13.492  67.451  1.00  0.00    -0.281 A  
HETATM   15  N   UNL     1     -11.911  13.539  64.729  1.00  0.00    -0.372 NA 
HETATM   16  C   UNL     1     -11.521  12.335  66.768  1.00  0.00    -0.421 A  
HETATM   17  C   UNL     1     -11.904  12.400  65.439  1.00  0.00    -0.406 A  
HETATM   18  C   UNL     1     -11.470  14.644  65.373  1.00  0.00    -0.352 A  
BRANCH  14  19
HETATM   19  N   UNL     1     -10.901  13.458  68.851  1.00  0.00    -0.314 NA 
HETATM   20  H   UNL     1      -9.942  13.627  69.156  1.00  0.00     0.000 HD 
BRANCH  19  21
HETATM   21  C   UNL     1     -11.836  13.222  69.886  1.00  0.00    -0.310 A  
HETATM   22  C   UNL     1     -13.104  14.058  71.787  1.00  0.00    -0.449 A  
HETATM   23  C   UNL     1     -12.319  14.289  70.651  1.00  0.00    -0.431 A  
HETATM   24  C   UNL     1     -13.388  12.754  72.196  1.00  0.00    -0.593 A  
HETATM   25  C   UNL     1     -12.933  11.673  71.441  1.00  0.00    -0.426 A  
HETATM   26  C   UNL     1     -12.209  11.924  70.267  1.00  0.00    -0.353 A  
HETATM   27  C   UNL     1     -13.125  10.256  71.894  1.00  0.00    -0.568 C  
ENDBRANCH  19  21
ENDBRANCH  14  19
ENDBRANCH  10  13
ENDBRANCH   8  10
ENDBRANCH   6   8
ENDBRANCH   4   6
ENDBRANCH   2   4
TORSDOF 7
ENDMDL
MODEL       98
REMARK 921   NORMALIZED FREE ENERGY PREDICTED BY IDOCK:   -5.18 KCAL/MOL
REMARK 922        TOTAL FREE ENERGY PREDICTED BY IDOCK:   -9.15 KCAL/MOL
REMARK 923 INTER-LIGAND FREE ENERGY PREDICTED BY IDOCK:   -7.70 KCAL/MOL
REMARK 924 INTRA-LIGAND FREE ENERGY PREDICTED BY IDOCK:   -1.45 KCAL/MOL
REMARK 927      BINDING AFFINITY PREDICTED BY RF-SCORE:    0.00 PKD
ROOT
HETATM    1  C   UNL     1     -10.053   8.802  66.485  1.00  0.00    -0.349 C  
HETATM    2  C   UNL     1      -8.988   9.855  66.175  1.00  0.00    -0.150 C  
HETATM    3  C   UNL     1      -8.401   9.631  64.786  1.00  0.00    -0.156 C  
ENDROOT
BRANCH   2   4
HETATM    4  N   UNL     1      -9.518  11.207  66.295  1.00  0.00    -0.190 N  
HETATM    5  H   UNL     1     -10.063  11.603  65.530  1.00  0.00     0.000 HD 
BRANCH   4   6
HETATM    6  C   UNL     1      -9.294  11.954  67.420  1.00  0.00    -0.176 C  
HETATM    7  O   UNL     1      -8.715  11.537  68.408  1.00  0.00    -0.153 OA 
BRANCH   6   8
HETATM    8  N   UNL     1      -9.870  13.214  67.368  1.00  0.00    -0.222 N  
HETATM    9  H   UNL     1      -9.247  14.020  67.340  1.00  0.00     0.000 HD 
BRANCH   8  10
HETATM   10  S   UNL     1     -11.516  13.502  67.348  1.00  0.00    -0.356 S  
HETATM   11  O   UNL     1     -11.805  14.573  66.421  1.00  0.00    -0.383 OA 
HETATM   12  O   UNL     1     -12.109  12.191  67.162  1.00  0.00    -0.575 OA 
BRANCH  10  13
HETATM   13  C   UNL     1     -11.959  14.034  68.963  1.00  0.00    -0.357 A  
HETATM   14  C   UNL     1     -11.945  13.161  70.059  1.00  0.00    -0.321 A  
HETATM   15  N   UNL     1     -12.781  15.860  70.338  1.00  0.00    -0.316 NA 
HETATM   16  C   UNL     1     -12.432  13.676  71.273  1.00  0.00    -0.412 A  
HETATM   17  C   UNL     1     -12.830  14.999  71.367  1.00  0.00    -0.359 A  
HETATM   18  C   UNL     1     -12.357  15.351  69.158  1.00  0.00    -0.052 A  
BRANCH  14  19
HETATM   19  N   UNL     1     -11.366  11.870  70.014  1.00  0.00    -0.510 NA 
HETATM   20  H   UNL     1     -10.458  11.812  69.552  1.00  0.00     0.000 HD 
BRANCH  19  21
HETATM   21  C   UNL     1     -11.871  10.649  70.520  1.00  0.00    -0.357 A  
HETATM   22  C   UNL     1     -13.416   9.477  71.990  1.00  0.00    -0.522 A  
HETATM   23  C   UNL     1     -13.006  10.646  71.337  1.00  0.00    -0.545 A  
HETATM   24  C   UNL     1     -12.674   8.301  71.862  1.00  0.00    -0.373 A  
HETATM   25  C   UNL     1     -11.548   8.273  71.039  1.00  0.00    -0.301 A  
HETATM   26  C   UNL     1     -11.194   9.434  70.338  1.00  0.00    -0.309 A  
HETATM   27  C   UNL     1     -10.663   7.066  70.950  1.00  0.00    -0.259 C  
ENDBRANCH  19  21
ENDBRANCH  14  19
ENDBRANCH  10  13
ENDBRANCH   8  10
ENDBRANCH   6   8
ENDBRANCH   4   6
ENDBRANCH   2   4
TORSDOF 7
ENDMDL
MODEL       99
REMARK 921   NORMALIZED FREE ENERGY PREDICTED BY IDOCK:   -5.16 KCAL/MOL
REMARK 922        TOTAL FREE ENERGY PREDICTED BY IDOCK:   -9.12 KCAL/MOL
REMARK 923 INTER-LIGAND FREE ENERGY PREDICTED BY IDOCK:   -7.80 KCAL/MOL
REMARK 924 INTRA-LIGAND FREE ENERGY PREDICTED BY IDOCK:   -1.33 KCAL/MOL
REMARK 927      BINDING AFFINITY PREDICTED BY RF-SCORE:    0.00 PKD
ROOT
HETATM    1  C   UNL     1      -6.872  20.776  67.020  1.00  0.00    -0.385 C  
HETATM    2  C   UNL     1      -7.992  19.792  67.358  1.00  0.00    -0.283 C  
HETATM    3  C   UNL     1      -9.110  19.875  66.325  1.00  0.00    -0.436 C  
ENDROOT
BRANCH   2   4
HETATM    4  N   UNL     1      -7.494  18.427  67.465  1.00  0.00    -0.218 N  
HETATM    5  H   UNL     1      -7.081  17.977  66.648  1.00  0.00     0.000 HD 
BRANCH   4   6
HETATM    6  C   UNL     1      -7.572  17.739  68.646  1.00  0.00    -0.276 C  
HETATM    7  O   UNL     1      -6.608  17.464  69.337  1.00  0.00    -0.244 OA 
BRANCH   6   8
HETATM    8  N   UNL     1      -8.854  17.303  68.945  1.00  0.00    -0.224 N  
HETATM    9  H   UNL     1      -9.312  17.701  69.764  1.00  0.00     0.000 HD 
BRANCH   8  10
HETATM   10  S   UNL     1      -9.700  16.170  68.054  1.00  0.00    -0.231 S  
HETATM   11  O   UNL     1     -10.564  16.847  67.113  1.00  0.00    -0.313 OA 
HETATM   12  O   UNL     1      -8.682  15.249  67.585  1.00  0.00    -0.164 OA 
BRANCH  10  13
HETATM   13  C   UNL     1     -10.706  15.280  69.188  1.00  0.00    -0.251 A  
HETATM   14  C   UNL     1     -11.110  13.962  68.942  1.00  0.00    -0.266 A  
HETATM   15  N   UNL     1     -11.960  15.351  71.266  1.00  0.00    -0.335 NA 
HETATM   16  C   UNL     1     -12.007  13.401  69.866  1.00  0.00    -0.408 A  
HETATM   17  C   UNL     1     -12.398  14.112  70.989  1.00  0.00    -0.366 A  
HETATM   18  C   UNL     1     -11.134  15.908  70.351  1.00  0.00    -0.370 A  
BRANCH  14  19
HETATM   19  N   UNL     1     -10.569  13.167  67.901  1.00  0.00    -0.229 NA 
HETATM   20  H   UNL     1      -9.748  12.615  68.152  1.00  0.00     0.000 HD 
BRANCH  19  21
HETATM   21  C   UNL     1     -11.008  13.033  66.563  1.00  0.00    -0.285 A  
HETATM   22  C   UNL     1     -12.768  13.305  64.905  1.00  0.00    -0.391 A  
HETATM   23  C   UNL     1     -12.235  13.578  66.171  1.00  0.00    -0.484 A  
HETATM   24  C   UNL     1     -12.096  12.454  64.026  1.00  0.00    -0.563 A  
HETATM   25  C   UNL     1     -10.862  11.912  64.386  1.00  0.00    -0.384 A  
HETATM   26  C   UNL     1     -10.310  12.253  65.629  1.00  0.00    -0.287 A  
HETATM   27  C   UNL     1     -10.154  10.914  63.519  1.00  0.00    -0.406 C  
ENDBRANCH  19  21
ENDBRANCH  14  19
ENDBRANCH  10  13
ENDBRANCH   8  10
ENDBRANCH   6   8
ENDBRANCH   4   6
ENDBRANCH   2   4
TORSDOF 7
ENDMDL
MODEL      100
REMARK 921   NORMALIZED FREE ENERGY PREDICTED BY IDOCK:   -5.15 KCAL/MOL
REMARK 922        TOTAL FREE ENERGY PREDICTED BY IDOCK:   -9.11 KCAL/MOL
REMARK 923 INTER-LIGAND FREE ENERGY PREDICTED BY IDOCK:   -7.93 KCAL/MOL
REMARK 924 INTRA-LIGAND FREE ENERGY PREDICTED BY IDOCK:   -1.18 KCAL/MOL
REMARK 927      BINDING AFFINITY PREDICTED BY RF-SCORE:    0.00 PKD
ROOT
HETATM    1  C   UNL     1     -10.760   5.960  66.995  1.00  0.00    -0.396 C  
HETATM    2  C   UNL     1     -11.074   6.450  68.409  1.00  0.00    -0.285 C  
HETATM    3  C   UNL     1     -10.370   5.582  69.446  1.00  0.00    -0.348 C  
ENDROOT
BRANCH   2   4
HETATM    4  N   UNL     1     -10.714   7.851  68.584  1.00  0.00    -0.397 N  
HETATM    5  H   UNL     1     -11.186   8.406  69.298  1.00  0.00     0.000 HD 
BRANCH   4   6
HETATM    6  C   UNL     1      -9.751   8.434  67.805  1.00  0.00    -0.162 C  
HETATM    7  O   UNL     1      -8.558   8.220  67.926  1.00  0.00    -0.130 OA 
BRANCH   6   8
HETATM    8  N   UNL     1     -10.257   9.367  66.913  1.00  0.00    -0.242 N  
HETATM    9  H   UNL     1     -10.389   9.075  65.945  1.00  0.00     0.000 HD 
BRANCH   8  10
HETATM   10  S   UNL     1     -10.663  10.937  67.314  1.00  0.00    -0.282 S  
HETATM   11  O   UNL     1     -11.806  10.926  68.200  1.00  0.00    -0.564 OA 
HETATM   12  O   UNL     1      -9.411  11.536  67.738  1.00  0.00    -0.161 OA 
BRANCH  10  13
HETATM   13  C   UNL     1     -11.129  11.739  65.821  1.00  0.00    -0.297 A  
HETATM   14  C   UNL     1     -11.982  12.850  65.813  1.00  0.00    -0.443 A  
HETATM   15  N   UNL     1     -10.996  11.735  63.396  1.00  0.00    -0.395 NA 
HETATM   16  C   UNL     1     -12.372  13.328  64.550  1.00  0.00    -0.428 A  
HETATM   17  C   UNL     1     -11.868  12.756  63.394  1.00  0.00    -0.518 A  
HETATM   18  C   UNL     1     -10.658  11.244  64.611  1.00  0.00    -0.327 A  
BRANCH  14  19
HETATM   19  N   UNL     1     -12.349  13.554  66.986  1.00  0.00    -0.295 NA 
HETATM   20  H   UNL     1     -13.233  13.270  67.409  1.00  0.00     0.000 HD 
BRANCH  19  21
HETATM   21  C   UNL     1     -11.662  14.595  67.652  1.00  0.00    -0.363 A  
HETATM   22  C   UNL     1      -9.741  16.084  67.777  1.00  0.00    -0.221 A  
HETATM   23  C   UNL     1     -10.537  15.181  67.061  1.00  0.00    -0.300 A  
HETATM   24  C   UNL     1     -10.040  16.388  69.106  1.00  0.00    -0.278 A  
HETATM   25  C   UNL     1     -11.166  15.830  69.712  1.00  0.00    -0.330 A  
HETATM   26  C   UNL     1     -11.991  14.984  68.959  1.00  0.00    -0.298 A  
HETATM   27  C   UNL     1     -11.469  16.046  71.165  1.00  0.00    -0.470 C  
ENDBRANCH  19  21
ENDBRANCH  14  19
ENDBRANCH  10  13
ENDBRANCH   8  10
ENDBRANCH   6   8
ENDBRANCH   4   6
ENDBRANCH   2   4
TORSDOF 7
ENDMDL
MODEL      101
REMARK 921   NORMALIZED FREE ENERGY PREDICTED BY IDOCK:   -5.15 KCAL/MOL
REMARK 922        TOTAL FREE ENERGY PREDICTED BY IDOCK:   -9.11 KCAL/MOL
REMARK 923 INTER-LIGAND FREE ENERGY PREDICTED BY IDOCK:   -7.44 KCAL/MOL
REMARK 924 INTRA-LIGAND FREE ENERGY PREDICTED BY IDOCK:   -1.67 KCAL/MOL
REMARK 927      BINDING AFFINITY PREDICTED BY RF-SCORE:    0.00 PKD
ROOT
HETATM    1  C   UNL     1     -14.320   8.804  72.357  1.00  0.00    -0.419 C  
HETATM    2  C   UNL     1     -13.253   9.435  71.463  1.00  0.00    -0.384 C  
HETATM    3  C   UNL     1     -12.934  10.851  71.926  1.00  0.00    -0.502 C  
ENDROOT
BRANCH   2   4
HETATM    4  N   UNL     1     -12.041   8.625  71.419  1.00  0.00    -0.295 N  
HETATM    5  H   UNL     1     -11.131   9.078  71.501  1.00  0.00     0.000 HD 
BRANCH   4   6
HETATM    6  C   UNL     1     -12.107   7.267  71.269  1.00  0.00    -0.338 C  
HETATM    7  O   UNL     1     -12.048   6.477  72.195  1.00  0.00    -0.315 OA 
BRANCH   6   8
HETATM    8  N   UNL     1     -12.160   6.861  69.944  1.00  0.00    -0.600 N  
HETATM    9  H   UNL     1     -13.059   6.920  69.465  1.00  0.00     0.000 HD 
BRANCH   8  10
HETATM   10  S   UNL     1     -10.854   6.284  69.077  1.00  0.00    -0.367 S  
HETATM   11  O   UNL     1     -10.459   4.997  69.604  1.00  0.00    -0.255 OA 
HETATM   12  O   UNL     1     -11.255   6.418  67.689  1.00  0.00    -0.337 OA 
BRANCH  10  13
HETATM   13  C   UNL     1      -9.533   7.415  69.335  1.00  0.00    -0.155 A  
HETATM   14  C   UNL     1      -9.607   8.748  68.909  1.00  0.00    -0.158 A  
HETATM   15  N   UNL     1      -7.269   7.729  70.154  1.00  0.00    -0.061 NA 
HETATM   16  C   UNL     1      -8.443   9.519  69.068  1.00  0.00    -0.128 A  
HETATM   17  C   UNL     1      -7.322   8.984  69.681  1.00  0.00    -0.064 A  
HETATM   18  C   UNL     1      -8.373   6.972  69.958  1.00  0.00    -0.138 A  
BRANCH  14  19
HETATM   19  N   UNL     1     -10.805   9.351  68.455  1.00  0.00    -0.415 NA 
HETATM   20  H   UNL     1     -11.664   8.851  68.688  1.00  0.00     0.000 HD 
BRANCH  19  21
HETATM   21  C   UNL     1     -10.977  10.549  67.724  1.00  0.00    -0.313 A  
HETATM   22  C   UNL     1     -11.962  12.768  67.551  1.00  0.00    -0.342 A  
HETATM   23  C   UNL     1     -11.625  11.641  68.311  1.00  0.00    -0.378 A  
HETATM   24  C   UNL     1     -11.687  12.803  66.182  1.00  0.00    -0.458 A  
HETATM   25  C   UNL     1     -11.027  11.734  65.576  1.00  0.00    -0.344 A  
HETATM   26  C   UNL     1     -10.634  10.646  66.366  1.00  0.00    -0.240 A  
HETATM   27  C   UNL     1     -10.803  11.682  64.094  1.00  0.00    -0.433 C  
ENDBRANCH  19  21
ENDBRANCH  14  19
ENDBRANCH  10  13
ENDBRANCH   8  10
ENDBRANCH   6   8
ENDBRANCH   4   6
ENDBRANCH   2   4
TORSDOF 7
ENDMDL
MODEL      102
REMARK 921   NORMALIZED FREE ENERGY PREDICTED BY IDOCK:   -5.15 KCAL/MOL
REMARK 922        TOTAL FREE ENERGY PREDICTED BY IDOCK:   -9.10 KCAL/MOL
REMARK 923 INTER-LIGAND FREE ENERGY PREDICTED BY IDOCK:   -7.67 KCAL/MOL
REMARK 924 INTRA-LIGAND FREE ENERGY PREDICTED BY IDOCK:   -1.43 KCAL/MOL
REMARK 927      BINDING AFFINITY PREDICTED BY RF-SCORE:    0.00 PKD
ROOT
HETATM    1  C   UNL     1     -10.262  18.259  66.301  1.00  0.00    -0.414 C  
HETATM    2  C   UNL     1      -9.662  16.933  66.767  1.00  0.00    -0.266 C  
HETATM    3  C   UNL     1      -9.137  17.053  68.194  1.00  0.00    -0.237 C  
ENDROOT
BRANCH   2   4
HETATM    4  N   UNL     1     -10.623  15.842  66.665  1.00  0.00    -0.316 N  
HETATM    5  H   UNL     1     -11.445  15.838  67.270  1.00  0.00     0.000 HD 
BRANCH   4   6
HETATM    6  C   UNL     1     -10.439  14.823  65.771  1.00  0.00    -0.334 C  
HETATM    7  O   UNL     1     -11.035  14.733  64.712  1.00  0.00    -0.390 OA 
BRANCH   6   8
HETATM    8  N   UNL     1      -9.567  13.845  66.223  1.00  0.00    -0.382 N  
HETATM    9  H   UNL     1      -8.784  13.592  65.622  1.00  0.00     0.000 HD 
BRANCH   8  10
HETATM   10  S   UNL     1      -9.712  13.051  67.687  1.00  0.00    -0.219 S  
HETATM   11  O   UNL     1      -8.486  13.203  68.438  1.00  0.00    -0.168 OA 
HETATM   12  O   UNL     1     -10.970  13.527  68.231  1.00  0.00    -0.241 OA 
BRANCH  10  13
HETATM   13  C   UNL     1      -9.929  11.346  67.321  1.00  0.00    -0.194 A  
HETATM   14  C   UNL     1     -10.087  10.387  68.330  1.00  0.00    -0.163 A  
HETATM   15  N   UNL     1     -10.015   9.643  65.592  1.00  0.00    -0.301 NA 
HETATM   16  C   UNL     1     -10.134   9.045  67.914  1.00  0.00    -0.246 A  
HETATM   17  C   UNL     1     -10.096   8.724  66.568  1.00  0.00    -0.279 A  
HETATM   18  C   UNL     1      -9.921  10.931  65.995  1.00  0.00    -0.240 A  
BRANCH  14  19
HETATM   19  N   UNL     1     -10.314  10.721  69.688  1.00  0.00    -0.424 NA 
HETATM   20  H   UNL     1     -10.056  11.671  69.955  1.00  0.00     0.000 HD 
BRANCH  19  21
HETATM   21  C   UNL     1     -10.847   9.920  70.724  1.00  0.00    -0.317 A  
HETATM   22  C   UNL     1     -10.541   8.149  72.364  1.00  0.00    -0.393 A  
HETATM   23  C   UNL     1     -10.009   9.075  71.459  1.00  0.00    -0.391 A  
HETATM   24  C   UNL     1     -11.923   8.030  72.521  1.00  0.00    -0.384 A  
HETATM   25  C   UNL     1     -12.780   8.873  71.814  1.00  0.00    -0.421 A  
HETATM   26  C   UNL     1     -12.228   9.843  70.966  1.00  0.00    -0.446 A  
HETATM   27  C   UNL     1     -14.270   8.715  71.872  1.00  0.00    -0.507 C  
ENDBRANCH  19  21
ENDBRANCH  14  19
ENDBRANCH  10  13
ENDBRANCH   8  10
ENDBRANCH   6   8
ENDBRANCH   4   6
ENDBRANCH   2   4
TORSDOF 7
ENDMDL
MODEL      103
REMARK 921   NORMALIZED FREE ENERGY PREDICTED BY IDOCK:   -5.15 KCAL/MOL
REMARK 922        TOTAL FREE ENERGY PREDICTED BY IDOCK:   -9.10 KCAL/MOL
REMARK 923 INTER-LIGAND FREE ENERGY PREDICTED BY IDOCK:   -7.51 KCAL/MOL
REMARK 924 INTRA-LIGAND FREE ENERGY PREDICTED BY IDOCK:   -1.59 KCAL/MOL
REMARK 927      BINDING AFFINITY PREDICTED BY RF-SCORE:    0.00 PKD
ROOT
HETATM    1  C   UNL     1     -10.953  12.749  64.154  1.00  0.00    -0.435 C  
HETATM    2  C   UNL     1     -10.696  11.280  64.494  1.00  0.00    -0.323 C  
HETATM    3  C   UNL     1      -9.799  10.635  63.445  1.00  0.00    -0.376 C  
ENDROOT
BRANCH   2   4
HETATM    4  N   UNL     1     -10.120  11.129  65.824  1.00  0.00    -0.239 N  
HETATM    5  H   UNL     1      -9.159  11.428  65.992  1.00  0.00     0.000 HD 
BRANCH   4   6
HETATM    6  C   UNL     1     -10.848  10.592  66.851  1.00  0.00    -0.205 C  
HETATM    7  O   UNL     1     -10.817   9.415  67.162  1.00  0.00    -0.219 OA 
BRANCH   6   8
HETATM    8  N   UNL     1     -11.700  11.503  67.456  1.00  0.00    -0.242 N  
HETATM    9  H   UNL     1     -12.703  11.339  67.378  1.00  0.00     0.000 HD 
BRANCH   8  10
HETATM   10  S   UNL     1     -11.196  12.851  68.305  1.00  0.00    -0.292 S  
HETATM   11  O   UNL     1      -9.776  12.758  68.556  1.00  0.00    -0.206 OA 
HETATM   12  O   UNL     1     -11.738  13.970  67.556  1.00  0.00    -0.343 OA 
BRANCH  10  13
HETATM   13  C   UNL     1     -12.034  12.821  69.850  1.00  0.00    -0.298 A  
HETATM   14  C   UNL     1     -12.393  11.619  70.473  1.00  0.00    -0.321 A  
HETATM   15  N   UNL     1     -13.070  14.129  71.615  1.00  0.00    -0.333 NA 
HETATM   16  C   UNL     1     -13.161  11.730  71.645  1.00  0.00    -0.443 A  
HETATM   17  C   UNL     1     -13.470  12.974  72.170  1.00  0.00    -0.542 A  
HETATM   18  C   UNL     1     -12.372  14.023  70.461  1.00  0.00    -0.367 A  
BRANCH  14  19
HETATM   19  N   UNL     1     -11.922  10.354  70.046  1.00  0.00    -0.395 NA 
HETATM   20  H   UNL     1     -12.182  10.086  69.097  1.00  0.00     0.000 HD 
BRANCH  19  21
HETATM   21  C   UNL     1     -11.141   9.410  70.753  1.00  0.00    -0.300 A  
HETATM   22  C   UNL     1      -8.954   8.476  71.269  1.00  0.00    -0.244 A  
HETATM   23  C   UNL     1      -9.745   9.497  70.728  1.00  0.00    -0.289 A  
HETATM   24  C   UNL     1      -9.549   7.336  71.813  1.00  0.00    -0.163 A  
HETATM   25  C   UNL     1     -10.939   7.233  71.866  1.00  0.00    -0.260 A  
HETATM   26  C   UNL     1     -11.715   8.296  71.384  1.00  0.00    -0.327 A  
HETATM   27  C   UNL     1     -11.622   5.987  72.346  1.00  0.00    -0.349 C  
ENDBRANCH  19  21
ENDBRANCH  14  19
ENDBRANCH  10  13
ENDBRANCH   8  10
ENDBRANCH   6   8
ENDBRANCH   4   6
ENDBRANCH   2   4
TORSDOF 7
ENDMDL
MODEL      104
REMARK 921   NORMALIZED FREE ENERGY PREDICTED BY IDOCK:   -5.14 KCAL/MOL
REMARK 922        TOTAL FREE ENERGY PREDICTED BY IDOCK:   -9.09 KCAL/MOL
REMARK 923 INTER-LIGAND FREE ENERGY PREDICTED BY IDOCK:   -8.41 KCAL/MOL
REMARK 924 INTRA-LIGAND FREE ENERGY PREDICTED BY IDOCK:   -0.69 KCAL/MOL
REMARK 927      BINDING AFFINITY PREDICTED BY RF-SCORE:    0.00 PKD
ROOT
HETATM    1  C   UNL     1      -8.713  17.845  66.574  1.00  0.00    -0.278 C  
HETATM    2  C   UNL     1      -9.046  16.457  66.025  1.00  0.00    -0.282 C  
HETATM    3  C   UNL     1      -8.461  15.371  66.921  1.00  0.00    -0.287 C  
ENDROOT
BRANCH   2   4
HETATM    4  N   UNL     1     -10.482  16.271  65.866  1.00  0.00    -0.347 N  
HETATM    5  H   UNL     1     -11.102  16.442  66.659  1.00  0.00     0.000 HD 
BRANCH   4   6
HETATM    6  C   UNL     1     -11.013  15.870  64.670  1.00  0.00    -0.305 C  
HETATM    7  O   UNL     1     -11.572  16.620  63.890  1.00  0.00    -1.204 OA 
BRANCH   6   8
HETATM    8  N   UNL     1     -10.932  14.502  64.464  1.00  0.00    -0.608 N  
HETATM    9  H   UNL     1     -10.112  14.143  63.976  1.00  0.00     0.000 HD 
BRANCH   8  10
HETATM   10  S   UNL     1     -12.086  13.400  64.959  1.00  0.00    -0.429 S  
HETATM   11  O   UNL     1     -13.385  14.036  64.970  1.00  0.00    -0.578 OA 
HETATM   12  O   UNL     1     -11.847  12.232  64.132  1.00  0.00    -0.367 OA 
BRANCH  10  13
HETATM   13  C   UNL     1     -11.680  12.946  66.608  1.00  0.00    -0.390 A  
HETATM   14  C   UNL     1     -11.053  11.729  66.907  1.00  0.00    -0.307 A  
HETATM   15  N   UNL     1     -11.808  13.538  68.959  1.00  0.00    -0.326 NA 
HETATM   16  C   UNL     1     -10.888  11.431  68.270  1.00  0.00    -0.253 A  
HETATM   17  C   UNL     1     -11.270  12.341  69.241  1.00  0.00    -0.213 A  
HETATM   18  C   UNL     1     -12.011  13.805  67.649  1.00  0.00    -0.356 A  
BRANCH  14  19
HETATM   19  N   UNL     1     -10.493  10.883  65.919  1.00  0.00    -0.245 NA 
HETATM   20  H   UNL     1     -10.562  11.223  64.959  1.00  0.00     0.000 HD 
BRANCH  19  21
HETATM   21  C   UNL     1      -9.852   9.632  66.077  1.00  0.00    -0.274 A  
HETATM   22  C   UNL     1      -8.028   8.132  65.494  1.00  0.00    -0.112 A  
HETATM   23  C   UNL     1      -8.597   9.411  65.501  1.00  0.00    -0.169 A  
HETATM   24  C   UNL     1      -8.722   7.047  66.034  1.00  0.00    -0.156 A  
HETATM   25  C   UNL     1      -9.968   7.245  66.630  1.00  0.00    -0.246 A  
HETATM   26  C   UNL     1     -10.491   8.544  66.691  1.00  0.00    -0.235 A  
HETATM   27  C   UNL     1     -10.795   6.098  67.130  1.00  0.00    -0.442 C  
ENDBRANCH  19  21
ENDBRANCH  14  19
ENDBRANCH  10  13
ENDBRANCH   8  10
ENDBRANCH   6   8
ENDBRANCH   4   6
ENDBRANCH   2   4
TORSDOF 7
ENDMDL
MODEL      105
REMARK 921   NORMALIZED FREE ENERGY PREDICTED BY IDOCK:   -5.11 KCAL/MOL
REMARK 922        TOTAL FREE ENERGY PREDICTED BY IDOCK:   -9.06 KCAL/MOL
REMARK 923 INTER-LIGAND FREE ENERGY PREDICTED BY IDOCK:   -7.57 KCAL/MOL
REMARK 924 INTRA-LIGAND FREE ENERGY PREDICTED BY IDOCK:   -1.49 KCAL/MOL
REMARK 927      BINDING AFFINITY PREDICTED BY RF-SCORE:    0.00 PKD
ROOT
HETATM    1  C   UNL     1     -12.581   7.383  71.162  1.00  0.00    -0.330 C  
HETATM    2  C   UNL     1     -11.100   7.492  70.795  1.00  0.00    -0.265 C  
HETATM    3  C   UNL     1     -10.404   6.147  70.972  1.00  0.00    -0.260 C  
ENDROOT
BRANCH   2   4
HETATM    4  N   UNL     1     -10.918   7.988  69.437  1.00  0.00    -0.430 N  
HETATM    5  H   UNL     1     -10.738   7.327  68.681  1.00  0.00     0.000 HD 
BRANCH   4   6
HETATM    6  C   UNL     1     -10.982   9.327  69.162  1.00  0.00    -0.060 C  
HETATM    7  O   UNL     1     -10.917  10.199  70.011  1.00  0.00    -0.263 OA 
BRANCH   6   8
HETATM    8  N   UNL     1     -11.219   9.603  67.824  1.00  0.00    -0.471 N  
HETATM    9  H   UNL     1     -12.144   9.389  67.452  1.00  0.00     0.000 HD 
BRANCH   8  10
HETATM   10  S   UNL     1     -10.094  10.262  66.780  1.00  0.00    -0.225 S  
HETATM   11  O   UNL     1      -9.002  10.824  67.543  1.00  0.00    -0.132 OA 
HETATM   12  O   UNL     1      -9.847   9.213  65.808  1.00  0.00    -0.286 OA 
BRANCH  10  13
HETATM   13  C   UNL     1     -10.899  11.568  65.923  1.00  0.00    -0.260 A  
HETATM   14  C   UNL     1     -11.740  12.476  66.579  1.00  0.00    -0.391 A  
HETATM   15  N   UNL     1     -11.333  12.612  63.773  1.00  0.00    -0.434 NA 
HETATM   16  C   UNL     1     -12.416  13.401  65.765  1.00  0.00    -0.496 A  
HETATM   17  C   UNL     1     -12.190  13.434  64.399  1.00  0.00    -0.389 A  
HETATM   18  C   UNL     1     -10.719  11.690  64.550  1.00  0.00    -0.322 A  
BRANCH  14  19
HETATM   19  N   UNL     1     -11.830  12.568  67.989  1.00  0.00    -0.351 NA 
HETATM   20  H   UNL     1     -12.167  11.730  68.463  1.00  0.00     0.000 HD 
BRANCH  19  21
HETATM   21  C   UNL     1     -11.516  13.660  68.832  1.00  0.00    -0.303 A  
HETATM   22  C   UNL     1     -12.202  15.226  70.564  1.00  0.00    -0.415 A  
HETATM   23  C   UNL     1     -12.408  14.046  69.839  1.00  0.00    -0.367 A  
HETATM   24  C   UNL     1     -11.119  16.056  70.268  1.00  0.00    -0.380 A  
HETATM   25  C   UNL     1     -10.206  15.685  69.281  1.00  0.00    -0.250 A  
HETATM   26  C   UNL     1     -10.388  14.466  68.614  1.00  0.00    -0.245 A  
HETATM   27  C   UNL     1      -9.088  16.591  68.859  1.00  0.00    -0.245 C  
ENDBRANCH  19  21
ENDBRANCH  14  19
ENDBRANCH  10  13
ENDBRANCH   8  10
ENDBRANCH   6   8
ENDBRANCH   4   6
ENDBRANCH   2   4
TORSDOF 7
ENDMDL
MODEL      106
REMARK 921   NORMALIZED FREE ENERGY PREDICTED BY IDOCK:   -5.11 KCAL/MOL
REMARK 922        TOTAL FREE ENERGY PREDICTED BY IDOCK:   -9.06 KCAL/MOL
REMARK 923 INTER-LIGAND FREE ENERGY PREDICTED BY IDOCK:   -7.51 KCAL/MOL
REMARK 924 INTRA-LIGAND FREE ENERGY PREDICTED BY IDOCK:   -1.54 KCAL/MOL
REMARK 927      BINDING AFFINITY PREDICTED BY RF-SCORE:    0.00 PKD
ROOT
HETATM    1  C   UNL     1      -5.650  12.729  68.151  1.00  0.00    -0.080 C  
HETATM    2  C   UNL     1      -6.920  13.430  67.667  1.00  0.00    -0.162 C  
HETATM    3  C   UNL     1      -7.955  12.409  67.208  1.00  0.00    -0.178 C  
ENDROOT
BRANCH   2   4
HETATM    4  N   UNL     1      -7.478  14.300  68.694  1.00  0.00    -0.122 N  
HETATM    5  H   UNL     1      -7.853  13.891  69.550  1.00  0.00     0.000 HD 
BRANCH   4   6
HETATM    6  C   UNL     1      -7.508  15.658  68.526  1.00  0.00    -0.123 C  
HETATM    7  O   UNL     1      -6.536  16.326  68.219  1.00  0.00    -0.121 OA 
BRANCH   6   8
HETATM    8  N   UNL     1      -8.738  16.223  68.825  1.00  0.00    -0.232 N  
HETATM    9  H   UNL     1      -8.887  16.559  69.776  1.00  0.00     0.000 HD 
BRANCH   8  10
HETATM   10  S   UNL     1      -9.993  16.391  67.735  1.00  0.00    -0.253 S  
HETATM   11  O   UNL     1     -10.959  17.332  68.255  1.00  0.00    -0.336 OA 
HETATM   12  O   UNL     1      -9.336  16.638  66.465  1.00  0.00    -0.236 OA 
BRANCH  10  13
HETATM   13  C   UNL     1     -10.768  14.818  67.607  1.00  0.00    -0.270 A  
HETATM   14  C   UNL     1     -11.025  14.026  68.733  1.00  0.00    -0.262 A  
HETATM   15  N   UNL     1     -11.657  13.117  66.120  1.00  0.00    -0.338 NA 
HETATM   16  C   UNL     1     -11.541  12.741  68.488  1.00  0.00    -0.358 A  
HETATM   17  C   UNL     1     -11.836  12.336  67.197  1.00  0.00    -0.258 A  
HETATM   18  C   UNL     1     -11.116  14.334  66.351  1.00  0.00    -0.325 A  
BRANCH  14  19
HETATM   19  N   UNL     1     -10.901  14.503  70.061  1.00  0.00    -0.461 NA 
HETATM   20  H   UNL     1      -9.946  14.641  70.391  1.00  0.00     0.000 HD 
BRANCH  19  21
HETATM   21  C   UNL     1     -11.919  14.815  70.993  1.00  0.00    -0.331 A  
HETATM   22  C   UNL     1     -14.259  15.304  71.445  1.00  0.00    -0.589 A  
HETATM   23  C   UNL     1     -13.258  14.827  70.589  1.00  0.00    -0.292 A  
HETATM   24  C   UNL     1     -13.930  15.808  72.704  1.00  0.00    -0.557 A  
HETATM   25  C   UNL     1     -12.604  15.791  73.136  1.00  0.00    -0.607 A  
HETATM   26  C   UNL     1     -11.625  15.245  72.295  1.00  0.00    -0.530 A  
HETATM   27  C   UNL     1     -12.188  16.414  74.436  1.00  0.00    -0.492 C  
ENDBRANCH  19  21
ENDBRANCH  14  19
ENDBRANCH  10  13
ENDBRANCH   8  10
ENDBRANCH   6   8
ENDBRANCH   4   6
ENDBRANCH   2   4
TORSDOF 7
ENDMDL
MODEL      107
REMARK 921   NORMALIZED FREE ENERGY PREDICTED BY IDOCK:   -5.10 KCAL/MOL
REMARK 922        TOTAL FREE ENERGY PREDICTED BY IDOCK:   -9.05 KCAL/MOL
REMARK 923 INTER-LIGAND FREE ENERGY PREDICTED BY IDOCK:   -7.52 KCAL/MOL
REMARK 924 INTRA-LIGAND FREE ENERGY PREDICTED BY IDOCK:   -1.53 KCAL/MOL
REMARK 927      BINDING AFFINITY PREDICTED BY RF-SCORE:    0.00 PKD
ROOT
HETATM    1  C   UNL     1      -6.780  12.675  68.552  1.00  0.00    -0.089 C  
HETATM    2  C   UNL     1      -8.017  13.511  68.226  1.00  0.00    -0.147 C  
HETATM    3  C   UNL     1      -7.640  14.716  67.370  1.00  0.00    -0.218 C  
ENDROOT
BRANCH   2   4
HETATM    4  N   UNL     1      -9.045  12.716  67.566  1.00  0.00    -0.183 N  
HETATM    5  H   UNL     1      -9.462  13.054  66.699  1.00  0.00     0.000 HD 
BRANCH   4   6
HETATM    6  C   UNL     1      -9.459  11.524  68.094  1.00  0.00    -0.184 C  
HETATM    7  O   UNL     1      -9.399  10.461  67.501  1.00  0.00    -0.147 OA 
BRANCH   6   8
HETATM    8  N   UNL     1     -10.040  11.648  69.347  1.00  0.00    -0.390 N  
HETATM    9  H   UNL     1      -9.438  11.917  70.125  1.00  0.00     0.000 HD 
BRANCH   8  10
HETATM   10  S   UNL     1     -11.658  11.388  69.670  1.00  0.00    -0.349 S  
HETATM   11  O   UNL     1     -12.360  11.133  68.432  1.00  0.00    -0.556 OA 
HETATM   12  O   UNL     1     -11.659  10.398  70.731  1.00  0.00    -0.327 OA 
BRANCH  10  13
HETATM   13  C   UNL     1     -12.284  12.876  70.364  1.00  0.00    -0.304 A  
HETATM   14  C   UNL     1     -12.267  14.086  69.658  1.00  0.00    -0.332 A  
HETATM   15  N   UNL     1     -13.237  13.951  72.322  1.00  0.00    -0.440 NA 
HETATM   16  C   UNL     1     -12.686  15.227  70.364  1.00  0.00    -0.400 A  
HETATM   17  C   UNL     1     -13.153  15.118  71.663  1.00  0.00    -0.388 A  
HETATM   18  C   UNL     1     -12.788  12.861  71.658  1.00  0.00    -0.268 A  
BRANCH  14  19
HETATM   19  N   UNL     1     -11.969  14.173  68.276  1.00  0.00    -0.471 NA 
HETATM   20  H   UNL     1     -12.144  13.325  67.736  1.00  0.00     0.000 HD 
BRANCH  19  21
HETATM   21  C   UNL     1     -11.464  15.270  67.541  1.00  0.00    -0.265 A  
HETATM   22  C   UNL     1     -10.552  16.151  65.464  1.00  0.00    -0.394 A  
HETATM   23  C   UNL     1     -11.215  15.140  66.170  1.00  0.00    -0.271 A  
HETATM   24  C   UNL     1     -10.097  17.293  66.126  1.00  0.00    -0.312 A  
HETATM   25  C   UNL     1     -10.348  17.454  67.488  1.00  0.00    -0.351 A  
HETATM   26  C   UNL     1     -11.075  16.465  68.165  1.00  0.00    -0.320 A  
HETATM   27  C   UNL     1      -9.791  18.612  68.262  1.00  0.00    -0.410 C  
ENDBRANCH  19  21
ENDBRANCH  14  19
ENDBRANCH  10  13
ENDBRANCH   8  10
ENDBRANCH   6   8
ENDBRANCH   4   6
ENDBRANCH   2   4
TORSDOF 7
ENDMDL
MODEL      108
REMARK 921   NORMALIZED FREE ENERGY PREDICTED BY IDOCK:   -5.10 KCAL/MOL
REMARK 922        TOTAL FREE ENERGY PREDICTED BY IDOCK:   -9.04 KCAL/MOL
REMARK 923 INTER-LIGAND FREE ENERGY PREDICTED BY IDOCK:   -7.51 KCAL/MOL
REMARK 924 INTRA-LIGAND FREE ENERGY PREDICTED BY IDOCK:   -1.53 KCAL/MOL
REMARK 927      BINDING AFFINITY PREDICTED BY RF-SCORE:    0.00 PKD
ROOT
HETATM    1  C   UNL     1      -8.506   8.065  65.749  1.00  0.00    -0.159 C  
HETATM    2  C   UNL     1      -9.410   9.114  66.398  1.00  0.00    -0.204 C  
HETATM    3  C   UNL     1      -9.876  10.134  65.366  1.00  0.00    -0.375 C  
ENDROOT
BRANCH   2   4
HETATM    4  N   UNL     1     -10.552   8.501  67.064  1.00  0.00    -0.338 N  
HETATM    5  H   UNL     1     -11.489   8.644  66.688  1.00  0.00     0.000 HD 
BRANCH   4   6
HETATM    6  C   UNL     1     -10.386   7.737  68.187  1.00  0.00    -0.200 C  
HETATM    7  O   UNL     1     -10.856   6.622  68.326  1.00  0.00    -0.238 OA 
BRANCH   6   8
HETATM    8  N   UNL     1      -9.698   8.389  69.199  1.00  0.00    -0.168 N  
HETATM    9  H   UNL     1      -9.007   9.088  68.930  1.00  0.00     0.000 HD 
BRANCH   8  10
HETATM   10  S   UNL     1      -9.926   8.109  70.831  1.00  0.00    -0.190 S  
HETATM   11  O   UNL     1      -9.613   6.730  71.130  1.00  0.00    -0.173 OA 
HETATM   12  O   UNL     1      -9.203   9.184  71.485  1.00  0.00    -0.290 OA 
BRANCH  10  13
HETATM   13  C   UNL     1     -11.632   8.372  71.159  1.00  0.00    -0.279 A  
HETATM   14  C   UNL     1     -12.172   9.659  71.286  1.00  0.00    -0.363 A  
HETATM   15  N   UNL     1     -13.782   7.348  71.637  1.00  0.00    -0.388 NA 
HETATM   16  C   UNL     1     -13.523   9.735  71.664  1.00  0.00    -0.436 A  
HETATM   17  C   UNL     1     -14.275   8.583  71.825  1.00  0.00    -0.446 A  
HETATM   18  C   UNL     1     -12.469   7.274  71.320  1.00  0.00    -0.366 A  
BRANCH  14  19
HETATM   19  N   UNL     1     -11.461  10.834  70.941  1.00  0.00    -0.331 NA 
HETATM   20  H   UNL     1     -10.626  11.022  71.497  1.00  0.00     0.000 HD 
BRANCH  19  21
HETATM   21  C   UNL     1     -11.747  11.784  69.932  1.00  0.00    -0.323 A  
HETATM   22  C   UNL     1     -11.793  12.376  67.573  1.00  0.00    -0.354 A  
HETATM   23  C   UNL     1     -11.688  11.414  68.585  1.00  0.00    -0.394 A  
HETATM   24  C   UNL     1     -11.923  13.728  67.895  1.00  0.00    -0.391 A  
HETATM   25  C   UNL     1     -12.003  14.121  69.231  1.00  0.00    -0.382 A  
HETATM   26  C   UNL     1     -11.968  13.138  70.229  1.00  0.00    -0.366 A  
HETATM   27  C   UNL     1     -12.040  15.566  69.629  1.00  0.00    -0.352 C  
ENDBRANCH  19  21
ENDBRANCH  14  19
ENDBRANCH  10  13
ENDBRANCH   8  10
ENDBRANCH   6   8
ENDBRANCH   4   6
ENDBRANCH   2   4
TORSDOF 7
ENDMDL
MODEL      109
REMARK 921   NORMALIZED FREE ENERGY PREDICTED BY IDOCK:   -5.09 KCAL/MOL
REMARK 922        TOTAL FREE ENERGY PREDICTED BY IDOCK:   -9.03 KCAL/MOL
REMARK 923 INTER-LIGAND FREE ENERGY PREDICTED BY IDOCK:   -7.33 KCAL/MOL
REMARK 924 INTRA-LIGAND FREE ENERGY PREDICTED BY IDOCK:   -1.70 KCAL/MOL
REMARK 927      BINDING AFFINITY PREDICTED BY RF-SCORE:    0.00 PKD
ROOT
HETATM    1  C   UNL     1     -12.905   9.948  71.920  1.00  0.00    -0.524 C  
HETATM    2  C   UNL     1     -11.905   8.959  71.322  1.00  0.00    -0.310 C  
HETATM    3  C   UNL     1     -10.606   8.960  72.119  1.00  0.00    -0.323 C  
ENDROOT
BRANCH   2   4
HETATM    4  N   UNL     1     -12.459   7.613  71.247  1.00  0.00    -0.400 N  
HETATM    5  H   UNL     1     -13.370   7.421  71.664  1.00  0.00     0.000 HD 
BRANCH   4   6
HETATM    6  C   UNL     1     -11.774   6.603  70.628  1.00  0.00    -0.394 C  
HETATM    7  O   UNL     1     -11.059   5.808  71.212  1.00  0.00    -0.262 OA 
BRANCH   6   8
HETATM    8  N   UNL     1     -11.901   6.618  69.247  1.00  0.00    -0.530 N  
HETATM    9  H   UNL     1     -12.829   6.782  68.857  1.00  0.00     0.000 HD 
BRANCH   8  10
HETATM   10  S   UNL     1     -10.637   6.388  68.178  1.00  0.00    -0.285 S  
HETATM   11  O   UNL     1     -10.038   5.094  68.415  1.00  0.00    -0.167 OA 
HETATM   12  O   UNL     1     -11.201   6.710  66.880  1.00  0.00    -0.391 OA 
BRANCH  10  13
HETATM   13  C   UNL     1      -9.440   7.624  68.533  1.00  0.00    -0.147 A  
HETATM   14  C   UNL     1      -9.670   8.979  68.256  1.00  0.00    -0.152 A  
HETATM   15  N   UNL     1      -7.198   8.098  69.337  1.00  0.00    -0.066 NA 
HETATM   16  C   UNL     1      -8.592   9.852  68.476  1.00  0.00    -0.117 A  
HETATM   17  C   UNL     1      -7.401   9.383  69.005  1.00  0.00    -0.072 A  
HETATM   18  C   UNL     1      -8.219   7.249  69.081  1.00  0.00    -0.122 A  
BRANCH  14  19
HETATM   19  N   UNL     1     -10.940   9.490  67.895  1.00  0.00    -0.503 NA 
HETATM   20  H   UNL     1     -11.650   8.790  67.677  1.00  0.00     0.000 HD 
BRANCH  19  21
HETATM   21  C   UNL     1     -11.362  10.836  67.793  1.00  0.00    -0.279 A  
HETATM   22  C   UNL     1     -11.541  12.875  66.478  1.00  0.00    -0.425 A  
HETATM   23  C   UNL     1     -11.298  11.499  66.563  1.00  0.00    -0.263 A  
HETATM   24  C   UNL     1     -11.817  13.616  67.629  1.00  0.00    -0.404 A  
HETATM   25  C   UNL     1     -11.903  12.976  68.865  1.00  0.00    -0.358 A  
HETATM   26  C   UNL     1     -11.727  11.586  68.921  1.00  0.00    -0.403 A  
HETATM   27  C   UNL     1     -12.095  13.742  70.140  1.00  0.00    -0.429 C  
ENDBRANCH  19  21
ENDBRANCH  14  19
ENDBRANCH  10  13
ENDBRANCH   8  10
ENDBRANCH   6   8
ENDBRANCH   4   6
ENDBRANCH   2   4
TORSDOF 7
ENDMDL
MODEL      110
REMARK 921   NORMALIZED FREE ENERGY PREDICTED BY IDOCK:   -5.08 KCAL/MOL
REMARK 922        TOTAL FREE ENERGY PREDICTED BY IDOCK:   -9.01 KCAL/MOL
REMARK 923 INTER-LIGAND FREE ENERGY PREDICTED BY IDOCK:   -7.49 KCAL/MOL
REMARK 924 INTRA-LIGAND FREE ENERGY PREDICTED BY IDOCK:   -1.52 KCAL/MOL
REMARK 927      BINDING AFFINITY PREDICTED BY RF-SCORE:    0.00 PKD
ROOT
HETATM    1  C   UNL     1     -11.128  16.264  64.586  1.00  0.00    -0.259 C  
HETATM    2  C   UNL     1     -10.567  14.994  65.226  1.00  0.00    -0.397 C  
HETATM    3  C   UNL     1      -9.277  15.298  65.979  1.00  0.00    -0.308 C  
ENDROOT
BRANCH   2   4
HETATM    4  N   UNL     1     -11.539  14.363  66.111  1.00  0.00    -0.362 N  
HETATM    5  H   UNL     1     -11.721  14.770  67.028  1.00  0.00     0.000 HD 
BRANCH   4   6
HETATM    6  C   UNL     1     -12.210  13.234  65.728  1.00  0.00    -0.456 C  
HETATM    7  O   UNL     1     -13.326  13.240  65.238  1.00  0.00    -0.561 OA 
BRANCH   6   8
HETATM    8  N   UNL     1     -11.534  12.063  66.031  1.00  0.00    -0.357 N  
HETATM    9  H   UNL     1     -11.320  11.425  65.264  1.00  0.00     0.000 HD 
BRANCH   8  10
HETATM   10  S   UNL     1     -11.043  11.623  67.567  1.00  0.00    -0.296 S  
HETATM   11  O   UNL     1     -10.310  12.714  68.168  1.00  0.00    -0.220 OA 
HETATM   12  O   UNL     1     -12.247  11.113  68.197  1.00  0.00    -0.612 OA 
BRANCH  10  13
HETATM   13  C   UNL     1      -9.951  10.259  67.381  1.00  0.00    -0.189 A  
HETATM   14  C   UNL     1      -9.288   9.687  68.475  1.00  0.00    -0.137 A  
HETATM   15  N   UNL     1      -8.853   8.743  65.833  1.00  0.00    -0.174 NA 
HETATM   16  C   UNL     1      -8.353   8.680  68.181  1.00  0.00    -0.127 A  
HETATM   17  C   UNL     1      -8.171   8.247  66.878  1.00  0.00    -0.103 A  
HETATM   18  C   UNL     1      -9.718   9.746  66.111  1.00  0.00    -0.246 A  
BRANCH  14  19
HETATM   19  N   UNL     1      -9.607   9.993  69.820  1.00  0.00    -0.283 NA 
HETATM   20  H   UNL     1      -9.450  10.962  70.099  1.00  0.00     0.000 HD 
BRANCH  19  21
HETATM   21  C   UNL     1     -10.112   9.143  70.831  1.00  0.00    -0.287 A  
HETATM   22  C   UNL     1     -12.023   8.221  72.022  1.00  0.00    -0.405 A  
HETATM   23  C   UNL     1     -11.488   8.911  70.928  1.00  0.00    -0.339 A  
HETATM   24  C   UNL     1     -11.191   7.782  73.054  1.00  0.00    -0.380 A  
HETATM   25  C   UNL     1      -9.814   7.985  72.973  1.00  0.00    -0.352 A  
HETATM   26  C   UNL     1      -9.288   8.616  71.837  1.00  0.00    -0.357 A  
HETATM   27  C   UNL     1      -8.894   7.624  74.101  1.00  0.00    -0.280 C  
ENDBRANCH  19  21
ENDBRANCH  14  19
ENDBRANCH  10  13
ENDBRANCH   8  10
ENDBRANCH   6   8
ENDBRANCH   4   6
ENDBRANCH   2   4
TORSDOF 7
ENDMDL
MODEL      111
REMARK 921   NORMALIZED FREE ENERGY PREDICTED BY IDOCK:   -5.06 KCAL/MOL
REMARK 922        TOTAL FREE ENERGY PREDICTED BY IDOCK:   -8.98 KCAL/MOL
REMARK 923 INTER-LIGAND FREE ENERGY PREDICTED BY IDOCK:   -7.74 KCAL/MOL
REMARK 924 INTRA-LIGAND FREE ENERGY PREDICTED BY IDOCK:   -1.24 KCAL/MOL
REMARK 927      BINDING AFFINITY PREDICTED BY RF-SCORE:    0.00 PKD
ROOT
HETATM    1  C   UNL     1      -5.749  13.403  67.589  1.00  0.00    -0.072 C  
HETATM    2  C   UNL     1      -6.652  12.455  68.378  1.00  0.00    -0.065 C  
HETATM    3  C   UNL     1      -5.925  11.919  69.606  1.00  0.00    -0.114 C  
ENDROOT
BRANCH   2   4
HETATM    4  N   UNL     1      -7.902  13.097  68.762  1.00  0.00    -0.315 N  
HETATM    5  H   UNL     1      -7.896  13.816  69.486  1.00  0.00     0.000 HD 
BRANCH   4   6
HETATM    6  C   UNL     1      -9.084  12.750  68.166  1.00  0.00    -0.203 C  
HETATM    7  O   UNL     1      -9.161  12.155  67.105  1.00  0.00    -0.182 OA 
BRANCH   6   8
HETATM    8  N   UNL     1     -10.200  13.220  68.842  1.00  0.00    -0.429 N  
HETATM    9  H   UNL     1     -10.048  13.730  69.712  1.00  0.00     0.000 HD 
BRANCH   8  10
HETATM   10  S   UNL     1     -11.776  13.008  68.329  1.00  0.00    -0.354 S  
HETATM   11  O   UNL     1     -12.122  11.606  68.408  1.00  0.00    -0.522 OA 
HETATM   12  O   UNL     1     -12.533  13.994  69.077  1.00  0.00    -0.214 OA 
BRANCH  10  13
HETATM   13  C   UNL     1     -11.832  13.497  66.642  1.00  0.00    -0.407 A  
HETATM   14  C   UNL     1     -11.469  14.787  66.234  1.00  0.00    -0.316 A  
HETATM   15  N   UNL     1     -12.418  12.867  64.371  1.00  0.00    -0.606 NA 
HETATM   16  C   UNL     1     -11.669  15.091  64.876  1.00  0.00    -0.336 A  
HETATM   17  C   UNL     1     -12.134  14.125  63.999  1.00  0.00    -0.348 A  
HETATM   18  C   UNL     1     -12.271  12.588  65.687  1.00  0.00    -0.335 A  
BRANCH  14  19
HETATM   19  N   UNL     1     -10.820  15.715  67.084  1.00  0.00    -0.312 NA 
HETATM   20  H   UNL     1     -11.001  15.598  68.081  1.00  0.00     0.000 HD 
BRANCH  19  21
HETATM   21  C   UNL     1      -9.955  16.781  66.743  1.00  0.00    -0.282 A  
HETATM   22  C   UNL     1      -7.732  17.550  66.121  1.00  0.00    -0.304 A  
HETATM   23  C   UNL     1      -8.658  16.514  66.293  1.00  0.00    -0.367 A  
HETATM   24  C   UNL     1      -8.081  18.867  66.431  1.00  0.00    -0.306 A  
HETATM   25  C   UNL     1      -9.373  19.161  66.865  1.00  0.00    -0.363 A  
HETATM   26  C   UNL     1     -10.308  18.121  66.963  1.00  0.00    -0.391 A  
HETATM   27  C   UNL     1      -9.763  20.540  67.306  1.00  0.00    -0.600 C  
ENDBRANCH  19  21
ENDBRANCH  14  19
ENDBRANCH  10  13
ENDBRANCH   8  10
ENDBRANCH   6   8
ENDBRANCH   4   6
ENDBRANCH   2   4
TORSDOF 7
ENDMDL
MODEL      112
REMARK 921   NORMALIZED FREE ENERGY PREDICTED BY IDOCK:   -5.05 KCAL/MOL
REMARK 922        TOTAL FREE ENERGY PREDICTED BY IDOCK:   -8.96 KCAL/MOL
REMARK 923 INTER-LIGAND FREE ENERGY PREDICTED BY IDOCK:   -7.24 KCAL/MOL
REMARK 924 INTRA-LIGAND FREE ENERGY PREDICTED BY IDOCK:   -1.72 KCAL/MOL
REMARK 927      BINDING AFFINITY PREDICTED BY RF-SCORE:    0.00 PKD
ROOT
HETATM    1  C   UNL     1     -12.421  13.544  65.520  1.00  0.00    -0.538 C  
HETATM    2  C   UNL     1     -11.833  12.242  64.977  1.00  0.00    -0.357 C  
HETATM    3  C   UNL     1     -11.616  12.338  63.471  1.00  0.00    -0.570 C  
ENDROOT
BRANCH   2   4
HETATM    4  N   UNL     1     -10.590  11.889  65.652  1.00  0.00    -0.259 N  
HETATM    5  H   UNL     1      -9.848  12.584  65.732  1.00  0.00     0.000 HD 
BRANCH   4   6
HETATM    6  C   UNL     1     -10.405  10.640  66.180  1.00  0.00    -0.227 C  
HETATM    7  O   UNL     1      -9.716   9.779  65.662  1.00  0.00    -0.251 OA 
BRANCH   6   8
HETATM    8  N   UNL     1     -11.152  10.411  67.325  1.00  0.00    -0.245 N  
HETATM    9  H   UNL     1     -12.167  10.480  67.252  1.00  0.00     0.000 HD 
BRANCH   8  10
HETATM   10  S   UNL     1     -10.504  10.029  68.817  1.00  0.00    -0.219 S  
HETATM   11  O   UNL     1     -10.415   8.592  68.949  1.00  0.00    -0.215 OA 
HETATM   12  O   UNL     1      -9.311  10.850  68.912  1.00  0.00    -0.182 OA 
BRANCH  10  13
HETATM   13  C   UNL     1     -11.629  10.627  70.028  1.00  0.00    -0.325 A  
HETATM   14  C   UNL     1     -12.048  11.963  70.053  1.00  0.00    -0.291 A  
HETATM   15  N   UNL     1     -12.917  10.112  72.022  1.00  0.00    -0.427 NA 
HETATM   16  C   UNL     1     -12.855  12.344  71.139  1.00  0.00    -0.299 A  
HETATM   17  C   UNL     1     -13.257  11.410  72.079  1.00  0.00    -0.327 A  
HETATM   18  C   UNL     1     -12.100   9.756  71.003  1.00  0.00    -0.346 A  
BRANCH  14  19
HETATM   19  N   UNL     1     -11.795  12.874  68.999  1.00  0.00    -0.311 NA 
HETATM   20  H   UNL     1     -12.211  12.631  68.099  1.00  0.00     0.000 HD 
BRANCH  19  21
HETATM   21  C   UNL     1     -11.047  14.074  69.019  1.00  0.00    -0.264 A  
HETATM   22  C   UNL     1     -10.909  16.440  69.569  1.00  0.00    -0.338 A  
HETATM   23  C   UNL     1     -11.545  15.199  69.686  1.00  0.00    -0.335 A  
HETATM   24  C   UNL     1      -9.785  16.584  68.753  1.00  0.00    -0.251 A  
HETATM   25  C   UNL     1      -9.259  15.474  68.091  1.00  0.00    -0.189 A  
HETATM   26  C   UNL     1      -9.866  14.225  68.276  1.00  0.00    -0.235 A  
HETATM   27  C   UNL     1      -8.118  15.598  67.126  1.00  0.00    -0.247 C  
ENDBRANCH  19  21
ENDBRANCH  14  19
ENDBRANCH  10  13
ENDBRANCH   8  10
ENDBRANCH   6   8
ENDBRANCH   4   6
ENDBRANCH   2   4
TORSDOF 7
ENDMDL
MODEL      113
REMARK 921   NORMALIZED FREE ENERGY PREDICTED BY IDOCK:   -5.05 KCAL/MOL
REMARK 922        TOTAL FREE ENERGY PREDICTED BY IDOCK:   -8.96 KCAL/MOL
REMARK 923 INTER-LIGAND FREE ENERGY PREDICTED BY IDOCK:   -7.46 KCAL/MOL
REMARK 924 INTRA-LIGAND FREE ENERGY PREDICTED BY IDOCK:   -1.50 KCAL/MOL
REMARK 927      BINDING AFFINITY PREDICTED BY RF-SCORE:    0.00 PKD
ROOT
HETATM    1  C   UNL     1     -12.011  16.141  71.875  1.00  0.00    -0.583 C  
HETATM    2  C   UNL     1     -12.413  14.678  71.690  1.00  0.00    -0.345 C  
HETATM    3  C   UNL     1     -13.537  14.304  72.650  1.00  0.00    -0.601 C  
ENDROOT
BRANCH   2   4
HETATM    4  N   UNL     1     -12.801  14.396  70.314  1.00  0.00    -0.490 N  
HETATM    5  H   UNL     1     -13.777  14.498  70.036  1.00  0.00     0.000 HD 
BRANCH   4   6
HETATM    6  C   UNL     1     -11.874  13.996  69.389  1.00  0.00    -0.333 C  
HETATM    7  O   UNL     1     -11.704  14.548  68.316  1.00  0.00    -0.312 OA 
BRANCH   6   8
HETATM    8  N   UNL     1     -11.199  12.841  69.751  1.00  0.00    -0.481 N  
HETATM    9  H   UNL     1     -10.196  12.912  69.925  1.00  0.00     0.000 HD 
BRANCH   8  10
HETATM   10  S   UNL     1     -11.913  11.340  69.921  1.00  0.00    -0.378 S  
HETATM   11  O   UNL     1     -12.739  11.333  71.107  1.00  0.00    -0.384 OA 
HETATM   12  O   UNL     1     -12.495  11.070  68.619  1.00  0.00    -0.462 OA 
BRANCH  10  13
HETATM   13  C   UNL     1     -10.612  10.181  70.146  1.00  0.00    -0.281 A  
HETATM   14  C   UNL     1      -9.528  10.104  69.262  1.00  0.00    -0.218 A  
HETATM   15  N   UNL     1      -9.765   8.320  71.457  1.00  0.00    -0.176 NA 
HETATM   16  C   UNL     1      -8.615   9.059  69.483  1.00  0.00    -0.138 A  
HETATM   17  C   UNL     1      -8.766   8.210  70.566  1.00  0.00    -0.135 A  
HETATM   18  C   UNL     1     -10.670   9.296  71.216  1.00  0.00    -0.352 A  
BRANCH  14  19
HETATM   19  N   UNL     1      -9.267  11.081  68.270  1.00  0.00    -0.158 NA 
HETATM   20  H   UNL     1      -8.998  12.001  68.619  1.00  0.00     0.000 HD 
BRANCH  19  21
HETATM   21  C   UNL     1      -9.329  10.958  66.862  1.00  0.00    -0.168 A  
HETATM   22  C   UNL     1     -10.652  10.978  64.820  1.00  0.00    -0.350 A  
HETATM   23  C   UNL     1     -10.515  11.261  66.184  1.00  0.00    -0.305 A  
HETATM   24  C   UNL     1      -9.616  10.355  64.121  1.00  0.00    -0.381 A  
HETATM   25  C   UNL     1      -8.417  10.058  64.769  1.00  0.00    -0.180 A  
HETATM   26  C   UNL     1      -8.272  10.413  66.118  1.00  0.00    -0.144 A  
HETATM   27  C   UNL     1      -7.317   9.300  64.089  1.00  0.00    -0.106 C  
ENDBRANCH  19  21
ENDBRANCH  14  19
ENDBRANCH  10  13
ENDBRANCH   8  10
ENDBRANCH   6   8
ENDBRANCH   4   6
ENDBRANCH   2   4
TORSDOF 7
ENDMDL
MODEL      114
REMARK 921   NORMALIZED FREE ENERGY PREDICTED BY IDOCK:   -5.04 KCAL/MOL
REMARK 922        TOTAL FREE ENERGY PREDICTED BY IDOCK:   -8.95 KCAL/MOL
REMARK 923 INTER-LIGAND FREE ENERGY PREDICTED BY IDOCK:   -7.25 KCAL/MOL
REMARK 924 INTRA-LIGAND FREE ENERGY PREDICTED BY IDOCK:   -1.70 KCAL/MOL
REMARK 927      BINDING AFFINITY PREDICTED BY RF-SCORE:    0.00 PKD
ROOT
HETATM    1  C   UNL     1      -9.913   6.052  69.026  1.00  0.00    -0.199 C  
HETATM    2  C   UNL     1      -9.840   6.870  67.735  1.00  0.00    -0.136 C  
HETATM    3  C   UNL     1      -9.918   5.957  66.517  1.00  0.00    -0.196 C  
ENDROOT
BRANCH   2   4
HETATM    4  N   UNL     1     -10.885   7.884  67.682  1.00  0.00    -0.505 N  
HETATM    5  H   UNL     1     -11.836   7.642  67.963  1.00  0.00     0.000 HD 
BRANCH   4   6
HETATM    6  C   UNL     1     -10.610   9.157  67.262  1.00  0.00    -0.233 C  
HETATM    7  O   UNL     1      -9.717   9.437  66.482  1.00  0.00    -0.198 OA 
BRANCH   6   8
HETATM    8  N   UNL     1     -11.392  10.121  67.879  1.00  0.00    -0.494 N  
HETATM    9  H   UNL     1     -12.398   9.963  67.917  1.00  0.00     0.000 HD 
BRANCH   8  10
HETATM   10  S   UNL     1     -10.798  11.525  68.564  1.00  0.00    -0.230 S  
HETATM   11  O   UNL     1      -9.433  11.313  68.989  1.00  0.00    -0.135 OA 
HETATM   12  O   UNL     1     -11.113  12.559  67.595  1.00  0.00    -0.235 OA 
BRANCH  10  13
HETATM   13  C   UNL     1     -11.777  11.849  69.987  1.00  0.00    -0.286 A  
HETATM   14  C   UNL     1     -12.316  10.816  70.766  1.00  0.00    -0.383 A  
HETATM   15  N   UNL     1     -12.835  13.540  71.373  1.00  0.00    -0.363 NA 
HETATM   16  C   UNL     1     -13.176  11.204  71.807  1.00  0.00    -0.486 A  
HETATM   17  C   UNL     1     -13.403  12.544  72.071  1.00  0.00    -0.426 A  
HETATM   18  C   UNL     1     -12.045  13.166  70.340  1.00  0.00    -0.317 A  
BRANCH  14  19
HETATM   19  N   UNL     1     -11.940   9.459  70.619  1.00  0.00    -0.427 NA 
HETATM   20  H   UNL     1     -12.335   8.979  69.810  1.00  0.00     0.000 HD 
BRANCH  19  21
HETATM   21  C   UNL     1     -11.093   8.676  71.438  1.00  0.00    -0.274 A  
HETATM   22  C   UNL     1     -10.830   7.145  73.310  1.00  0.00    -0.378 A  
HETATM   23  C   UNL     1     -11.643   7.793  72.373  1.00  0.00    -0.410 A  
HETATM   24  C   UNL     1      -9.457   7.398  73.348  1.00  0.00    -0.276 A  
HETATM   25  C   UNL     1      -8.882   8.261  72.416  1.00  0.00    -0.286 A  
HETATM   26  C   UNL     1      -9.700   8.846  71.440  1.00  0.00    -0.370 A  
HETATM   27  C   UNL     1      -7.433   8.642  72.481  1.00  0.00    -0.007 C  
ENDBRANCH  19  21
ENDBRANCH  14  19
ENDBRANCH  10  13
ENDBRANCH   8  10
ENDBRANCH   6   8
ENDBRANCH   4   6
ENDBRANCH   2   4
TORSDOF 7
ENDMDL
MODEL      115
REMARK 921   NORMALIZED FREE ENERGY PREDICTED BY IDOCK:   -5.03 KCAL/MOL
REMARK 922        TOTAL FREE ENERGY PREDICTED BY IDOCK:   -8.94 KCAL/MOL
REMARK 923 INTER-LIGAND FREE ENERGY PREDICTED BY IDOCK:   -7.90 KCAL/MOL
REMARK 924 INTRA-LIGAND FREE ENERGY PREDICTED BY IDOCK:   -1.04 KCAL/MOL
REMARK 927      BINDING AFFINITY PREDICTED BY RF-SCORE:    0.00 PKD
ROOT
HETATM    1  C   UNL     1     -14.196  15.527  71.935  1.00  0.00    -0.586 C  
HETATM    2  C   UNL     1     -13.132  14.579  71.382  1.00  0.00    -0.353 C  
HETATM    3  C   UNL     1     -13.349  13.164  71.905  1.00  0.00    -0.546 C  
ENDROOT
BRANCH   2   4
HETATM    4  N   UNL     1     -13.108  14.589  69.925  1.00  0.00    -0.386 N  
HETATM    5  H   UNL     1     -13.892  14.191  69.407  1.00  0.00     0.000 HD 
BRANCH   4   6
HETATM    6  C   UNL     1     -12.050  15.123  69.241  1.00  0.00    -0.244 C  
HETATM    7  O   UNL     1     -11.180  15.802  69.758  1.00  0.00    -0.276 OA 
BRANCH   6   8
HETATM    8  N   UNL     1     -12.104  14.892  67.875  1.00  0.00    -0.545 N  
HETATM    9  H   UNL     1     -12.451  15.644  67.280  1.00  0.00     0.000 HD 
BRANCH   8  10
HETATM   10  S   UNL     1     -11.641  13.466  67.137  1.00  0.00    -0.381 S  
HETATM   11  O   UNL     1     -12.272  12.351  67.807  1.00  0.00    -0.395 OA 
HETATM   12  O   UNL     1     -11.873  13.701  65.724  1.00  0.00    -0.339 OA 
BRANCH  10  13
HETATM   13  C   UNL     1      -9.902  13.326  67.349  1.00  0.00    -0.227 A  
HETATM   14  C   UNL     1      -9.318  12.208  67.958  1.00  0.00    -0.197 A  
HETATM   15  N   UNL     1      -7.739  14.400  67.087  1.00  0.00    -0.121 NA 
HETATM   16  C   UNL     1      -7.931  12.268  68.174  1.00  0.00    -0.155 A  
HETATM   17  C   UNL     1      -7.196  13.356  67.733  1.00  0.00    -0.154 A  
HETATM   18  C   UNL     1      -9.081  14.363  66.922  1.00  0.00    -0.251 A  
BRANCH  14  19
HETATM   19  N   UNL     1     -10.033  11.018  68.239  1.00  0.00    -0.173 NA 
HETATM   20  H   UNL     1     -10.454  10.557  67.432  1.00  0.00     0.000 HD 
BRANCH  19  21
HETATM   21  C   UNL     1     -10.245  10.380  69.484  1.00  0.00    -0.231 A  
HETATM   22  C   UNL     1      -9.450   8.871  71.219  1.00  0.00    -0.343 A  
HETATM   23  C   UNL     1      -9.211   9.653  70.083  1.00  0.00    -0.287 A  
HETATM   24  C   UNL     1     -10.737   8.776  71.752  1.00  0.00    -0.413 A  
HETATM   25  C   UNL     1     -11.782   9.504  71.183  1.00  0.00    -0.438 A  
HETATM   26  C   UNL     1     -11.510  10.337  70.090  1.00  0.00    -0.383 A  
HETATM   27  C   UNL     1     -13.198   9.355  71.656  1.00  0.00    -0.470 C  
ENDBRANCH  19  21
ENDBRANCH  14  19
ENDBRANCH  10  13
ENDBRANCH   8  10
ENDBRANCH   6   8
ENDBRANCH   4   6
ENDBRANCH   2   4
TORSDOF 7
ENDMDL
MODEL      116
REMARK 921   NORMALIZED FREE ENERGY PREDICTED BY IDOCK:   -5.02 KCAL/MOL
REMARK 922        TOTAL FREE ENERGY PREDICTED BY IDOCK:   -8.93 KCAL/MOL
REMARK 923 INTER-LIGAND FREE ENERGY PREDICTED BY IDOCK:   -7.45 KCAL/MOL
REMARK 924 INTRA-LIGAND FREE ENERGY PREDICTED BY IDOCK:   -1.49 KCAL/MOL
REMARK 927      BINDING AFFINITY PREDICTED BY RF-SCORE:    0.00 PKD
ROOT
HETATM    1  C   UNL     1      -9.890   4.675  68.033  1.00  0.00    -0.174 C  
HETATM    2  C   UNL     1      -9.971   5.454  66.720  1.00  0.00    -0.192 C  
HETATM    3  C   UNL     1     -10.400   4.538  65.579  1.00  0.00    -0.254 C  
ENDROOT
BRANCH   2   4
HETATM    4  N   UNL     1     -10.871   6.595  66.826  1.00  0.00    -0.537 N  
HETATM    5  H   UNL     1     -11.873   6.437  66.939  1.00  0.00     0.000 HD 
BRANCH   4   6
HETATM    6  C   UNL     1     -10.392   7.876  66.778  1.00  0.00    -0.287 C  
HETATM    7  O   UNL     1      -9.531   8.250  66.002  1.00  0.00    -0.192 OA 
BRANCH   6   8
HETATM    8  N   UNL     1     -10.920   8.699  67.761  1.00  0.00    -0.487 N  
HETATM    9  H   UNL     1     -11.688   9.318  67.501  1.00  0.00     0.000 HD 
BRANCH   8  10
HETATM   10  S   UNL     1     -10.386   8.745  69.344  1.00  0.00    -0.215 S  
HETATM   11  O   UNL     1     -10.482   7.424  69.922  1.00  0.00    -0.219 OA 
HETATM   12  O   UNL     1      -9.106   9.425  69.271  1.00  0.00    -0.140 OA 
BRANCH  10  13
HETATM   13  C   UNL     1     -11.477   9.811  70.217  1.00  0.00    -0.255 A  
HETATM   14  C   UNL     1     -11.446  11.201  70.049  1.00  0.00    -0.292 A  
HETATM   15  N   UNL     1     -13.225   9.983  71.894  1.00  0.00    -0.442 NA 
HETATM   16  C   UNL     1     -12.287  11.951  70.889  1.00  0.00    -0.400 A  
HETATM   17  C   UNL     1     -13.141  11.318  71.777  1.00  0.00    -0.422 A  
HETATM   18  C   UNL     1     -12.382   9.263  71.119  1.00  0.00    -0.293 A  
BRANCH  14  19
HETATM   19  N   UNL     1     -10.716  11.840  69.017  1.00  0.00    -0.327 NA 
HETATM   20  H   UNL     1      -9.733  11.576  68.947  1.00  0.00     0.000 HD 
BRANCH  19  21
HETATM   21  C   UNL     1     -11.160  12.793  68.071  1.00  0.00    -0.250 A  
HETATM   22  C   UNL     1     -12.127  13.279  65.892  1.00  0.00    -0.493 A  
HETATM   23  C   UNL     1     -11.837  12.375  66.921  1.00  0.00    -0.377 A  
HETATM   24  C   UNL     1     -11.712  14.609  65.983  1.00  0.00    -0.306 A  
HETATM   25  C   UNL     1     -11.050  15.055  67.127  1.00  0.00    -0.332 A  
HETATM   26  C   UNL     1     -10.832  14.153  68.178  1.00  0.00    -0.258 A  
HETATM   27  C   UNL     1     -10.496  16.445  67.229  1.00  0.00    -0.303 C  
ENDBRANCH  19  21
ENDBRANCH  14  19
ENDBRANCH  10  13
ENDBRANCH   8  10
ENDBRANCH   6   8
ENDBRANCH   4   6
ENDBRANCH   2   4
TORSDOF 7
ENDMDL
MODEL      117
REMARK 921   NORMALIZED FREE ENERGY PREDICTED BY IDOCK:   -5.02 KCAL/MOL
REMARK 922        TOTAL FREE ENERGY PREDICTED BY IDOCK:   -8.93 KCAL/MOL
REMARK 923 INTER-LIGAND FREE ENERGY PREDICTED BY IDOCK:   -7.45 KCAL/MOL
REMARK 924 INTRA-LIGAND FREE ENERGY PREDICTED BY IDOCK:   -1.48 KCAL/MOL
REMARK 927      BINDING AFFINITY PREDICTED BY RF-SCORE:    0.00 PKD
ROOT
HETATM    1  C   UNL     1     -13.724  15.096  71.040  1.00  0.00    -0.450 C  
HETATM    2  C   UNL     1     -12.452  15.553  70.325  1.00  0.00    -0.367 C  
HETATM    3  C   UNL     1     -11.240  15.402  71.236  1.00  0.00    -0.407 C  
ENDROOT
BRANCH   2   4
HETATM    4  N   UNL     1     -12.248  14.830  69.076  1.00  0.00    -0.564 N  
HETATM    5  H   UNL     1     -12.760  13.964  68.908  1.00  0.00     0.000 HD 
BRANCH   4   6
HETATM    6  C   UNL     1     -11.379  15.295  68.127  1.00  0.00    -0.338 C  
HETATM    7  O   UNL     1     -11.138  16.476  67.947  1.00  0.00    -0.319 OA 
BRANCH   6   8
HETATM    8  N   UNL     1     -10.857  14.295  67.321  1.00  0.00    -0.280 N  
HETATM    9  H   UNL     1      -9.852  14.303  67.146  1.00  0.00     0.000 HD 
BRANCH   8  10
HETATM   10  S   UNL     1     -11.760  13.078  66.619  1.00  0.00    -0.391 S  
HETATM   11  O   UNL     1     -12.198  12.153  67.640  1.00  0.00    -0.462 OA 
HETATM   12  O   UNL     1     -12.730  13.778  65.797  1.00  0.00    -0.490 OA 
BRANCH  10  13
HETATM   13  C   UNL     1     -10.690  12.220  65.520  1.00  0.00    -0.279 A  
HETATM   14  C   UNL     1      -9.588  11.487  65.981  1.00  0.00    -0.228 A  
HETATM   15  N   UNL     1     -10.138  11.727  63.206  1.00  0.00    -0.434 NA 
HETATM   16  C   UNL     1      -8.743  10.945  64.997  1.00  0.00    -0.109 A  
HETATM   17  C   UNL     1      -9.047  11.085  63.653  1.00  0.00    -0.145 A  
HETATM   18  C   UNL     1     -10.926  12.289  64.152  1.00  0.00    -0.363 A  
BRANCH  14  19
HETATM   19  N   UNL     1      -9.378  11.183  67.348  1.00  0.00    -0.163 NA 
HETATM   20  H   UNL     1      -9.032  11.953  67.920  1.00  0.00     0.000 HD 
BRANCH  19  21
HETATM   21  C   UNL     1      -9.580   9.960  68.029  1.00  0.00    -0.138 A  
HETATM   22  C   UNL     1      -8.955   8.442  69.825  1.00  0.00    -0.146 A  
HETATM   23  C   UNL     1      -8.907   9.708  69.230  1.00  0.00    -0.164 A  
HETATM   24  C   UNL     1      -9.649   7.399  69.209  1.00  0.00    -0.154 A  
HETATM   25  C   UNL     1     -10.342   7.629  68.021  1.00  0.00    -0.257 A  
HETATM   26  C   UNL     1     -10.342   8.920  67.477  1.00  0.00    -0.328 A  
HETATM   27  C   UNL     1     -11.015   6.518  67.271  1.00  0.00    -0.475 C  
ENDBRANCH  19  21
ENDBRANCH  14  19
ENDBRANCH  10  13
ENDBRANCH   8  10
ENDBRANCH   6   8
ENDBRANCH   4   6
ENDBRANCH   2   4
TORSDOF 7
ENDMDL
MODEL      118
REMARK 921   NORMALIZED FREE ENERGY PREDICTED BY IDOCK:   -5.01 KCAL/MOL
REMARK 922        TOTAL FREE ENERGY PREDICTED BY IDOCK:   -8.91 KCAL/MOL
REMARK 923 INTER-LIGAND FREE ENERGY PREDICTED BY IDOCK:   -7.51 KCAL/MOL
REMARK 924 INTRA-LIGAND FREE ENERGY PREDICTED BY IDOCK:   -1.41 KCAL/MOL
REMARK 927      BINDING AFFINITY PREDICTED BY RF-SCORE:    0.00 PKD
ROOT
HETATM    1  C   UNL     1      -6.738  10.606  70.197  1.00  0.00    -0.143 C  
HETATM    2  C   UNL     1      -7.674   9.716  69.379  1.00  0.00    -0.101 C  
HETATM    3  C   UNL     1      -9.091   9.772  69.938  1.00  0.00    -0.257 C  
ENDROOT
BRANCH   2   4
HETATM    4  N   UNL     1      -7.664  10.079  67.968  1.00  0.00    -0.089 N  
HETATM    5  H   UNL     1      -7.358   9.395  67.276  1.00  0.00     0.000 HD 
BRANCH   4   6
HETATM    6  C   UNL     1      -8.059  11.324  67.559  1.00  0.00    -0.124 C  
HETATM    7  O   UNL     1      -8.072  12.304  68.281  1.00  0.00    -0.154 OA 
BRANCH   6   8
HETATM    8  N   UNL     1      -8.531  11.350  66.255  1.00  0.00    -0.260 N  
HETATM    9  H   UNL     1      -7.923  11.744  65.538  1.00  0.00     0.000 HD 
BRANCH   8  10
HETATM   10  S   UNL     1     -10.028  10.780  65.779  1.00  0.00    -0.264 S  
HETATM   11  O   UNL     1      -9.881   9.985  64.581  1.00  0.00    -0.318 OA 
HETATM   12  O   UNL     1     -10.591  10.198  66.983  1.00  0.00    -0.244 OA 
BRANCH  10  13
HETATM   13  C   UNL     1     -11.007  12.188  65.392  1.00  0.00    -0.302 A  
HETATM   14  C   UNL     1     -11.461  13.069  66.382  1.00  0.00    -0.341 A  
HETATM   15  N   UNL     1     -12.163  13.432  63.655  1.00  0.00    -0.682 NA 
HETATM   16  C   UNL     1     -12.331  14.088  65.958  1.00  0.00    -0.504 A  
HETATM   17  C   UNL     1     -12.649  14.231  64.618  1.00  0.00    -0.255 A  
HETATM   18  C   UNL     1     -11.363  12.422  64.069  1.00  0.00    -0.399 A  
BRANCH  14  19
HETATM   19  N   UNL     1     -10.992  13.041  67.717  1.00  0.00    -0.244 NA 
HETATM   20  H   UNL     1      -9.977  13.060  67.827  1.00  0.00     0.000 HD 
BRANCH  19  21
HETATM   21  C   UNL     1     -11.733  12.990  68.921  1.00  0.00    -0.328 A  
HETATM   22  C   UNL     1     -12.618  14.131  70.879  1.00  0.00    -0.433 A  
HETATM   23  C   UNL     1     -12.043  14.171  69.603  1.00  0.00    -0.400 A  
HETATM   24  C   UNL     1     -12.859  12.907  71.506  1.00  0.00    -0.380 A  
HETATM   25  C   UNL     1     -12.575  11.715  70.840  1.00  0.00    -0.409 A  
HETATM   26  C   UNL     1     -12.066  11.773  69.536  1.00  0.00    -0.314 A  
HETATM   27  C   UNL     1     -12.720  10.381  71.511  1.00  0.00    -0.564 C  
ENDBRANCH  19  21
ENDBRANCH  14  19
ENDBRANCH  10  13
ENDBRANCH   8  10
ENDBRANCH   6   8
ENDBRANCH   4   6
ENDBRANCH   2   4
TORSDOF 7
ENDMDL
MODEL      119
REMARK 921   NORMALIZED FREE ENERGY PREDICTED BY IDOCK:   -5.00 KCAL/MOL
REMARK 922        TOTAL FREE ENERGY PREDICTED BY IDOCK:   -8.90 KCAL/MOL
REMARK 923 INTER-LIGAND FREE ENERGY PREDICTED BY IDOCK:   -8.01 KCAL/MOL
REMARK 924 INTRA-LIGAND FREE ENERGY PREDICTED BY IDOCK:   -0.89 KCAL/MOL
REMARK 927      BINDING AFFINITY PREDICTED BY RF-SCORE:    0.00 PKD
ROOT
HETATM    1  C   UNL     1     -11.051   6.004  72.738  1.00  0.00    -0.305 C  
HETATM    2  C   UNL     1     -11.382   7.304  72.005  1.00  0.00    -0.260 C  
HETATM    3  C   UNL     1     -12.038   7.009  70.660  1.00  0.00    -0.332 C  
ENDROOT
BRANCH   2   4
HETATM    4  N   UNL     1     -12.231   8.173  72.809  1.00  0.00    -0.611 N  
HETATM    5  H   UNL     1     -11.980   8.363  73.779  1.00  0.00     0.000 HD 
BRANCH   4   6
HETATM    6  C   UNL     1     -13.360   8.739  72.282  1.00  0.00    -0.419 C  
HETATM    7  O   UNL     1     -14.342   8.104  71.940  1.00  0.00    -0.425 OA 
BRANCH   6   8
HETATM    8  N   UNL     1     -13.251  10.108  72.088  1.00  0.00    -0.535 N  
HETATM    9  H   UNL     1     -13.668  10.721  72.787  1.00  0.00     0.000 HD 
BRANCH   8  10
HETATM   10  S   UNL     1     -12.482  10.821  70.787  1.00  0.00    -0.409 S  
HETATM   11  O   UNL     1     -11.062  10.557  70.865  1.00  0.00    -0.177 OA 
HETATM   12  O   UNL     1     -13.248  10.387  69.634  1.00  0.00     0.118 OA 
BRANCH  10  13
HETATM   13  C   UNL     1     -12.731  12.554  70.938  1.00  0.00    -0.182 A  
HETATM   14  C   UNL     1     -12.279  13.455  69.964  1.00  0.00    -0.298 A  
HETATM   15  N   UNL     1     -13.566  14.365  72.325  1.00  0.00    -0.411 NA 
HETATM   16  C   UNL     1     -12.435  14.820  70.257  1.00  0.00    -0.393 A  
HETATM   17  C   UNL     1     -13.069  15.223  71.420  1.00  0.00    -0.454 A  
HETATM   18  C   UNL     1     -13.373  13.051  72.066  1.00  0.00    -0.492 A  
BRANCH  14  19
HETATM   19  N   UNL     1     -11.803  13.047  68.695  1.00  0.00    -0.320 NA 
HETATM   20  H   UNL     1     -12.082  12.111  68.401  1.00  0.00     0.000 HD 
BRANCH  19  21
HETATM   21  C   UNL     1     -10.994  13.757  67.777  1.00  0.00    -0.256 A  
HETATM   22  C   UNL     1      -8.962  15.016  67.324  1.00  0.00    -0.212 A  
HETATM   23  C   UNL     1      -9.707  14.164  68.147  1.00  0.00    -0.225 A  
HETATM   24  C   UNL     1      -9.506  15.503  66.134  1.00  0.00    -0.376 A  
HETATM   25  C   UNL     1     -10.780  15.099  65.735  1.00  0.00    -0.359 A  
HETATM   26  C   UNL     1     -11.484  14.189  66.536  1.00  0.00    -0.368 A  
HETATM   27  C   UNL     1     -11.447  15.673  64.520  1.00  0.00    -0.304 C  
ENDBRANCH  19  21
ENDBRANCH  14  19
ENDBRANCH  10  13
ENDBRANCH   8  10
ENDBRANCH   6   8
ENDBRANCH   4   6
ENDBRANCH   2   4
TORSDOF 7
ENDMDL
MODEL      120
REMARK 921   NORMALIZED FREE ENERGY PREDICTED BY IDOCK:   -4.97 KCAL/MOL
REMARK 922        TOTAL FREE ENERGY PREDICTED BY IDOCK:   -8.85 KCAL/MOL
REMARK 923 INTER-LIGAND FREE ENERGY PREDICTED BY IDOCK:   -7.15 KCAL/MOL
REMARK 924 INTRA-LIGAND FREE ENERGY PREDICTED BY IDOCK:   -1.70 KCAL/MOL
REMARK 927      BINDING AFFINITY PREDICTED BY RF-SCORE:    0.00 PKD
ROOT
HETATM    1  C   UNL     1     -10.053   9.139  66.452  1.00  0.00    -0.345 C  
HETATM    2  C   UNL     1     -10.543  10.491  66.973  1.00  0.00    -0.253 C  
HETATM    3  C   UNL     1     -10.499  10.526  68.497  1.00  0.00    -0.210 C  
ENDROOT
BRANCH   2   4
HETATM    4  N   UNL     1      -9.774  11.594  66.413  1.00  0.00    -0.208 N  
HETATM    5  H   UNL     1      -8.817  11.432  66.099  1.00  0.00     0.000 HD 
BRANCH   4   6
HETATM    6  C   UNL     1     -10.316  12.846  66.302  1.00  0.00    -0.268 C  
HETATM    7  O   UNL     1     -11.509  13.060  66.169  1.00  0.00    -0.312 OA 
BRANCH   6   8
HETATM    8  N   UNL     1      -9.368  13.856  66.265  1.00  0.00    -0.468 N  
HETATM    9  H   UNL     1      -9.218  14.335  65.377  1.00  0.00     0.000 HD 
BRANCH   8  10
HETATM   10  S   UNL     1      -8.452  14.342  67.575  1.00  0.00    -0.205 S  
HETATM   11  O   UNL     1      -8.669  13.432  68.678  1.00  0.00    -0.110 OA 
HETATM   12  O   UNL     1      -7.120  14.533  67.032  1.00  0.00    -0.095 OA 
BRANCH  10  13
HETATM   13  C   UNL     1      -9.041  15.930  68.045  1.00  0.00    -0.184 A  
HETATM   14  C   UNL     1     -10.396  16.169  68.310  1.00  0.00    -0.266 A  
HETATM   15  N   UNL     1      -8.484  18.264  68.423  1.00  0.00    -0.298 NA 
HETATM   16  C   UNL     1     -10.757  17.503  68.561  1.00  0.00    -0.237 A  
HETATM   17  C   UNL     1      -9.793  18.497  68.607  1.00  0.00    -0.385 A  
HETATM   18  C   UNL     1      -8.143  16.987  68.134  1.00  0.00    -0.212 A  
BRANCH  14  19
HETATM   19  N   UNL     1     -11.351  15.133  68.449  1.00  0.00    -0.300 NA 
HETATM   20  H   UNL     1     -11.543  14.596  67.603  1.00  0.00     0.000 HD 
BRANCH  19  21
HETATM   21  C   UNL     1     -12.078  14.740  69.597  1.00  0.00    -0.304 A  
HETATM   22  C   UNL     1     -13.027  15.308  71.764  1.00  0.00    -0.475 A  
HETATM   23  C   UNL     1     -12.467  15.696  70.541  1.00  0.00    -0.440 A  
HETATM   24  C   UNL     1     -13.174  13.955  72.076  1.00  0.00    -0.503 A  
HETATM   25  C   UNL     1     -12.810  12.982  71.145  1.00  0.00    -0.331 A  
HETATM   26  C   UNL     1     -12.317  13.390  69.897  1.00  0.00    -0.259 A  
HETATM   27  C   UNL     1     -12.853  11.520  71.472  1.00  0.00    -0.485 C  
ENDBRANCH  19  21
ENDBRANCH  14  19
ENDBRANCH  10  13
ENDBRANCH   8  10
ENDBRANCH   6   8
ENDBRANCH   4   6
ENDBRANCH   2   4
TORSDOF 7
ENDMDL
MODEL      121
REMARK 921   NORMALIZED FREE ENERGY PREDICTED BY IDOCK:   -4.95 KCAL/MOL
REMARK 922        TOTAL FREE ENERGY PREDICTED BY IDOCK:   -8.83 KCAL/MOL
REMARK 923 INTER-LIGAND FREE ENERGY PREDICTED BY IDOCK:   -7.36 KCAL/MOL
REMARK 924 INTRA-LIGAND FREE ENERGY PREDICTED BY IDOCK:   -1.48 KCAL/MOL
REMARK 927      BINDING AFFINITY PREDICTED BY RF-SCORE:    0.00 PKD
ROOT
HETATM    1  C   UNL     1      -6.212  14.509  68.171  1.00  0.00    -0.146 C  
HETATM    2  C   UNL     1      -6.394  13.006  68.387  1.00  0.00    -0.082 C  
HETATM    3  C   UNL     1      -5.457  12.503  69.479  1.00  0.00    -0.083 C  
ENDROOT
BRANCH   2   4
HETATM    4  N   UNL     1      -7.777  12.672  68.706  1.00  0.00    -0.294 N  
HETATM    5  H   UNL     1      -8.105  12.755  69.668  1.00  0.00     0.000 HD 
BRANCH   4   6
HETATM    6  C   UNL     1      -8.641  12.250  67.733  1.00  0.00    -0.170 C  
HETATM    7  O   UNL     1      -8.341  12.143  66.557  1.00  0.00    -0.110 OA 
BRANCH   6   8
HETATM    8  N   UNL     1      -9.930  12.034  68.197  1.00  0.00    -0.197 N  
HETATM    9  H   UNL     1     -10.175  12.416  69.110  1.00  0.00     0.000 HD 
BRANCH   8  10
HETATM   10  S   UNL     1     -11.108  11.193  67.363  1.00  0.00    -0.297 S  
HETATM   11  O   UNL     1     -10.588   9.903  66.967  1.00  0.00    -0.238 OA 
HETATM   12  O   UNL     1     -12.282  11.282  68.211  1.00  0.00    -0.611 OA 
BRANCH  10  13
HETATM   13  C   UNL     1     -11.460  12.117  65.910  1.00  0.00    -0.363 A  
HETATM   14  C   UNL     1     -12.065  13.379  65.965  1.00  0.00    -0.438 A  
HETATM   15  N   UNL     1     -11.434  12.157  63.482  1.00  0.00    -0.449 NA 
HETATM   16  C   UNL     1     -12.401  13.964  64.732  1.00  0.00    -0.429 A  
HETATM   17  C   UNL     1     -12.075  13.335  63.542  1.00  0.00    -0.482 A  
HETATM   18  C   UNL     1     -11.153  11.572  64.669  1.00  0.00    -0.250 A  
BRANCH  14  19
HETATM   19  N   UNL     1     -12.229  14.108  67.168  1.00  0.00    -0.570 NA 
HETATM   20  H   UNL     1     -13.093  13.924  67.678  1.00  0.00     0.000 HD 
BRANCH  19  21
HETATM   21  C   UNL     1     -11.363  15.056  67.760  1.00  0.00    -0.330 A  
HETATM   22  C   UNL     1     -10.876  16.585  69.589  1.00  0.00    -0.322 A  
HETATM   23  C   UNL     1     -11.614  15.522  69.055  1.00  0.00    -0.377 A  
HETATM   24  C   UNL     1      -9.898  17.221  68.822  1.00  0.00    -0.306 A  
HETATM   25  C   UNL     1      -9.617  16.765  67.534  1.00  0.00    -0.240 A  
HETATM   26  C   UNL     1     -10.316  15.654  67.042  1.00  0.00    -0.289 A  
HETATM   27  C   UNL     1      -8.650  17.478  66.637  1.00  0.00    -0.284 C  
ENDBRANCH  19  21
ENDBRANCH  14  19
ENDBRANCH  10  13
ENDBRANCH   8  10
ENDBRANCH   6   8
ENDBRANCH   4   6
ENDBRANCH   2   4
TORSDOF 7
ENDMDL
MODEL      122
REMARK 921   NORMALIZED FREE ENERGY PREDICTED BY IDOCK:   -4.95 KCAL/MOL
REMARK 922        TOTAL FREE ENERGY PREDICTED BY IDOCK:   -8.83 KCAL/MOL
REMARK 923 INTER-LIGAND FREE ENERGY PREDICTED BY IDOCK:   -7.33 KCAL/MOL
REMARK 924 INTRA-LIGAND FREE ENERGY PREDICTED BY IDOCK:   -1.49 KCAL/MOL
REMARK 927      BINDING AFFINITY PREDICTED BY RF-SCORE:    0.00 PKD
ROOT
HETATM    1  C   UNL     1     -11.652   6.638  70.124  1.00  0.00    -0.446 C  
HETATM    2  C   UNL     1     -12.176   6.966  71.522  1.00  0.00    -0.371 C  
HETATM    3  C   UNL     1     -11.446   6.141  72.576  1.00  0.00    -0.318 C  
ENDROOT
BRANCH   2   4
HETATM    4  N   UNL     1     -12.066   8.388  71.817  1.00  0.00    -0.307 N  
HETATM    5  H   UNL     1     -12.867   8.884  72.209  1.00  0.00     0.000 HD 
BRANCH   4   6
HETATM    6  C   UNL     1     -10.903   9.069  71.578  1.00  0.00    -0.346 C  
HETATM    7  O   UNL     1      -9.801   8.667  71.903  1.00  0.00    -0.259 OA 
BRANCH   6   8
HETATM    8  N   UNL     1     -11.104  10.314  71.002  1.00  0.00    -0.308 N  
HETATM    9  H   UNL     1     -10.284  10.820  70.666  1.00  0.00     0.000 HD 
BRANCH   8  10
HETATM   10  S   UNL     1     -12.596  11.044  70.820  1.00  0.00    -0.358 S  
HETATM   11  O   UNL     1     -13.353  10.343  69.807  1.00  0.00     0.122 OA 
HETATM   12  O   UNL     1     -13.108  11.158  72.172  1.00  0.00    -0.463 OA 
BRANCH  10  13
HETATM   13  C   UNL     1     -12.296  12.680  70.252  1.00  0.00    -0.195 A  
HETATM   14  C   UNL     1     -11.973  12.952  68.916  1.00  0.00    -0.250 A  
HETATM   15  N   UNL     1     -12.084  15.023  70.854  1.00  0.00    -0.298 NA 
HETATM   16  C   UNL     1     -11.641  14.284  68.613  1.00  0.00    -0.352 A  
HETATM   17  C   UNL     1     -11.708  15.265  69.588  1.00  0.00    -0.334 A  
HETATM   18  C   UNL     1     -12.357  13.733  71.156  1.00  0.00    -0.345 A  
BRANCH  14  19
HETATM   19  N   UNL     1     -12.085  11.992  67.881  1.00  0.00    -0.494 NA 
HETATM   20  H   UNL     1     -13.030  11.831  67.532  1.00  0.00     0.000 HD 
BRANCH  19  21
HETATM   21  C   UNL     1     -11.069  11.225  67.264  1.00  0.00    -0.305 A  
HETATM   22  C   UNL     1      -9.337  11.033  65.566  1.00  0.00    -0.242 A  
HETATM   23  C   UNL     1     -10.227  11.813  66.314  1.00  0.00    -0.255 A  
HETATM   24  C   UNL     1      -9.301   9.647  65.733  1.00  0.00    -0.286 A  
HETATM   25  C   UNL     1     -10.118   9.039  66.685  1.00  0.00    -0.355 A  
HETATM   26  C   UNL     1     -10.952   9.843  67.475  1.00  0.00    -0.239 A  
HETATM   27  C   UNL     1     -10.189   7.548  66.829  1.00  0.00    -0.324 C  
ENDBRANCH  19  21
ENDBRANCH  14  19
ENDBRANCH  10  13
ENDBRANCH   8  10
ENDBRANCH   6   8
ENDBRANCH   4   6
ENDBRANCH   2   4
TORSDOF 7
ENDMDL
MODEL      123
REMARK 921   NORMALIZED FREE ENERGY PREDICTED BY IDOCK:   -4.93 KCAL/MOL
REMARK 922        TOTAL FREE ENERGY PREDICTED BY IDOCK:   -8.80 KCAL/MOL
REMARK 923 INTER-LIGAND FREE ENERGY PREDICTED BY IDOCK:   -7.60 KCAL/MOL
REMARK 924 INTRA-LIGAND FREE ENERGY PREDICTED BY IDOCK:   -1.20 KCAL/MOL
REMARK 927      BINDING AFFINITY PREDICTED BY RF-SCORE:    0.00 PKD
ROOT
HETATM    1  C   UNL     1      -6.001  12.065  68.152  1.00  0.00    -0.053 C  
HETATM    2  C   UNL     1      -7.124  13.102  68.110  1.00  0.00    -0.109 C  
HETATM    3  C   UNL     1      -6.560  14.510  68.267  1.00  0.00    -0.119 C  
ENDROOT
BRANCH   2   4
HETATM    4  N   UNL     1      -7.907  12.997  66.886  1.00  0.00    -0.401 N  
HETATM    5  H   UNL     1      -7.500  12.547  66.066  1.00  0.00     0.000 HD 
BRANCH   4   6
HETATM    6  C   UNL     1      -9.180  13.494  66.819  1.00  0.00    -0.240 C  
HETATM    7  O   UNL     1      -9.493  14.478  66.172  1.00  0.00    -0.294 OA 
BRANCH   6   8
HETATM    8  N   UNL     1     -10.077  12.821  67.635  1.00  0.00    -0.216 N  
HETATM    9  H   UNL     1      -9.728  12.026  68.170  1.00  0.00     0.000 HD 
BRANCH   8  10
HETATM   10  S   UNL     1     -11.690  13.223  67.803  1.00  0.00    -0.358 S  
HETATM   11  O   UNL     1     -12.102  14.035  66.680  1.00  0.00    -0.428 OA 
HETATM   12  O   UNL     1     -12.349  11.960  68.077  1.00  0.00    -0.363 OA 
BRANCH  10  13
HETATM   13  C   UNL     1     -11.823  14.192  69.263  1.00  0.00    -0.338 A  
HETATM   14  C   UNL     1     -11.351  15.510  69.323  1.00  0.00    -0.325 A  
HETATM   15  N   UNL     1     -12.490  14.251  71.598  1.00  0.00    -0.347 NA 
HETATM   16  C   UNL     1     -11.409  16.137  70.579  1.00  0.00    -0.392 A  
HETATM   17  C   UNL     1     -11.973  15.488  71.665  1.00  0.00    -0.408 A  
HETATM   18  C   UNL     1     -12.390  13.630  70.400  1.00  0.00    -0.345 A  
BRANCH  14  19
HETATM   19  N   UNL     1     -10.948  16.241  68.179  1.00  0.00    -0.343 NA 
HETATM   20  H   UNL     1     -11.229  15.842  67.282  1.00  0.00     0.000 HD 
BRANCH  19  21
HETATM   21  C   UNL     1     -10.211  17.445  68.105  1.00  0.00    -0.350 A  
HETATM   22  C   UNL     1      -9.938  19.674  67.167  1.00  0.00    -0.507 A  
HETATM   23  C   UNL     1     -10.725  18.539  67.401  1.00  0.00    -0.424 A  
HETATM   24  C   UNL     1      -8.613  19.716  67.605  1.00  0.00    -0.365 A  
HETATM   25  C   UNL     1      -8.083  18.646  68.325  1.00  0.00    -0.339 A  
HETATM   26  C   UNL     1      -8.906  17.548  68.611  1.00  0.00    -0.255 A  
HETATM   27  C   UNL     1      -6.638  18.602  68.726  1.00  0.00    -0.281 C  
ENDBRANCH  19  21
ENDBRANCH  14  19
ENDBRANCH  10  13
ENDBRANCH   8  10
ENDBRANCH   6   8
ENDBRANCH   4   6
ENDBRANCH   2   4
TORSDOF 7
ENDMDL
MODEL      124
REMARK 921   NORMALIZED FREE ENERGY PREDICTED BY IDOCK:   -4.92 KCAL/MOL
REMARK 922        TOTAL FREE ENERGY PREDICTED BY IDOCK:   -8.79 KCAL/MOL
REMARK 923 INTER-LIGAND FREE ENERGY PREDICTED BY IDOCK:   -7.47 KCAL/MOL
REMARK 924 INTRA-LIGAND FREE ENERGY PREDICTED BY IDOCK:   -1.32 KCAL/MOL
REMARK 927      BINDING AFFINITY PREDICTED BY RF-SCORE:    0.00 PKD
ROOT
HETATM    1  C   UNL     1     -12.770  11.843  63.423  1.00  0.00    -0.496 C  
HETATM    2  C   UNL     1     -11.450  12.206  64.105  1.00  0.00    -0.387 C  
HETATM    3  C   UNL     1     -10.354  11.222  63.711  1.00  0.00    -0.453 C  
ENDROOT
BRANCH   2   4
HETATM    4  N   UNL     1     -11.045  13.573  63.801  1.00  0.00    -0.517 N  
HETATM    5  H   UNL     1     -10.341  13.740  63.082  1.00  0.00     0.000 HD 
BRANCH   4   6
HETATM    6  C   UNL     1     -11.596  14.635  64.465  1.00  0.00    -0.370 C  
HETATM    7  O   UNL     1     -12.670  15.133  64.178  1.00  0.00    -0.694 OA 
BRANCH   6   8
HETATM    8  N   UNL     1     -10.771  15.155  65.450  1.00  0.00    -0.353 N  
HETATM    9  H   UNL     1     -10.083  15.855  65.173  1.00  0.00     0.000 HD 
BRANCH   8  10
HETATM   10  S   UNL     1     -10.826  14.713  67.061  1.00  0.00    -0.311 S  
HETATM   11  O   UNL     1     -11.260  15.841  67.854  1.00  0.00    -0.341 OA 
HETATM   12  O   UNL     1     -11.583  13.475  67.069  1.00  0.00    -0.323 OA 
BRANCH  10  13
HETATM   13  C   UNL     1      -9.182  14.306  67.532  1.00  0.00    -0.197 A  
HETATM   14  C   UNL     1      -8.083  15.073  67.124  1.00  0.00    -0.214 A  
HETATM   15  N   UNL     1      -7.740  12.727  68.684  1.00  0.00    -0.102 NA 
HETATM   16  C   UNL     1      -6.814  14.578  67.468  1.00  0.00    -0.168 A  
HETATM   17  C   UNL     1      -6.690  13.429  68.231  1.00  0.00    -0.105 A  
HETATM   18  C   UNL     1      -8.961  13.178  68.312  1.00  0.00    -0.175 A  
BRANCH  14  19
HETATM   19  N   UNL     1      -8.211  16.342  66.509  1.00  0.00    -0.278 NA 
HETATM   20  H   UNL     1      -8.661  16.343  65.593  1.00  0.00     0.000 HD 
BRANCH  19  21
HETATM   21  C   UNL     1      -7.802  17.609  66.987  1.00  0.00    -0.215 A  
HETATM   22  C   UNL     1      -7.921  19.334  68.699  1.00  0.00    -0.405 A  
HETATM   23  C   UNL     1      -8.162  18.022  68.274  1.00  0.00    -0.298 A  
HETATM   24  C   UNL     1      -7.347  20.263  67.830  1.00  0.00    -0.325 A  
HETATM   25  C   UNL     1      -6.963  19.872  66.547  1.00  0.00    -0.250 A  
HETATM   26  C   UNL     1      -7.147  18.537  66.163  1.00  0.00    -0.301 A  
HETATM   27  C   UNL     1      -6.438  20.857  65.545  1.00  0.00    -0.191 C  
ENDBRANCH  19  21
ENDBRANCH  14  19
ENDBRANCH  10  13
ENDBRANCH   8  10
ENDBRANCH   6   8
ENDBRANCH   4   6
ENDBRANCH   2   4
TORSDOF 7
ENDMDL
MODEL      125
REMARK 921   NORMALIZED FREE ENERGY PREDICTED BY IDOCK:   -4.92 KCAL/MOL
REMARK 922        TOTAL FREE ENERGY PREDICTED BY IDOCK:   -8.79 KCAL/MOL
REMARK 923 INTER-LIGAND FREE ENERGY PREDICTED BY IDOCK:   -7.31 KCAL/MOL
REMARK 924 INTRA-LIGAND FREE ENERGY PREDICTED BY IDOCK:   -1.48 KCAL/MOL
REMARK 927      BINDING AFFINITY PREDICTED BY RF-SCORE:    0.00 PKD
ROOT
HETATM    1  C   UNL     1     -11.215  15.199  69.654  1.00  0.00    -0.288 C  
HETATM    2  C   UNL     1     -11.633  15.397  68.196  1.00  0.00    -0.319 C  
HETATM    3  C   UNL     1     -10.426  15.745  67.334  1.00  0.00    -0.297 C  
ENDROOT
BRANCH   2   4
HETATM    4  N   UNL     1     -12.318  14.223  67.670  1.00  0.00    -0.582 N  
HETATM    5  H   UNL     1     -12.934  13.685  68.279  1.00  0.00     0.000 HD 
BRANCH   4   6
HETATM    6  C   UNL     1     -12.146  13.833  66.369  1.00  0.00    -0.444 C  
HETATM    7  O   UNL     1     -12.815  14.250  65.440  1.00  0.00    -0.588 OA 
BRANCH   6   8
HETATM    8  N   UNL     1     -11.189  12.842  66.214  1.00  0.00    -0.288 N  
HETATM    9  H   UNL     1     -10.687  12.801  65.328  1.00  0.00     0.000 HD 
BRANCH   8  10
HETATM   10  S   UNL     1     -10.802  11.709  67.380  1.00  0.00    -0.266 S  
HETATM   11  O   UNL     1      -9.813  12.263  68.278  1.00  0.00    -0.210 OA 
HETATM   12  O   UNL     1     -12.085  11.261  67.887  1.00  0.00    -0.634 OA 
BRANCH  10  13
HETATM   13  C   UNL     1     -10.082  10.342  66.542  1.00  0.00    -0.228 A  
HETATM   14  C   UNL     1     -10.170   9.037  67.043  1.00  0.00    -0.266 A  
HETATM   15  N   UNL     1      -8.737   9.604  64.659  1.00  0.00    -0.187 NA 
HETATM   16  C   UNL     1      -9.455   8.050  66.343  1.00  0.00    -0.268 A  
HETATM   17  C   UNL     1      -8.768   8.368  65.184  1.00  0.00    -0.083 A  
HETATM   18  C   UNL     1      -9.386  10.562  65.360  1.00  0.00    -0.211 A  
BRANCH  14  19
HETATM   19  N   UNL     1     -11.020   8.675  68.116  1.00  0.00    -0.460 NA 
HETATM   20  H   UNL     1     -12.018   8.808  67.950  1.00  0.00     0.000 HD 
BRANCH  19  21
HETATM   21  C   UNL     1     -10.679   8.155  69.387  1.00  0.00    -0.156 A  
HETATM   22  C   UNL     1      -9.699   8.494  71.588  1.00  0.00    -0.322 A  
HETATM   23  C   UNL     1     -10.208   9.009  70.389  1.00  0.00    -0.250 A  
HETATM   24  C   UNL     1      -9.621   7.114  71.786  1.00  0.00    -0.161 A  
HETATM   25  C   UNL     1     -10.100   6.242  70.809  1.00  0.00    -0.229 A  
HETATM   26  C   UNL     1     -10.671   6.776  69.646  1.00  0.00    -0.290 A  
HETATM   27  C   UNL     1      -9.945   4.755  70.933  1.00  0.00    -0.283 C  
ENDBRANCH  19  21
ENDBRANCH  14  19
ENDBRANCH  10  13
ENDBRANCH   8  10
ENDBRANCH   6   8
ENDBRANCH   4   6
ENDBRANCH   2   4
TORSDOF 7
ENDMDL
MODEL      126
REMARK 921   NORMALIZED FREE ENERGY PREDICTED BY IDOCK:   -4.92 KCAL/MOL
REMARK 922        TOTAL FREE ENERGY PREDICTED BY IDOCK:   -8.78 KCAL/MOL
REMARK 923 INTER-LIGAND FREE ENERGY PREDICTED BY IDOCK:   -7.74 KCAL/MOL
REMARK 924 INTRA-LIGAND FREE ENERGY PREDICTED BY IDOCK:   -1.04 KCAL/MOL
REMARK 927      BINDING AFFINITY PREDICTED BY RF-SCORE:    0.00 PKD
ROOT
HETATM    1  C   UNL     1     -11.384   6.996  70.184  1.00  0.00    -0.321 C  
HETATM    2  C   UNL     1     -11.285   8.522  70.172  1.00  0.00    -0.136 C  
HETATM    3  C   UNL     1     -10.338   9.007  71.263  1.00  0.00    -0.383 C  
ENDROOT
BRANCH   2   4
HETATM    4  N   UNL     1     -10.864   9.023  68.869  1.00  0.00    -0.415 N  
HETATM    5  H   UNL     1     -10.238   8.461  68.293  1.00  0.00     0.000 HD 
BRANCH   4   6
HETATM    6  C   UNL     1     -11.298  10.236  68.408  1.00  0.00    -0.178 C  
HETATM    7  O   UNL     1     -12.182  10.888  68.937  1.00  0.00    -0.494 OA 
BRANCH   6   8
HETATM    8  N   UNL     1     -10.694  10.621  67.221  1.00  0.00    -0.270 N  
HETATM    9  H   UNL     1     -10.756   9.983  66.428  1.00  0.00     0.000 HD 
BRANCH   8  10
HETATM   10  S   UNL     1      -9.873  12.059  66.999  1.00  0.00    -0.196 S  
HETATM   11  O   UNL     1      -9.809  12.774  68.254  1.00  0.00    -0.221 OA 
HETATM   12  O   UNL     1      -8.656  11.676  66.310  1.00  0.00    -0.175 OA 
BRANCH  10  13
HETATM   13  C   UNL     1     -10.818  13.015  65.867  1.00  0.00    -0.272 A  
HETATM   14  C   UNL     1     -10.440  14.312  65.497  1.00  0.00    -0.346 A  
HETATM   15  N   UNL     1     -12.829  13.139  64.511  1.00  0.00    -0.701 NA 
HETATM   16  C   UNL     1     -11.340  15.014  64.676  1.00  0.00    -0.357 A  
HETATM   17  C   UNL     1     -12.495  14.406  64.216  1.00  0.00    -0.272 A  
HETATM   18  C   UNL     1     -11.987  12.480  65.339  1.00  0.00    -0.437 A  
BRANCH  14  19
HETATM   19  N   UNL     1      -9.176  14.869  65.809  1.00  0.00    -0.480 NA 
HETATM   20  H   UNL     1      -8.376  14.420  65.362  1.00  0.00     0.000 HD 
BRANCH  19  21
HETATM   21  C   UNL     1      -8.868  15.960  66.655  1.00  0.00    -0.281 A  
HETATM   22  C   UNL     1      -7.878  16.791  68.716  1.00  0.00    -0.243 A  
HETATM   23  C   UNL     1      -8.049  15.771  67.773  1.00  0.00    -0.156 A  
HETATM   24  C   UNL     1      -8.552  18.005  68.573  1.00  0.00    -0.306 A  
HETATM   25  C   UNL     1      -9.361  18.225  67.458  1.00  0.00    -0.263 A  
HETATM   26  C   UNL     1      -9.465  17.219  66.487  1.00  0.00    -0.286 A  
HETATM   27  C   UNL     1     -10.184  19.471  67.312  1.00  0.00    -0.547 C  
ENDBRANCH  19  21
ENDBRANCH  14  19
ENDBRANCH  10  13
ENDBRANCH   8  10
ENDBRANCH   6   8
ENDBRANCH   4   6
ENDBRANCH   2   4
TORSDOF 7
ENDMDL
MODEL      127
REMARK 921   NORMALIZED FREE ENERGY PREDICTED BY IDOCK:   -4.91 KCAL/MOL
REMARK 922        TOTAL FREE ENERGY PREDICTED BY IDOCK:   -8.77 KCAL/MOL
REMARK 923 INTER-LIGAND FREE ENERGY PREDICTED BY IDOCK:   -7.06 KCAL/MOL
REMARK 924 INTRA-LIGAND FREE ENERGY PREDICTED BY IDOCK:   -1.71 KCAL/MOL
REMARK 927      BINDING AFFINITY PREDICTED BY RF-SCORE:    0.00 PKD
ROOT
HETATM    1  C   UNL     1     -11.308  15.716  64.356  1.00  0.00    -0.272 C  
HETATM    2  C   UNL     1     -10.667  14.744  65.348  1.00  0.00    -0.371 C  
HETATM    3  C   UNL     1      -9.495  15.403  66.064  1.00  0.00    -0.381 C  
ENDROOT
BRANCH   2   4
HETATM    4  N   UNL     1     -11.639  14.241  66.311  1.00  0.00    -0.360 N  
HETATM    5  H   UNL     1     -11.933  14.836  67.085  1.00  0.00     0.000 HD 
BRANCH   4   6
HETATM    6  C   UNL     1     -12.161  12.982  66.192  1.00  0.00    -0.409 C  
HETATM    7  O   UNL     1     -12.760  12.585  65.208  1.00  0.00    -0.654 OA 
BRANCH   6   8
HETATM    8  N   UNL     1     -12.020  12.217  67.340  1.00  0.00    -0.241 N  
HETATM    9  H   UNL     1     -12.282  11.233  67.290  1.00  0.00     0.000 HD 
BRANCH   8  10
HETATM   10  S   UNL     1     -11.450  12.797  68.800  1.00  0.00    -0.326 S  
HETATM   11  O   UNL     1     -10.036  13.076  68.687  1.00  0.00    -0.218 OA 
HETATM   12  O   UNL     1     -12.381  13.853  69.155  1.00  0.00    -0.314 OA 
BRANCH  10  13
HETATM   13  C   UNL     1     -11.668  11.511  69.977  1.00  0.00    -0.332 A  
HETATM   14  C   UNL     1     -10.838  10.383  70.003  1.00  0.00    -0.289 A  
HETATM   15  N   UNL     1     -13.014  10.649  71.806  1.00  0.00    -0.471 NA 
HETATM   16  C   UNL     1     -11.187   9.372  70.915  1.00  0.00    -0.393 A  
HETATM   17  C   UNL     1     -12.256   9.541  71.778  1.00  0.00    -0.387 A  
HETATM   18  C   UNL     1     -12.707  11.602  70.896  1.00  0.00    -0.258 A  
BRANCH  14  19
HETATM   19  N   UNL     1      -9.638  10.287  69.257  1.00  0.00    -0.216 NA 
HETATM   20  H   UNL     1      -8.914  10.964  69.501  1.00  0.00     0.000 HD 
BRANCH  19  21
HETATM   21  C   UNL     1      -9.303   9.384  68.221  1.00  0.00    -0.133 A  
HETATM   22  C   UNL     1      -9.458   8.742  65.879  1.00  0.00    -0.278 A  
HETATM   23  C   UNL     1      -9.619   9.693  66.894  1.00  0.00    -0.217 A  
HETATM   24  C   UNL     1      -9.012   7.454  66.184  1.00  0.00    -0.182 A  
HETATM   25  C   UNL     1      -8.675   7.126  67.497  1.00  0.00    -0.121 A  
HETATM   26  C   UNL     1      -8.774   8.112  68.488  1.00  0.00    -0.134 A  
HETATM   27  C   UNL     1      -8.290   5.731  67.889  1.00  0.00    -0.104 C  
ENDBRANCH  19  21
ENDBRANCH  14  19
ENDBRANCH  10  13
ENDBRANCH   8  10
ENDBRANCH   6   8
ENDBRANCH   4   6
ENDBRANCH   2   4
TORSDOF 7
ENDMDL
MODEL      128
REMARK 921   NORMALIZED FREE ENERGY PREDICTED BY IDOCK:   -4.91 KCAL/MOL
REMARK 922        TOTAL FREE ENERGY PREDICTED BY IDOCK:   -8.77 KCAL/MOL
REMARK 923 INTER-LIGAND FREE ENERGY PREDICTED BY IDOCK:   -7.13 KCAL/MOL
REMARK 924 INTRA-LIGAND FREE ENERGY PREDICTED BY IDOCK:   -1.65 KCAL/MOL
REMARK 927      BINDING AFFINITY PREDICTED BY RF-SCORE:    0.00 PKD
ROOT
HETATM    1  C   UNL     1     -11.820  12.714  63.438  1.00  0.00    -0.594 C  
HETATM    2  C   UNL     1     -12.045  13.956  64.301  1.00  0.00    -0.440 C  
HETATM    3  C   UNL     1     -12.838  13.603  65.554  1.00  0.00    -0.443 C  
ENDROOT
BRANCH   2   4
HETATM    4  N   UNL     1     -10.787  14.600  64.656  1.00  0.00    -0.601 N  
HETATM    5  H   UNL     1      -9.927  14.050  64.667  1.00  0.00     0.000 HD 
BRANCH   4   6
HETATM    6  C   UNL     1     -10.741  15.929  64.977  1.00  0.00    -0.404 C  
HETATM    7  O   UNL     1     -11.511  16.762  64.531  1.00  0.00    -0.866 OA 
BRANCH   6   8
HETATM    8  N   UNL     1      -9.673  16.262  65.796  1.00  0.00    -0.308 N  
HETATM    9  H   UNL     1      -8.747  16.308  65.373  1.00  0.00     0.000 HD 
BRANCH   8  10
HETATM   10  S   UNL     1      -9.800  16.593  67.429  1.00  0.00    -0.260 S  
HETATM   11  O   UNL     1      -8.478  16.766  67.988  1.00  0.00    -0.196 OA 
HETATM   12  O   UNL     1     -10.775  17.665  67.504  1.00  0.00    -0.358 OA 
BRANCH  10  13
HETATM   13  C   UNL     1     -10.537  15.184  68.177  1.00  0.00    -0.246 A  
HETATM   14  C   UNL     1     -10.029  13.893  67.984  1.00  0.00    -0.241 A  
HETATM   15  N   UNL     1     -12.362  14.339  69.539  1.00  0.00    -0.291 NA 
HETATM   16  C   UNL     1     -10.776  12.839  68.540  1.00  0.00    -0.275 A  
HETATM   17  C   UNL     1     -11.909  13.099  69.292  1.00  0.00    -0.323 A  
HETATM   18  C   UNL     1     -11.670  15.349  68.964  1.00  0.00    -0.361 A  
BRANCH  14  19
HETATM   19  N   UNL     1      -8.776  13.636  67.378  1.00  0.00    -0.202 NA 
HETATM   20  H   UNL     1      -8.439  14.359  66.742  1.00  0.00     0.000 HD 
BRANCH  19  21
HETATM   21  C   UNL     1      -7.924  12.517  67.532  1.00  0.00    -0.175 A  
HETATM   22  C   UNL     1      -5.865  11.564  68.409  1.00  0.00    -0.045 A  
HETATM   23  C   UNL     1      -6.814  12.593  68.379  1.00  0.00    -0.090 A  
HETATM   24  C   UNL     1      -5.994  10.459  67.566  1.00  0.00    -0.052 A  
HETATM   25  C   UNL     1      -7.101  10.352  66.724  1.00  0.00    -0.105 A  
HETATM   26  C   UNL     1      -8.078  11.356  66.759  1.00  0.00    -0.161 A  
HETATM   27  C   UNL     1      -7.232   9.237  65.729  1.00  0.00    -0.090 C  
ENDBRANCH  19  21
ENDBRANCH  14  19
ENDBRANCH  10  13
ENDBRANCH   8  10
ENDBRANCH   6   8
ENDBRANCH   4   6
ENDBRANCH   2   4
TORSDOF 7
ENDMDL
MODEL      129
REMARK 921   NORMALIZED FREE ENERGY PREDICTED BY IDOCK:   -4.90 KCAL/MOL
REMARK 922        TOTAL FREE ENERGY PREDICTED BY IDOCK:   -8.75 KCAL/MOL
REMARK 923 INTER-LIGAND FREE ENERGY PREDICTED BY IDOCK:   -7.20 KCAL/MOL
REMARK 924 INTRA-LIGAND FREE ENERGY PREDICTED BY IDOCK:   -1.56 KCAL/MOL
REMARK 927      BINDING AFFINITY PREDICTED BY RF-SCORE:    0.00 PKD
ROOT
HETATM    1  C   UNL     1      -6.034  11.863  66.903  1.00  0.00    -0.115 C  
HETATM    2  C   UNL     1      -7.522  11.737  67.234  1.00  0.00    -0.151 C  
HETATM    3  C   UNL     1      -7.738  11.743  68.743  1.00  0.00    -0.091 C  
ENDROOT
BRANCH   2   4
HETATM    4  N   UNL     1      -8.305  12.791  66.601  1.00  0.00    -0.413 N  
HETATM    5  H   UNL     1      -8.772  12.605  65.713  1.00  0.00     0.000 HD 
BRANCH   4   6
HETATM    6  C   UNL     1      -8.421  14.026  67.179  1.00  0.00    -0.190 C  
HETATM    7  O   UNL     1      -7.535  14.862  67.180  1.00  0.00    -0.195 OA 
BRANCH   6   8
HETATM    8  N   UNL     1      -9.623  14.209  67.846  1.00  0.00    -0.217 N  
HETATM    9  H   UNL     1      -9.726  13.779  68.765  1.00  0.00     0.000 HD 
BRANCH   8  10
HETATM   10  S   UNL     1     -10.913  15.087  67.248  1.00  0.00    -0.331 S  
HETATM   11  O   UNL     1     -11.917  15.227  68.279  1.00  0.00    -0.297 OA 
HETATM   12  O   UNL     1     -10.303  16.261  66.652  1.00  0.00    -0.291 OA 
BRANCH  10  13
HETATM   13  C   UNL     1     -11.600  14.148  65.931  1.00  0.00    -0.348 A  
HETATM   14  C   UNL     1     -12.027  12.826  66.109  1.00  0.00    -0.414 A  
HETATM   15  N   UNL     1     -12.151  14.082  63.567  1.00  0.00    -0.496 NA 
HETATM   16  C   UNL     1     -12.448  12.145  64.954  1.00  0.00    -0.185 A  
HETATM   17  C   UNL     1     -12.494  12.794  63.731  1.00  0.00    -0.383 A  
HETATM   18  C   UNL     1     -11.701  14.723  64.670  1.00  0.00    -0.422 A  
BRANCH  14  19
HETATM   19  N   UNL     1     -12.160  12.220  67.382  1.00  0.00    -0.503 NA 
HETATM   20  H   UNL     1     -12.874  12.623  67.988  1.00  0.00     0.000 HD 
BRANCH  19  21
HETATM   21  C   UNL     1     -11.439  11.132  67.930  1.00  0.00    -0.284 A  
HETATM   22  C   UNL     1     -10.226   9.050  67.595  1.00  0.00    -0.300 A  
HETATM   23  C   UNL     1     -10.792  10.225  67.085  1.00  0.00    -0.278 A  
HETATM   24  C   UNL     1     -10.331   8.749  68.955  1.00  0.00    -0.229 A  
HETATM   25  C   UNL     1     -10.957   9.645  69.821  1.00  0.00    -0.266 A  
HETATM   26  C   UNL     1     -11.454  10.850  69.304  1.00  0.00    -0.372 A  
HETATM   27  C   UNL     1     -11.184   9.320  71.267  1.00  0.00    -0.425 C  
ENDBRANCH  19  21
ENDBRANCH  14  19
ENDBRANCH  10  13
ENDBRANCH   8  10
ENDBRANCH   6   8
ENDBRANCH   4   6
ENDBRANCH   2   4
TORSDOF 7
ENDMDL
MODEL      130
REMARK 921   NORMALIZED FREE ENERGY PREDICTED BY IDOCK:   -4.89 KCAL/MOL
REMARK 922        TOTAL FREE ENERGY PREDICTED BY IDOCK:   -8.75 KCAL/MOL
REMARK 923 INTER-LIGAND FREE ENERGY PREDICTED BY IDOCK:   -6.92 KCAL/MOL
REMARK 924 INTRA-LIGAND FREE ENERGY PREDICTED BY IDOCK:   -1.83 KCAL/MOL
REMARK 927      BINDING AFFINITY PREDICTED BY RF-SCORE:    0.00 PKD
ROOT
HETATM    1  C   UNL     1      -9.563   3.962  65.377  1.00  0.00    -0.185 C  
HETATM    2  C   UNL     1      -9.412   5.246  66.194  1.00  0.00    -0.158 C  
HETATM    3  C   UNL     1      -8.340   6.144  65.589  1.00  0.00    -0.146 C  
ENDROOT
BRANCH   2   4
HETATM    4  N   UNL     1     -10.676   5.962  66.308  1.00  0.00    -0.571 N  
HETATM    5  H   UNL     1     -11.332   5.952  65.526  1.00  0.00     0.000 HD 
BRANCH   4   6
HETATM    6  C   UNL     1     -10.996   6.649  67.447  1.00  0.00    -0.360 C  
HETATM    7  O   UNL     1     -11.277   6.115  68.506  1.00  0.00    -0.341 OA 
BRANCH   6   8
HETATM    8  N   UNL     1     -11.058   8.021  67.264  1.00  0.00    -0.393 N  
HETATM    9  H   UNL     1     -11.859   8.397  66.757  1.00  0.00     0.000 HD 
BRANCH   8  10
HETATM   10  S   UNL     1      -9.910   9.103  67.816  1.00  0.00    -0.184 S  
HETATM   11  O   UNL     1      -8.960   8.408  68.654  1.00  0.00    -0.139 OA 
HETATM   12  O   UNL     1      -9.466   9.797  66.621  1.00  0.00    -0.158 OA 
BRANCH  10  13
HETATM   13  C   UNL     1     -10.758  10.284  68.802  1.00  0.00    -0.219 A  
HETATM   14  C   UNL     1     -11.625   9.901  69.834  1.00  0.00    -0.127 A  
HETATM   15  N   UNL     1     -11.229  12.636  69.185  1.00  0.00    -0.258 NA 
HETATM   16  C   UNL     1     -12.332  10.935  70.471  1.00  0.00    -0.463 A  
HETATM   17  C   UNL     1     -12.110  12.258  70.125  1.00  0.00    -0.287 A  
HETATM   18  C   UNL     1     -10.584  11.638  68.539  1.00  0.00    -0.215 A  
BRANCH  14  19
HETATM   19  N   UNL     1     -11.715   8.573  70.317  1.00  0.00    -0.471 NA 
HETATM   20  H   UNL     1     -12.275   7.937  69.749  1.00  0.00     0.000 HD 
BRANCH  19  21
HETATM   21  C   UNL     1     -11.137   8.006  71.476  1.00  0.00    -0.248 A  
HETATM   22  C   UNL     1      -9.329   7.968  73.104  1.00  0.00    -0.346 A  
HETATM   23  C   UNL     1     -10.020   8.606  72.067  1.00  0.00    -0.399 A  
HETATM   24  C   UNL     1      -9.724   6.702  73.541  1.00  0.00    -0.213 A  
HETATM   25  C   UNL     1     -10.845   6.090  72.980  1.00  0.00    -0.290 A  
HETATM   26  C   UNL     1     -11.567   6.774  71.993  1.00  0.00    -0.327 A  
HETATM   27  C   UNL     1     -11.247   4.692  73.344  1.00  0.00    -0.423 C  
ENDBRANCH  19  21
ENDBRANCH  14  19
ENDBRANCH  10  13
ENDBRANCH   8  10
ENDBRANCH   6   8
ENDBRANCH   4   6
ENDBRANCH   2   4
TORSDOF 7
ENDMDL
MODEL      131
REMARK 921   NORMALIZED FREE ENERGY PREDICTED BY IDOCK:   -4.89 KCAL/MOL
REMARK 922        TOTAL FREE ENERGY PREDICTED BY IDOCK:   -8.74 KCAL/MOL
REMARK 923 INTER-LIGAND FREE ENERGY PREDICTED BY IDOCK:   -7.60 KCAL/MOL
REMARK 924 INTRA-LIGAND FREE ENERGY PREDICTED BY IDOCK:   -1.15 KCAL/MOL
REMARK 927      BINDING AFFINITY PREDICTED BY RF-SCORE:    0.00 PKD
ROOT
HETATM    1  C   UNL     1     -11.080   6.334  68.345  1.00  0.00    -0.371 C  
HETATM    2  C   UNL     1     -10.063   6.268  67.205  1.00  0.00    -0.163 C  
HETATM    3  C   UNL     1     -10.341   5.069  66.306  1.00  0.00    -0.332 C  
ENDROOT
BRANCH   2   4
HETATM    4  N   UNL     1     -10.047   7.500  66.427  1.00  0.00    -0.476 N  
HETATM    5  H   UNL     1     -10.640   7.579  65.600  1.00  0.00     0.000 HD 
BRANCH   4   6
HETATM    6  C   UNL     1      -9.250   8.552  66.788  1.00  0.00    -0.172 C  
HETATM    7  O   UNL     1      -8.098   8.432  67.167  1.00  0.00    -0.103 OA 
BRANCH   6   8
HETATM    8  N   UNL     1      -9.906   9.773  66.767  1.00  0.00    -0.196 N  
HETATM    9  H   UNL     1     -10.833   9.821  67.189  1.00  0.00     0.000 HD 
BRANCH   8  10
HETATM   10  S   UNL     1      -9.283  11.171  66.098  1.00  0.00    -0.203 S  
HETATM   11  O   UNL     1      -8.400  11.807  67.050  1.00  0.00    -0.160 OA 
HETATM   12  O   UNL     1      -8.786  10.758  64.799  1.00  0.00    -0.188 OA 
BRANCH  10  13
HETATM   13  C   UNL     1     -10.643  12.244  65.804  1.00  0.00    -0.254 A  
HETATM   14  C   UNL     1     -11.283  12.931  66.844  1.00  0.00    -0.291 A  
HETATM   15  N   UNL     1     -12.192  13.144  64.163  1.00  0.00    -0.521 NA 
HETATM   16  C   UNL     1     -12.429  13.665  66.495  1.00  0.00    -0.337 A  
HETATM   17  C   UNL     1     -12.840  13.743  65.175  1.00  0.00    -0.340 A  
HETATM   18  C   UNL     1     -11.116  12.399  64.506  1.00  0.00    -0.316 A  
BRANCH  14  19
HETATM   19  N   UNL     1     -10.761  13.007  68.158  1.00  0.00    -0.234 NA 
HETATM   20  H   UNL     1      -9.749  13.123  68.223  1.00  0.00     0.000 HD 
BRANCH  19  21
HETATM   21  C   UNL     1     -11.446  12.943  69.393  1.00  0.00    -0.260 A  
HETATM   22  C   UNL     1     -12.609  11.618  71.071  1.00  0.00    -0.431 A  
HETATM   23  C   UNL     1     -11.779  11.701  69.946  1.00  0.00    -0.414 A  
HETATM   24  C   UNL     1     -13.146  12.775  71.639  1.00  0.00    -0.428 A  
HETATM   25  C   UNL     1     -12.815  14.025  71.118  1.00  0.00    -0.427 A  
HETATM   26  C   UNL     1     -11.927  14.094  70.035  1.00  0.00    -0.404 A  
HETATM   27  C   UNL     1     -13.446  15.286  71.628  1.00  0.00    -0.573 C  
ENDBRANCH  19  21
ENDBRANCH  14  19
ENDBRANCH  10  13
ENDBRANCH   8  10
ENDBRANCH   6   8
ENDBRANCH   4   6
ENDBRANCH   2   4
TORSDOF 7
ENDMDL
MODEL      132
REMARK 921   NORMALIZED FREE ENERGY PREDICTED BY IDOCK:   -4.86 KCAL/MOL
REMARK 922        TOTAL FREE ENERGY PREDICTED BY IDOCK:   -8.71 KCAL/MOL
REMARK 923 INTER-LIGAND FREE ENERGY PREDICTED BY IDOCK:   -7.74 KCAL/MOL
REMARK 924 INTRA-LIGAND FREE ENERGY PREDICTED BY IDOCK:   -0.97 KCAL/MOL
REMARK 927      BINDING AFFINITY PREDICTED BY RF-SCORE:    0.00 PKD
ROOT
HETATM    1  C   UNL     1      -5.897  10.671  65.791  1.00  0.00    -0.138 C  
HETATM    2  C   UNL     1      -7.229   9.921  65.825  1.00  0.00    -0.110 C  
HETATM    3  C   UNL     1      -7.683   9.699  67.263  1.00  0.00    -0.091 C  
ENDROOT
BRANCH   2   4
HETATM    4  N   UNL     1      -8.258  10.618  65.064  1.00  0.00    -0.309 N  
HETATM    5  H   UNL     1      -8.030  11.005  64.148  1.00  0.00     0.000 HD 
BRANCH   4   6
HETATM    6  C   UNL     1      -9.525  10.760  65.560  1.00  0.00    -0.210 C  
HETATM    7  O   UNL     1     -10.367   9.880  65.536  1.00  0.00    -0.213 OA 
BRANCH   6   8
HETATM    8  N   UNL     1      -9.795  12.040  66.020  1.00  0.00    -0.233 N  
HETATM    9  H   UNL     1      -9.240  12.391  66.800  1.00  0.00     0.000 HD 
BRANCH   8  10
HETATM   10  S   UNL     1     -10.968  13.047  65.384  1.00  0.00    -0.280 S  
HETATM   11  O   UNL     1     -10.772  13.171  63.958  1.00  0.00    -0.399 OA 
HETATM   12  O   UNL     1     -12.215  12.524  65.912  1.00  0.00    -0.593 OA 
BRANCH  10  13
HETATM   13  C   UNL     1     -10.731  14.627  66.115  1.00  0.00    -0.314 A  
HETATM   14  C   UNL     1     -10.674  14.800  67.504  1.00  0.00    -0.269 A  
HETATM   15  N   UNL     1     -10.498  17.016  65.738  1.00  0.00    -0.498 NA 
HETATM   16  C   UNL     1     -10.599  16.125  67.965  1.00  0.00    -0.304 A  
HETATM   17  C   UNL     1     -10.515  17.179  67.071  1.00  0.00    -0.282 A  
HETATM   18  C   UNL     1     -10.619  15.743  65.294  1.00  0.00    -0.423 A  
BRANCH  14  19
HETATM   19  N   UNL     1     -10.571  13.721  68.415  1.00  0.00    -0.247 NA 
HETATM   20  H   UNL     1      -9.737  13.142  68.317  1.00  0.00     0.000 HD 
BRANCH  19  21
HETATM   21  C   UNL     1     -11.464  13.333  69.441  1.00  0.00    -0.263 A  
HETATM   22  C   UNL     1     -12.659  13.884  71.488  1.00  0.00    -0.419 A  
HETATM   23  C   UNL     1     -11.921  14.279  70.365  1.00  0.00    -0.402 A  
HETATM   24  C   UNL     1     -12.920  12.533  71.721  1.00  0.00    -0.419 A  
HETATM   25  C   UNL     1     -12.490  11.572  70.806  1.00  0.00    -0.444 A  
HETATM   26  C   UNL     1     -11.814  11.991  69.652  1.00  0.00    -0.401 A  
HETATM   27  C   UNL     1     -12.657  10.104  71.064  1.00  0.00    -0.478 C  
ENDBRANCH  19  21
ENDBRANCH  14  19
ENDBRANCH  10  13
ENDBRANCH   8  10
ENDBRANCH   6   8
ENDBRANCH   4   6
ENDBRANCH   2   4
TORSDOF 7
ENDMDL
MODEL      133
REMARK 921   NORMALIZED FREE ENERGY PREDICTED BY IDOCK:   -4.85 KCAL/MOL
REMARK 922        TOTAL FREE ENERGY PREDICTED BY IDOCK:   -8.69 KCAL/MOL
REMARK 923 INTER-LIGAND FREE ENERGY PREDICTED BY IDOCK:   -6.90 KCAL/MOL
REMARK 924 INTRA-LIGAND FREE ENERGY PREDICTED BY IDOCK:   -1.79 KCAL/MOL
REMARK 927      BINDING AFFINITY PREDICTED BY RF-SCORE:    0.00 PKD
ROOT
HETATM    1  C   UNL     1      -6.641  13.652  68.840  1.00  0.00    -0.105 C  
HETATM    2  C   UNL     1      -8.041  13.725  68.231  1.00  0.00    -0.150 C  
HETATM    3  C   UNL     1      -8.122  14.849  67.204  1.00  0.00    -0.239 C  
ENDROOT
BRANCH   2   4
HETATM    4  N   UNL     1      -8.434  12.456  67.632  1.00  0.00    -0.158 N  
HETATM    5  H   UNL     1      -9.031  12.454  66.805  1.00  0.00     0.000 HD 
BRANCH   4   6
HETATM    6  C   UNL     1      -8.013  11.267  68.163  1.00  0.00    -0.131 C  
HETATM    7  O   UNL     1      -7.045  10.647  67.760  1.00  0.00    -0.081 OA 
BRANCH   6   8
HETATM    8  N   UNL     1      -8.850  10.781  69.156  1.00  0.00    -0.323 N  
HETATM    9  H   UNL     1      -9.003  11.368  69.977  1.00  0.00     0.000 HD 
BRANCH   8  10
HETATM   10  S   UNL     1      -9.624   9.302  69.102  1.00  0.00    -0.166 S  
HETATM   11  O   UNL     1     -10.084   9.049  67.755  1.00  0.00    -0.183 OA 
HETATM   12  O   UNL     1      -8.699   8.388  69.746  1.00  0.00    -0.130 OA 
BRANCH  10  13
HETATM   13  C   UNL     1     -11.028   9.424  70.152  1.00  0.00    -0.246 A  
HETATM   14  C   UNL     1     -12.089  10.296  69.871  1.00  0.00    -0.108 A  
HETATM   15  N   UNL     1     -12.075   8.708  72.223  1.00  0.00    -0.377 NA 
HETATM   16  C   UNL     1     -13.097  10.388  70.846  1.00  0.00    -0.412 A  
HETATM   17  C   UNL     1     -13.053   9.595  71.981  1.00  0.00    -0.445 A  
HETATM   18  C   UNL     1     -11.081   8.654  71.307  1.00  0.00    -0.272 A  
BRANCH  14  19
HETATM   19  N   UNL     1     -12.233  10.965  68.631  1.00  0.00    -0.810 NA 
HETATM   20  H   UNL     1     -12.633  10.409  67.875  1.00  0.00     0.000 HD 
BRANCH  19  21
HETATM   21  C   UNL     1     -11.899  12.298  68.295  1.00  0.00    -0.310 A  
HETATM   22  C   UNL     1     -11.535  14.600  68.994  1.00  0.00    -0.317 A  
HETATM   23  C   UNL     1     -11.690  13.244  69.305  1.00  0.00    -0.380 A  
HETATM   24  C   UNL     1     -11.621  15.035  67.670  1.00  0.00    -0.327 A  
HETATM   25  C   UNL     1     -11.811  14.110  66.644  1.00  0.00    -0.447 A  
HETATM   26  C   UNL     1     -11.893  12.749  66.966  1.00  0.00    -0.428 A  
HETATM   27  C   UNL     1     -12.011  14.539  65.221  1.00  0.00    -0.353 C  
ENDBRANCH  19  21
ENDBRANCH  14  19
ENDBRANCH  10  13
ENDBRANCH   8  10
ENDBRANCH   6   8
ENDBRANCH   4   6
ENDBRANCH   2   4
TORSDOF 7
ENDMDL
MODEL      134
REMARK 921   NORMALIZED FREE ENERGY PREDICTED BY IDOCK:   -4.82 KCAL/MOL
REMARK 922        TOTAL FREE ENERGY PREDICTED BY IDOCK:   -8.64 KCAL/MOL
REMARK 923 INTER-LIGAND FREE ENERGY PREDICTED BY IDOCK:   -7.43 KCAL/MOL
REMARK 924 INTRA-LIGAND FREE ENERGY PREDICTED BY IDOCK:   -1.21 KCAL/MOL
REMARK 927      BINDING AFFINITY PREDICTED BY RF-SCORE:    0.00 PKD
ROOT
HETATM    1  C   UNL     1     -12.144  15.766  71.536  1.00  0.00    -0.517 C  
HETATM    2  C   UNL     1     -12.439  14.270  71.431  1.00  0.00    -0.360 C  
HETATM    3  C   UNL     1     -13.555  13.874  72.391  1.00  0.00    -0.676 C  
ENDROOT
BRANCH   2   4
HETATM    4  N   UNL     1     -12.775  13.882  70.067  1.00  0.00    -0.287 N  
HETATM    5  H   UNL     1     -13.745  13.675  69.828  1.00  0.00     0.000 HD 
BRANCH   4   6
HETATM    6  C   UNL     1     -11.809  13.793  69.102  1.00  0.00    -0.354 C  
HETATM    7  O   UNL     1     -11.804  14.458  68.081  1.00  0.00    -0.327 OA 
BRANCH   6   8
HETATM    8  N   UNL     1     -10.872  12.802  69.351  1.00  0.00    -0.442 N  
HETATM    9  H   UNL     1      -9.956  13.090  69.693  1.00  0.00     0.000 HD 
BRANCH   8  10
HETATM   10  S   UNL     1     -11.141  11.167  69.132  1.00  0.00    -0.270 S  
HETATM   11  O   UNL     1     -10.482  10.426  70.183  1.00  0.00    -0.252 OA 
HETATM   12  O   UNL     1     -12.577  11.061  68.947  1.00  0.00    -0.366 OA 
BRANCH  10  13
HETATM   13  C   UNL     1     -10.399  10.732  67.599  1.00  0.00    -0.201 A  
HETATM   14  C   UNL     1     -10.321   9.402  67.166  1.00  0.00    -0.258 A  
HETATM   15  N   UNL     1      -9.201  11.514  65.637  1.00  0.00    -0.203 NA 
HETATM   16  C   UNL     1      -9.601   9.172  65.981  1.00  0.00    -0.342 A  
HETATM   17  C   UNL     1      -9.070  10.231  65.264  1.00  0.00    -0.191 A  
HETATM   18  C   UNL     1      -9.852  11.731  66.803  1.00  0.00    -0.198 A  
BRANCH  14  19
HETATM   19  N   UNL     1     -11.020   8.341  67.793  1.00  0.00    -0.491 NA 
HETATM   20  H   UNL     1     -11.895   8.600  68.248  1.00  0.00     0.000 HD 
BRANCH  19  21
HETATM   21  C   UNL     1     -10.673   6.972  67.875  1.00  0.00    -0.210 A  
HETATM   22  C   UNL     1      -9.720   5.132  69.149  1.00  0.00    -0.232 A  
HETATM   23  C   UNL     1     -10.234   6.433  69.088  1.00  0.00    -0.217 A  
HETATM   24  C   UNL     1      -9.604   4.364  67.989  1.00  0.00    -0.204 A  
HETATM   25  C   UNL     1     -10.051   4.872  66.770  1.00  0.00    -0.269 A  
HETATM   26  C   UNL     1     -10.628   6.149  66.739  1.00  0.00    -0.351 A  
HETATM   27  C   UNL     1      -9.854   4.127  65.483  1.00  0.00    -0.210 C  
ENDBRANCH  19  21
ENDBRANCH  14  19
ENDBRANCH  10  13
ENDBRANCH   8  10
ENDBRANCH   6   8
ENDBRANCH   4   6
ENDBRANCH   2   4
TORSDOF 7
ENDMDL
MODEL      135
REMARK 921   NORMALIZED FREE ENERGY PREDICTED BY IDOCK:   -4.81 KCAL/MOL
REMARK 922        TOTAL FREE ENERGY PREDICTED BY IDOCK:   -8.64 KCAL/MOL
REMARK 923 INTER-LIGAND FREE ENERGY PREDICTED BY IDOCK:   -7.07 KCAL/MOL
REMARK 924 INTRA-LIGAND FREE ENERGY PREDICTED BY IDOCK:   -1.57 KCAL/MOL
REMARK 927      BINDING AFFINITY PREDICTED BY RF-SCORE:    0.00 PKD
ROOT
HETATM    1  C   UNL     1     -13.143   9.675  72.048  1.00  0.00    -0.537 C  
HETATM    2  C   UNL     1     -12.648  10.642  70.972  1.00  0.00    -0.416 C  
HETATM    3  C   UNL     1     -13.010  12.078  71.334  1.00  0.00    -0.362 C  
ENDROOT
BRANCH   2   4
HETATM    4  N   UNL     1     -11.213  10.515  70.754  1.00  0.00    -0.387 N  
HETATM    5  H   UNL     1     -10.646  11.355  70.640  1.00  0.00     0.000 HD 
BRANCH   4   6
HETATM    6  C   UNL     1     -10.615   9.285  70.701  1.00  0.00    -0.262 C  
HETATM    7  O   UNL     1      -9.784   8.898  71.503  1.00  0.00    -0.261 OA 
BRANCH   6   8
HETATM    8  N   UNL     1     -10.980   8.544  69.587  1.00  0.00    -0.405 N  
HETATM    9  H   UNL     1     -11.973   8.369  69.438  1.00  0.00     0.000 HD 
BRANCH   8  10
HETATM   10  S   UNL     1      -9.904   7.918  68.472  1.00  0.00    -0.182 S  
HETATM   11  O   UNL     1      -9.177   6.821  69.070  1.00  0.00    -0.137 OA 
HETATM   12  O   UNL     1     -10.704   7.706  67.280  1.00  0.00    -0.306 OA 
BRANCH  10  13
HETATM   13  C   UNL     1      -8.761   9.199  68.095  1.00  0.00    -0.129 A  
HETATM   14  C   UNL     1      -9.152  10.367  67.428  1.00  0.00    -0.135 A  
HETATM   15  N   UNL     1      -6.444   9.925  68.154  1.00  0.00    -0.055 NA 
HETATM   16  C   UNL     1      -8.125  11.261  67.081  1.00  0.00    -0.150 A  
HETATM   17  C   UNL     1      -6.815  11.008  67.454  1.00  0.00    -0.082 A  
HETATM   18  C   UNL     1      -7.426   9.041  68.446  1.00  0.00    -0.082 A  
BRANCH  14  19
HETATM   19  N   UNL     1     -10.506  10.718  67.211  1.00  0.00    -0.223 NA 
HETATM   20  H   UNL     1     -11.193  10.027  67.514  1.00  0.00     0.000 HD 
BRANCH  19  21
HETATM   21  C   UNL     1     -11.040  11.894  66.632  1.00  0.00    -0.310 A  
HETATM   22  C   UNL     1     -12.227  14.001  66.901  1.00  0.00    -0.415 A  
HETATM   23  C   UNL     1     -11.537  12.914  67.451  1.00  0.00    -0.414 A  
HETATM   24  C   UNL     1     -12.461  14.066  65.526  1.00  0.00    -0.533 A  
HETATM   25  C   UNL     1     -11.961  13.070  64.687  1.00  0.00    -0.445 A  
HETATM   26  C   UNL     1     -11.211  12.026  65.246  1.00  0.00    -0.374 A  
HETATM   27  C   UNL     1     -12.273  13.043  63.220  1.00  0.00    -0.464 C  
ENDBRANCH  19  21
ENDBRANCH  14  19
ENDBRANCH  10  13
ENDBRANCH   8  10
ENDBRANCH   6   8
ENDBRANCH   4   6
ENDBRANCH   2   4
TORSDOF 7
ENDMDL
MODEL      136
REMARK 921   NORMALIZED FREE ENERGY PREDICTED BY IDOCK:   -4.81 KCAL/MOL
REMARK 922        TOTAL FREE ENERGY PREDICTED BY IDOCK:   -8.64 KCAL/MOL
REMARK 923 INTER-LIGAND FREE ENERGY PREDICTED BY IDOCK:   -7.38 KCAL/MOL
REMARK 924 INTRA-LIGAND FREE ENERGY PREDICTED BY IDOCK:   -1.26 KCAL/MOL
REMARK 927      BINDING AFFINITY PREDICTED BY RF-SCORE:    0.00 PKD
ROOT
HETATM    1  C   UNL     1     -10.611   8.434  69.726  1.00  0.00    -0.221 C  
HETATM    2  C   UNL     1     -10.597   9.612  68.752  1.00  0.00    -0.216 C  
HETATM    3  C   UNL     1     -10.330   9.131  67.330  1.00  0.00    -0.330 C  
ENDROOT
BRANCH   2   4
HETATM    4  N   UNL     1     -11.839  10.373  68.810  1.00  0.00    -0.514 N  
HETATM    5  H   UNL     1     -12.508  10.303  68.043  1.00  0.00     0.000 HD 
BRANCH   4   6
HETATM    6  C   UNL     1     -12.121  11.179  69.879  1.00  0.00    -0.344 C  
HETATM    7  O   UNL     1     -12.972  10.928  70.714  1.00  0.00    -0.314 OA 
BRANCH   6   8
HETATM    8  N   UNL     1     -11.403  12.365  69.878  1.00  0.00    -0.513 N  
HETATM    9  H   UNL     1     -10.772  12.539  70.661  1.00  0.00     0.000 HD 
BRANCH   8  10
HETATM   10  S   UNL     1     -11.498  13.529  68.683  1.00  0.00    -0.333 S  
HETATM   11  O   UNL     1     -12.234  13.002  67.557  1.00  0.00    -0.272 OA 
HETATM   12  O   UNL     1     -11.965  14.717  69.375  1.00  0.00    -0.302 OA 
BRANCH  10  13
HETATM   13  C   UNL     1      -9.852  13.859  68.163  1.00  0.00    -0.240 A  
HETATM   14  C   UNL     1      -9.495  15.074  67.564  1.00  0.00    -0.203 A  
HETATM   15  N   UNL     1      -7.598  12.992  67.911  1.00  0.00    -0.128 NA 
HETATM   16  C   UNL     1      -8.177  15.171  67.086  1.00  0.00    -0.251 A  
HETATM   17  C   UNL     1      -7.281  14.132  67.276  1.00  0.00     0.038 A  
HETATM   18  C   UNL     1      -8.880  12.880  68.328  1.00  0.00    -0.168 A  
BRANCH  14  19
HETATM   19  N   UNL     1     -10.348  16.204  67.536  1.00  0.00    -0.280 NA 
HETATM   20  H   UNL     1     -11.347  16.000  67.494  1.00  0.00     0.000 HD 
BRANCH  19  21
HETATM   21  C   UNL     1     -10.008  17.577  67.559  1.00  0.00    -0.315 A  
HETATM   22  C   UNL     1     -10.055  19.759  66.482  1.00  0.00    -0.589 A  
HETATM   23  C   UNL     1     -10.517  18.441  66.583  1.00  0.00    -0.415 A  
HETATM   24  C   UNL     1      -9.051  20.222  67.335  1.00  0.00    -0.483 A  
HETATM   25  C   UNL     1      -8.539  19.386  68.327  1.00  0.00    -0.376 A  
HETATM   26  C   UNL     1      -9.064  18.093  68.460  1.00  0.00    -0.318 A  
HETATM   27  C   UNL     1      -7.392  19.803  69.197  1.00  0.00    -0.290 C  
ENDBRANCH  19  21
ENDBRANCH  14  19
ENDBRANCH  10  13
ENDBRANCH   8  10
ENDBRANCH   6   8
ENDBRANCH   4   6
ENDBRANCH   2   4
TORSDOF 7
ENDMDL
MODEL      137
REMARK 921   NORMALIZED FREE ENERGY PREDICTED BY IDOCK:   -4.80 KCAL/MOL
REMARK 922        TOTAL FREE ENERGY PREDICTED BY IDOCK:   -8.62 KCAL/MOL
REMARK 923 INTER-LIGAND FREE ENERGY PREDICTED BY IDOCK:   -6.89 KCAL/MOL
REMARK 924 INTRA-LIGAND FREE ENERGY PREDICTED BY IDOCK:   -1.73 KCAL/MOL
REMARK 927      BINDING AFFINITY PREDICTED BY RF-SCORE:    0.00 PKD
ROOT
HETATM    1  C   UNL     1      -8.180  16.790  68.357  1.00  0.00    -0.224 C  
HETATM    2  C   UNL     1      -9.466  15.987  68.158  1.00  0.00    -0.208 C  
HETATM    3  C   UNL     1     -10.686  16.895  68.259  1.00  0.00    -0.377 C  
ENDROOT
BRANCH   2   4
HETATM    4  N   UNL     1      -9.463  15.274  66.887  1.00  0.00    -0.224 N  
HETATM    5  H   UNL     1      -9.649  15.784  66.024  1.00  0.00     0.000 HD 
BRANCH   4   6
HETATM    6  C   UNL     1      -9.213  13.929  66.835  1.00  0.00    -0.259 C  
HETATM    7  O   UNL     1      -8.217  13.405  67.301  1.00  0.00    -0.175 OA 
BRANCH   6   8
HETATM    8  N   UNL     1     -10.166  13.220  66.120  1.00  0.00    -0.290 N  
HETATM    9  H   UNL     1      -9.853  12.695  65.304  1.00  0.00     0.000 HD 
BRANCH   8  10
HETATM   10  S   UNL     1     -11.791  13.166  66.503  1.00  0.00    -0.398 S  
HETATM   11  O   UNL     1     -12.344  14.501  66.443  1.00  0.00    -0.350 OA 
HETATM   12  O   UNL     1     -12.325  12.112  65.660  1.00  0.00    -0.560 OA 
BRANCH  10  13
HETATM   13  C   UNL     1     -11.904  12.595  68.161  1.00  0.00    -0.315 A  
HETATM   14  C   UNL     1     -11.852  11.232  68.480  1.00  0.00    -0.285 A  
HETATM   15  N   UNL     1     -12.235  13.198  70.491  1.00  0.00    -0.361 NA 
HETATM   16  C   UNL     1     -12.070  10.897  69.827  1.00  0.00    -0.409 A  
HETATM   17  C   UNL     1     -12.253  11.887  70.778  1.00  0.00    -0.303 A  
HETATM   18  C   UNL     1     -12.072  13.518  69.186  1.00  0.00    -0.288 A  
BRANCH  14  19
HETATM   19  N   UNL     1     -11.480  10.232  67.548  1.00  0.00    -0.515 NA 
HETATM   20  H   UNL     1     -12.139  10.077  66.785  1.00  0.00     0.000 HD 
BRANCH  19  21
HETATM   21  C   UNL     1     -10.322   9.420  67.528  1.00  0.00    -0.255 A  
HETATM   22  C   UNL     1      -7.897   9.238  67.605  1.00  0.00    -0.096 A  
HETATM   23  C   UNL     1      -9.068   9.982  67.793  1.00  0.00    -0.137 A  
HETATM   24  C   UNL     1      -7.961   7.932  67.115  1.00  0.00    -0.117 A  
HETATM   25  C   UNL     1      -9.199   7.344  66.860  1.00  0.00    -0.183 A  
HETATM   26  C   UNL     1     -10.364   8.078  67.121  1.00  0.00    -0.395 A  
HETATM   27  C   UNL     1      -9.315   5.984  66.238  1.00  0.00    -0.165 C  
ENDBRANCH  19  21
ENDBRANCH  14  19
ENDBRANCH  10  13
ENDBRANCH   8  10
ENDBRANCH   6   8
ENDBRANCH   4   6
ENDBRANCH   2   4
TORSDOF 7
ENDMDL
MODEL      138
REMARK 921   NORMALIZED FREE ENERGY PREDICTED BY IDOCK:   -4.80 KCAL/MOL
REMARK 922        TOTAL FREE ENERGY PREDICTED BY IDOCK:   -8.62 KCAL/MOL
REMARK 923 INTER-LIGAND FREE ENERGY PREDICTED BY IDOCK:   -6.58 KCAL/MOL
REMARK 924 INTRA-LIGAND FREE ENERGY PREDICTED BY IDOCK:   -2.04 KCAL/MOL
REMARK 927      BINDING AFFINITY PREDICTED BY RF-SCORE:    0.00 PKD
ROOT
HETATM    1  C   UNL     1     -11.573   7.134  70.890  1.00  0.00    -0.350 C  
HETATM    2  C   UNL     1     -11.015   8.557  70.930  1.00  0.00    -0.251 C  
HETATM    3  C   UNL     1      -9.491   8.535  70.971  1.00  0.00    -0.234 C  
ENDROOT
BRANCH   2   4
HETATM    4  N   UNL     1     -11.485   9.351  69.802  1.00  0.00    -0.440 N  
HETATM    5  H   UNL     1     -11.376   8.991  68.854  1.00  0.00     0.000 HD 
BRANCH   4   6
HETATM    6  C   UNL     1     -12.071  10.573  69.997  1.00  0.00    -0.274 C  
HETATM    7  O   UNL     1     -12.346  11.027  71.094  1.00  0.00    -0.361 OA 
BRANCH   6   8
HETATM    8  N   UNL     1     -12.406  11.216  68.816  1.00  0.00    -0.212 N  
HETATM    9  H   UNL     1     -13.280  10.950  68.362  1.00  0.00     0.000 HD 
BRANCH   8  10
HETATM   10  S   UNL     1     -11.478  12.398  68.086  1.00  0.00    -0.339 S  
HETATM   11  O   UNL     1     -12.234  13.629  68.017  1.00  0.00    -0.323 OA 
HETATM   12  O   UNL     1     -10.213  12.352  68.795  1.00  0.00    -0.186 OA 
BRANCH  10  13
HETATM   13  C   UNL     1     -11.160  11.853  66.445  1.00  0.00    -0.309 A  
HETATM   14  C   UNL     1     -10.332  10.754  66.178  1.00  0.00    -0.239 A  
HETATM   15  N   UNL     1     -11.503  12.260  64.076  1.00  0.00    -0.375 NA 
HETATM   16  C   UNL     1     -10.063  10.491  64.824  1.00  0.00    -0.406 A  
HETATM   17  C   UNL     1     -10.654  11.249  63.828  1.00  0.00    -0.392 A  
HETATM   18  C   UNL     1     -11.724  12.544  65.380  1.00  0.00    -0.398 A  
BRANCH  14  19
HETATM   19  N   UNL     1      -9.879   9.864  67.182  1.00  0.00    -0.178 NA 
HETATM   20  H   UNL     1      -9.946  10.211  68.139  1.00  0.00     0.000 HD 
BRANCH  19  21
HETATM   21  C   UNL     1      -9.345   8.562  67.042  1.00  0.00    -0.161 A  
HETATM   22  C   UNL     1      -7.428   7.124  66.619  1.00  0.00    -0.088 A  
HETATM   23  C   UNL     1      -7.962   8.380  66.935  1.00  0.00    -0.099 A  
HETATM   24  C   UNL     1      -8.272   6.040  66.371  1.00  0.00    -0.112 A  
HETATM   25  C   UNL     1      -9.654   6.192  66.489  1.00  0.00    -0.183 A  
HETATM   26  C   UNL     1     -10.168   7.437  66.875  1.00  0.00    -0.346 A  
HETATM   27  C   UNL     1     -10.603   5.087  66.134  1.00  0.00    -0.321 C  
ENDBRANCH  19  21
ENDBRANCH  14  19
ENDBRANCH  10  13
ENDBRANCH   8  10
ENDBRANCH   6   8
ENDBRANCH   4   6
ENDBRANCH   2   4
TORSDOF 7
ENDMDL
MODEL      139
REMARK 921   NORMALIZED FREE ENERGY PREDICTED BY IDOCK:   -4.77 KCAL/MOL
REMARK 922        TOTAL FREE ENERGY PREDICTED BY IDOCK:   -8.58 KCAL/MOL
REMARK 923 INTER-LIGAND FREE ENERGY PREDICTED BY IDOCK:   -7.17 KCAL/MOL
REMARK 924 INTRA-LIGAND FREE ENERGY PREDICTED BY IDOCK:   -1.41 KCAL/MOL
REMARK 927      BINDING AFFINITY PREDICTED BY RF-SCORE:    0.00 PKD
ROOT
HETATM    1  C   UNL     1      -8.291   8.529  64.652  1.00  0.00    -0.156 C  
HETATM    2  C   UNL     1      -9.160   9.710  65.084  1.00  0.00    -0.228 C  
HETATM    3  C   UNL     1      -9.585  10.534  63.874  1.00  0.00    -0.363 C  
ENDROOT
BRANCH   2   4
HETATM    4  N   UNL     1     -10.327   9.271  65.840  1.00  0.00    -0.211 N  
HETATM    5  H   UNL     1     -11.257   9.570  65.547  1.00  0.00     0.000 HD 
BRANCH   4   6
HETATM    6  C   UNL     1     -10.192   8.463  66.936  1.00  0.00    -0.313 C  
HETATM    7  O   UNL     1     -10.821   7.433  67.103  1.00  0.00    -0.331 OA 
BRANCH   6   8
HETATM    8  N   UNL     1      -9.329   8.975  67.893  1.00  0.00    -0.140 N  
HETATM    9  H   UNL     1      -8.619   9.639  67.586  1.00  0.00     0.000 HD 
BRANCH   8  10
HETATM   10  S   UNL     1      -9.373   8.577  69.516  1.00  0.00    -0.161 S  
HETATM   11  O   UNL     1      -9.409   7.139  69.658  1.00  0.00    -0.150 OA 
HETATM   12  O   UNL     1      -8.291   9.346  70.103  1.00  0.00    -0.143 OA 
BRANCH  10  13
HETATM   13  C   UNL     1     -10.870   9.235  70.160  1.00  0.00    -0.242 A  
HETATM   14  C   UNL     1     -11.172  10.600  70.083  1.00  0.00    -0.302 A  
HETATM   15  N   UNL     1     -12.923   8.777  71.374  1.00  0.00    -0.301 NA 
HETATM   16  C   UNL     1     -12.344  11.018  70.737  1.00  0.00    -0.496 A  
HETATM   17  C   UNL     1     -13.172  10.096  71.356  1.00  0.00    -0.380 A  
HETATM   18  C   UNL     1     -11.771   8.381  70.785  1.00  0.00    -0.202 A  
BRANCH  14  19
HETATM   19  N   UNL     1     -10.431  11.514  69.295  1.00  0.00    -0.421 NA 
HETATM   20  H   UNL     1      -9.421  11.493  69.431  1.00  0.00     0.000 HD 
BRANCH  19  21
HETATM   21  C   UNL     1     -10.898  12.453  68.345  1.00  0.00    -0.238 A  
HETATM   22  C   UNL     1     -11.737  14.683  67.851  1.00  0.00    -0.379 A  
HETATM   23  C   UNL     1     -11.111  13.783  68.722  1.00  0.00    -0.295 A  
HETATM   24  C   UNL     1     -12.191  14.255  66.601  1.00  0.00    -0.411 A  
HETATM   25  C   UNL     1     -11.975  12.939  66.195  1.00  0.00    -0.491 A  
HETATM   26  C   UNL     1     -11.283  12.071  67.051  1.00  0.00    -0.377 A  
HETATM   27  C   UNL     1     -12.532  12.407  64.908  1.00  0.00    -0.439 C  
ENDBRANCH  19  21
ENDBRANCH  14  19
ENDBRANCH  10  13
ENDBRANCH   8  10
ENDBRANCH   6   8
ENDBRANCH   4   6
ENDBRANCH   2   4
TORSDOF 7
ENDMDL
MODEL      140
REMARK 921   NORMALIZED FREE ENERGY PREDICTED BY IDOCK:   -4.77 KCAL/MOL
REMARK 922        TOTAL FREE ENERGY PREDICTED BY IDOCK:   -8.58 KCAL/MOL
REMARK 923 INTER-LIGAND FREE ENERGY PREDICTED BY IDOCK:   -7.78 KCAL/MOL
REMARK 924 INTRA-LIGAND FREE ENERGY PREDICTED BY IDOCK:   -0.80 KCAL/MOL
REMARK 927      BINDING AFFINITY PREDICTED BY RF-SCORE:    0.00 PKD
ROOT
HETATM    1  C   UNL     1      -8.151  15.081  69.116  1.00  0.00    -0.192 C  
HETATM    2  C   UNL     1      -7.404  14.847  67.802  1.00  0.00    -0.166 C  
HETATM    3  C   UNL     1      -5.960  14.440  68.071  1.00  0.00    -0.154 C  
ENDROOT
BRANCH   2   4
HETATM    4  N   UNL     1      -8.071  13.850  66.975  1.00  0.00    -0.383 N  
HETATM    5  H   UNL     1      -8.544  14.142  66.119  1.00  0.00     0.000 HD 
BRANCH   4   6
HETATM    6  C   UNL     1      -8.074  12.528  67.328  1.00  0.00    -0.179 C  
HETATM    7  O   UNL     1      -7.800  12.123  68.444  1.00  0.00    -0.140 OA 
BRANCH   6   8
HETATM    8  N   UNL     1      -8.334  11.675  66.267  1.00  0.00    -0.357 N  
HETATM    9  H   UNL     1      -7.583  11.507  65.598  1.00  0.00     0.000 HD 
BRANCH   8  10
HETATM   10  S   UNL     1      -9.793  10.903  66.009  1.00  0.00    -0.244 S  
HETATM   11  O   UNL     1      -9.710  10.110  64.804  1.00  0.00    -0.294 OA 
HETATM   12  O   UNL     1     -10.097  10.275  67.282  1.00  0.00    -0.184 OA 
BRANCH  10  13
HETATM   13  C   UNL     1     -10.997  12.159  65.763  1.00  0.00    -0.297 A  
HETATM   14  C   UNL     1     -11.490  12.930  66.824  1.00  0.00    -0.340 A  
HETATM   15  N   UNL     1     -12.464  13.273  64.180  1.00  0.00    -0.644 NA 
HETATM   16  C   UNL     1     -12.533  13.821  66.517  1.00  0.00    -0.356 A  
HETATM   17  C   UNL     1     -12.980  13.958  65.213  1.00  0.00    -0.297 A  
HETATM   18  C   UNL     1     -11.493  12.381  64.484  1.00  0.00    -0.337 A  
BRANCH  14  19
HETATM   19  N   UNL     1     -10.911  12.929  68.117  1.00  0.00    -0.227 NA 
HETATM   20  H   UNL     1      -9.891  12.949  68.141  1.00  0.00     0.000 HD 
BRANCH  19  21
HETATM   21  C   UNL     1     -11.549  12.904  69.378  1.00  0.00    -0.302 A  
HETATM   22  C   UNL     1     -12.692  11.640  71.116  1.00  0.00    -0.426 A  
HETATM   23  C   UNL     1     -11.905  11.681  69.959  1.00  0.00    -0.435 A  
HETATM   24  C   UNL     1     -13.165  12.822  71.690  1.00  0.00    -0.410 A  
HETATM   25  C   UNL     1     -12.810  14.054  71.141  1.00  0.00    -0.427 A  
HETATM   26  C   UNL     1     -11.963  14.079  70.024  1.00  0.00    -0.404 A  
HETATM   27  C   UNL     1     -13.375  15.342  71.660  1.00  0.00    -0.578 C  
ENDBRANCH  19  21
ENDBRANCH  14  19
ENDBRANCH  10  13
ENDBRANCH   8  10
ENDBRANCH   6   8
ENDBRANCH   4   6
ENDBRANCH   2   4
TORSDOF 7
ENDMDL
MODEL      141
REMARK 921   NORMALIZED FREE ENERGY PREDICTED BY IDOCK:   -4.76 KCAL/MOL
REMARK 922        TOTAL FREE ENERGY PREDICTED BY IDOCK:   -8.56 KCAL/MOL
REMARK 923 INTER-LIGAND FREE ENERGY PREDICTED BY IDOCK:   -6.73 KCAL/MOL
REMARK 924 INTRA-LIGAND FREE ENERGY PREDICTED BY IDOCK:   -1.84 KCAL/MOL
REMARK 927      BINDING AFFINITY PREDICTED BY RF-SCORE:    0.00 PKD
ROOT
HETATM    1  C   UNL     1      -6.798  11.518  67.041  1.00  0.00    -0.147 C  
HETATM    2  C   UNL     1      -8.150  12.115  67.434  1.00  0.00    -0.171 C  
HETATM    3  C   UNL     1      -9.180  11.013  67.652  1.00  0.00    -0.151 C  
ENDROOT
BRANCH   2   4
HETATM    4  N   UNL     1      -8.042  12.957  68.618  1.00  0.00    -0.321 N  
HETATM    5  H   UNL     1      -8.114  12.534  69.544  1.00  0.00     0.000 HD 
BRANCH   4   6
HETATM    6  C   UNL     1      -7.846  14.307  68.507  1.00  0.00    -0.143 C  
HETATM    7  O   UNL     1      -6.984  14.813  67.811  1.00  0.00    -0.142 OA 
BRANCH   6   8
HETATM    8  N   UNL     1      -8.671  15.053  69.335  1.00  0.00    -0.393 N  
HETATM    9  H   UNL     1      -8.256  15.471  70.167  1.00  0.00     0.000 HD 
BRANCH   8  10
HETATM   10  S   UNL     1     -10.299  15.314  69.063  1.00  0.00    -0.253 S  
HETATM   11  O   UNL     1     -10.891  14.119  68.505  1.00  0.00    -0.237 OA 
HETATM   12  O   UNL     1     -10.789  15.861  70.315  1.00  0.00    -0.316 OA 
BRANCH  10  13
HETATM   13  C   UNL     1     -10.415  16.598  67.869  1.00  0.00    -0.322 A  
HETATM   14  C   UNL     1     -10.007  16.413  66.541  1.00  0.00    -0.282 A  
HETATM   15  N   UNL     1     -10.979  18.922  67.445  1.00  0.00    -0.368 NA 
HETATM   16  C   UNL     1     -10.040  17.549  65.714  1.00  0.00    -0.119 A  
HETATM   17  C   UNL     1     -10.522  18.756  66.194  1.00  0.00    -0.446 A  
HETATM   18  C   UNL     1     -10.902  17.841  68.255  1.00  0.00    -0.145 A  
BRANCH  14  19
HETATM   19  N   UNL     1      -9.693  15.144  65.997  1.00  0.00    -0.308 NA 
HETATM   20  H   UNL     1      -8.768  14.783  66.231  1.00  0.00     0.000 HD 
BRANCH  19  21
HETATM   21  C   UNL     1     -10.483  14.308  65.174  1.00  0.00    -0.411 A  
HETATM   22  C   UNL     1     -12.683  13.614  64.402  1.00  0.00    -0.097 A  
HETATM   23  C   UNL     1     -11.860  14.531  65.066  1.00  0.00    -0.399 A  
HETATM   24  C   UNL     1     -12.147  12.441  63.868  1.00  0.00    -0.587 A  
HETATM   25  C   UNL     1     -10.775  12.204  63.948  1.00  0.00    -0.456 A  
HETATM   26  C   UNL     1      -9.955  13.166  64.553  1.00  0.00    -0.137 A  
HETATM   27  C   UNL     1     -10.167  10.914  63.481  1.00  0.00    -0.379 C  
ENDBRANCH  19  21
ENDBRANCH  14  19
ENDBRANCH  10  13
ENDBRANCH   8  10
ENDBRANCH   6   8
ENDBRANCH   4   6
ENDBRANCH   2   4
TORSDOF 7
ENDMDL
MODEL      142
REMARK 921   NORMALIZED FREE ENERGY PREDICTED BY IDOCK:   -4.76 KCAL/MOL
REMARK 922        TOTAL FREE ENERGY PREDICTED BY IDOCK:   -8.56 KCAL/MOL
REMARK 923 INTER-LIGAND FREE ENERGY PREDICTED BY IDOCK:   -7.30 KCAL/MOL
REMARK 924 INTRA-LIGAND FREE ENERGY PREDICTED BY IDOCK:   -1.26 KCAL/MOL
REMARK 927      BINDING AFFINITY PREDICTED BY RF-SCORE:    0.00 PKD
ROOT
HETATM    1  C   UNL     1      -6.328  16.523  66.952  1.00  0.00    -0.166 C  
HETATM    2  C   UNL     1      -7.639  17.307  66.883  1.00  0.00    -0.213 C  
HETATM    3  C   UNL     1      -7.447  18.605  66.107  1.00  0.00    -0.287 C  
ENDROOT
BRANCH   2   4
HETATM    4  N   UNL     1      -8.711  16.513  66.297  1.00  0.00    -0.315 N  
HETATM    5  H   UNL     1      -8.480  15.686  65.747  1.00  0.00     0.000 HD 
BRANCH   4   6
HETATM    6  C   UNL     1     -10.022  16.862  66.472  1.00  0.00    -0.301 C  
HETATM    7  O   UNL     1     -10.582  17.741  65.842  1.00  0.00    -0.421 OA 
BRANCH   6   8
HETATM    8  N   UNL     1     -10.640  16.175  67.506  1.00  0.00    -0.311 N  
HETATM    9  H   UNL     1     -11.535  15.726  67.310  1.00  0.00     0.000 HD 
BRANCH   8  10
HETATM   10  S   UNL     1     -10.020  16.031  69.051  1.00  0.00    -0.257 S  
HETATM   11  O   UNL     1      -9.096  14.920  69.096  1.00  0.00    -0.192 OA 
HETATM   12  O   UNL     1      -9.576  17.371  69.386  1.00  0.00    -0.033 OA 
BRANCH  10  13
HETATM   13  C   UNL     1     -11.374  15.666  70.110  1.00  0.00    -0.344 A  
HETATM   14  C   UNL     1     -12.406  14.802  69.721  1.00  0.00    -0.249 A  
HETATM   15  N   UNL     1     -12.459  16.117  72.236  1.00  0.00    -0.456 NA 
HETATM   16  C   UNL     1     -13.489  14.684  70.609  1.00  0.00    -0.084 A  
HETATM   17  C   UNL     1     -13.477  15.343  71.827  1.00  0.00    -0.487 A  
HETATM   18  C   UNL     1     -11.439  16.269  71.360  1.00  0.00    -0.297 A  
BRANCH  14  19
HETATM   19  N   UNL     1     -12.337  13.984  68.567  1.00  0.00    -0.506 NA 
HETATM   20  H   UNL     1     -12.785  14.363  67.732  1.00  0.00     0.000 HD 
BRANCH  19  21
HETATM   21  C   UNL     1     -11.735  12.713  68.411  1.00  0.00    -0.333 A  
HETATM   22  C   UNL     1     -11.032  10.901  66.949  1.00  0.00    -0.286 A  
HETATM   23  C   UNL     1     -11.461  12.221  67.131  1.00  0.00    -0.419 A  
HETATM   24  C   UNL     1     -10.904  10.042  68.043  1.00  0.00    -0.311 A  
HETATM   25  C   UNL     1     -11.155  10.514  69.331  1.00  0.00    -0.310 A  
HETATM   26  C   UNL     1     -11.515  11.858  69.502  1.00  0.00    -0.357 A  
HETATM   27  C   UNL     1     -11.131   9.605  70.524  1.00  0.00    -0.369 C  
ENDBRANCH  19  21
ENDBRANCH  14  19
ENDBRANCH  10  13
ENDBRANCH   8  10
ENDBRANCH   6   8
ENDBRANCH   4   6
ENDBRANCH   2   4
TORSDOF 7
ENDMDL
MODEL      143
REMARK 921   NORMALIZED FREE ENERGY PREDICTED BY IDOCK:   -4.74 KCAL/MOL
REMARK 922        TOTAL FREE ENERGY PREDICTED BY IDOCK:   -8.54 KCAL/MOL
REMARK 923 INTER-LIGAND FREE ENERGY PREDICTED BY IDOCK:   -7.35 KCAL/MOL
REMARK 924 INTRA-LIGAND FREE ENERGY PREDICTED BY IDOCK:   -1.19 KCAL/MOL
REMARK 927      BINDING AFFINITY PREDICTED BY RF-SCORE:    0.00 PKD
ROOT
HETATM    1  C   UNL     1     -10.118  19.735  68.684  1.00  0.00    -0.546 C  
HETATM    2  C   UNL     1     -10.721  19.244  67.367  1.00  0.00    -0.486 C  
HETATM    3  C   UNL     1     -10.313  20.157  66.217  1.00  0.00    -0.512 C  
ENDROOT
BRANCH   2   4
HETATM    4  N   UNL     1     -10.344  17.864  67.085  1.00  0.00    -0.358 N  
HETATM    5  H   UNL     1     -10.763  17.382  66.290  1.00  0.00     0.000 HD 
BRANCH   4   6
HETATM    6  C   UNL     1      -9.436  17.208  67.870  1.00  0.00    -0.257 C  
HETATM    7  O   UNL     1      -8.238  17.182  67.648  1.00  0.00    -0.184 OA 
BRANCH   6   8
HETATM    8  N   UNL     1     -10.019  16.493  68.905  1.00  0.00    -0.250 N  
HETATM    9  H   UNL     1     -10.002  16.908  69.837  1.00  0.00     0.000 HD 
BRANCH   8  10
HETATM   10  S   UNL     1     -10.747  15.000  68.732  1.00  0.00    -0.251 S  
HETATM   11  O   UNL     1     -11.800  15.090  67.745  1.00  0.00    -0.336 OA 
HETATM   12  O   UNL     1      -9.641  14.079  68.543  1.00  0.00    -0.216 OA 
BRANCH  10  13
HETATM   13  C   UNL     1     -11.476  14.606  70.282  1.00  0.00    -0.246 A  
HETATM   14  C   UNL     1     -12.347  13.520  70.437  1.00  0.00    -0.327 A  
HETATM   15  N   UNL     1     -11.748  15.245  72.610  1.00  0.00    -0.434 NA 
HETATM   16  C   UNL     1     -12.954  13.381  71.697  1.00  0.00    -0.445 A  
HETATM   17  C   UNL     1     -12.634  14.244  72.731  1.00  0.00    -0.221 A  
HETATM   18  C   UNL     1     -11.200  15.408  71.383  1.00  0.00    -0.342 A  
BRANCH  14  19
HETATM   19  N   UNL     1     -12.532  12.528  69.443  1.00  0.00     0.137 NA 
HETATM   20  H   UNL     1     -13.353  12.649  68.849  1.00  0.00     0.000 HD 
BRANCH  19  21
HETATM   21  C   UNL     1     -11.736  11.394  69.158  1.00  0.00    -0.342 A  
HETATM   22  C   UNL     1     -10.357   9.556  69.959  1.00  0.00    -0.284 A  
HETATM   23  C   UNL     1     -11.286  10.575  70.200  1.00  0.00    -0.389 A  
HETATM   24  C   UNL     1      -9.838   9.363  68.677  1.00  0.00    -0.174 A  
HETATM   25  C   UNL     1     -10.283  10.154  67.618  1.00  0.00    -0.246 A  
HETATM   26  C   UNL     1     -11.267  11.123  67.864  1.00  0.00    -0.365 A  
HETATM   27  C   UNL     1      -9.682  10.053  66.248  1.00  0.00    -0.272 C  
ENDBRANCH  19  21
ENDBRANCH  14  19
ENDBRANCH  10  13
ENDBRANCH   8  10
ENDBRANCH   6   8
ENDBRANCH   4   6
ENDBRANCH   2   4
TORSDOF 7
ENDMDL
MODEL      144
REMARK 921   NORMALIZED FREE ENERGY PREDICTED BY IDOCK:   -4.70 KCAL/MOL
REMARK 922        TOTAL FREE ENERGY PREDICTED BY IDOCK:   -8.48 KCAL/MOL
REMARK 923 INTER-LIGAND FREE ENERGY PREDICTED BY IDOCK:   -6.89 KCAL/MOL
REMARK 924 INTRA-LIGAND FREE ENERGY PREDICTED BY IDOCK:   -1.59 KCAL/MOL
REMARK 927      BINDING AFFINITY PREDICTED BY RF-SCORE:    0.00 PKD
ROOT
HETATM    1  C   UNL     1     -10.885   6.241  69.642  1.00  0.00    -0.403 C  
HETATM    2  C   UNL     1     -10.352   7.494  68.947  1.00  0.00    -0.211 C  
HETATM    3  C   UNL     1     -10.580   7.411  67.442  1.00  0.00    -0.371 C  
ENDROOT
BRANCH   2   4
HETATM    4  N   UNL     1     -10.952   8.706  69.490  1.00  0.00    -0.416 N  
HETATM    5  H   UNL     1     -11.898   8.967  69.211  1.00  0.00     0.000 HD 
BRANCH   4   6
HETATM    6  C   UNL     1     -10.265   9.499  70.368  1.00  0.00    -0.279 C  
HETATM    7  O   UNL     1      -9.493   9.072  71.209  1.00  0.00    -0.247 OA 
BRANCH   6   8
HETATM    8  N   UNL     1     -10.596  10.842  70.272  1.00  0.00    -0.333 N  
HETATM    9  H   UNL     1      -9.842  11.524  70.352  1.00  0.00     0.000 HD 
BRANCH   8  10
HETATM   10  S   UNL     1     -12.145  11.420  70.032  1.00  0.00    -0.333 S  
HETATM   11  O   UNL     1     -12.660  10.909  68.782  1.00  0.00    -0.317 OA 
HETATM   12  O   UNL     1     -12.831  11.139  71.279  1.00  0.00    -0.394 OA 
BRANCH  10  13
HETATM   13  C   UNL     1     -12.021  13.169  69.905  1.00  0.00    -0.317 A  
HETATM   14  C   UNL     1     -11.443  13.791  68.791  1.00  0.00    -0.303 A  
HETATM   15  N   UNL     1     -12.389  15.308  70.996  1.00  0.00    -0.333 NA 
HETATM   16  C   UNL     1     -11.296  15.187  68.861  1.00  0.00    -0.314 A  
HETATM   17  C   UNL     1     -11.772  15.890  69.956  1.00  0.00    -0.334 A  
HETATM   18  C   UNL     1     -12.486  13.959  70.949  1.00  0.00    -0.375 A  
BRANCH  14  19
HETATM   19  N   UNL     1     -11.128  13.101  67.595  1.00  0.00    -0.261 NA 
HETATM   20  H   UNL     1     -11.829  13.161  66.856  1.00  0.00     0.000 HD 
BRANCH  19  21
HETATM   21  C   UNL     1      -9.978  12.339  67.283  1.00  0.00    -0.204 A  
HETATM   22  C   UNL     1      -7.560  12.076  67.368  1.00  0.00    -0.151 A  
HETATM   23  C   UNL     1      -8.732  12.706  67.804  1.00  0.00    -0.179 A  
HETATM   24  C   UNL     1      -7.614  11.093  66.378  1.00  0.00    -0.109 A  
HETATM   25  C   UNL     1      -8.845  10.697  65.856  1.00  0.00    -0.187 A  
HETATM   26  C   UNL     1     -10.014  11.288  66.354  1.00  0.00    -0.252 A  
HETATM   27  C   UNL     1      -8.944   9.720  64.722  1.00  0.00    -0.266 C  
ENDBRANCH  19  21
ENDBRANCH  14  19
ENDBRANCH  10  13
ENDBRANCH   8  10
ENDBRANCH   6   8
ENDBRANCH   4   6
ENDBRANCH   2   4
TORSDOF 7
ENDMDL
MODEL      145
REMARK 921   NORMALIZED FREE ENERGY PREDICTED BY IDOCK:   -4.69 KCAL/MOL
REMARK 922        TOTAL FREE ENERGY PREDICTED BY IDOCK:   -8.47 KCAL/MOL
REMARK 923 INTER-LIGAND FREE ENERGY PREDICTED BY IDOCK:   -7.46 KCAL/MOL
REMARK 924 INTRA-LIGAND FREE ENERGY PREDICTED BY IDOCK:   -1.01 KCAL/MOL
REMARK 927      BINDING AFFINITY PREDICTED BY RF-SCORE:    0.00 PKD
ROOT
HETATM    1  C   UNL     1     -13.644   8.988  71.332  1.00  0.00    -0.331 C  
HETATM    2  C   UNL     1     -12.519   9.928  71.769  1.00  0.00    -0.397 C  
HETATM    3  C   UNL     1     -11.169   9.405  71.293  1.00  0.00    -0.437 C  
ENDROOT
BRANCH   2   4
HETATM    4  N   UNL     1     -12.740  11.287  71.292  1.00  0.00    -0.415 N  
HETATM    5  H   UNL     1     -13.326  11.921  71.836  1.00  0.00     0.000 HD 
BRANCH   4   6
HETATM    6  C   UNL     1     -12.172  11.726  70.127  1.00  0.00    -0.263 C  
HETATM    7  O   UNL     1     -12.167  11.085  69.091  1.00  0.00    -0.434 OA 
BRANCH   6   8
HETATM    8  N   UNL     1     -11.520  12.942  70.257  1.00  0.00    -0.493 N  
HETATM    9  H   UNL     1     -10.951  13.090  71.090  1.00  0.00     0.000 HD 
BRANCH   8  10
HETATM   10  S   UNL     1     -11.601  14.183  69.141  1.00  0.00    -0.329 S  
HETATM   11  O   UNL     1     -12.406  13.765  68.015  1.00  0.00    -0.241 OA 
HETATM   12  O   UNL     1     -11.979  15.346  69.923  1.00  0.00    -0.318 OA 
BRANCH  10  13
HETATM   13  C   UNL     1      -9.961  14.465  68.574  1.00  0.00    -0.237 A  
HETATM   14  C   UNL     1      -9.206  13.456  67.962  1.00  0.00    -0.209 A  
HETATM   15  N   UNL     1      -8.115  16.035  68.423  1.00  0.00    -0.153 NA 
HETATM   16  C   UNL     1      -7.870  13.772  67.661  1.00  0.00    -0.185 A  
HETATM   17  C   UNL     1      -7.376  15.043  67.901  1.00  0.00    -0.143 A  
HETATM   18  C   UNL     1      -9.386  15.717  68.758  1.00  0.00    -0.213 A  
BRANCH  14  19
HETATM   19  N   UNL     1      -9.758  12.221  67.544  1.00  0.00    -0.187 NA 
HETATM   20  H   UNL     1     -10.042  11.590  68.294  1.00  0.00     0.000 HD 
BRANCH  19  21
HETATM   21  C   UNL     1      -9.972  11.740  66.231  1.00  0.00    -0.218 A  
HETATM   22  C   UNL     1      -9.073  10.754  64.196  1.00  0.00    -0.215 A  
HETATM   23  C   UNL     1      -8.943  11.078  65.552  1.00  0.00    -0.208 A  
HETATM   24  C   UNL     1     -10.222  11.118  63.491  1.00  0.00    -0.446 A  
HETATM   25  C   UNL     1     -11.268  11.763  64.149  1.00  0.00    -0.437 A  
HETATM   26  C   UNL     1     -11.151  12.017  65.522  1.00  0.00    -0.361 A  
HETATM   27  C   UNL     1     -12.475  12.265  63.413  1.00  0.00    -0.592 C  
ENDBRANCH  19  21
ENDBRANCH  14  19
ENDBRANCH  10  13
ENDBRANCH   8  10
ENDBRANCH   6   8
ENDBRANCH   4   6
ENDBRANCH   2   4
TORSDOF 7
ENDMDL
MODEL      146
REMARK 921   NORMALIZED FREE ENERGY PREDICTED BY IDOCK:   -4.69 KCAL/MOL
REMARK 922        TOTAL FREE ENERGY PREDICTED BY IDOCK:   -8.46 KCAL/MOL
REMARK 923 INTER-LIGAND FREE ENERGY PREDICTED BY IDOCK:   -6.78 KCAL/MOL
REMARK 924 INTRA-LIGAND FREE ENERGY PREDICTED BY IDOCK:   -1.69 KCAL/MOL
REMARK 927      BINDING AFFINITY PREDICTED BY RF-SCORE:    0.00 PKD
ROOT
HETATM    1  C   UNL     1     -11.531  14.874  66.649  1.00  0.00    -0.297 C  
HETATM    2  C   UNL     1     -10.088  14.649  67.102  1.00  0.00    -0.244 C  
HETATM    3  C   UNL     1      -9.734  15.584  68.252  1.00  0.00    -0.201 C  
ENDROOT
BRANCH   2   4
HETATM    4  N   UNL     1      -9.854  13.261  67.479  1.00  0.00    -0.216 N  
HETATM    5  H   UNL     1     -10.548  12.769  68.042  1.00  0.00     0.000 HD 
BRANCH   4   6
HETATM    6  C   UNL     1      -8.716  12.608  67.090  1.00  0.00    -0.201 C  
HETATM    7  O   UNL     1      -7.590  12.980  67.370  1.00  0.00    -0.154 OA 
BRANCH   6   8
HETATM    8  N   UNL     1      -8.960  11.521  66.265  1.00  0.00    -0.197 N  
HETATM    9  H   UNL     1      -8.345  11.386  65.463  1.00  0.00     0.000 HD 
BRANCH   8  10
HETATM   10  S   UNL     1     -10.192  10.416  66.495  1.00  0.00    -0.218 S  
HETATM   11  O   UNL     1     -11.461  11.108  66.510  1.00  0.00    -0.289 OA 
HETATM   12  O   UNL     1      -9.932   9.378  65.515  1.00  0.00    -0.281 OA 
BRANCH  10  13
HETATM   13  C   UNL     1      -9.938   9.694  68.078  1.00  0.00    -0.160 A  
HETATM   14  C   UNL     1     -10.573  10.185  69.226  1.00  0.00    -0.230 A  
HETATM   15  N   UNL     1      -8.739   8.023  69.370  1.00  0.00    -0.136 NA 
HETATM   16  C   UNL     1     -10.198   9.597  70.446  1.00  0.00    -0.348 A  
HETATM   17  C   UNL     1      -9.299   8.544  70.474  1.00  0.00    -0.170 A  
HETATM   18  C   UNL     1      -9.064   8.620  68.200  1.00  0.00    -0.141 A  
BRANCH  14  19
HETATM   19  N   UNL     1     -11.627  11.129  69.183  1.00  0.00    -0.294 NA 
HETATM   20  H   UNL     1     -12.094  11.227  68.281  1.00  0.00     0.000 HD 
BRANCH  19  21
HETATM   21  C   UNL     1     -12.123  11.957  70.218  1.00  0.00    -0.325 A  
HETATM   22  C   UNL     1     -13.571  12.242  72.153  1.00  0.00    -0.348 A  
HETATM   23  C   UNL     1     -12.927  11.414  71.225  1.00  0.00    -0.415 A  
HETATM   24  C   UNL     1     -13.447  13.630  72.064  1.00  0.00    -0.573 A  
HETATM   25  C   UNL     1     -12.638  14.196  71.080  1.00  0.00    -0.439 A  
HETATM   26  C   UNL     1     -11.944  13.349  70.204  1.00  0.00    -0.396 A  
HETATM   27  C   UNL     1     -12.555  15.680  70.881  1.00  0.00    -0.503 C  
ENDBRANCH  19  21
ENDBRANCH  14  19
ENDBRANCH  10  13
ENDBRANCH   8  10
ENDBRANCH   6   8
ENDBRANCH   4   6
ENDBRANCH   2   4
TORSDOF 7
ENDMDL
MODEL      147
REMARK 921   NORMALIZED FREE ENERGY PREDICTED BY IDOCK:   -4.69 KCAL/MOL
REMARK 922        TOTAL FREE ENERGY PREDICTED BY IDOCK:   -8.46 KCAL/MOL
REMARK 923 INTER-LIGAND FREE ENERGY PREDICTED BY IDOCK:   -6.83 KCAL/MOL
REMARK 924 INTRA-LIGAND FREE ENERGY PREDICTED BY IDOCK:   -1.63 KCAL/MOL
REMARK 927      BINDING AFFINITY PREDICTED BY RF-SCORE:    0.00 PKD
ROOT
HETATM    1  C   UNL     1      -8.924  18.404  68.446  1.00  0.00    -0.336 C  
HETATM    2  C   UNL     1      -8.135  17.116  68.207  1.00  0.00    -0.239 C  
HETATM    3  C   UNL     1      -6.856  17.108  69.036  1.00  0.00    -0.231 C  
ENDROOT
BRANCH   2   4
HETATM    4  N   UNL     1      -8.938  15.933  68.491  1.00  0.00    -0.191 N  
HETATM    5  H   UNL     1      -9.403  15.847  69.395  1.00  0.00     0.000 HD 
BRANCH   4   6
HETATM    6  C   UNL     1      -9.076  14.937  67.564  1.00  0.00    -0.183 C  
HETATM    7  O   UNL     1      -8.605  14.983  66.441  1.00  0.00    -0.222 OA 
BRANCH   6   8
HETATM    8  N   UNL     1      -9.884  13.895  67.992  1.00  0.00    -0.227 N  
HETATM    9  H   UNL     1      -9.441  13.125  68.494  1.00  0.00     0.000 HD 
BRANCH   8  10
HETATM   10  S   UNL     1     -11.535  13.813  67.745  1.00  0.00    -0.342 S  
HETATM   11  O   UNL     1     -12.096  12.779  68.584  1.00  0.00    -0.273 OA 
HETATM   12  O   UNL     1     -11.986  15.187  67.870  1.00  0.00    -0.268 OA 
BRANCH  10  13
HETATM   13  C   UNL     1     -11.774  13.352  66.066  1.00  0.00    -0.362 A  
HETATM   14  C   UNL     1     -11.265  12.155  65.547  1.00  0.00    -0.334 A  
HETATM   15  N   UNL     1     -12.660  13.996  63.898  1.00  0.00    -0.746 NA 
HETATM   16  C   UNL     1     -11.422  11.957  64.164  1.00  0.00    -0.449 A  
HETATM   17  C   UNL     1     -12.109  12.880  63.394  1.00  0.00    -0.530 A  
HETATM   18  C   UNL     1     -12.467  14.210  65.219  1.00  0.00    -0.461 A  
BRANCH  14  19
HETATM   19  N   UNL     1     -10.730  11.125  66.359  1.00  0.00    -0.262 NA 
HETATM   20  H   UNL     1     -11.223  10.956  67.235  1.00  0.00     0.000 HD 
BRANCH  19  21
HETATM   21  C   UNL     1      -9.606  10.299  66.123  1.00  0.00    -0.197 A  
HETATM   22  C   UNL     1      -8.621   8.074  66.079  1.00  0.00    -0.162 A  
HETATM   23  C   UNL     1      -9.745   8.907  66.133  1.00  0.00    -0.338 A  
HETATM   24  C   UNL     1      -7.338   8.623  66.050  1.00  0.00    -0.085 A  
HETATM   25  C   UNL     1      -7.172  10.007  66.022  1.00  0.00    -0.112 A  
HETATM   26  C   UNL     1      -8.310  10.825  66.005  1.00  0.00    -0.163 A  
HETATM   27  C   UNL     1      -5.815  10.643  66.094  1.00  0.00    -0.112 C  
ENDBRANCH  19  21
ENDBRANCH  14  19
ENDBRANCH  10  13
ENDBRANCH   8  10
ENDBRANCH   6   8
ENDBRANCH   4   6
ENDBRANCH   2   4
TORSDOF 7
ENDMDL
MODEL      148
REMARK 921   NORMALIZED FREE ENERGY PREDICTED BY IDOCK:   -4.69 KCAL/MOL
REMARK 922        TOTAL FREE ENERGY PREDICTED BY IDOCK:   -8.46 KCAL/MOL
REMARK 923 INTER-LIGAND FREE ENERGY PREDICTED BY IDOCK:   -7.18 KCAL/MOL
REMARK 924 INTRA-LIGAND FREE ENERGY PREDICTED BY IDOCK:   -1.28 KCAL/MOL
REMARK 927      BINDING AFFINITY PREDICTED BY RF-SCORE:    0.00 PKD
ROOT
HETATM    1  C   UNL     1      -7.731  14.918  69.237  1.00  0.00    -0.166 C  
HETATM    2  C   UNL     1      -7.656  13.687  68.333  1.00  0.00    -0.132 C  
HETATM    3  C   UNL     1      -6.205  13.338  68.022  1.00  0.00    -0.129 C  
ENDROOT
BRANCH   2   4
HETATM    4  N   UNL     1      -8.343  12.545  68.922  1.00  0.00    -0.344 N  
HETATM    5  H   UNL     1      -8.957  12.687  69.724  1.00  0.00     0.000 HD 
BRANCH   4   6
HETATM    6  C   UNL     1      -8.175  11.285  68.416  1.00  0.00    -0.149 C  
HETATM    7  O   UNL     1      -7.611  10.383  69.010  1.00  0.00    -0.089 OA 
BRANCH   6   8
HETATM    8  N   UNL     1      -8.634  11.149  67.115  1.00  0.00    -0.136 N  
HETATM    9  H   UNL     1      -8.047  11.514  66.364  1.00  0.00     0.000 HD 
BRANCH   8  10
HETATM   10  S   UNL     1     -10.081  10.430  66.691  1.00  0.00    -0.232 S  
HETATM   11  O   UNL     1      -9.816   9.213  65.957  1.00  0.00    -0.277 OA 
HETATM   12  O   UNL     1     -10.839  10.391  67.928  1.00  0.00    -0.237 OA 
BRANCH  10  13
HETATM   13  C   UNL     1     -10.912  11.551  65.622  1.00  0.00    -0.236 A  
HETATM   14  C   UNL     1     -11.761  12.550  66.114  1.00  0.00    -0.409 A  
HETATM   15  N   UNL     1     -11.376  12.189  63.325  1.00  0.00    -0.378 NA 
HETATM   16  C   UNL     1     -12.457  13.306  65.155  1.00  0.00    -0.525 A  
HETATM   17  C   UNL     1     -12.240  13.098  63.803  1.00  0.00    -0.456 A  
HETATM   18  C   UNL     1     -10.742  11.429  64.248  1.00  0.00    -0.356 A  
BRANCH  14  19
HETATM   19  N   UNL     1     -11.843  12.891  67.486  1.00  0.00    -0.366 NA 
HETATM   20  H   UNL     1     -12.033  12.115  68.121  1.00  0.00     0.000 HD 
BRANCH  19  21
HETATM   21  C   UNL     1     -11.699  14.157  68.100  1.00  0.00    -0.355 A  
HETATM   22  C   UNL     1     -10.813  16.422  68.031  1.00  0.00    -0.342 A  
HETATM   23  C   UNL     1     -11.127  15.218  67.390  1.00  0.00    -0.326 A  
HETATM   24  C   UNL     1     -11.035  16.571  69.401  1.00  0.00    -0.288 A  
HETATM   25  C   UNL     1     -11.621  15.534  70.129  1.00  0.00    -0.355 A  
HETATM   26  C   UNL     1     -11.994  14.362  69.456  1.00  0.00    -0.376 A  
HETATM   27  C   UNL     1     -11.785  15.608  71.617  1.00  0.00    -0.521 C  
ENDBRANCH  19  21
ENDBRANCH  14  19
ENDBRANCH  10  13
ENDBRANCH   8  10
ENDBRANCH   6   8
ENDBRANCH   4   6
ENDBRANCH   2   4
TORSDOF 7
ENDMDL
MODEL      149
REMARK 921   NORMALIZED FREE ENERGY PREDICTED BY IDOCK:   -4.66 KCAL/MOL
REMARK 922        TOTAL FREE ENERGY PREDICTED BY IDOCK:   -8.41 KCAL/MOL
REMARK 923 INTER-LIGAND FREE ENERGY PREDICTED BY IDOCK:   -6.81 KCAL/MOL
REMARK 924 INTRA-LIGAND FREE ENERGY PREDICTED BY IDOCK:   -1.60 KCAL/MOL
REMARK 927      BINDING AFFINITY PREDICTED BY RF-SCORE:    0.00 PKD
ROOT
HETATM    1  C   UNL     1      -6.077  13.551  69.344  1.00  0.00    -0.103 C  
HETATM    2  C   UNL     1      -6.530  13.813  67.908  1.00  0.00    -0.161 C  
HETATM    3  C   UNL     1      -7.146  12.558  67.302  1.00  0.00    -0.114 C  
ENDROOT
BRANCH   2   4
HETATM    4  N   UNL     1      -7.464  14.930  67.834  1.00  0.00    -0.126 N  
HETATM    5  H   UNL     1      -8.207  15.010  68.528  1.00  0.00     0.000 HD 
BRANCH   4   6
HETATM    6  C   UNL     1      -7.360  15.871  66.846  1.00  0.00    -0.172 C  
HETATM    7  O   UNL     1      -6.355  16.527  66.636  1.00  0.00    -0.281 OA 
BRANCH   6   8
HETATM    8  N   UNL     1      -8.543  16.074  66.152  1.00  0.00    -0.330 N  
HETATM    9  H   UNL     1      -8.680  15.556  65.285  1.00  0.00     0.000 HD 
BRANCH   8  10
HETATM   10  S   UNL     1      -9.760  17.110  66.641  1.00  0.00    -0.289 S  
HETATM   11  O   UNL     1      -9.177  18.334  67.141  1.00  0.00    -0.257 OA 
HETATM   12  O   UNL     1     -10.679  17.139  65.518  1.00  0.00    -0.493 OA 
BRANCH  10  13
HETATM   13  C   UNL     1     -10.601  16.316  67.964  1.00  0.00    -0.308 A  
HETATM   14  C   UNL     1     -11.568  15.328  67.740  1.00  0.00    -0.265 A  
HETATM   15  N   UNL     1     -10.943  16.204  70.366  1.00  0.00    -0.336 NA 
HETATM   16  C   UNL     1     -12.252  14.855  68.873  1.00  0.00    -0.143 A  
HETATM   17  C   UNL     1     -11.916  15.308  70.138  1.00  0.00    -0.338 A  
HETATM   18  C   UNL     1     -10.318  16.695  69.271  1.00  0.00    -0.318 A  
BRANCH  14  19
HETATM   19  N   UNL     1     -11.783  14.727  66.476  1.00  0.00    -0.319 NA 
HETATM   20  H   UNL     1     -12.483  15.180  65.888  1.00  0.00     0.000 HD 
BRANCH  19  21
HETATM   21  C   UNL     1     -11.162  13.587  65.914  1.00  0.00    -0.300 A  
HETATM   22  C   UNL     1     -10.459  12.350  63.940  1.00  0.00    -0.469 A  
HETATM   23  C   UNL     1     -10.908  13.533  64.540  1.00  0.00    -0.422 A  
HETATM   24  C   UNL     1     -10.292  11.193  64.703  1.00  0.00    -0.393 A  
HETATM   25  C   UNL     1     -10.522  11.224  66.078  1.00  0.00    -0.310 A  
HETATM   26  C   UNL     1     -10.902  12.435  66.673  1.00  0.00    -0.281 A  
HETATM   27  C   UNL     1     -10.455   9.985  66.919  1.00  0.00    -0.284 C  
ENDBRANCH  19  21
ENDBRANCH  14  19
ENDBRANCH  10  13
ENDBRANCH   8  10
ENDBRANCH   6   8
ENDBRANCH   4   6
ENDBRANCH   2   4
TORSDOF 7
ENDMDL
MODEL      150
REMARK 921   NORMALIZED FREE ENERGY PREDICTED BY IDOCK:   -4.65 KCAL/MOL
REMARK 922        TOTAL FREE ENERGY PREDICTED BY IDOCK:   -8.41 KCAL/MOL
REMARK 923 INTER-LIGAND FREE ENERGY PREDICTED BY IDOCK:   -6.94 KCAL/MOL
REMARK 924 INTRA-LIGAND FREE ENERGY PREDICTED BY IDOCK:   -1.47 KCAL/MOL
REMARK 927      BINDING AFFINITY PREDICTED BY RF-SCORE:    0.00 PKD
ROOT
HETATM    1  C   UNL     1     -11.627  14.955  70.804  1.00  0.00    -0.345 C  
HETATM    2  C   UNL     1     -11.698  14.270  69.439  1.00  0.00    -0.316 C  
HETATM    3  C   UNL     1     -11.660  15.302  68.318  1.00  0.00    -0.357 C  
ENDROOT
BRANCH   2   4
HETATM    4  N   UNL     1     -10.630  13.293  69.272  1.00  0.00    -0.434 N  
HETATM    5  H   UNL     1      -9.668  13.558  69.483  1.00  0.00     0.000 HD 
BRANCH   4   6
HETATM    6  C   UNL     1     -10.899  12.024  68.836  1.00  0.00    -0.211 C  
HETATM    7  O   UNL     1     -11.915  11.710  68.242  1.00  0.00    -0.516 OA 
BRANCH   6   8
HETATM    8  N   UNL     1      -9.939  11.097  69.214  1.00  0.00    -0.420 N  
HETATM    9  H   UNL     1     -10.216  10.365  69.867  1.00  0.00     0.000 HD 
BRANCH   8  10
HETATM   10  S   UNL     1      -8.358  11.098  68.672  1.00  0.00    -0.139 S  
HETATM   11  O   UNL     1      -7.983  12.440  68.287  1.00  0.00    -0.147 OA 
HETATM   12  O   UNL     1      -7.622  10.398  69.709  1.00  0.00    -0.155 OA 
BRANCH  10  13
HETATM   13  C   UNL     1      -8.311  10.079  67.241  1.00  0.00    -0.121 A  
HETATM   14  C   UNL     1      -8.739  10.541  65.989  1.00  0.00    -0.164 A  
HETATM   15  N   UNL     1      -7.836   7.873  66.343  1.00  0.00    -0.095 NA 
HETATM   16  C   UNL     1      -8.762   9.595  64.950  1.00  0.00    -0.207 A  
HETATM   17  C   UNL     1      -8.312   8.303  65.164  1.00  0.00    -0.157 A  
HETATM   18  C   UNL     1      -7.859   8.770  67.356  1.00  0.00    -0.098 A  
BRANCH  14  19
HETATM   19  N   UNL     1      -9.020  11.902  65.721  1.00  0.00    -0.412 NA 
HETATM   20  H   UNL     1      -8.263  12.555  65.923  1.00  0.00     0.000 HD 
BRANCH  19  21
HETATM   21  C   UNL     1     -10.205  12.483  65.211  1.00  0.00    -0.282 A  
HETATM   22  C   UNL     1     -12.247  12.260  63.907  1.00  0.00    -0.608 A  
HETATM   23  C   UNL     1     -11.158  11.683  64.572  1.00  0.00    -0.365 A  
HETATM   24  C   UNL     1     -12.379  13.648  63.841  1.00  0.00    -0.375 A  
HETATM   25  C   UNL     1     -11.451  14.467  64.485  1.00  0.00    -0.349 A  
HETATM   26  C   UNL     1     -10.407  13.872  65.206  1.00  0.00    -0.396 A  
HETATM   27  C   UNL     1     -11.494  15.961  64.357  1.00  0.00    -0.268 C  
ENDBRANCH  19  21
ENDBRANCH  14  19
ENDBRANCH  10  13
ENDBRANCH   8  10
ENDBRANCH   6   8
ENDBRANCH   4   6
ENDBRANCH   2   4
TORSDOF 7
ENDMDL
MODEL      151
REMARK 921   NORMALIZED FREE ENERGY PREDICTED BY IDOCK:   -4.64 KCAL/MOL
REMARK 922        TOTAL FREE ENERGY PREDICTED BY IDOCK:   -8.40 KCAL/MOL
REMARK 923 INTER-LIGAND FREE ENERGY PREDICTED BY IDOCK:   -7.07 KCAL/MOL
REMARK 924 INTRA-LIGAND FREE ENERGY PREDICTED BY IDOCK:   -1.33 KCAL/MOL
REMARK 927      BINDING AFFINITY PREDICTED BY RF-SCORE:    0.00 PKD
ROOT
HETATM    1  C   UNL     1      -8.481  18.666  68.332  1.00  0.00    -0.366 C  
HETATM    2  C   UNL     1      -7.875  17.263  68.305  1.00  0.00    -0.244 C  
HETATM    3  C   UNL     1      -6.639  17.195  69.195  1.00  0.00    -0.231 C  
ENDROOT
BRANCH   2   4
HETATM    4  N   UNL     1      -8.846  16.250  68.700  1.00  0.00    -0.215 N  
HETATM    5  H   UNL     1      -9.429  16.406  69.522  1.00  0.00     0.000 HD 
BRANCH   4   6
HETATM    6  C   UNL     1      -8.986  15.093  67.983  1.00  0.00    -0.172 C  
HETATM    7  O   UNL     1      -8.409  14.869  66.933  1.00  0.00    -0.213 OA 
BRANCH   6   8
HETATM    8  N   UNL     1      -9.922  14.223  68.521  1.00  0.00    -0.232 N  
HETATM    9  H   UNL     1      -9.595  13.531  69.195  1.00  0.00     0.000 HD 
BRANCH   8  10
HETATM   10  S   UNL     1     -11.549  14.229  68.141  1.00  0.00    -0.350 S  
HETATM   11  O   UNL     1     -12.280  13.492  69.146  1.00  0.00    -0.307 OA 
HETATM   12  O   UNL     1     -11.854  15.626  67.888  1.00  0.00    -0.205 OA 
BRANCH  10  13
HETATM   13  C   UNL     1     -11.716  13.388  66.607  1.00  0.00    -0.385 A  
HETATM   14  C   UNL     1     -10.818  12.388  66.210  1.00  0.00    -0.266 A  
HETATM   15  N   UNL     1     -12.946  13.210  64.520  1.00  0.00    -0.662 NA 
HETATM   16  C   UNL     1     -10.990  11.875  64.913  1.00  0.00    -0.367 A  
HETATM   17  C   UNL     1     -12.041  12.302  64.120  1.00  0.00    -0.436 A  
HETATM   18  C   UNL     1     -12.752  13.739  65.750  1.00  0.00    -0.446 A  
BRANCH  14  19
HETATM   19  N   UNL     1      -9.861  11.816  67.082  1.00  0.00    -0.192 NA 
HETATM   20  H   UNL     1      -8.973  12.315  67.148  1.00  0.00     0.000 HD 
BRANCH  19  21
HETATM   21  C   UNL     1      -9.964  10.650  67.875  1.00  0.00    -0.166 A  
HETATM   22  C   UNL     1      -9.348   9.432  69.890  1.00  0.00    -0.234 A  
HETATM   23  C   UNL     1      -9.413  10.626  69.161  1.00  0.00    -0.185 A  
HETATM   24  C   UNL     1      -9.801   8.237  69.329  1.00  0.00    -0.186 A  
HETATM   25  C   UNL     1     -10.370   8.237  68.055  1.00  0.00    -0.268 A  
HETATM   26  C   UNL     1     -10.492   9.452  67.368  1.00  0.00    -0.343 A  
HETATM   27  C   UNL     1     -10.777   6.966  67.372  1.00  0.00    -0.396 C  
ENDBRANCH  19  21
ENDBRANCH  14  19
ENDBRANCH  10  13
ENDBRANCH   8  10
ENDBRANCH   6   8
ENDBRANCH   4   6
ENDBRANCH   2   4
TORSDOF 7
ENDMDL
MODEL      152
REMARK 921   NORMALIZED FREE ENERGY PREDICTED BY IDOCK:   -4.64 KCAL/MOL
REMARK 922        TOTAL FREE ENERGY PREDICTED BY IDOCK:   -8.39 KCAL/MOL
REMARK 923 INTER-LIGAND FREE ENERGY PREDICTED BY IDOCK:   -6.81 KCAL/MOL
REMARK 924 INTRA-LIGAND FREE ENERGY PREDICTED BY IDOCK:   -1.58 KCAL/MOL
REMARK 927      BINDING AFFINITY PREDICTED BY RF-SCORE:    0.00 PKD
ROOT
HETATM    1  C   UNL     1      -7.409   9.712  67.667  1.00  0.00    -0.090 C  
HETATM    2  C   UNL     1      -6.745   8.479  68.280  1.00  0.00    -0.065 C  
HETATM    3  C   UNL     1      -5.236   8.674  68.377  1.00  0.00    -0.034 C  
ENDROOT
BRANCH   2   4
HETATM    4  N   UNL     1      -7.305   8.160  69.588  1.00  0.00    -0.072 N  
HETATM    5  H   UNL     1      -7.389   7.185  69.874  1.00  0.00     0.000 HD 
BRANCH   4   6
HETATM    6  C   UNL     1      -7.720   9.150  70.436  1.00  0.00    -0.127 C  
HETATM    7  O   UNL     1      -6.991  10.028  70.864  1.00  0.00    -0.337 OA 
BRANCH   6   8
HETATM    8  N   UNL     1      -9.039   9.013  70.838  1.00  0.00    -0.231 N  
HETATM    9  H   UNL     1      -9.367   9.604  71.602  1.00  0.00     0.000 HD 
BRANCH   8  10
HETATM   10  S   UNL     1     -10.130   7.946  70.158  1.00  0.00    -0.197 S  
HETATM   11  O   UNL     1     -10.176   8.154  68.728  1.00  0.00    -0.199 OA 
HETATM   12  O   UNL     1      -9.756   6.654  70.701  1.00  0.00    -0.172 OA 
BRANCH  10  13
HETATM   13  C   UNL     1     -11.708   8.339  70.824  1.00  0.00    -0.202 A  
HETATM   14  C   UNL     1     -12.082   9.658  71.115  1.00  0.00    -0.362 A  
HETATM   15  N   UNL     1     -13.820   7.482  71.664  1.00  0.00    -0.392 NA 
HETATM   16  C   UNL     1     -13.322   9.829  71.752  1.00  0.00    -0.506 A  
HETATM   17  C   UNL     1     -14.141   8.741  72.003  1.00  0.00    -0.441 A  
HETATM   18  C   UNL     1     -12.605   7.312  71.094  1.00  0.00    -0.323 A  
BRANCH  14  19
HETATM   19  N   UNL     1     -11.335  10.785  70.692  1.00  0.00    -0.421 NA 
HETATM   20  H   UNL     1     -10.504  10.994  71.246  1.00  0.00     0.000 HD 
BRANCH  19  21
HETATM   21  C   UNL     1     -11.582  11.661  69.610  1.00  0.00    -0.330 A  
HETATM   22  C   UNL     1     -11.541  12.084  67.214  1.00  0.00    -0.383 A  
HETATM   23  C   UNL     1     -11.477  11.196  68.295  1.00  0.00    -0.373 A  
HETATM   24  C   UNL     1     -11.676  13.456  67.435  1.00  0.00    -0.415 A  
HETATM   25  C   UNL     1     -11.800  13.943  68.736  1.00  0.00    -0.396 A  
HETATM   26  C   UNL     1     -11.805  13.033  69.802  1.00  0.00    -0.381 A  
HETATM   27  C   UNL     1     -11.845  15.414  69.029  1.00  0.00    -0.357 C  
ENDBRANCH  19  21
ENDBRANCH  14  19
ENDBRANCH  10  13
ENDBRANCH   8  10
ENDBRANCH   6   8
ENDBRANCH   4   6
ENDBRANCH   2   4
TORSDOF 7
ENDMDL
MODEL      153
REMARK 921   NORMALIZED FREE ENERGY PREDICTED BY IDOCK:   -4.64 KCAL/MOL
REMARK 922        TOTAL FREE ENERGY PREDICTED BY IDOCK:   -8.39 KCAL/MOL
REMARK 923 INTER-LIGAND FREE ENERGY PREDICTED BY IDOCK:   -7.10 KCAL/MOL
REMARK 924 INTRA-LIGAND FREE ENERGY PREDICTED BY IDOCK:   -1.29 KCAL/MOL
REMARK 927      BINDING AFFINITY PREDICTED BY RF-SCORE:    0.00 PKD
ROOT
HETATM    1  C   UNL     1     -11.216   7.673  72.736  1.00  0.00    -0.431 C  
HETATM    2  C   UNL     1     -12.520   7.915  71.975  1.00  0.00    -0.304 C  
HETATM    3  C   UNL     1     -13.128   9.257  72.366  1.00  0.00    -0.481 C  
ENDROOT
BRANCH   2   4
HETATM    4  N   UNL     1     -12.322   7.843  70.533  1.00  0.00    -0.434 N  
HETATM    5  H   UNL     1     -13.090   8.090  69.907  1.00  0.00     0.000 HD 
BRANCH   4   6
HETATM    6  C   UNL     1     -11.123   7.448  70.005  1.00  0.00    -0.220 C  
HETATM    7  O   UNL     1     -10.808   6.284  69.829  1.00  0.00    -0.264 OA 
BRANCH   6   8
HETATM    8  N   UNL     1     -10.253   8.501  69.768  1.00  0.00    -0.201 N  
HETATM    9  H   UNL     1      -9.350   8.486  70.240  1.00  0.00     0.000 HD 
BRANCH   8  10
HETATM   10  S   UNL     1     -10.583   9.793  68.760  1.00  0.00    -0.215 S  
HETATM   11  O   UNL     1     -10.774   9.313  67.410  1.00  0.00    -0.279 OA 
HETATM   12  O   UNL     1     -11.642  10.517  69.439  1.00  0.00    -0.257 OA 
BRANCH  10  13
HETATM   13  C   UNL     1      -9.165  10.830  68.783  1.00  0.00    -0.189 A  
HETATM   14  C   UNL     1      -9.127  12.048  68.091  1.00  0.00    -0.191 A  
HETATM   15  N   UNL     1      -6.869  11.102  69.527  1.00  0.00    -0.127 NA 
HETATM   16  C   UNL     1      -7.898  12.728  68.091  1.00  0.00    -0.146 A  
HETATM   17  C   UNL     1      -6.819  12.233  68.805  1.00  0.00    -0.092 A  
HETATM   18  C   UNL     1      -8.038  10.423  69.487  1.00  0.00    -0.136 A  
BRANCH  14  19
HETATM   19  N   UNL     1     -10.275  12.650  67.520  1.00  0.00    -0.213 NA 
HETATM   20  H   UNL     1     -10.843  13.207  68.159  1.00  0.00     0.000 HD 
BRANCH  19  21
HETATM   21  C   UNL     1     -10.744  12.586  66.187  1.00  0.00    -0.261 A  
HETATM   22  C   UNL     1     -12.593  12.742  64.613  1.00  0.00    -0.491 A  
HETATM   23  C   UNL     1     -12.057  12.965  65.887  1.00  0.00    -0.503 A  
HETATM   24  C   UNL     1     -11.834  12.105  63.630  1.00  0.00    -0.608 A  
HETATM   25  C   UNL     1     -10.517  11.733  63.898  1.00  0.00    -0.437 A  
HETATM   26  C   UNL     1      -9.973  12.028  65.156  1.00  0.00    -0.265 A  
HETATM   27  C   UNL     1      -9.698  10.957  62.910  1.00  0.00    -0.349 C  
ENDBRANCH  19  21
ENDBRANCH  14  19
ENDBRANCH  10  13
ENDBRANCH   8  10
ENDBRANCH   6   8
ENDBRANCH   4   6
ENDBRANCH   2   4
TORSDOF 7
ENDMDL
MODEL      154
REMARK 921   NORMALIZED FREE ENERGY PREDICTED BY IDOCK:   -4.62 KCAL/MOL
REMARK 922        TOTAL FREE ENERGY PREDICTED BY IDOCK:   -8.37 KCAL/MOL
REMARK 923 INTER-LIGAND FREE ENERGY PREDICTED BY IDOCK:   -6.59 KCAL/MOL
REMARK 924 INTRA-LIGAND FREE ENERGY PREDICTED BY IDOCK:   -1.78 KCAL/MOL
REMARK 927      BINDING AFFINITY PREDICTED BY RF-SCORE:    0.00 PKD
ROOT
HETATM    1  C   UNL     1     -10.546   5.552  71.343  1.00  0.00    -0.310 C  
HETATM    2  C   UNL     1     -11.007   6.874  71.958  1.00  0.00    -0.235 C  
HETATM    3  C   UNL     1     -10.754   6.884  73.461  1.00  0.00    -0.342 C  
ENDROOT
BRANCH   2   4
HETATM    4  N   UNL     1     -10.364   8.016  71.322  1.00  0.00    -0.191 N  
HETATM    5  H   UNL     1      -9.345   8.063  71.285  1.00  0.00     0.000 HD 
BRANCH   4   6
HETATM    6  C   UNL     1     -11.105   9.028  70.775  1.00  0.00    -0.272 C  
HETATM    7  O   UNL     1     -11.633   9.912  71.426  1.00  0.00    -0.374 OA 
BRANCH   6   8
HETATM    8  N   UNL     1     -11.277   8.905  69.405  1.00  0.00    -0.432 N  
HETATM    9  H   UNL     1     -12.223   8.997  69.035  1.00  0.00     0.000 HD 
BRANCH   8  10
HETATM   10  S   UNL     1     -10.042   8.616  68.318  1.00  0.00    -0.197 S  
HETATM   11  O   UNL     1      -9.388   7.371  68.653  1.00  0.00    -0.140 OA 
HETATM   12  O   UNL     1     -10.658   8.795  67.016  1.00  0.00    -0.282 OA 
BRANCH  10  13
HETATM   13  C   UNL     1      -8.880   9.920  68.512  1.00  0.00    -0.122 A  
HETATM   14  C   UNL     1      -9.231  11.261  68.309  1.00  0.00    -0.176 A  
HETATM   15  N   UNL     1      -6.571  10.522  68.967  1.00  0.00    -0.056 NA 
HETATM   16  C   UNL     1      -8.186  12.198  68.380  1.00  0.00    -0.145 A  
HETATM   17  C   UNL     1      -6.901  11.796  68.704  1.00  0.00    -0.081 A  
HETATM   18  C   UNL     1      -7.567   9.614  68.852  1.00  0.00    -0.076 A  
BRANCH  14  19
HETATM   19  N   UNL     1     -10.571  11.697  68.164  1.00  0.00    -0.193 NA 
HETATM   20  H   UNL     1     -11.219  11.371  68.882  1.00  0.00     0.000 HD 
BRANCH  19  21
HETATM   21  C   UNL     1     -11.136  12.521  67.163  1.00  0.00    -0.276 A  
HETATM   22  C   UNL     1     -12.278  14.581  66.551  1.00  0.00    -0.268 A  
HETATM   23  C   UNL     1     -11.558  13.817  67.478  1.00  0.00    -0.387 A  
HETATM   24  C   UNL     1     -12.616  14.045  65.307  1.00  0.00    -0.495 A  
HETATM   25  C   UNL     1     -12.193  12.762  64.962  1.00  0.00    -0.527 A  
HETATM   26  C   UNL     1     -11.412  12.039  65.875  1.00  0.00    -0.392 A  
HETATM   27  C   UNL     1     -12.618  12.107  63.682  1.00  0.00    -0.616 C  
ENDBRANCH  19  21
ENDBRANCH  14  19
ENDBRANCH  10  13
ENDBRANCH   8  10
ENDBRANCH   6   8
ENDBRANCH   4   6
ENDBRANCH   2   4
TORSDOF 7
ENDMDL
MODEL      155
REMARK 921   NORMALIZED FREE ENERGY PREDICTED BY IDOCK:   -4.60 KCAL/MOL
REMARK 922        TOTAL FREE ENERGY PREDICTED BY IDOCK:   -8.33 KCAL/MOL
REMARK 923 INTER-LIGAND FREE ENERGY PREDICTED BY IDOCK:   -7.07 KCAL/MOL
REMARK 924 INTRA-LIGAND FREE ENERGY PREDICTED BY IDOCK:   -1.26 KCAL/MOL
REMARK 927      BINDING AFFINITY PREDICTED BY RF-SCORE:    0.00 PKD
ROOT
HETATM    1  C   UNL     1     -11.562   6.917  70.567  1.00  0.00    -0.396 C  
HETATM    2  C   UNL     1     -11.618   8.132  71.493  1.00  0.00    -0.275 C  
HETATM    3  C   UNL     1     -10.969   7.814  72.836  1.00  0.00    -0.467 C  
ENDROOT
BRANCH   2   4
HETATM    4  N   UNL     1     -10.993   9.300  70.886  1.00  0.00    -0.272 N  
HETATM    5  H   UNL     1      -9.989   9.297  70.708  1.00  0.00     0.000 HD 
BRANCH   4   6
HETATM    6  C   UNL     1     -11.734  10.401  70.552  1.00  0.00    -0.344 C  
HETATM    7  O   UNL     1     -12.945  10.465  70.666  1.00  0.00    -0.368 OA 
BRANCH   6   8
HETATM    8  N   UNL     1     -10.982  11.418  69.984  1.00  0.00    -0.454 N  
HETATM    9  H   UNL     1      -9.976  11.417  70.154  1.00  0.00     0.000 HD 
BRANCH   8  10
HETATM   10  S   UNL     1     -11.610  12.645  69.039  1.00  0.00    -0.332 S  
HETATM   11  O   UNL     1     -12.234  12.076  67.865  1.00  0.00    -0.470 OA 
HETATM   12  O   UNL     1     -12.384  13.451  69.964  1.00  0.00    -0.296 OA 
BRANCH  10  13
HETATM   13  C   UNL     1     -10.252  13.632  68.519  1.00  0.00    -0.234 A  
HETATM   14  C   UNL     1      -9.225  13.115  67.719  1.00  0.00    -0.203 A  
HETATM   15  N   UNL     1      -9.155  15.795  68.652  1.00  0.00    -0.193 NA 
HETATM   16  C   UNL     1      -8.138  13.970  67.469  1.00  0.00    -0.197 A  
HETATM   17  C   UNL     1      -8.142  15.272  67.942  1.00  0.00    -0.138 A  
HETATM   18  C   UNL     1     -10.179  14.957  68.933  1.00  0.00    -0.238 A  
BRANCH  14  19
HETATM   19  N   UNL     1      -9.302  11.854  67.078  1.00  0.00    -0.183 NA 
HETATM   20  H   UNL     1      -9.295  11.045  67.700  1.00  0.00     0.000 HD 
BRANCH  19  21
HETATM   21  C   UNL     1      -9.386  11.561  65.697  1.00  0.00    -0.204 A  
HETATM   22  C   UNL     1     -10.523  11.853  63.566  1.00  0.00    -0.505 A  
HETATM   23  C   UNL     1     -10.299  12.249  64.890  1.00  0.00    -0.319 A  
HETATM   24  C   UNL     1      -9.863  10.740  63.040  1.00  0.00    -0.344 A  
HETATM   25  C   UNL     1      -8.936  10.048  63.819  1.00  0.00    -0.274 A  
HETATM   26  C   UNL     1      -8.671  10.501  65.119  1.00  0.00    -0.197 A  
HETATM   27  C   UNL     1      -8.280   8.790  63.335  1.00  0.00    -0.170 C  
ENDBRANCH  19  21
ENDBRANCH  14  19
ENDBRANCH  10  13
ENDBRANCH   8  10
ENDBRANCH   6   8
ENDBRANCH   4   6
ENDBRANCH   2   4
TORSDOF 7
ENDMDL
MODEL      156
REMARK 921   NORMALIZED FREE ENERGY PREDICTED BY IDOCK:   -4.60 KCAL/MOL
REMARK 922        TOTAL FREE ENERGY PREDICTED BY IDOCK:   -8.33 KCAL/MOL
REMARK 923 INTER-LIGAND FREE ENERGY PREDICTED BY IDOCK:   -7.06 KCAL/MOL
REMARK 924 INTRA-LIGAND FREE ENERGY PREDICTED BY IDOCK:   -1.27 KCAL/MOL
REMARK 927      BINDING AFFINITY PREDICTED BY RF-SCORE:    0.00 PKD
ROOT
HETATM    1  C   UNL     1     -11.516  14.359  69.712  1.00  0.00    -0.328 C  
HETATM    2  C   UNL     1     -11.843  15.802  70.096  1.00  0.00    -0.355 C  
HETATM    3  C   UNL     1     -12.336  15.876  71.537  1.00  0.00    -0.503 C  
ENDROOT
BRANCH   2   4
HETATM    4  N   UNL     1     -10.699  16.683  69.901  1.00  0.00    -0.277 N  
HETATM    5  H   UNL     1     -10.103  16.916  70.695  1.00  0.00     0.000 HD 
BRANCH   4   6
HETATM    6  C   UNL     1     -10.412  17.203  68.668  1.00  0.00    -0.366 C  
HETATM    7  O   UNL     1     -11.111  18.021  68.096  1.00  0.00    -0.118 OA 
BRANCH   6   8
HETATM    8  N   UNL     1      -9.287  16.643  68.082  1.00  0.00    -0.220 N  
HETATM    9  H   UNL     1      -8.652  16.116  68.682  1.00  0.00     0.000 HD 
BRANCH   8  10
HETATM   10  S   UNL     1      -8.900  16.771  66.462  1.00  0.00    -0.299 S  
HETATM   11  O   UNL     1      -8.902  18.165  66.077  1.00  0.00    -0.499 OA 
HETATM   12  O   UNL     1      -7.698  15.971  66.315  1.00  0.00    -0.143 OA 
BRANCH  10  13
HETATM   13  C   UNL     1     -10.170  15.948  65.569  1.00  0.00    -0.365 A  
HETATM   14  C   UNL     1     -10.332  14.558  65.625  1.00  0.00    -0.349 A  
HETATM   15  N   UNL     1     -11.996  16.168  63.983  1.00  0.00    -0.858 NA 
HETATM   16  C   UNL     1     -11.308  14.009  64.776  1.00  0.00    -0.366 A  
HETATM   17  C   UNL     1     -12.100  14.829  63.990  1.00  0.00    -0.161 A  
HETATM   18  C   UNL     1     -11.025  16.693  64.765  1.00  0.00    -0.109 A  
BRANCH  14  19
HETATM   19  N   UNL     1      -9.658  13.737  66.561  1.00  0.00    -0.282 NA 
HETATM   20  H   UNL     1      -9.030  14.224  67.201  1.00  0.00     0.000 HD 
BRANCH  19  21
HETATM   21  C   UNL     1      -9.733  12.334  66.731  1.00  0.00    -0.213 A  
HETATM   22  C   UNL     1     -10.816  10.409  67.751  1.00  0.00    -0.351 A  
HETATM   23  C   UNL     1     -10.812  11.769  67.418  1.00  0.00    -0.299 A  
HETATM   24  C   UNL     1      -9.723   9.602  67.433  1.00  0.00    -0.198 A  
HETATM   25  C   UNL     1      -8.642  10.137  66.733  1.00  0.00    -0.129 A  
HETATM   26  C   UNL     1      -8.686  11.483  66.345  1.00  0.00    -0.179 A  
HETATM   27  C   UNL     1      -7.403   9.337  66.459  1.00  0.00    -0.092 C  
ENDBRANCH  19  21
ENDBRANCH  14  19
ENDBRANCH  10  13
ENDBRANCH   8  10
ENDBRANCH   6   8
ENDBRANCH   4   6
ENDBRANCH   2   4
TORSDOF 7
ENDMDL
MODEL      157
REMARK 921   NORMALIZED FREE ENERGY PREDICTED BY IDOCK:   -4.58 KCAL/MOL
REMARK 922        TOTAL FREE ENERGY PREDICTED BY IDOCK:   -8.31 KCAL/MOL
REMARK 923 INTER-LIGAND FREE ENERGY PREDICTED BY IDOCK:   -6.57 KCAL/MOL
REMARK 924 INTRA-LIGAND FREE ENERGY PREDICTED BY IDOCK:   -1.73 KCAL/MOL
REMARK 927      BINDING AFFINITY PREDICTED BY RF-SCORE:    0.00 PKD
ROOT
HETATM    1  C   UNL     1      -6.980   9.664  64.592  1.00  0.00    -0.112 C  
HETATM    2  C   UNL     1      -8.059  10.266  65.493  1.00  0.00    -0.156 C  
HETATM    3  C   UNL     1      -9.447   9.988  64.927  1.00  0.00    -0.355 C  
ENDROOT
BRANCH   2   4
HETATM    4  N   UNL     1      -7.954   9.773  66.860  1.00  0.00    -0.105 N  
HETATM    5  H   UNL     1      -7.652   8.813  67.026  1.00  0.00     0.000 HD 
BRANCH   4   6
HETATM    6  C   UNL     1      -8.256  10.580  67.924  1.00  0.00    -0.107 C  
HETATM    7  O   UNL     1      -8.015  11.773  67.962  1.00  0.00    -0.125 OA 
BRANCH   6   8
HETATM    8  N   UNL     1      -8.787   9.891  69.004  1.00  0.00    -0.146 N  
HETATM    9  H   UNL     1      -8.878  10.391  69.888  1.00  0.00     0.000 HD 
BRANCH   8  10
HETATM   10  S   UNL     1      -9.287   8.297  68.956  1.00  0.00    -0.147 S  
HETATM   11  O   UNL     1     -10.334   8.151  67.970  1.00  0.00    -0.208 OA 
HETATM   12  O   UNL     1      -8.056   7.537  68.838  1.00  0.00    -0.123 OA 
BRANCH  10  13
HETATM   13  C   UNL     1      -9.961   7.929  70.537  1.00  0.00    -0.191 A  
HETATM   14  C   UNL     1     -11.135   8.537  71.000  1.00  0.00    -0.260 A  
HETATM   15  N   UNL     1      -9.685   6.712  72.620  1.00  0.00    -0.160 NA 
HETATM   16  C   UNL     1     -11.507   8.247  72.325  1.00  0.00    -0.452 A  
HETATM   17  C   UNL     1     -10.772   7.351  73.082  1.00  0.00    -0.387 A  
HETATM   18  C   UNL     1      -9.301   7.027  71.362  1.00  0.00    -0.155 A  
BRANCH  14  19
HETATM   19  N   UNL     1     -11.990   9.304  70.172  1.00  0.00    -0.454 NA 
HETATM   20  H   UNL     1     -12.527   8.774  69.485  1.00  0.00     0.000 HD 
BRANCH  19  21
HETATM   21  C   UNL     1     -12.201  10.702  70.163  1.00  0.00    -0.320 A  
HETATM   22  C   UNL     1     -11.653  12.892  69.254  1.00  0.00    -0.368 A  
HETATM   23  C   UNL     1     -11.602  11.495  69.177  1.00  0.00    -0.382 A  
HETATM   24  C   UNL     1     -12.274  13.517  70.337  1.00  0.00    -0.426 A  
HETATM   25  C   UNL     1     -12.893  12.750  71.323  1.00  0.00    -0.355 A  
HETATM   26  C   UNL     1     -12.894  11.354  71.194  1.00  0.00    -0.440 A  
HETATM   27  C   UNL     1     -13.482  13.372  72.555  1.00  0.00    -0.640 C  
ENDBRANCH  19  21
ENDBRANCH  14  19
ENDBRANCH  10  13
ENDBRANCH   8  10
ENDBRANCH   6   8
ENDBRANCH   4   6
ENDBRANCH   2   4
TORSDOF 7
ENDMDL
MODEL      158
REMARK 921   NORMALIZED FREE ENERGY PREDICTED BY IDOCK:   -4.57 KCAL/MOL
REMARK 922        TOTAL FREE ENERGY PREDICTED BY IDOCK:   -8.30 KCAL/MOL
REMARK 923 INTER-LIGAND FREE ENERGY PREDICTED BY IDOCK:   -7.11 KCAL/MOL
REMARK 924 INTRA-LIGAND FREE ENERGY PREDICTED BY IDOCK:   -1.19 KCAL/MOL
REMARK 927      BINDING AFFINITY PREDICTED BY RF-SCORE:    0.00 PKD
ROOT
HETATM    1  C   UNL     1      -6.665   9.958  66.501  1.00  0.00    -0.080 C  
HETATM    2  C   UNL     1      -6.838   9.154  67.791  1.00  0.00    -0.076 C  
HETATM    3  C   UNL     1      -5.528   8.478  68.181  1.00  0.00    -0.035 C  
ENDROOT
BRANCH   2   4
HETATM    4  N   UNL     1      -7.329   9.987  68.881  1.00  0.00    -0.076 N  
HETATM    5  H   UNL     1      -6.675  10.572  69.401  1.00  0.00     0.000 HD 
BRANCH   4   6
HETATM    6  C   UNL     1      -8.656   9.996  69.217  1.00  0.00    -0.168 C  
HETATM    7  O   UNL     1      -9.153   9.249  70.041  1.00  0.00    -0.175 OA 
BRANCH   6   8
HETATM    8  N   UNL     1      -9.408  10.884  68.464  1.00  0.00    -0.174 N  
HETATM    9  H   UNL     1      -9.176  11.875  68.527  1.00  0.00     0.000 HD 
BRANCH   8  10
HETATM   10  S   UNL     1     -10.668  10.443  67.460  1.00  0.00    -0.295 S  
HETATM   11  O   UNL     1     -10.157   9.643  66.370  1.00  0.00    -0.240 OA 
HETATM   12  O   UNL     1     -11.672   9.903  68.359  1.00  0.00     0.054 OA 
BRANCH  10  13
HETATM   13  C   UNL     1     -11.331  11.928  66.793  1.00  0.00    -0.330 A  
HETATM   14  C   UNL     1     -11.604  13.043  67.597  1.00  0.00    -0.355 A  
HETATM   15  N   UNL     1     -12.186  13.054  64.819  1.00  0.00    -0.410 NA 
HETATM   16  C   UNL     1     -12.240  14.125  66.966  1.00  0.00    -0.374 A  
HETATM   17  C   UNL     1     -12.507  14.091  65.608  1.00  0.00    -0.504 A  
HETATM   18  C   UNL     1     -11.617  11.992  65.435  1.00  0.00    -0.286 A  
BRANCH  14  19
HETATM   19  N   UNL     1     -11.164  13.156  68.938  1.00  0.00    -0.265 NA 
HETATM   20  H   UNL     1     -10.161  13.293  69.062  1.00  0.00     0.000 HD 
BRANCH  19  21
HETATM   21  C   UNL     1     -11.923  13.106  70.131  1.00  0.00    -0.310 A  
HETATM   22  C   UNL     1     -13.158  11.797  71.768  1.00  0.00    -0.480 A  
HETATM   23  C   UNL     1     -12.263  11.872  70.694  1.00  0.00    -0.424 A  
HETATM   24  C   UNL     1     -13.754  12.954  72.272  1.00  0.00    -0.553 A  
HETATM   25  C   UNL     1     -13.419  14.199  71.740  1.00  0.00    -0.471 A  
HETATM   26  C   UNL     1     -12.467  14.262  70.713  1.00  0.00    -0.428 A  
HETATM   27  C   UNL     1     -14.107  15.457  72.179  1.00  0.00    -0.651 C  
ENDBRANCH  19  21
ENDBRANCH  14  19
ENDBRANCH  10  13
ENDBRANCH   8  10
ENDBRANCH   6   8
ENDBRANCH   4   6
ENDBRANCH   2   4
TORSDOF 7
ENDMDL
MODEL      159
REMARK 921   NORMALIZED FREE ENERGY PREDICTED BY IDOCK:   -4.57 KCAL/MOL
REMARK 922        TOTAL FREE ENERGY PREDICTED BY IDOCK:   -8.29 KCAL/MOL
REMARK 923 INTER-LIGAND FREE ENERGY PREDICTED BY IDOCK:   -6.71 KCAL/MOL
REMARK 924 INTRA-LIGAND FREE ENERGY PREDICTED BY IDOCK:   -1.58 KCAL/MOL
REMARK 927      BINDING AFFINITY PREDICTED BY RF-SCORE:    0.00 PKD
ROOT
HETATM    1  C   UNL     1     -11.482   6.856  70.572  1.00  0.00    -0.390 C  
HETATM    2  C   UNL     1     -11.508   8.078  71.490  1.00  0.00    -0.264 C  
HETATM    3  C   UNL     1     -11.046   7.705  72.894  1.00  0.00    -0.448 C  
ENDROOT
BRANCH   2   4
HETATM    4  N   UNL     1     -10.700   9.168  70.958  1.00  0.00    -0.266 N  
HETATM    5  H   UNL     1      -9.739   9.284  71.278  1.00  0.00     0.000 HD 
BRANCH   4   6
HETATM    6  C   UNL     1     -11.213  10.039  70.035  1.00  0.00    -0.288 C  
HETATM    7  O   UNL     1     -12.115  10.824  70.268  1.00  0.00    -0.291 OA 
BRANCH   6   8
HETATM    8  N   UNL     1     -10.666   9.885  68.770  1.00  0.00    -0.217 N  
HETATM    9  H   UNL     1     -11.248   9.459  68.049  1.00  0.00     0.000 HD 
BRANCH   8  10
HETATM   10  S   UNL     1      -9.118  10.348  68.345  1.00  0.00    -0.153 S  
HETATM   11  O   UNL     1      -8.939  11.752  68.640  1.00  0.00    -0.155 OA 
HETATM   12  O   UNL     1      -8.262   9.353  68.964  1.00  0.00    -0.102 OA 
BRANCH  10  13
HETATM   13  C   UNL     1      -8.979  10.126  66.608  1.00  0.00    -0.140 A  
HETATM   14  C   UNL     1      -9.951  10.607  65.720  1.00  0.00    -0.257 A  
HETATM   15  N   UNL     1      -7.705   9.143  64.789  1.00  0.00    -0.107 NA 
HETATM   16  C   UNL     1      -9.785  10.264  64.367  1.00  0.00    -0.381 A  
HETATM   17  C   UNL     1      -8.675   9.548  63.954  1.00  0.00    -0.216 A  
HETATM   18  C   UNL     1      -7.889   9.432  66.098  1.00  0.00    -0.100 A  
BRANCH  14  19
HETATM   19  N   UNL     1     -10.983  11.495  66.109  1.00  0.00    -0.286 NA 
HETATM   20  H   UNL     1     -11.708  11.092  66.703  1.00  0.00     0.000 HD 
BRANCH  19  21
HETATM   21  C   UNL     1     -11.149  12.863  65.789  1.00  0.00    -0.284 A  
HETATM   22  C   UNL     1     -12.218  14.575  64.430  1.00  0.00    -0.480 A  
HETATM   23  C   UNL     1     -12.151  13.256  64.895  1.00  0.00    -0.440 A  
HETATM   24  C   UNL     1     -11.262  15.512  64.825  1.00  0.00    -0.399 A  
HETATM   25  C   UNL     1     -10.263  15.150  65.729  1.00  0.00    -0.365 A  
HETATM   26  C   UNL     1     -10.253  13.844  66.239  1.00  0.00    -0.299 A  
HETATM   27  C   UNL     1      -9.156  16.090  66.103  1.00  0.00    -0.387 C  
ENDBRANCH  19  21
ENDBRANCH  14  19
ENDBRANCH  10  13
ENDBRANCH   8  10
ENDBRANCH   6   8
ENDBRANCH   4   6
ENDBRANCH   2   4
TORSDOF 7
ENDMDL
MODEL      160
REMARK 921   NORMALIZED FREE ENERGY PREDICTED BY IDOCK:   -4.57 KCAL/MOL
REMARK 922        TOTAL FREE ENERGY PREDICTED BY IDOCK:   -8.29 KCAL/MOL
REMARK 923 INTER-LIGAND FREE ENERGY PREDICTED BY IDOCK:   -6.58 KCAL/MOL
REMARK 924 INTRA-LIGAND FREE ENERGY PREDICTED BY IDOCK:   -1.71 KCAL/MOL
REMARK 927      BINDING AFFINITY PREDICTED BY RF-SCORE:    0.00 PKD
ROOT
HETATM    1  C   UNL     1     -10.447   7.928  66.988  1.00  0.00    -0.419 C  
HETATM    2  C   UNL     1      -9.981   7.905  68.444  1.00  0.00    -0.180 C  
HETATM    3  C   UNL     1      -8.849   6.901  68.629  1.00  0.00    -0.124 C  
ENDROOT
BRANCH   2   4
HETATM    4  N   UNL     1      -9.573   9.228  68.900  1.00  0.00    -0.153 N  
HETATM    5  H   UNL     1      -8.584   9.478  68.893  1.00  0.00     0.000 HD 
BRANCH   4   6
HETATM    6  C   UNL     1     -10.496  10.138  69.336  1.00  0.00    -0.233 C  
HETATM    7  O   UNL     1     -11.152  10.006  70.354  1.00  0.00    -0.280 OA 
BRANCH   6   8
HETATM    8  N   UNL     1     -10.683  11.196  68.459  1.00  0.00    -0.188 N  
HETATM    9  H   UNL     1     -11.639  11.506  68.286  1.00  0.00     0.000 HD 
BRANCH   8  10
HETATM   10  S   UNL     1      -9.450  11.997  67.666  1.00  0.00    -0.190 S  
HETATM   11  O   UNL     1      -8.335  12.176  68.568  1.00  0.00    -0.152 OA 
HETATM   12  O   UNL     1      -9.281  11.261  66.427  1.00  0.00    -0.180 OA 
BRANCH  10  13
HETATM   13  C   UNL     1     -10.070  13.583  67.232  1.00  0.00    -0.235 A  
HETATM   14  C   UNL     1     -10.523  14.490  68.199  1.00  0.00    -0.239 A  
HETATM   15  N   UNL     1     -10.653  15.105  65.431  1.00  0.00    -0.359 NA 
HETATM   16  C   UNL     1     -11.103  15.677  67.719  1.00  0.00    -0.311 A  
HETATM   17  C   UNL     1     -11.147  15.939  66.360  1.00  0.00    -0.015 A  
HETATM   18  C   UNL     1     -10.138  13.942  65.891  1.00  0.00    -0.317 A  
BRANCH  14  19
HETATM   19  N   UNL     1     -10.311  14.312  69.588  1.00  0.00    -0.426 NA 
HETATM   20  H   UNL     1      -9.334  14.272  69.881  1.00  0.00     0.000 HD 
BRANCH  19  21
HETATM   21  C   UNL     1     -11.264  14.181  70.625  1.00  0.00     0.265 A  
HETATM   22  C   UNL     1     -13.283  13.130  71.485  1.00  0.00    -0.368 A  
HETATM   23  C   UNL     1     -12.227  13.168  70.566  1.00  0.00    -0.405 A  
HETATM   24  C   UNL     1     -13.410  14.126  72.455  1.00  0.00    -0.616 A  
HETATM   25  C   UNL     1     -12.453  15.137  72.546  1.00  0.00    -0.442 A  
HETATM   26  C   UNL     1     -11.364  15.119  71.663  1.00  0.00    -0.394 A  
HETATM   27  C   UNL     1     -12.602  16.283  73.502  1.00  0.00    -0.622 C  
ENDBRANCH  19  21
ENDBRANCH  14  19
ENDBRANCH  10  13
ENDBRANCH   8  10
ENDBRANCH   6   8
ENDBRANCH   4   6
ENDBRANCH   2   4
TORSDOF 7
ENDMDL
MODEL      161
REMARK 921   NORMALIZED FREE ENERGY PREDICTED BY IDOCK:   -4.57 KCAL/MOL
REMARK 922        TOTAL FREE ENERGY PREDICTED BY IDOCK:   -8.29 KCAL/MOL
REMARK 923 INTER-LIGAND FREE ENERGY PREDICTED BY IDOCK:   -6.81 KCAL/MOL
REMARK 924 INTRA-LIGAND FREE ENERGY PREDICTED BY IDOCK:   -1.48 KCAL/MOL
REMARK 927      BINDING AFFINITY PREDICTED BY RF-SCORE:    0.00 PKD
ROOT
HETATM    1  C   UNL     1     -11.260   6.087  69.505  1.00  0.00    -0.416 C  
HETATM    2  C   UNL     1      -9.764   5.770  69.487  1.00  0.00    -0.153 C  
HETATM    3  C   UNL     1      -9.535   4.271  69.332  1.00  0.00    -0.256 C  
ENDROOT
BRANCH   2   4
HETATM    4  N   UNL     1      -9.071   6.506  68.437  1.00  0.00    -0.124 N  
HETATM    5  H   UNL     1      -9.355   6.382  67.465  1.00  0.00     0.000 HD 
BRANCH   4   6
HETATM    6  C   UNL     1      -8.045   7.360  68.736  1.00  0.00    -0.128 C  
HETATM    7  O   UNL     1      -6.887   7.172  68.409  1.00  0.00    -0.068 OA 
BRANCH   6   8
HETATM    8  N   UNL     1      -8.433   8.429  69.529  1.00  0.00    -0.123 N  
HETATM    9  H   UNL     1      -8.176   8.407  70.516  1.00  0.00     0.000 HD 
BRANCH   8  10
HETATM   10  S   UNL     1      -9.292   9.753  68.979  1.00  0.00    -0.170 S  
HETATM   11  O   UNL     1      -8.495  10.947  69.148  1.00  0.00    -0.137 OA 
HETATM   12  O   UNL     1      -9.756   9.359  67.662  1.00  0.00    -0.147 OA 
BRANCH  10  13
HETATM   13  C   UNL     1     -10.718   9.892  69.998  1.00  0.00    -0.292 A  
HETATM   14  C   UNL     1     -11.825  10.662  69.620  1.00  0.00    -0.286 A  
HETATM   15  N   UNL     1     -11.750   9.322  72.121  1.00  0.00    -0.257 NA 
HETATM   16  C   UNL     1     -12.852  10.788  70.572  1.00  0.00    -0.335 A  
HETATM   17  C   UNL     1     -12.777  10.117  71.781  1.00  0.00    -0.434 A  
HETATM   18  C   UNL     1     -10.740   9.239  71.225  1.00  0.00    -0.352 A  
BRANCH  14  19
HETATM   19  N   UNL     1     -11.991  11.194  68.318  1.00  0.00    -0.692 NA 
HETATM   20  H   UNL     1     -12.216  10.514  67.592  1.00  0.00     0.000 HD 
BRANCH  19  21
HETATM   21  C   UNL     1     -11.888  12.536  67.885  1.00  0.00    -0.323 A  
HETATM   22  C   UNL     1     -11.502  14.126  66.084  1.00  0.00    -0.350 A  
HETATM   23  C   UNL     1     -11.783  12.826  66.520  1.00  0.00    -0.463 A  
HETATM   24  C   UNL     1     -11.288  15.150  67.008  1.00  0.00    -0.277 A  
HETATM   25  C   UNL     1     -11.403  14.891  68.374  1.00  0.00    -0.320 A  
HETATM   26  C   UNL     1     -11.755  13.600  68.791  1.00  0.00    -0.383 A  
HETATM   27  C   UNL     1     -11.082  15.932  69.405  1.00  0.00    -0.322 C  
ENDBRANCH  19  21
ENDBRANCH  14  19
ENDBRANCH  10  13
ENDBRANCH   8  10
ENDBRANCH   6   8
ENDBRANCH   4   6
ENDBRANCH   2   4
TORSDOF 7
ENDMDL
MODEL      162
REMARK 921   NORMALIZED FREE ENERGY PREDICTED BY IDOCK:   -4.55 KCAL/MOL
REMARK 922        TOTAL FREE ENERGY PREDICTED BY IDOCK:   -8.27 KCAL/MOL
REMARK 923 INTER-LIGAND FREE ENERGY PREDICTED BY IDOCK:   -6.47 KCAL/MOL
REMARK 924 INTRA-LIGAND FREE ENERGY PREDICTED BY IDOCK:   -1.80 KCAL/MOL
REMARK 927      BINDING AFFINITY PREDICTED BY RF-SCORE:    0.00 PKD
ROOT
HETATM    1  C   UNL     1      -8.752   4.970  71.676  1.00  0.00    -0.141 C  
HETATM    2  C   UNL     1      -9.751   5.985  71.121  1.00  0.00    -0.177 C  
HETATM    3  C   UNL     1     -10.428   5.442  69.868  1.00  0.00    -0.378 C  
ENDROOT
BRANCH   2   4
HETATM    4  N   UNL     1     -10.746   6.360  72.118  1.00  0.00    -0.220 N  
HETATM    5  H   UNL     1     -11.459   5.686  72.395  1.00  0.00     0.000 HD 
BRANCH   4   6
HETATM    6  C   UNL     1     -10.736   7.604  72.689  1.00  0.00    -0.321 C  
HETATM    7  O   UNL     1      -9.722   8.243  72.909  1.00  0.00    -0.270 OA 
BRANCH   6   8
HETATM    8  N   UNL     1     -11.993   8.041  73.077  1.00  0.00    -0.523 N  
HETATM    9  H   UNL     1     -12.192   8.088  74.076  1.00  0.00     0.000 HD 
BRANCH   8  10
HETATM   10  S   UNL     1     -13.205   8.496  72.021  1.00  0.00    -0.370 S  
HETATM   11  O   UNL     1     -13.194   7.621  70.871  1.00  0.00    -0.080 OA 
HETATM   12  O   UNL     1     -14.389   8.599  72.854  1.00  0.00    -0.474 OA 
BRANCH  10  13
HETATM   13  C   UNL     1     -12.823  10.124  71.480  1.00  0.00    -0.443 A  
HETATM   14  C   UNL     1     -11.960  10.363  70.402  1.00  0.00    -0.320 A  
HETATM   15  N   UNL     1     -13.104  12.505  71.872  1.00  0.00    -0.407 NA 
HETATM   16  C   UNL     1     -11.642  11.707  70.142  1.00  0.00    -0.303 A  
HETATM   17  C   UNL     1     -12.222  12.723  70.883  1.00  0.00    -0.191 A  
HETATM   18  C   UNL     1     -13.372  11.209  72.153  1.00  0.00    -0.165 A  
BRANCH  14  19
HETATM   19  N   UNL     1     -11.514   9.343  69.527  1.00  0.00    -0.436 NA 
HETATM   20  H   UNL     1     -12.184   8.594  69.348  1.00  0.00     0.000 HD 
BRANCH  19  21
HETATM   21  C   UNL     1     -10.270   9.218  68.865  1.00  0.00    -0.202 A  
HETATM   22  C   UNL     1      -7.840   9.312  68.951  1.00  0.00    -0.087 A  
HETATM   23  C   UNL     1      -9.080   9.256  69.600  1.00  0.00    -0.173 A  
HETATM   24  C   UNL     1      -7.775   9.367  67.558  1.00  0.00    -0.091 A  
HETATM   25  C   UNL     1      -8.946   9.314  66.802  1.00  0.00    -0.154 A  
HETATM   26  C   UNL     1     -10.174   9.185  67.466  1.00  0.00    -0.304 A  
HETATM   27  C   UNL     1      -8.933   9.473  65.311  1.00  0.00    -0.244 C  
ENDBRANCH  19  21
ENDBRANCH  14  19
ENDBRANCH  10  13
ENDBRANCH   8  10
ENDBRANCH   6   8
ENDBRANCH   4   6
ENDBRANCH   2   4
TORSDOF 7
ENDMDL
MODEL      163
REMARK 921   NORMALIZED FREE ENERGY PREDICTED BY IDOCK:   -4.55 KCAL/MOL
REMARK 922        TOTAL FREE ENERGY PREDICTED BY IDOCK:   -8.27 KCAL/MOL
REMARK 923 INTER-LIGAND FREE ENERGY PREDICTED BY IDOCK:   -7.24 KCAL/MOL
REMARK 924 INTRA-LIGAND FREE ENERGY PREDICTED BY IDOCK:   -1.03 KCAL/MOL
REMARK 927      BINDING AFFINITY PREDICTED BY RF-SCORE:    0.00 PKD
ROOT
HETATM    1  C   UNL     1      -9.819   3.250  72.065  1.00  0.00    -0.240 C  
HETATM    2  C   UNL     1     -10.331   4.651  72.397  1.00  0.00    -0.199 C  
HETATM    3  C   UNL     1     -11.453   4.583  73.426  1.00  0.00    -0.322 C  
ENDROOT
BRANCH   2   4
HETATM    4  N   UNL     1      -9.257   5.519  72.867  1.00  0.00    -0.135 N  
HETATM    5  H   UNL     1      -8.612   5.178  73.579  1.00  0.00     0.000 HD 
BRANCH   4   6
HETATM    6  C   UNL     1      -9.104   6.783  72.365  1.00  0.00    -0.134 C  
HETATM    7  O   UNL     1      -8.880   7.764  73.053  1.00  0.00    -0.152 OA 
BRANCH   6   8
HETATM    8  N   UNL     1      -9.314   6.861  70.997  1.00  0.00    -0.156 N  
HETATM    9  H   UNL     1      -9.078   6.046  70.433  1.00  0.00     0.000 HD 
BRANCH   8  10
HETATM   10  S   UNL     1      -9.927   8.201  70.209  1.00  0.00    -0.191 S  
HETATM   11  O   UNL     1      -9.091   9.347  70.488  1.00  0.00    -0.236 OA 
HETATM   12  O   UNL     1     -10.129   7.754  68.844  1.00  0.00    -0.185 OA 
BRANCH  10  13
HETATM   13  C   UNL     1     -11.521   8.503  70.885  1.00  0.00    -0.267 A  
HETATM   14  C   UNL     1     -11.992   9.801  71.120  1.00  0.00    -0.376 A  
HETATM   15  N   UNL     1     -13.547   7.527  71.803  1.00  0.00    -0.347 NA 
HETATM   16  C   UNL     1     -13.233   9.907  71.771  1.00  0.00    -0.535 A  
HETATM   17  C   UNL     1     -13.961   8.772  72.087  1.00  0.00    -0.460 A  
HETATM   18  C   UNL     1     -12.331   7.424  71.219  1.00  0.00    -0.346 A  
BRANCH  14  19
HETATM   19  N   UNL     1     -11.342  10.961  70.632  1.00  0.00    -0.410 NA 
HETATM   20  H   UNL     1     -10.623  11.351  71.242  1.00  0.00     0.000 HD 
BRANCH  19  21
HETATM   21  C   UNL     1     -11.551  11.654  69.416  1.00  0.00    -0.327 A  
HETATM   22  C   UNL     1     -11.530  11.656  66.983  1.00  0.00    -0.336 A  
HETATM   23  C   UNL     1     -11.503  10.964  68.200  1.00  0.00    -0.368 A  
HETATM   24  C   UNL     1     -11.569  13.052  66.966  1.00  0.00    -0.413 A  
HETATM   25  C   UNL     1     -11.635  13.762  68.165  1.00  0.00    -0.370 A  
HETATM   26  C   UNL     1     -11.679  13.050  69.371  1.00  0.00    -0.386 A  
HETATM   27  C   UNL     1     -11.575  15.260  68.200  1.00  0.00    -0.344 C  
ENDBRANCH  19  21
ENDBRANCH  14  19
ENDBRANCH  10  13
ENDBRANCH   8  10
ENDBRANCH   6   8
ENDBRANCH   4   6
ENDBRANCH   2   4
TORSDOF 7
ENDMDL
MODEL      164
REMARK 921   NORMALIZED FREE ENERGY PREDICTED BY IDOCK:   -4.54 KCAL/MOL
REMARK 922        TOTAL FREE ENERGY PREDICTED BY IDOCK:   -8.25 KCAL/MOL
REMARK 923 INTER-LIGAND FREE ENERGY PREDICTED BY IDOCK:   -6.92 KCAL/MOL
REMARK 924 INTRA-LIGAND FREE ENERGY PREDICTED BY IDOCK:   -1.32 KCAL/MOL
REMARK 927      BINDING AFFINITY PREDICTED BY RF-SCORE:    0.00 PKD
ROOT
HETATM    1  C   UNL     1      -6.838  12.058  68.999  1.00  0.00    -0.105 C  
HETATM    2  C   UNL     1      -6.839  12.568  67.557  1.00  0.00    -0.150 C  
HETATM    3  C   UNL     1      -6.269  11.514  66.615  1.00  0.00    -0.113 C  
ENDROOT
BRANCH   2   4
HETATM    4  N   UNL     1      -8.174  12.969  67.130  1.00  0.00    -0.312 N  
HETATM    5  H   UNL     1      -8.444  12.855  66.153  1.00  0.00     0.000 HD 
BRANCH   4   6
HETATM    6  C   UNL     1      -9.069  13.496  68.020  1.00  0.00    -0.201 C  
HETATM    7  O   UNL     1      -9.008  14.634  68.452  1.00  0.00    -0.168 OA 
BRANCH   6   8
HETATM    8  N   UNL     1     -10.013  12.581  68.459  1.00  0.00    -0.334 N  
HETATM    9  H   UNL     1      -9.724  11.899  69.160  1.00  0.00     0.000 HD 
BRANCH   8  10
HETATM   10  S   UNL     1     -11.593  12.518  67.919  1.00  0.00    -0.359 S  
HETATM   11  O   UNL     1     -12.277  11.417  68.559  1.00  0.00    -0.557 OA 
HETATM   12  O   UNL     1     -12.081  13.876  68.076  1.00  0.00    -0.367 OA 
BRANCH  10  13
HETATM   13  C   UNL     1     -11.528  12.200  66.192  1.00  0.00    -0.371 A  
HETATM   14  C   UNL     1     -10.616  11.290  65.641  1.00  0.00    -0.244 A  
HETATM   15  N   UNL     1     -12.388  12.774  63.995  1.00  0.00    -0.570 NA 
HETATM   16  C   UNL     1     -10.583  11.211  64.239  1.00  0.00    -0.425 A  
HETATM   17  C   UNL     1     -11.465  11.952  63.471  1.00  0.00    -0.430 A  
HETATM   18  C   UNL     1     -12.387  12.886  65.343  1.00  0.00    -0.485 A  
BRANCH  14  19
HETATM   19  N   UNL     1      -9.846  10.396  66.424  1.00  0.00    -0.204 NA 
HETATM   20  H   UNL     1      -9.296  10.825  67.169  1.00  0.00     0.000 HD 
BRANCH  19  21
HETATM   21  C   UNL     1      -9.732   8.990  66.317  1.00  0.00    -0.275 A  
HETATM   22  C   UNL     1     -10.337   6.777  67.129  1.00  0.00    -0.327 A  
HETATM   23  C   UNL     1     -10.553   8.160  67.087  1.00  0.00    -0.355 A  
HETATM   24  C   UNL     1      -9.272   6.208  66.427  1.00  0.00    -0.166 A  
HETATM   25  C   UNL     1      -8.449   7.012  65.639  1.00  0.00    -0.144 A  
HETATM   26  C   UNL     1      -8.724   8.383  65.552  1.00  0.00    -0.196 A  
HETATM   27  C   UNL     1      -7.235   6.463  64.950  1.00  0.00    -0.067 C  
ENDBRANCH  19  21
ENDBRANCH  14  19
ENDBRANCH  10  13
ENDBRANCH   8  10
ENDBRANCH   6   8
ENDBRANCH   4   6
ENDBRANCH   2   4
TORSDOF 7
ENDMDL
MODEL      165
REMARK 921   NORMALIZED FREE ENERGY PREDICTED BY IDOCK:   -4.54 KCAL/MOL
REMARK 922        TOTAL FREE ENERGY PREDICTED BY IDOCK:   -8.24 KCAL/MOL
REMARK 923 INTER-LIGAND FREE ENERGY PREDICTED BY IDOCK:   -6.38 KCAL/MOL
REMARK 924 INTRA-LIGAND FREE ENERGY PREDICTED BY IDOCK:   -1.86 KCAL/MOL
REMARK 927      BINDING AFFINITY PREDICTED BY RF-SCORE:    0.00 PKD
ROOT
HETATM    1  C   UNL     1      -9.967   4.303  73.201  1.00  0.00    -0.191 C  
HETATM    2  C   UNL     1      -9.866   5.330  72.073  1.00  0.00    -0.174 C  
HETATM    3  C   UNL     1      -9.810   4.635  70.717  1.00  0.00    -0.284 C  
ENDROOT
BRANCH   2   4
HETATM    4  N   UNL     1     -10.968   6.283  72.114  1.00  0.00    -0.244 N  
HETATM    5  H   UNL     1     -11.816   6.095  71.578  1.00  0.00     0.000 HD 
BRANCH   4   6
HETATM    6  C   UNL     1     -10.882   7.427  72.860  1.00  0.00    -0.354 C  
HETATM    7  O   UNL     1      -9.848   7.839  73.355  1.00  0.00    -0.290 OA 
BRANCH   6   8
HETATM    8  N   UNL     1     -12.109   8.036  73.077  1.00  0.00    -0.514 N  
HETATM    9  H   UNL     1     -12.358   8.274  74.037  1.00  0.00     0.000 HD 
BRANCH   8  10
HETATM   10  S   UNL     1     -13.207   8.407  71.874  1.00  0.00    -0.357 S  
HETATM   11  O   UNL     1     -13.299   7.300  70.949  1.00  0.00    -0.185 OA 
HETATM   12  O   UNL     1     -14.383   8.866  72.589  1.00  0.00    -0.613 OA 
BRANCH  10  13
HETATM   13  C   UNL     1     -12.565   9.796  71.010  1.00  0.00    -0.314 A  
HETATM   14  C   UNL     1     -11.648   9.656  69.960  1.00  0.00    -0.088 A  
HETATM   15  N   UNL     1     -12.486  12.218  70.849  1.00  0.00    -0.342 NA 
HETATM   16  C   UNL     1     -11.121  10.846  69.429  1.00  0.00    -0.317 A  
HETATM   17  C   UNL     1     -11.556  12.077  69.891  1.00  0.00    -0.238 A  
HETATM   18  C   UNL     1     -12.958  11.073  71.393  1.00  0.00    -0.414 A  
BRANCH  14  19
HETATM   19  N   UNL     1     -11.343   8.410  69.360  1.00  0.00    -0.348 NA 
HETATM   20  H   UNL     1     -12.080   7.706  69.410  1.00  0.00     0.000 HD 
BRANCH  19  21
HETATM   21  C   UNL     1     -10.159   8.007  68.700  1.00  0.00    -0.199 A  
HETATM   22  C   UNL     1      -9.074   7.128  66.707  1.00  0.00    -0.169 A  
HETATM   23  C   UNL     1     -10.188   7.697  67.336  1.00  0.00    -0.320 A  
HETATM   24  C   UNL     1      -7.926   6.827  67.442  1.00  0.00    -0.114 A  
HETATM   25  C   UNL     1      -7.865   7.142  68.800  1.00  0.00    -0.122 A  
HETATM   26  C   UNL     1      -8.963   7.777  69.397  1.00  0.00    -0.142 A  
HETATM   27  C   UNL     1      -6.696   6.747  69.651  1.00  0.00    -0.050 C  
ENDBRANCH  19  21
ENDBRANCH  14  19
ENDBRANCH  10  13
ENDBRANCH   8  10
ENDBRANCH   6   8
ENDBRANCH   4   6
ENDBRANCH   2   4
TORSDOF 7
ENDMDL
MODEL      166
REMARK 921   NORMALIZED FREE ENERGY PREDICTED BY IDOCK:   -4.53 KCAL/MOL
REMARK 922        TOTAL FREE ENERGY PREDICTED BY IDOCK:   -8.24 KCAL/MOL
REMARK 923 INTER-LIGAND FREE ENERGY PREDICTED BY IDOCK:   -7.32 KCAL/MOL
REMARK 924 INTRA-LIGAND FREE ENERGY PREDICTED BY IDOCK:   -0.92 KCAL/MOL
REMARK 927      BINDING AFFINITY PREDICTED BY RF-SCORE:    0.00 PKD
ROOT
HETATM    1  C   UNL     1     -11.099  15.599  64.710  1.00  0.00    -0.426 C  
HETATM    2  C   UNL     1     -11.392  14.160  65.134  1.00  0.00    -0.336 C  
HETATM    3  C   UNL     1     -12.821  14.035  65.652  1.00  0.00    -0.442 C  
ENDROOT
BRANCH   2   4
HETATM    4  N   UNL     1     -11.157  13.220  64.046  1.00  0.00    -0.528 N  
HETATM    5  H   UNL     1     -11.675  13.321  63.174  1.00  0.00     0.000 HD 
BRANCH   4   6
HETATM    6  C   UNL     1     -10.251  12.203  64.178  1.00  0.00    -0.343 C  
HETATM    7  O   UNL     1     -10.099  11.318  63.355  1.00  0.00    -0.330 OA 
BRANCH   6   8
HETATM    8  N   UNL     1      -9.576  12.221  65.389  1.00  0.00    -0.429 N  
HETATM    9  H   UNL     1      -9.046  13.059  65.625  1.00  0.00     0.000 HD 
BRANCH   8  10
HETATM   10  S   UNL     1      -9.572  10.963  66.489  1.00  0.00    -0.200 S  
HETATM   11  O   UNL     1     -10.254   9.823  65.919  1.00  0.00    -0.259 OA 
HETATM   12  O   UNL     1      -8.187  10.856  66.908  1.00  0.00    -0.126 OA 
BRANCH  10  13
HETATM   13  C   UNL     1     -10.484  11.509  67.889  1.00  0.00    -0.184 A  
HETATM   14  C   UNL     1     -11.230  10.624  68.678  1.00  0.00    -0.278 A  
HETATM   15  N   UNL     1     -11.197  13.410  69.223  1.00  0.00    -0.246 NA 
HETATM   16  C   UNL     1     -12.008  11.200  69.697  1.00  0.00    -0.429 A  
HETATM   17  C   UNL     1     -11.963  12.564  69.931  1.00  0.00    -0.301 A  
HETATM   18  C   UNL     1     -10.485  12.861  68.212  1.00  0.00    -0.242 A  
BRANCH  14  19
HETATM   19  N   UNL     1     -11.134   9.216  68.564  1.00  0.00    -0.458 NA 
HETATM   20  H   UNL     1     -11.438   8.826  67.672  1.00  0.00     0.000 HD 
BRANCH  19  21
HETATM   21  C   UNL     1     -10.675   8.275  69.515  1.00  0.00    -0.174 A  
HETATM   22  C   UNL     1     -10.824   6.053  70.495  1.00  0.00    -0.382 A  
HETATM   23  C   UNL     1     -11.125   6.951  69.464  1.00  0.00    -0.270 A  
HETATM   24  C   UNL     1     -10.099   6.476  71.610  1.00  0.00    -0.202 A  
HETATM   25  C   UNL     1      -9.625   7.786  71.678  1.00  0.00    -0.191 A  
HETATM   26  C   UNL     1      -9.874   8.652  70.604  1.00  0.00    -0.220 A  
HETATM   27  C   UNL     1      -8.932   8.313  72.898  1.00  0.00    -0.324 C  
ENDBRANCH  19  21
ENDBRANCH  14  19
ENDBRANCH  10  13
ENDBRANCH   8  10
ENDBRANCH   6   8
ENDBRANCH   4   6
ENDBRANCH   2   4
TORSDOF 7
ENDMDL
MODEL      167
REMARK 921   NORMALIZED FREE ENERGY PREDICTED BY IDOCK:   -4.49 KCAL/MOL
REMARK 922        TOTAL FREE ENERGY PREDICTED BY IDOCK:   -8.18 KCAL/MOL
REMARK 923 INTER-LIGAND FREE ENERGY PREDICTED BY IDOCK:   -6.83 KCAL/MOL
REMARK 924 INTRA-LIGAND FREE ENERGY PREDICTED BY IDOCK:   -1.34 KCAL/MOL
REMARK 927      BINDING AFFINITY PREDICTED BY RF-SCORE:    0.00 PKD
ROOT
HETATM    1  C   UNL     1     -11.606  11.954  63.542  1.00  0.00    -0.537 C  
HETATM    2  C   UNL     1     -10.834  13.086  64.221  1.00  0.00    -0.405 C  
HETATM    3  C   UNL     1     -11.706  14.329  64.350  1.00  0.00    -0.405 C  
ENDROOT
BRANCH   2   4
HETATM    4  N   UNL     1     -10.322  12.681  65.524  1.00  0.00    -0.282 N  
HETATM    5  H   UNL     1      -9.473  13.115  65.887  1.00  0.00     0.000 HD 
BRANCH   4   6
HETATM    6  C   UNL     1     -10.963  11.729  66.268  1.00  0.00    -0.300 C  
HETATM    7  O   UNL     1     -12.058  11.889  66.778  1.00  0.00    -0.593 OA 
BRANCH   6   8
HETATM    8  N   UNL     1     -10.208  10.583  66.464  1.00  0.00    -0.224 N  
HETATM    9  H   UNL     1     -10.615   9.692  66.179  1.00  0.00     0.000 HD 
BRANCH   8  10
HETATM   10  S   UNL     1      -8.678  10.560  67.134  1.00  0.00    -0.130 S  
HETATM   11  O   UNL     1      -7.695  10.772  66.095  1.00  0.00    -0.147 OA 
HETATM   12  O   UNL     1      -8.765  11.473  68.259  1.00  0.00    -0.150 OA 
BRANCH  10  13
HETATM   13  C   UNL     1      -8.439   8.953  67.802  1.00  0.00    -0.125 A  
HETATM   14  C   UNL     1      -9.381   8.356  68.650  1.00  0.00    -0.143 A  
HETATM   15  N   UNL     1      -6.947   7.047  68.004  1.00  0.00    -0.080 NA 
HETATM   16  C   UNL     1      -9.021   7.119  69.211  1.00  0.00    -0.138 A  
HETATM   17  C   UNL     1      -7.823   6.513  68.870  1.00  0.00    -0.110 A  
HETATM   18  C   UNL     1      -7.272   8.260  67.502  1.00  0.00    -0.088 A  
BRANCH  14  19
HETATM   19  N   UNL     1     -10.681   8.880  68.854  1.00  0.00    -0.386 NA 
HETATM   20  H   UNL     1     -11.201   9.106  68.006  1.00  0.00     0.000 HD 
BRANCH  19  21
HETATM   21  C   UNL     1     -11.359   9.133  70.069  1.00  0.00    -0.090 A  
HETATM   22  C   UNL     1     -12.575   8.286  71.999  1.00  0.00    -0.387 A  
HETATM   23  C   UNL     1     -11.752   8.069  70.887  1.00  0.00    -0.265 A  
HETATM   24  C   UNL     1     -13.046   9.568  72.289  1.00  0.00    -0.492 A  
HETATM   25  C   UNL     1     -12.654  10.649  71.499  1.00  0.00    -0.517 A  
HETATM   26  C   UNL     1     -11.773  10.424  70.432  1.00  0.00    -0.419 A  
HETATM   27  C   UNL     1     -13.213  12.025  71.709  1.00  0.00    -0.421 C  
ENDBRANCH  19  21
ENDBRANCH  14  19
ENDBRANCH  10  13
ENDBRANCH   8  10
ENDBRANCH   6   8
ENDBRANCH   4   6
ENDBRANCH   2   4
TORSDOF 7
ENDMDL
MODEL      168
REMARK 921   NORMALIZED FREE ENERGY PREDICTED BY IDOCK:   -4.48 KCAL/MOL
REMARK 922        TOTAL FREE ENERGY PREDICTED BY IDOCK:   -8.17 KCAL/MOL
REMARK 923 INTER-LIGAND FREE ENERGY PREDICTED BY IDOCK:   -6.65 KCAL/MOL
REMARK 924 INTRA-LIGAND FREE ENERGY PREDICTED BY IDOCK:   -1.52 KCAL/MOL
REMARK 927      BINDING AFFINITY PREDICTED BY RF-SCORE:    0.00 PKD
ROOT
HETATM    1  C   UNL     1     -10.969   4.940  73.073  1.00  0.00    -0.358 C  
HETATM    2  C   UNL     1     -11.032   6.466  73.142  1.00  0.00    -0.220 C  
HETATM    3  C   UNL     1      -9.796   7.024  73.837  1.00  0.00    -0.354 C  
ENDROOT
BRANCH   2   4
HETATM    4  N   UNL     1     -11.188   7.058  71.819  1.00  0.00    -0.240 N  
HETATM    5  H   UNL     1     -10.458   6.923  71.119  1.00  0.00     0.000 HD 
BRANCH   4   6
HETATM    6  C   UNL     1     -12.298   7.792  71.502  1.00  0.00    -0.320 C  
HETATM    7  O   UNL     1     -13.357   7.714  72.100  1.00  0.00    -0.189 OA 
BRANCH   6   8
HETATM    8  N   UNL     1     -12.134   8.578  70.372  1.00  0.00    -0.449 N  
HETATM    9  H   UNL     1     -12.542   8.244  69.499  1.00  0.00     0.000 HD 
BRANCH   8  10
HETATM   10  S   UNL     1     -11.315  10.033  70.342  1.00  0.00    -0.340 S  
HETATM   11  O   UNL     1     -12.073  11.026  71.070  1.00  0.00    -0.340 OA 
HETATM   12  O   UNL     1      -9.964   9.695  70.751  1.00  0.00    -0.270 OA 
BRANCH  10  13
HETATM   13  C   UNL     1     -11.225  10.531  68.659  1.00  0.00    -0.270 A  
HETATM   14  C   UNL     1     -10.493   9.805  67.710  1.00  0.00    -0.246 A  
HETATM   15  N   UNL     1     -11.829  12.209  67.010  1.00  0.00    -0.594 NA 
HETATM   16  C   UNL     1     -10.402  10.369  66.426  1.00  0.00    -0.278 A  
HETATM   17  C   UNL     1     -11.070  11.544  66.125  1.00  0.00    -0.244 A  
HETATM   18  C   UNL     1     -11.877  11.691  68.259  1.00  0.00    -0.265 A  
BRANCH  14  19
HETATM   19  N   UNL     1      -9.968   8.514  67.961  1.00  0.00    -0.175 NA 
HETATM   20  H   UNL     1      -9.572   8.373  68.890  1.00  0.00     0.000 HD 
BRANCH  19  21
HETATM   21  C   UNL     1      -9.915   7.392  67.101  1.00  0.00    -0.215 A  
HETATM   22  C   UNL     1     -10.762   5.198  66.475  1.00  0.00    -0.262 A  
HETATM   23  C   UNL     1     -10.893   6.395  67.189  1.00  0.00    -0.467 A  
HETATM   24  C   UNL     1      -9.632   4.965  65.689  1.00  0.00    -0.168 A  
HETATM   25  C   UNL     1      -8.651   5.950  65.571  1.00  0.00    -0.150 A  
HETATM   26  C   UNL     1      -8.833   7.170  66.236  1.00  0.00    -0.166 A  
HETATM   27  C   UNL     1      -7.374   5.707  64.823  1.00  0.00    -0.068 C  
ENDBRANCH  19  21
ENDBRANCH  14  19
ENDBRANCH  10  13
ENDBRANCH   8  10
ENDBRANCH   6   8
ENDBRANCH   4   6
ENDBRANCH   2   4
TORSDOF 7
ENDMDL
MODEL      169
REMARK 921   NORMALIZED FREE ENERGY PREDICTED BY IDOCK:   -4.48 KCAL/MOL
REMARK 922        TOTAL FREE ENERGY PREDICTED BY IDOCK:   -8.17 KCAL/MOL
REMARK 923 INTER-LIGAND FREE ENERGY PREDICTED BY IDOCK:   -6.88 KCAL/MOL
REMARK 924 INTRA-LIGAND FREE ENERGY PREDICTED BY IDOCK:   -1.29 KCAL/MOL
REMARK 927      BINDING AFFINITY PREDICTED BY RF-SCORE:    0.00 PKD
ROOT
HETATM    1  C   UNL     1      -9.744   8.609  66.393  1.00  0.00    -0.333 C  
HETATM    2  C   UNL     1      -8.741   9.626  65.849  1.00  0.00    -0.144 C  
HETATM    3  C   UNL     1      -8.778   9.653  64.325  1.00  0.00    -0.229 C  
ENDROOT
BRANCH   2   4
HETATM    4  N   UNL     1      -8.978  10.958  66.391  1.00  0.00    -0.169 N  
HETATM    5  H   UNL     1      -9.337  11.692  65.781  1.00  0.00     0.000 HD 
BRANCH   4   6
HETATM    6  C   UNL     1      -8.725  11.238  67.706  1.00  0.00    -0.134 C  
HETATM    7  O   UNL     1      -7.843  10.706  68.357  1.00  0.00    -0.103 OA 
BRANCH   6   8
HETATM    8  N   UNL     1      -9.630  12.128  68.263  1.00  0.00    -0.211 N  
HETATM    9  H   UNL     1      -9.261  12.881  68.843  1.00  0.00     0.000 HD 
BRANCH   8  10
HETATM   10  S   UNL     1     -11.286  12.053  68.049  1.00  0.00    -0.282 S  
HETATM   11  O   UNL     1     -11.676  10.684  67.799  1.00  0.00    -0.503 OA 
HETATM   12  O   UNL     1     -11.828  12.776  69.184  1.00  0.00    -0.298 OA 
BRANCH  10  13
HETATM   13  C   UNL     1     -11.657  13.003  66.618  1.00  0.00    -0.359 A  
HETATM   14  C   UNL     1     -11.727  14.402  66.656  1.00  0.00    -0.394 A  
HETATM   15  N   UNL     1     -12.270  12.967  64.268  1.00  0.00    -0.446 NA 
HETATM   16  C   UNL     1     -12.147  15.038  65.475  1.00  0.00     0.072 A  
HETATM   17  C   UNL     1     -12.402  14.301  64.331  1.00  0.00    -0.391 A  
HETATM   18  C   UNL     1     -11.912  12.351  65.418  1.00  0.00    -0.398 A  
BRANCH  14  19
HETATM   19  N   UNL     1     -11.288  15.170  67.762  1.00  0.00    -0.324 NA 
HETATM   20  H   UNL     1     -11.785  15.002  68.638  1.00  0.00     0.000 HD 
BRANCH  19  21
HETATM   21  C   UNL     1     -10.258  16.137  67.822  1.00  0.00    -0.267 A  
HETATM   22  C   UNL     1      -7.956  16.704  68.369  1.00  0.00    -0.205 A  
HETATM   23  C   UNL     1      -8.950  15.748  68.131  1.00  0.00    -0.180 A  
HETATM   24  C   UNL     1      -8.264  18.066  68.337  1.00  0.00    -0.305 A  
HETATM   25  C   UNL     1      -9.557  18.480  68.015  1.00  0.00    -0.337 A  
HETATM   26  C   UNL     1     -10.522  17.510  67.710  1.00  0.00    -0.381 A  
HETATM   27  C   UNL     1      -9.961  19.923  68.068  1.00  0.00    -0.556 C  
ENDBRANCH  19  21
ENDBRANCH  14  19
ENDBRANCH  10  13
ENDBRANCH   8  10
ENDBRANCH   6   8
ENDBRANCH   4   6
ENDBRANCH   2   4
TORSDOF 7
ENDMDL
MODEL      170
REMARK 921   NORMALIZED FREE ENERGY PREDICTED BY IDOCK:   -4.47 KCAL/MOL
REMARK 922        TOTAL FREE ENERGY PREDICTED BY IDOCK:   -8.15 KCAL/MOL
REMARK 923 INTER-LIGAND FREE ENERGY PREDICTED BY IDOCK:   -7.24 KCAL/MOL
REMARK 924 INTRA-LIGAND FREE ENERGY PREDICTED BY IDOCK:   -0.91 KCAL/MOL
REMARK 927      BINDING AFFINITY PREDICTED BY RF-SCORE:    0.00 PKD
ROOT
HETATM    1  C   UNL     1      -9.325  15.660  69.401  1.00  0.00    -0.279 C  
HETATM    2  C   UNL     1     -10.627  14.888  69.188  1.00  0.00    -0.246 C  
HETATM    3  C   UNL     1     -11.554  15.649  68.247  1.00  0.00    -0.326 C  
ENDROOT
BRANCH   2   4
HETATM    4  N   UNL     1     -10.379  13.543  68.685  1.00  0.00    -0.303 N  
HETATM    5  H   UNL     1     -11.032  12.793  68.912  1.00  0.00     0.000 HD 
BRANCH   4   6
HETATM    6  C   UNL     1      -9.283  13.271  67.912  1.00  0.00    -0.213 C  
HETATM    7  O   UNL     1      -8.209  12.911  68.360  1.00  0.00    -0.151 OA 
BRANCH   6   8
HETATM    8  N   UNL     1      -9.481  13.530  66.565  1.00  0.00    -0.323 N  
HETATM    9  H   UNL     1      -8.933  14.277  66.139  1.00  0.00     0.000 HD 
BRANCH   8  10
HETATM   10  S   UNL     1     -10.557  12.702  65.590  1.00  0.00    -0.280 S  
HETATM   11  O   UNL     1     -11.865  12.709  66.205  1.00  0.00    -0.393 OA 
HETATM   12  O   UNL     1     -10.362  13.276  64.272  1.00  0.00    -0.427 OA 
BRANCH  10  13
HETATM   13  C   UNL     1      -9.993  11.040  65.508  1.00  0.00    -0.256 A  
HETATM   14  C   UNL     1     -10.334  10.094  66.484  1.00  0.00    -0.202 A  
HETATM   15  N   UNL     1      -8.619   9.426  64.323  1.00  0.00    -0.187 NA 
HETATM   16  C   UNL     1      -9.726   8.832  66.369  1.00  0.00    -0.335 A  
HETATM   17  C   UNL     1      -8.895   8.546  65.299  1.00  0.00    -0.100 A  
HETATM   18  C   UNL     1      -9.167  10.655  64.460  1.00  0.00    -0.231 A  
BRANCH  14  19
HETATM   19  N   UNL     1     -11.325  10.321  67.470  1.00  0.00    -0.510 NA 
HETATM   20  H   UNL     1     -12.229  10.636  67.119  1.00  0.00     0.000 HD 
BRANCH  19  21
HETATM   21  C   UNL     1     -11.235  10.172  68.874  1.00  0.00    -0.170 A  
HETATM   22  C   UNL     1     -10.412   8.922  70.793  1.00  0.00    -0.283 A  
HETATM   23  C   UNL     1     -10.384   9.206  69.422  1.00  0.00    -0.220 A  
HETATM   24  C   UNL     1     -11.318   9.576  71.630  1.00  0.00    -0.411 A  
HETATM   25  C   UNL     1     -12.165  10.556  71.111  1.00  0.00    -0.496 A  
HETATM   26  C   UNL     1     -12.073  10.877  69.750  1.00  0.00    -0.409 A  
HETATM   27  C   UNL     1     -13.222  11.211  71.949  1.00  0.00    -0.488 C  
ENDBRANCH  19  21
ENDBRANCH  14  19
ENDBRANCH  10  13
ENDBRANCH   8  10
ENDBRANCH   6   8
ENDBRANCH   4   6
ENDBRANCH   2   4
TORSDOF 7
ENDMDL
MODEL      171
REMARK 921   NORMALIZED FREE ENERGY PREDICTED BY IDOCK:   -4.46 KCAL/MOL
REMARK 922        TOTAL FREE ENERGY PREDICTED BY IDOCK:   -8.13 KCAL/MOL
REMARK 923 INTER-LIGAND FREE ENERGY PREDICTED BY IDOCK:   -6.83 KCAL/MOL
REMARK 924 INTRA-LIGAND FREE ENERGY PREDICTED BY IDOCK:   -1.30 KCAL/MOL
REMARK 927      BINDING AFFINITY PREDICTED BY RF-SCORE:    0.00 PKD
ROOT
HETATM    1  C   UNL     1      -8.037  18.348  68.114  1.00  0.00    -0.305 C  
HETATM    2  C   UNL     1      -7.465  17.018  68.606  1.00  0.00    -0.229 C  
HETATM    3  C   UNL     1      -6.293  17.255  69.551  1.00  0.00    -0.235 C  
ENDROOT
BRANCH   2   4
HETATM    4  N   UNL     1      -8.485  16.200  69.251  1.00  0.00    -0.232 N  
HETATM    5  H   UNL     1      -8.955  16.549  70.086  1.00  0.00     0.000 HD 
BRANCH   4   6
HETATM    6  C   UNL     1      -8.820  14.971  68.752  1.00  0.00    -0.192 C  
HETATM    7  O   UNL     1      -8.132  14.347  67.963  1.00  0.00    -0.123 OA 
BRANCH   6   8
HETATM    8  N   UNL     1     -10.070  14.532  69.163  1.00  0.00    -0.372 N  
HETATM    9  H   UNL     1     -10.209  14.359  70.158  1.00  0.00     0.000 HD 
BRANCH   8  10
HETATM   10  S   UNL     1     -11.364  14.268  68.139  1.00  0.00    -0.305 S  
HETATM   11  O   UNL     1     -12.533  13.931  68.920  1.00  0.00    -0.188 OA 
HETATM   12  O   UNL     1     -11.373  15.427  67.265  1.00  0.00    -0.309 OA 
BRANCH  10  13
HETATM   13  C   UNL     1     -10.947  12.883  67.141  1.00  0.00    -0.262 A  
HETATM   14  C   UNL     1     -10.420  11.707  67.690  1.00  0.00    -0.191 A  
HETATM   15  N   UNL     1     -10.780  11.990  64.888  1.00  0.00    -0.289 NA 
HETATM   16  C   UNL     1     -10.019  10.717  66.776  1.00  0.00    -0.249 A  
HETATM   17  C   UNL     1     -10.212  10.894  65.416  1.00  0.00    -0.277 A  
HETATM   18  C   UNL     1     -11.122  12.962  65.764  1.00  0.00    -0.284 A  
BRANCH  14  19
HETATM   19  N   UNL     1     -10.395  11.445  69.081  1.00  0.00    -0.390 NA 
HETATM   20  H   UNL     1      -9.693  11.961  69.612  1.00  0.00     0.000 HD 
BRANCH  19  21
HETATM   21  C   UNL     1     -11.207  10.568  69.837  1.00  0.00    -0.307 A  
HETATM   22  C   UNL     1     -12.759  10.225  71.679  1.00  0.00    -0.561 A  
HETATM   23  C   UNL     1     -12.081  11.080  70.802  1.00  0.00    -0.467 A  
HETATM   24  C   UNL     1     -12.545   8.846  71.628  1.00  0.00    -0.403 A  
HETATM   25  C   UNL     1     -11.691   8.310  70.664  1.00  0.00    -0.153 A  
HETATM   26  C   UNL     1     -11.076   9.174  69.748  1.00  0.00    -0.140 A  
HETATM   27  C   UNL     1     -11.351   6.849  70.635  1.00  0.00    -0.366 C  
ENDBRANCH  19  21
ENDBRANCH  14  19
ENDBRANCH  10  13
ENDBRANCH   8  10
ENDBRANCH   6   8
ENDBRANCH   4   6
ENDBRANCH   2   4
TORSDOF 7
ENDMDL
MODEL      172
REMARK 921   NORMALIZED FREE ENERGY PREDICTED BY IDOCK:   -4.45 KCAL/MOL
REMARK 922        TOTAL FREE ENERGY PREDICTED BY IDOCK:   -8.13 KCAL/MOL
REMARK 923 INTER-LIGAND FREE ENERGY PREDICTED BY IDOCK:   -6.48 KCAL/MOL
REMARK 924 INTRA-LIGAND FREE ENERGY PREDICTED BY IDOCK:   -1.65 KCAL/MOL
REMARK 927      BINDING AFFINITY PREDICTED BY RF-SCORE:    0.00 PKD
ROOT
HETATM    1  C   UNL     1      -6.235  10.068  69.059  1.00  0.00    -0.044 C  
HETATM    2  C   UNL     1      -6.867  11.267  69.767  1.00  0.00    -0.058 C  
HETATM    3  C   UNL     1      -5.791  12.146  70.395  1.00  0.00    -0.154 C  
ENDROOT
BRANCH   2   4
HETATM    4  N   UNL     1      -7.702  12.047  68.863  1.00  0.00    -0.306 N  
HETATM    5  H   UNL     1      -7.767  13.057  68.984  1.00  0.00     0.000 HD 
BRANCH   4   6
HETATM    6  C   UNL     1      -8.401  11.443  67.853  1.00  0.00    -0.137 C  
HETATM    7  O   UNL     1      -7.963  11.279  66.727  1.00  0.00    -0.148 OA 
BRANCH   6   8
HETATM    8  N   UNL     1      -9.699  11.108  68.205  1.00  0.00    -0.181 N  
HETATM    9  H   UNL     1      -9.875  10.155  68.522  1.00  0.00     0.000 HD 
BRANCH   8  10
HETATM   10  S   UNL     1     -10.996  12.160  68.147  1.00  0.00    -0.248 S  
HETATM   11  O   UNL     1     -10.513  13.510  67.964  1.00  0.00    -0.231 OA 
HETATM   12  O   UNL     1     -11.899  11.565  67.179  1.00  0.00    -0.595 OA 
BRANCH  10  13
HETATM   13  C   UNL     1     -11.796  12.067  69.710  1.00  0.00    -0.331 A  
HETATM   14  C   UNL     1     -12.174  10.843  70.276  1.00  0.00    -0.348 A  
HETATM   15  N   UNL     1     -12.749  13.302  71.571  1.00  0.00    -0.319 NA 
HETATM   16  C   UNL     1     -12.910  10.909  71.472  1.00  0.00    -0.560 A  
HETATM   17  C   UNL     1     -13.169  12.130  72.072  1.00  0.00    -0.391 A  
HETATM   18  C   UNL     1     -12.083  13.241  70.395  1.00  0.00    -0.327 A  
BRANCH  14  19
HETATM   19  N   UNL     1     -11.751   9.591  69.768  1.00  0.00    -0.440 NA 
HETATM   20  H   UNL     1     -12.063   9.373  68.821  1.00  0.00     0.000 HD 
BRANCH  19  21
HETATM   21  C   UNL     1     -10.956   8.600  70.390  1.00  0.00    -0.235 A  
HETATM   22  C   UNL     1     -10.758   6.357  71.313  1.00  0.00    -0.288 A  
HETATM   23  C   UNL     1     -11.452   7.301  70.547  1.00  0.00    -0.310 A  
HETATM   24  C   UNL     1      -9.574   6.710  71.964  1.00  0.00    -0.150 A  
HETATM   25  C   UNL     1      -9.050   7.993  71.809  1.00  0.00    -0.207 A  
HETATM   26  C   UNL     1      -9.720   8.903  70.981  1.00  0.00    -0.320 A  
HETATM   27  C   UNL     1      -7.839   8.449  72.568  1.00  0.00    -0.153 C  
ENDBRANCH  19  21
ENDBRANCH  14  19
ENDBRANCH  10  13
ENDBRANCH   8  10
ENDBRANCH   6   8
ENDBRANCH   4   6
ENDBRANCH   2   4
TORSDOF 7
ENDMDL
MODEL      173
REMARK 921   NORMALIZED FREE ENERGY PREDICTED BY IDOCK:   -4.45 KCAL/MOL
REMARK 922        TOTAL FREE ENERGY PREDICTED BY IDOCK:   -8.12 KCAL/MOL
REMARK 923 INTER-LIGAND FREE ENERGY PREDICTED BY IDOCK:   -6.52 KCAL/MOL
REMARK 924 INTRA-LIGAND FREE ENERGY PREDICTED BY IDOCK:   -1.60 KCAL/MOL
REMARK 927      BINDING AFFINITY PREDICTED BY RF-SCORE:    0.00 PKD
ROOT
HETATM    1  C   UNL     1      -6.295   5.507  67.229  1.00  0.00    -0.039 C  
HETATM    2  C   UNL     1      -7.692   5.384  66.620  1.00  0.00    -0.100 C  
HETATM    3  C   UNL     1      -8.498   4.309  67.340  1.00  0.00    -0.099 C  
ENDROOT
BRANCH   2   4
HETATM    4  N   UNL     1      -8.401   6.656  66.640  1.00  0.00    -0.114 N  
HETATM    5  H   UNL     1      -8.889   6.946  67.487  1.00  0.00     0.000 HD 
BRANCH   4   6
HETATM    6  C   UNL     1      -8.423   7.468  65.538  1.00  0.00    -0.119 C  
HETATM    7  O   UNL     1      -7.844   7.214  64.496  1.00  0.00    -0.114 OA 
BRANCH   6   8
HETATM    8  N   UNL     1      -9.099   8.660  65.746  1.00  0.00    -0.262 N  
HETATM    9  H   UNL     1      -9.257   9.263  64.939  1.00  0.00     0.000 HD 
BRANCH   8  10
HETATM   10  S   UNL     1      -9.672   9.177  67.228  1.00  0.00    -0.186 S  
HETATM   11  O   UNL     1     -10.632   8.222  67.732  1.00  0.00    -0.227 OA 
HETATM   12  O   UNL     1      -8.475   9.487  67.988  1.00  0.00    -0.118 OA 
BRANCH  10  13
HETATM   13  C   UNL     1     -10.503  10.700  66.948  1.00  0.00    -0.249 A  
HETATM   14  C   UNL     1     -11.002  11.476  68.003  1.00  0.00    -0.231 A  
HETATM   15  N   UNL     1     -11.370  12.259  65.299  1.00  0.00    -0.328 NA 
HETATM   16  C   UNL     1     -11.748  12.611  67.644  1.00  0.00    -0.420 A  
HETATM   17  C   UNL     1     -11.904  12.959  66.312  1.00  0.00    -0.416 A  
HETATM   18  C   UNL     1     -10.692  11.139  65.643  1.00  0.00    -0.185 A  
BRANCH  14  19
HETATM   19  N   UNL     1     -10.688  11.230  69.361  1.00  0.00    -0.389 NA 
HETATM   20  H   UNL     1      -9.887  11.745  69.727  1.00  0.00     0.000 HD 
BRANCH  19  21
HETATM   21  C   UNL     1     -11.329  10.369  70.282  1.00  0.00    -0.328 A  
HETATM   22  C   UNL     1     -13.256   9.870  71.682  1.00  0.00    -0.519 A  
HETATM   23  C   UNL     1     -12.660  10.599  70.646  1.00  0.00    -0.454 A  
HETATM   24  C   UNL     1     -12.517   8.924  72.395  1.00  0.00    -0.405 A  
HETATM   25  C   UNL     1     -11.193   8.664  72.041  1.00  0.00    -0.434 A  
HETATM   26  C   UNL     1     -10.635   9.352  70.954  1.00  0.00    -0.390 A  
HETATM   27  C   UNL     1     -10.330   7.733  72.839  1.00  0.00    -0.396 C  
ENDBRANCH  19  21
ENDBRANCH  14  19
ENDBRANCH  10  13
ENDBRANCH   8  10
ENDBRANCH   6   8
ENDBRANCH   4   6
ENDBRANCH   2   4
TORSDOF 7
ENDMDL
MODEL      174
REMARK 921   NORMALIZED FREE ENERGY PREDICTED BY IDOCK:   -4.42 KCAL/MOL
REMARK 922        TOTAL FREE ENERGY PREDICTED BY IDOCK:   -8.08 KCAL/MOL
REMARK 923 INTER-LIGAND FREE ENERGY PREDICTED BY IDOCK:   -6.82 KCAL/MOL
REMARK 924 INTRA-LIGAND FREE ENERGY PREDICTED BY IDOCK:   -1.25 KCAL/MOL
REMARK 927      BINDING AFFINITY PREDICTED BY RF-SCORE:    0.00 PKD
ROOT
HETATM    1  C   UNL     1      -9.179   4.359  64.980  1.00  0.00    -0.157 C  
HETATM    2  C   UNL     1      -9.094   5.114  66.306  1.00  0.00    -0.136 C  
HETATM    3  C   UNL     1      -7.688   5.020  66.887  1.00  0.00    -0.092 C  
ENDROOT
BRANCH   2   4
HETATM    4  N   UNL     1      -9.496   6.507  66.159  1.00  0.00    -0.353 N  
HETATM    5  H   UNL     1      -9.219   7.024  65.324  1.00  0.00     0.000 HD 
BRANCH   4   6
HETATM    6  C   UNL     1     -10.239   7.131  67.123  1.00  0.00    -0.257 C  
HETATM    7  O   UNL     1     -11.408   6.874  67.353  1.00  0.00    -0.227 OA 
BRANCH   6   8
HETATM    8  N   UNL     1      -9.560   8.155  67.765  1.00  0.00    -0.148 N  
HETATM    9  H   UNL     1      -9.169   8.900  67.188  1.00  0.00     0.000 HD 
BRANCH   8  10
HETATM   10  S   UNL     1      -9.337   8.254  69.418  1.00  0.00    -0.155 S  
HETATM   11  O   UNL     1      -9.275   6.921  69.975  1.00  0.00    -0.154 OA 
HETATM   12  O   UNL     1      -8.223   9.169  69.577  1.00  0.00    -0.109 OA 
BRANCH  10  13
HETATM   13  C   UNL     1     -10.754   9.061  70.074  1.00  0.00    -0.229 A  
HETATM   14  C   UNL     1     -11.038  10.403  69.791  1.00  0.00    -0.295 A  
HETATM   15  N   UNL     1     -12.688   8.886  71.533  1.00  0.00    -0.328 NA 
HETATM   16  C   UNL     1     -12.134  10.965  70.468  1.00  0.00    -0.464 A  
HETATM   17  C   UNL     1     -12.914  10.191  71.310  1.00  0.00    -0.413 A  
HETATM   18  C   UNL     1     -11.605   8.357  70.918  1.00  0.00    -0.262 A  
BRANCH  14  19
HETATM   19  N   UNL     1     -10.361  11.144  68.792  1.00  0.00    -0.199 NA 
HETATM   20  H   UNL     1      -9.375  10.914  68.668  1.00  0.00     0.000 HD 
BRANCH  19  21
HETATM   21  C   UNL     1     -10.862  12.159  67.943  1.00  0.00    -0.217 A  
HETATM   22  C   UNL     1     -11.823  14.379  67.683  1.00  0.00    -0.412 A  
HETATM   23  C   UNL     1     -11.164  13.422  68.463  1.00  0.00    -0.316 A  
HETATM   24  C   UNL     1     -12.221  14.074  66.379  1.00  0.00    -0.492 A  
HETATM   25  C   UNL     1     -11.916  12.828  65.831  1.00  0.00    -0.506 A  
HETATM   26  C   UNL     1     -11.193  11.908  66.603  1.00  0.00    -0.384 A  
HETATM   27  C   UNL     1     -12.411  12.419  64.476  1.00  0.00    -0.519 C  
ENDBRANCH  19  21
ENDBRANCH  14  19
ENDBRANCH  10  13
ENDBRANCH   8  10
ENDBRANCH   6   8
ENDBRANCH   4   6
ENDBRANCH   2   4
TORSDOF 7
ENDMDL
MODEL      175
REMARK 921   NORMALIZED FREE ENERGY PREDICTED BY IDOCK:   -4.40 KCAL/MOL
REMARK 922        TOTAL FREE ENERGY PREDICTED BY IDOCK:   -8.05 KCAL/MOL
REMARK 923 INTER-LIGAND FREE ENERGY PREDICTED BY IDOCK:   -6.43 KCAL/MOL
REMARK 924 INTRA-LIGAND FREE ENERGY PREDICTED BY IDOCK:   -1.62 KCAL/MOL
REMARK 927      BINDING AFFINITY PREDICTED BY RF-SCORE:    0.00 PKD
ROOT
HETATM    1  C   UNL     1     -12.916   9.691  71.924  1.00  0.00    -0.527 C  
HETATM    2  C   UNL     1     -12.702  10.833  70.930  1.00  0.00    -0.384 C  
HETATM    3  C   UNL     1     -13.014  12.176  71.580  1.00  0.00    -0.427 C  
ENDROOT
BRANCH   2   4
HETATM    4  N   UNL     1     -11.348  10.828  70.390  1.00  0.00    -0.410 N  
HETATM    5  H   UNL     1     -10.699  11.570  70.653  1.00  0.00     0.000 HD 
BRANCH   4   6
HETATM    6  C   UNL     1     -10.935   9.844  69.534  1.00  0.00    -0.242 C  
HETATM    7  O   UNL     1     -10.224   8.911  69.864  1.00  0.00    -0.189 OA 
BRANCH   6   8
HETATM    8  N   UNL     1     -11.331  10.053  68.222  1.00  0.00    -0.531 N  
HETATM    9  H   UNL     1     -12.331  10.123  68.033  1.00  0.00     0.000 HD 
BRANCH   8  10
HETATM   10  S   UNL     1     -10.283  10.197  66.928  1.00  0.00    -0.239 S  
HETATM   11  O   UNL     1      -9.787   8.889  66.564  1.00  0.00    -0.230 OA 
HETATM   12  O   UNL     1     -11.011  11.001  65.964  1.00  0.00    -0.189 OA 
BRANCH  10  13
HETATM   13  C   UNL     1      -8.927  11.169  67.479  1.00  0.00    -0.139 A  
HETATM   14  C   UNL     1      -9.020  12.561  67.612  1.00  0.00    -0.185 A  
HETATM   15  N   UNL     1      -6.590  11.191  68.139  1.00  0.00    -0.057 NA 
HETATM   16  C   UNL     1      -7.833  13.236  67.948  1.00  0.00    -0.152 A  
HETATM   17  C   UNL     1      -6.668  12.531  68.197  1.00  0.00    -0.078 A  
HETATM   18  C   UNL     1      -7.719  10.546  67.770  1.00  0.00    -0.093 A  
BRANCH  14  19
HETATM   19  N   UNL     1     -10.246  13.266  67.543  1.00  0.00    -0.221 NA 
HETATM   20  H   UNL     1     -10.988  12.804  67.017  1.00  0.00     0.000 HD 
BRANCH  19  21
HETATM   21  C   UNL     1     -10.585  14.520  68.102  1.00  0.00    -0.238 A  
HETATM   22  C   UNL     1     -10.463  16.948  68.012  1.00  0.00    -0.347 A  
HETATM   23  C   UNL     1     -10.299  15.698  67.404  1.00  0.00    -0.275 A  
HETATM   24  C   UNL     1     -10.882  17.037  69.341  1.00  0.00    -0.092 A  
HETATM   25  C   UNL     1     -11.189  15.879  70.053  1.00  0.00    -0.354 A  
HETATM   26  C   UNL     1     -11.088  14.639  69.407  1.00  0.00    -0.293 A  
HETATM   27  C   UNL     1     -11.543  15.917  71.510  1.00  0.00    -0.537 C  
ENDBRANCH  19  21
ENDBRANCH  14  19
ENDBRANCH  10  13
ENDBRANCH   8  10
ENDBRANCH   6   8
ENDBRANCH   4   6
ENDBRANCH   2   4
TORSDOF 7
ENDMDL
MODEL      176
REMARK 921   NORMALIZED FREE ENERGY PREDICTED BY IDOCK:   -4.40 KCAL/MOL
REMARK 922        TOTAL FREE ENERGY PREDICTED BY IDOCK:   -8.05 KCAL/MOL
REMARK 923 INTER-LIGAND FREE ENERGY PREDICTED BY IDOCK:   -6.65 KCAL/MOL
REMARK 924 INTRA-LIGAND FREE ENERGY PREDICTED BY IDOCK:   -1.39 KCAL/MOL
REMARK 927      BINDING AFFINITY PREDICTED BY RF-SCORE:    0.00 PKD
ROOT
HETATM    1  C   UNL     1      -7.856   7.693  70.238  1.00  0.00    -0.092 C  
HETATM    2  C   UNL     1      -8.104   9.117  70.737  1.00  0.00    -0.174 C  
HETATM    3  C   UNL     1      -7.227  10.110  69.984  1.00  0.00    -0.166 C  
ENDROOT
BRANCH   2   4
HETATM    4  N   UNL     1      -9.509   9.488  70.628  1.00  0.00    -0.273 N  
HETATM    5  H   UNL     1      -9.792  10.185  69.938  1.00  0.00     0.000 HD 
BRANCH   4   6
HETATM    6  C   UNL     1     -10.453   8.916  71.436  1.00  0.00    -0.305 C  
HETATM    7  O   UNL     1     -10.214   8.448  72.535  1.00  0.00    -0.306 OA 
BRANCH   6   8
HETATM    8  N   UNL     1     -11.706   8.839  70.848  1.00  0.00    -0.328 N  
HETATM    9  H   UNL     1     -11.822   8.205  70.057  1.00  0.00     0.000 HD 
BRANCH   8  10
HETATM   10  S   UNL     1     -13.042   9.711  71.346  1.00  0.00    -0.386 S  
HETATM   11  O   UNL     1     -14.199   9.294  70.587  1.00  0.00     0.165 OA 
HETATM   12  O   UNL     1     -13.029   9.593  72.792  1.00  0.00    -0.125 OA 
BRANCH  10  13
HETATM   13  C   UNL     1     -12.715  11.397  70.972  1.00  0.00    -0.349 A  
HETATM   14  C   UNL     1     -12.188  11.793  69.736  1.00  0.00    -0.203 A  
HETATM   15  N   UNL     1     -12.692  13.683  71.792  1.00  0.00    -0.300 NA 
HETATM   16  C   UNL     1     -11.862  13.153  69.603  1.00  0.00    -0.390 A  
HETATM   17  C   UNL     1     -12.124  14.044  70.630  1.00  0.00    -0.354 A  
HETATM   18  C   UNL     1     -12.962  12.366  71.938  1.00  0.00    -0.302 A  
BRANCH  14  19
HETATM   19  N   UNL     1     -12.094  10.925  68.621  1.00  0.00    -0.796 NA 
HETATM   20  H   UNL     1     -12.593  10.039  68.710  1.00  0.00     0.000 HD 
BRANCH  19  21
HETATM   21  C   UNL     1     -11.405  11.114  67.400  1.00  0.00    -0.255 A  
HETATM   22  C   UNL     1      -9.368  10.868  66.092  1.00  0.00    -0.211 A  
HETATM   23  C   UNL     1     -10.139  10.547  67.216  1.00  0.00    -0.242 A  
HETATM   24  C   UNL     1      -9.838  11.789  65.153  1.00  0.00    -0.263 A  
HETATM   25  C   UNL     1     -11.103  12.355  65.305  1.00  0.00    -0.342 A  
HETATM   26  C   UNL     1     -11.891  11.968  66.399  1.00  0.00    -0.232 A  
HETATM   27  C   UNL     1     -11.608  13.422  64.381  1.00  0.00    -0.421 C  
ENDBRANCH  19  21
ENDBRANCH  14  19
ENDBRANCH  10  13
ENDBRANCH   8  10
ENDBRANCH   6   8
ENDBRANCH   4   6
ENDBRANCH   2   4
TORSDOF 7
ENDMDL
MODEL      177
REMARK 921   NORMALIZED FREE ENERGY PREDICTED BY IDOCK:   -4.39 KCAL/MOL
REMARK 922        TOTAL FREE ENERGY PREDICTED BY IDOCK:   -8.04 KCAL/MOL
REMARK 923 INTER-LIGAND FREE ENERGY PREDICTED BY IDOCK:   -6.30 KCAL/MOL
REMARK 924 INTRA-LIGAND FREE ENERGY PREDICTED BY IDOCK:   -1.74 KCAL/MOL
REMARK 927      BINDING AFFINITY PREDICTED BY RF-SCORE:    0.00 PKD
ROOT
HETATM    1  C   UNL     1     -13.665  13.283  72.050  1.00  0.00    -0.519 C  
HETATM    2  C   UNL     1     -12.561  12.371  71.517  1.00  0.00    -0.144 C  
HETATM    3  C   UNL     1     -12.912  10.907  71.754  1.00  0.00    -0.557 C  
ENDROOT
BRANCH   2   4
HETATM    4  N   UNL     1     -12.299  12.612  70.104  1.00  0.00    -0.208 N  
HETATM    5  H   UNL     1     -12.717  11.999  69.404  1.00  0.00     0.000 HD 
BRANCH   4   6
HETATM    6  C   UNL     1     -11.501  13.649  69.703  1.00  0.00    -0.221 C  
HETATM    7  O   UNL     1     -10.925  14.400  70.471  1.00  0.00     0.022 OA 
BRANCH   6   8
HETATM    8  N   UNL     1     -11.475  13.823  68.328  1.00  0.00    -0.292 N  
HETATM    9  H   UNL     1     -11.641  14.762  67.965  1.00  0.00     0.000 HD 
BRANCH   8  10
HETATM   10  S   UNL     1     -11.192  12.602  67.223  1.00  0.00    -0.317 S  
HETATM   11  O   UNL     1     -12.149  11.538  67.428  1.00  0.00    -0.593 OA 
HETATM   12  O   UNL     1     -11.114  13.284  65.945  1.00  0.00    -0.284 OA 
BRANCH  10  13
HETATM   13  C   UNL     1      -9.586  11.973  67.562  1.00  0.00    -0.177 A  
HETATM   14  C   UNL     1      -9.369  10.973  68.519  1.00  0.00    -0.188 A  
HETATM   15  N   UNL     1      -7.208  12.143  67.098  1.00  0.00    -0.139 NA 
HETATM   16  C   UNL     1      -8.029  10.640  68.780  1.00  0.00    -0.135 A  
HETATM   17  C   UNL     1      -7.003  11.234  68.064  1.00  0.00    -0.068 A  
HETATM   18  C   UNL     1      -8.495  12.498  66.880  1.00  0.00    -0.130 A  
BRANCH  14  19
HETATM   19  N   UNL     1     -10.418  10.232  69.115  1.00  0.00    -0.209 NA 
HETATM   20  H   UNL     1     -11.174  10.787  69.517  1.00  0.00     0.000 HD 
BRANCH  19  21
HETATM   21  C   UNL     1     -10.563   8.830  69.232  1.00  0.00    -0.197 A  
HETATM   22  C   UNL     1     -10.904   6.669  68.166  1.00  0.00    -0.334 A  
HETATM   23  C   UNL     1     -10.585   8.030  68.084  1.00  0.00    -0.174 A  
HETATM   24  C   UNL     1     -11.240   6.096  69.393  1.00  0.00    -0.466 A  
HETATM   25  C   UNL     1     -11.209   6.867  70.555  1.00  0.00    -0.353 A  
HETATM   26  C   UNL     1     -10.818   8.210  70.465  1.00  0.00    -0.247 A  
HETATM   27  C   UNL     1     -11.659   6.323  71.878  1.00  0.00    -0.369 C  
ENDBRANCH  19  21
ENDBRANCH  14  19
ENDBRANCH  10  13
ENDBRANCH   8  10
ENDBRANCH   6   8
ENDBRANCH   4   6
ENDBRANCH   2   4
TORSDOF 7
ENDMDL
MODEL      178
REMARK 921   NORMALIZED FREE ENERGY PREDICTED BY IDOCK:   -4.39 KCAL/MOL
REMARK 922        TOTAL FREE ENERGY PREDICTED BY IDOCK:   -8.04 KCAL/MOL
REMARK 923 INTER-LIGAND FREE ENERGY PREDICTED BY IDOCK:   -6.29 KCAL/MOL
REMARK 924 INTRA-LIGAND FREE ENERGY PREDICTED BY IDOCK:   -1.75 KCAL/MOL
REMARK 927      BINDING AFFINITY PREDICTED BY RF-SCORE:    0.00 PKD
ROOT
HETATM    1  C   UNL     1      -5.969   9.886  68.662  1.00  0.00    -0.038 C  
HETATM    2  C   UNL     1      -6.543  10.542  69.918  1.00  0.00    -0.130 C  
HETATM    3  C   UNL     1      -6.343  12.053  69.874  1.00  0.00    -0.089 C  
ENDROOT
BRANCH   2   4
HETATM    4  N   UNL     1      -7.952  10.217  70.099  1.00  0.00    -0.321 N  
HETATM    5  H   UNL     1      -8.664  10.820  69.688  1.00  0.00     0.000 HD 
BRANCH   4   6
HETATM    6  C   UNL     1      -8.333   9.113  70.813  1.00  0.00    -0.208 C  
HETATM    7  O   UNL     1      -8.087   8.950  71.995  1.00  0.00    -0.355 OA 
BRANCH   6   8
HETATM    8  N   UNL     1      -8.957   8.146  70.040  1.00  0.00    -0.142 N  
HETATM    9  H   UNL     1      -8.390   7.647  69.355  1.00  0.00     0.000 HD 
BRANCH   8  10
HETATM   10  S   UNL     1     -10.574   7.742  70.153  1.00  0.00    -0.239 S  
HETATM   11  O   UNL     1     -11.024   7.202  68.890  1.00  0.00    -0.170 OA 
HETATM   12  O   UNL     1     -10.662   6.948  71.365  1.00  0.00    -0.219 OA 
BRANCH  10  13
HETATM   13  C   UNL     1     -11.451   9.234  70.460  1.00  0.00    -0.248 A  
HETATM   14  C   UNL     1     -11.384  10.325  69.584  1.00  0.00    -0.257 A  
HETATM   15  N   UNL     1     -12.880  10.462  71.992  1.00  0.00    -0.408 NA 
HETATM   16  C   UNL     1     -12.034  11.500  70.000  1.00  0.00    -0.435 A  
HETATM   17  C   UNL     1     -12.754  11.525  71.182  1.00  0.00    -0.356 A  
HETATM   18  C   UNL     1     -12.214   9.346  71.616  1.00  0.00    -0.390 A  
BRANCH  14  19
HETATM   19  N   UNL     1     -10.810  10.247  68.292  1.00  0.00    -0.237 NA 
HETATM   20  H   UNL     1     -10.573   9.307  67.973  1.00  0.00     0.000 HD 
BRANCH  19  21
HETATM   21  C   UNL     1     -10.519  11.290  67.382  1.00  0.00    -0.212 A  
HETATM   22  C   UNL     1      -9.178  13.233  66.792  1.00  0.00    -0.237 A  
HETATM   23  C   UNL     1      -9.387  12.090  67.573  1.00  0.00    -0.179 A  
HETATM   24  C   UNL     1     -10.117  13.612  65.831  1.00  0.00    -0.320 A  
HETATM   25  C   UNL     1     -11.245  12.822  65.609  1.00  0.00    -0.335 A  
HETATM   26  C   UNL     1     -11.403  11.643  66.351  1.00  0.00    -0.312 A  
HETATM   27  C   UNL     1     -12.330  13.241  64.663  1.00  0.00    -0.447 C  
ENDBRANCH  19  21
ENDBRANCH  14  19
ENDBRANCH  10  13
ENDBRANCH   8  10
ENDBRANCH   6   8
ENDBRANCH   4   6
ENDBRANCH   2   4
TORSDOF 7
ENDMDL
MODEL      179
REMARK 921   NORMALIZED FREE ENERGY PREDICTED BY IDOCK:   -4.37 KCAL/MOL
REMARK 922        TOTAL FREE ENERGY PREDICTED BY IDOCK:   -8.01 KCAL/MOL
REMARK 923 INTER-LIGAND FREE ENERGY PREDICTED BY IDOCK:   -6.25 KCAL/MOL
REMARK 924 INTRA-LIGAND FREE ENERGY PREDICTED BY IDOCK:   -1.76 KCAL/MOL
REMARK 927      BINDING AFFINITY PREDICTED BY RF-SCORE:    0.00 PKD
ROOT
HETATM    1  C   UNL     1      -5.300  12.024  68.127  1.00  0.00    -0.048 C  
HETATM    2  C   UNL     1      -6.348  13.028  67.647  1.00  0.00    -0.161 C  
HETATM    3  C   UNL     1      -7.690  12.767  68.321  1.00  0.00    -0.136 C  
ENDROOT
BRANCH   2   4
HETATM    4  N   UNL     1      -5.919  14.403  67.874  1.00  0.00    -0.148 N  
HETATM    5  H   UNL     1      -5.306  14.856  67.197  1.00  0.00     0.000 HD 
BRANCH   4   6
HETATM    6  C   UNL     1      -6.327  15.093  68.982  1.00  0.00    -0.100 C  
HETATM    7  O   UNL     1      -6.004  14.804  70.121  1.00  0.00    -0.127 OA 
BRANCH   6   8
HETATM    8  N   UNL     1      -7.224  16.112  68.697  1.00  0.00    -0.151 N  
HETATM    9  H   UNL     1      -8.174  16.023  69.056  1.00  0.00     0.000 HD 
BRANCH   8  10
HETATM   10  S   UNL     1      -6.854  17.475  67.805  1.00  0.00    -0.177 S  
HETATM   11  O   UNL     1      -6.029  18.359  68.597  1.00  0.00    -0.190 OA 
HETATM   12  O   UNL     1      -6.370  16.957  66.539  1.00  0.00    -0.203 OA 
BRANCH  10  13
HETATM   13  C   UNL     1      -8.375  18.291  67.470  1.00  0.00    -0.245 A  
HETATM   14  C   UNL     1      -9.351  17.725  66.639  1.00  0.00    -0.287 A  
HETATM   15  N   UNL     1      -9.709  20.295  67.790  1.00  0.00    -0.392 NA 
HETATM   16  C   UNL     1     -10.470  18.526  66.356  1.00  0.00    -0.443 A  
HETATM   17  C   UNL     1     -10.608  19.775  66.938  1.00  0.00    -0.466 A  
HETATM   18  C   UNL     1      -8.609  19.543  68.025  1.00  0.00    -0.325 A  
BRANCH  14  19
HETATM   19  N   UNL     1      -9.305  16.381  66.194  1.00  0.00    -0.317 NA 
HETATM   20  H   UNL     1      -8.604  16.179  65.482  1.00  0.00     0.000 HD 
BRANCH  19  21
HETATM   21  C   UNL     1     -10.096  15.282  66.600  1.00  0.00    -0.261 A  
HETATM   22  C   UNL     1     -11.428  13.334  66.006  1.00  0.00    -0.360 A  
HETATM   23  C   UNL     1     -10.503  14.327  65.662  1.00  0.00    -0.336 A  
HETATM   24  C   UNL     1     -11.987  13.302  67.285  1.00  0.00    -0.393 A  
HETATM   25  C   UNL     1     -11.585  14.232  68.244  1.00  0.00    -0.358 A  
HETATM   26  C   UNL     1     -10.605  15.175  67.904  1.00  0.00    -0.257 A  
HETATM   27  C   UNL     1     -12.230  14.302  69.596  1.00  0.00    -0.371 C  
ENDBRANCH  19  21
ENDBRANCH  14  19
ENDBRANCH  10  13
ENDBRANCH   8  10
ENDBRANCH   6   8
ENDBRANCH   4   6
ENDBRANCH   2   4
TORSDOF 7
ENDMDL
MODEL      180
REMARK 921   NORMALIZED FREE ENERGY PREDICTED BY IDOCK:   -4.36 KCAL/MOL
REMARK 922        TOTAL FREE ENERGY PREDICTED BY IDOCK:   -8.00 KCAL/MOL
REMARK 923 INTER-LIGAND FREE ENERGY PREDICTED BY IDOCK:   -6.58 KCAL/MOL
REMARK 924 INTRA-LIGAND FREE ENERGY PREDICTED BY IDOCK:   -1.43 KCAL/MOL
REMARK 927      BINDING AFFINITY PREDICTED BY RF-SCORE:    0.00 PKD
ROOT
HETATM    1  C   UNL     1     -10.421   6.493  69.566  1.00  0.00    -0.265 C  
HETATM    2  C   UNL     1     -10.248   7.591  68.516  1.00  0.00    -0.197 C  
HETATM    3  C   UNL     1     -10.857   7.163  67.186  1.00  0.00    -0.403 C  
ENDROOT
BRANCH   2   4
HETATM    4  N   UNL     1     -10.823   8.854  68.960  1.00  0.00    -0.416 N  
HETATM    5  H   UNL     1     -11.730   9.149  68.596  1.00  0.00     0.000 HD 
BRANCH   4   6
HETATM    6  C   UNL     1     -10.164   9.652  69.856  1.00  0.00    -0.245 C  
HETATM    7  O   UNL     1      -9.737   9.260  70.927  1.00  0.00    -0.256 OA 
BRANCH   6   8
HETATM    8  N   UNL     1     -10.103  10.981  69.468  1.00  0.00    -0.441 N  
HETATM    9  H   UNL     1      -9.199  11.450  69.517  1.00  0.00     0.000 HD 
BRANCH   8  10
HETATM   10  S   UNL     1     -11.410  11.870  68.924  1.00  0.00    -0.304 S  
HETATM   11  O   UNL     1     -12.137  11.101  67.940  1.00  0.00    -0.627 OA 
HETATM   12  O   UNL     1     -12.068  12.321  70.137  1.00  0.00    -0.327 OA 
BRANCH  10  13
HETATM   13  C   UNL     1     -10.760  13.301  68.138  1.00  0.00    -0.249 A  
HETATM   14  C   UNL     1      -9.502  13.299  67.521  1.00  0.00    -0.220 A  
HETATM   15  N   UNL     1     -11.082  15.655  67.634  1.00  0.00    -0.323 NA 
HETATM   16  C   UNL     1      -9.045  14.535  67.031  1.00  0.00    -0.254 A  
HETATM   17  C   UNL     1      -9.847  15.662  67.106  1.00  0.00    -0.229 A  
HETATM   18  C   UNL     1     -11.501  14.476  68.148  1.00  0.00    -0.312 A  
BRANCH  14  19
HETATM   19  N   UNL     1      -8.762  12.117  67.275  1.00  0.00    -0.174 NA 
HETATM   20  H   UNL     1      -8.115  11.842  68.015  1.00  0.00     0.000 HD 
BRANCH  19  21
HETATM   21  C   UNL     1      -8.794  11.265  66.146  1.00  0.00    -0.190 A  
HETATM   22  C   UNL     1      -9.910  10.536  64.111  1.00  0.00    -0.401 A  
HETATM   23  C   UNL     1      -9.746  11.468  65.142  1.00  0.00    -0.268 A  
HETATM   24  C   UNL     1      -9.146   9.367  64.089  1.00  0.00    -0.132 A  
HETATM   25  C   UNL     1      -8.177   9.149  65.069  1.00  0.00    -0.150 A  
HETATM   26  C   UNL     1      -7.978  10.127  66.053  1.00  0.00    -0.124 A  
HETATM   27  C   UNL     1      -7.406   7.866  65.145  1.00  0.00    -0.071 C  
ENDBRANCH  19  21
ENDBRANCH  14  19
ENDBRANCH  10  13
ENDBRANCH   8  10
ENDBRANCH   6   8
ENDBRANCH   4   6
ENDBRANCH   2   4
TORSDOF 7
ENDMDL
MODEL      181
REMARK 921   NORMALIZED FREE ENERGY PREDICTED BY IDOCK:   -4.36 KCAL/MOL
REMARK 922        TOTAL FREE ENERGY PREDICTED BY IDOCK:   -7.99 KCAL/MOL
REMARK 923 INTER-LIGAND FREE ENERGY PREDICTED BY IDOCK:   -6.28 KCAL/MOL
REMARK 924 INTRA-LIGAND FREE ENERGY PREDICTED BY IDOCK:   -1.71 KCAL/MOL
REMARK 927      BINDING AFFINITY PREDICTED BY RF-SCORE:    0.00 PKD
ROOT
HETATM    1  C   UNL     1      -9.932   5.105  72.015  1.00  0.00    -0.240 C  
HETATM    2  C   UNL     1     -10.710   6.418  72.101  1.00  0.00    -0.227 C  
HETATM    3  C   UNL     1     -10.738   6.933  73.536  1.00  0.00    -0.342 C  
ENDROOT
BRANCH   2   4
HETATM    4  N   UNL     1     -10.162   7.429  71.206  1.00  0.00    -0.189 N  
HETATM    5  H   UNL     1      -9.151   7.551  71.145  1.00  0.00     0.000 HD 
BRANCH   4   6
HETATM    6  C   UNL     1     -10.983   8.216  70.445  1.00  0.00    -0.247 C  
HETATM    7  O   UNL     1     -11.395   9.307  70.797  1.00  0.00    -0.257 OA 
BRANCH   6   8
HETATM    8  N   UNL     1     -11.379   7.615  69.260  1.00  0.00    -0.370 N  
HETATM    9  H   UNL     1     -12.376   7.461  69.116  1.00  0.00     0.000 HD 
BRANCH   8  10
HETATM   10  S   UNL     1     -10.333   7.126  68.052  1.00  0.00    -0.205 S  
HETATM   11  O   UNL     1      -9.716   5.874  68.428  1.00  0.00    -0.121 OA 
HETATM   12  O   UNL     1     -11.119   7.221  66.836  1.00  0.00    -0.287 OA 
BRANCH  10  13
HETATM   13  C   UNL     1      -9.077   8.349  67.940  1.00  0.00    -0.133 A  
HETATM   14  C   UNL     1      -9.349   9.652  67.503  1.00  0.00    -0.130 A  
HETATM   15  N   UNL     1      -6.710   8.845  68.167  1.00  0.00    -0.064 NA 
HETATM   16  C   UNL     1      -8.241  10.502  67.346  1.00  0.00    -0.118 A  
HETATM   17  C   UNL     1      -6.969  10.070  67.681  1.00  0.00    -0.085 A  
HETATM   18  C   UNL     1      -7.770   8.012  68.273  1.00  0.00    -0.117 A  
BRANCH  14  19
HETATM   19  N   UNL     1     -10.663  10.155  67.339  1.00  0.00    -0.277 NA 
HETATM   20  H   UNL     1     -11.413   9.518  67.605  1.00  0.00     0.000 HD 
BRANCH  19  21
HETATM   21  C   UNL     1     -11.079  11.418  66.857  1.00  0.00    -0.295 A  
HETATM   22  C   UNL     1     -12.091  13.588  67.288  1.00  0.00    -0.367 A  
HETATM   23  C   UNL     1     -11.511  12.402  67.753  1.00  0.00    -0.383 A  
HETATM   24  C   UNL     1     -12.280  13.793  65.920  1.00  0.00    -0.501 A  
HETATM   25  C   UNL     1     -11.843  12.835  65.006  1.00  0.00    -0.423 A  
HETATM   26  C   UNL     1     -11.199  11.686  65.485  1.00  0.00    -0.267 A  
HETATM   27  C   UNL     1     -12.115  12.963  63.536  1.00  0.00    -0.633 C  
ENDBRANCH  19  21
ENDBRANCH  14  19
ENDBRANCH  10  13
ENDBRANCH   8  10
ENDBRANCH   6   8
ENDBRANCH   4   6
ENDBRANCH   2   4
TORSDOF 7
ENDMDL
MODEL      182
REMARK 921   NORMALIZED FREE ENERGY PREDICTED BY IDOCK:   -4.35 KCAL/MOL
REMARK 922        TOTAL FREE ENERGY PREDICTED BY IDOCK:   -7.98 KCAL/MOL
REMARK 923 INTER-LIGAND FREE ENERGY PREDICTED BY IDOCK:   -6.93 KCAL/MOL
REMARK 924 INTRA-LIGAND FREE ENERGY PREDICTED BY IDOCK:   -1.05 KCAL/MOL
REMARK 927      BINDING AFFINITY PREDICTED BY RF-SCORE:    0.00 PKD
ROOT
HETATM    1  C   UNL     1     -10.613  14.063  65.052  1.00  0.00    -0.426 C  
HETATM    2  C   UNL     1      -9.945  13.697  66.378  1.00  0.00    -0.296 C  
HETATM    3  C   UNL     1      -8.879  14.724  66.744  1.00  0.00    -0.281 C  
ENDROOT
BRANCH   2   4
HETATM    4  N   UNL     1     -10.920  13.565  67.453  1.00  0.00    -0.268 N  
HETATM    5  H   UNL     1     -11.361  14.402  67.836  1.00  0.00     0.000 HD 
BRANCH   4   6
HETATM    6  C   UNL     1     -11.253  12.337  67.955  1.00  0.00    -0.274 C  
HETATM    7  O   UNL     1     -12.242  11.710  67.618  1.00  0.00    -0.544 OA 
BRANCH   6   8
HETATM    8  N   UNL     1     -10.400  11.903  68.958  1.00  0.00    -0.404 N  
HETATM    9  H   UNL     1      -9.953  12.611  69.540  1.00  0.00     0.000 HD 
BRANCH   8  10
HETATM   10  S   UNL     1     -10.054  10.300  69.279  1.00  0.00    -0.237 S  
HETATM   11  O   UNL     1     -10.261   9.515  68.083  1.00  0.00    -0.175 OA 
HETATM   12  O   UNL     1      -8.753  10.334  69.919  1.00  0.00    -0.131 OA 
BRANCH  10  13
HETATM   13  C   UNL     1     -11.205   9.766  70.496  1.00  0.00    -0.315 A  
HETATM   14  C   UNL     1     -11.168   8.472  71.032  1.00  0.00    -0.268 A  
HETATM   15  N   UNL     1     -13.172  10.327  71.804  1.00  0.00    -0.430 NA 
HETATM   16  C   UNL     1     -12.211   8.130  71.909  1.00  0.00    -0.373 A  
HETATM   17  C   UNL     1     -13.171   9.065  72.260  1.00  0.00    -0.460 A  
HETATM   18  C   UNL     1     -12.195  10.642  70.923  1.00  0.00    -0.395 A  
BRANCH  14  19
HETATM   19  N   UNL     1     -10.090   7.578  70.823  1.00  0.00    -0.193 NA 
HETATM   20  H   UNL     1      -9.181   7.900  71.156  1.00  0.00     0.000 HD 
BRANCH  19  21
HETATM   21  C   UNL     1     -10.097   6.300  70.217  1.00  0.00    -0.184 A  
HETATM   22  C   UNL     1      -9.639   3.915  70.366  1.00  0.00    -0.266 A  
HETATM   23  C   UNL     1      -9.811   5.162  70.979  1.00  0.00    -0.261 A  
HETATM   24  C   UNL     1      -9.717   3.794  68.977  1.00  0.00    -0.094 A  
HETATM   25  C   UNL     1     -10.019   4.910  68.197  1.00  0.00    -0.171 A  
HETATM   26  C   UNL     1     -10.258   6.136  68.833  1.00  0.00    -0.232 A  
HETATM   27  C   UNL     1     -10.012   4.852  66.698  1.00  0.00    -0.254 C  
ENDBRANCH  19  21
ENDBRANCH  14  19
ENDBRANCH  10  13
ENDBRANCH   8  10
ENDBRANCH   6   8
ENDBRANCH   4   6
ENDBRANCH   2   4
TORSDOF 7
ENDMDL
MODEL      183
REMARK 921   NORMALIZED FREE ENERGY PREDICTED BY IDOCK:   -4.35 KCAL/MOL
REMARK 922        TOTAL FREE ENERGY PREDICTED BY IDOCK:   -7.98 KCAL/MOL
REMARK 923 INTER-LIGAND FREE ENERGY PREDICTED BY IDOCK:   -6.46 KCAL/MOL
REMARK 924 INTRA-LIGAND FREE ENERGY PREDICTED BY IDOCK:   -1.53 KCAL/MOL
REMARK 927      BINDING AFFINITY PREDICTED BY RF-SCORE:    0.00 PKD
ROOT
HETATM    1  C   UNL     1     -11.518   6.999  72.423  1.00  0.00    -0.300 C  
HETATM    2  C   UNL     1     -12.552   6.717  71.333  1.00  0.00    -0.297 C  
HETATM    3  C   UNL     1     -13.810   7.549  71.559  1.00  0.00    -0.487 C  
ENDROOT
BRANCH   2   4
HETATM    4  N   UNL     1     -12.010   6.959  70.002  1.00  0.00    -0.644 N  
HETATM    5  H   UNL     1     -12.595   7.404  69.295  1.00  0.00     0.000 HD 
BRANCH   4   6
HETATM    6  C   UNL     1     -10.729   6.598  69.687  1.00  0.00    -0.260 C  
HETATM    7  O   UNL     1     -10.367   5.445  69.530  1.00  0.00    -0.244 OA 
BRANCH   6   8
HETATM    8  N   UNL     1      -9.849   7.668  69.649  1.00  0.00    -0.179 N  
HETATM    9  H   UNL     1      -8.916   7.530  70.036  1.00  0.00     0.000 HD 
BRANCH   8  10
HETATM   10  S   UNL     1     -10.212   9.170  69.012  1.00  0.00    -0.211 S  
HETATM   11  O   UNL     1     -10.887   9.003  67.744  1.00  0.00    -0.194 OA 
HETATM   12  O   UNL     1     -10.860   9.876  70.101  1.00  0.00    -0.258 OA 
BRANCH  10  13
HETATM   13  C   UNL     1      -8.681   9.982  68.721  1.00  0.00    -0.136 A  
HETATM   14  C   UNL     1      -8.606  11.365  68.507  1.00  0.00    -0.150 A  
HETATM   15  N   UNL     1      -6.287   9.731  68.399  1.00  0.00    -0.054 NA 
HETATM   16  C   UNL     1      -7.341  11.876  68.169  1.00  0.00    -0.092 A  
HETATM   17  C   UNL     1      -6.234  11.045  68.127  1.00  0.00    -0.049 A  
HETATM   18  C   UNL     1      -7.513   9.231  68.677  1.00  0.00    -0.080 A  
BRANCH  14  19
HETATM   19  N   UNL     1      -9.693  12.244  68.732  1.00  0.00    -0.411 NA 
HETATM   20  H   UNL     1      -9.937  12.399  69.710  1.00  0.00     0.000 HD 
BRANCH  19  21
HETATM   21  C   UNL     1     -10.488  12.936  67.789  1.00  0.00    -0.220 A  
HETATM   22  C   UNL     1     -12.181  12.880  66.042  1.00  0.00    -0.431 A  
HETATM   23  C   UNL     1     -11.504  12.263  67.101  1.00  0.00    -0.419 A  
HETATM   24  C   UNL     1     -11.828  14.167  65.633  1.00  0.00    -0.377 A  
HETATM   25  C   UNL     1     -10.830  14.865  66.313  1.00  0.00    -0.331 A  
HETATM   26  C   UNL     1     -10.212  14.260  67.416  1.00  0.00    -0.247 A  
HETATM   27  C   UNL     1     -10.347  16.206  65.847  1.00  0.00    -0.384 C  
ENDBRANCH  19  21
ENDBRANCH  14  19
ENDBRANCH  10  13
ENDBRANCH   8  10
ENDBRANCH   6   8
ENDBRANCH   4   6
ENDBRANCH   2   4
TORSDOF 7
ENDMDL
MODEL      184
REMARK 921   NORMALIZED FREE ENERGY PREDICTED BY IDOCK:   -4.35 KCAL/MOL
REMARK 922        TOTAL FREE ENERGY PREDICTED BY IDOCK:   -7.98 KCAL/MOL
REMARK 923 INTER-LIGAND FREE ENERGY PREDICTED BY IDOCK:   -7.02 KCAL/MOL
REMARK 924 INTRA-LIGAND FREE ENERGY PREDICTED BY IDOCK:   -0.96 KCAL/MOL
REMARK 927      BINDING AFFINITY PREDICTED BY RF-SCORE:    0.00 PKD
ROOT
HETATM    1  C   UNL     1     -10.402  15.774  65.655  1.00  0.00    -0.411 C  
HETATM    2  C   UNL     1     -10.870  14.382  66.082  1.00  0.00    -0.309 C  
HETATM    3  C   UNL     1     -11.847  14.478  67.248  1.00  0.00    -0.419 C  
ENDROOT
BRANCH   2   4
HETATM    4  N   UNL     1     -11.468  13.652  64.971  1.00  0.00    -0.317 N  
HETATM    5  H   UNL     1     -12.430  13.853  64.698  1.00  0.00     0.000 HD 
BRANCH   4   6
HETATM    6  C   UNL     1     -10.758  12.702  64.289  1.00  0.00    -0.382 C  
HETATM    7  O   UNL     1     -10.970  12.398  63.129  1.00  0.00    -0.374 OA 
BRANCH   6   8
HETATM    8  N   UNL     1      -9.821  12.046  65.074  1.00  0.00    -0.366 N  
HETATM    9  H   UNL     1      -8.853  12.363  65.022  1.00  0.00     0.000 HD 
BRANCH   8  10
HETATM   10  S   UNL     1     -10.169  10.773  66.098  1.00  0.00    -0.243 S  
HETATM   11  O   UNL     1     -11.349  11.088  66.872  1.00  0.00    -0.357 OA 
HETATM   12  O   UNL     1     -10.145   9.604  65.239  1.00  0.00    -0.237 OA 
BRANCH  10  13
HETATM   13  C   UNL     1      -8.809  10.621  67.200  1.00  0.00    -0.137 A  
HETATM   14  C   UNL     1      -8.880  11.061  68.529  1.00  0.00    -0.159 A  
HETATM   15  N   UNL     1      -6.487   9.960  67.470  1.00  0.00    -0.067 NA 
HETATM   16  C   UNL     1      -7.690  10.992  69.273  1.00  0.00    -0.071 A  
HETATM   17  C   UNL     1      -6.543  10.447  68.719  1.00  0.00    -0.052 A  
HETATM   18  C   UNL     1      -7.620  10.071  66.738  1.00  0.00    -0.103 A  
BRANCH  14  19
HETATM   19  N   UNL     1     -10.091  11.442  69.155  1.00  0.00    -0.413 NA 
HETATM   20  H   UNL     1     -10.337  12.429  69.072  1.00  0.00     0.000 HD 
BRANCH  19  21
HETATM   21  C   UNL     1     -11.009  10.645  69.879  1.00  0.00    -0.274 A  
HETATM   22  C   UNL     1     -12.891  10.498  71.414  1.00  0.00    -0.551 A  
HETATM   23  C   UNL     1     -12.079  11.245  70.551  1.00  0.00    -0.481 A  
HETATM   24  C   UNL     1     -12.621   9.148  71.644  1.00  0.00    -0.433 A  
HETATM   25  C   UNL     1     -11.570   8.523  70.974  1.00  0.00    -0.317 A  
HETATM   26  C   UNL     1     -10.813   9.267  70.059  1.00  0.00    -0.264 A  
HETATM   27  C   UNL     1     -11.179   7.105  71.265  1.00  0.00    -0.287 C  
ENDBRANCH  19  21
ENDBRANCH  14  19
ENDBRANCH  10  13
ENDBRANCH   8  10
ENDBRANCH   6   8
ENDBRANCH   4   6
ENDBRANCH   2   4
TORSDOF 7
ENDMDL
MODEL      185
REMARK 921   NORMALIZED FREE ENERGY PREDICTED BY IDOCK:   -4.35 KCAL/MOL
REMARK 922        TOTAL FREE ENERGY PREDICTED BY IDOCK:   -7.98 KCAL/MOL
REMARK 923 INTER-LIGAND FREE ENERGY PREDICTED BY IDOCK:   -6.71 KCAL/MOL
REMARK 924 INTRA-LIGAND FREE ENERGY PREDICTED BY IDOCK:   -1.26 KCAL/MOL
REMARK 927      BINDING AFFINITY PREDICTED BY RF-SCORE:    0.00 PKD
ROOT
HETATM    1  C   UNL     1     -12.115  12.063  63.252  1.00  0.00    -0.509 C  
HETATM    2  C   UNL     1     -11.507  11.864  64.641  1.00  0.00    -0.279 C  
HETATM    3  C   UNL     1     -10.246  11.013  64.557  1.00  0.00    -0.406 C  
ENDROOT
BRANCH   2   4
HETATM    4  N   UNL     1     -11.223  13.137  65.291  1.00  0.00    -0.288 N  
HETATM    5  H   UNL     1     -10.255  13.423  65.436  1.00  0.00     0.000 HD 
BRANCH   4   6
HETATM    6  C   UNL     1     -12.237  13.955  65.710  1.00  0.00    -0.460 C  
HETATM    7  O   UNL     1     -13.408  13.620  65.751  1.00  0.00    -0.381 OA 
BRANCH   6   8
HETATM    8  N   UNL     1     -11.819  15.244  66.003  1.00  0.00     0.087 N  
HETATM    9  H   UNL     1     -12.348  15.768  66.700  1.00  0.00     0.000 HD 
BRANCH   8  10
HETATM   10  S   UNL     1     -10.507  15.998  65.294  1.00  0.00    -0.289 S  
HETATM   11  O   UNL     1      -9.585  14.998  64.805  1.00  0.00     0.152 OA 
HETATM   12  O   UNL     1     -11.096  16.962  64.383  1.00  0.00    -1.128 OA 
BRANCH  10  13
HETATM   13  C   UNL     1      -9.706  16.919  66.558  1.00  0.00    -0.281 A  
HETATM   14  C   UNL     1      -8.786  16.328  67.434  1.00  0.00    -0.186 A  
HETATM   15  N   UNL     1      -9.507  19.063  67.683  1.00  0.00    -0.301 NA 
HETATM   16  C   UNL     1      -8.304  17.142  68.474  1.00  0.00    -0.262 A  
HETATM   17  C   UNL     1      -8.680  18.472  68.560  1.00  0.00    -0.326 A  
HETATM   18  C   UNL     1     -10.008  18.267  66.710  1.00  0.00    -0.352 A  
BRANCH  14  19
HETATM   19  N   UNL     1      -8.256  15.030  67.241  1.00  0.00    -0.196 NA 
HETATM   20  H   UNL     1      -7.420  14.979  66.659  1.00  0.00     0.000 HD 
BRANCH  19  21
HETATM   21  C   UNL     1      -8.726  13.793  67.742  1.00  0.00    -0.182 A  
HETATM   22  C   UNL     1      -8.759  11.363  67.610  1.00  0.00    -0.136 A  
HETATM   23  C   UNL     1      -8.189  12.594  67.261  1.00  0.00    -0.184 A  
HETATM   24  C   UNL     1      -9.896  11.317  68.419  1.00  0.00    -0.200 A  
HETATM   25  C   UNL     1     -10.440  12.497  68.925  1.00  0.00    -0.109 A  
HETATM   26  C   UNL     1      -9.815  13.715  68.623  1.00  0.00    -0.140 A  
HETATM   27  C   UNL     1     -11.717  12.505  69.712  1.00  0.00    -0.355 C  
ENDBRANCH  19  21
ENDBRANCH  14  19
ENDBRANCH  10  13
ENDBRANCH   8  10
ENDBRANCH   6   8
ENDBRANCH   4   6
ENDBRANCH   2   4
TORSDOF 7
ENDMDL
MODEL      186
REMARK 921   NORMALIZED FREE ENERGY PREDICTED BY IDOCK:   -4.35 KCAL/MOL
REMARK 922        TOTAL FREE ENERGY PREDICTED BY IDOCK:   -7.98 KCAL/MOL
REMARK 923 INTER-LIGAND FREE ENERGY PREDICTED BY IDOCK:   -6.75 KCAL/MOL
REMARK 924 INTRA-LIGAND FREE ENERGY PREDICTED BY IDOCK:   -1.23 KCAL/MOL
REMARK 927      BINDING AFFINITY PREDICTED BY RF-SCORE:    0.00 PKD
ROOT
HETATM    1  C   UNL     1     -12.229  15.638  71.002  1.00  0.00    -0.462 C  
HETATM    2  C   UNL     1     -12.298  14.114  71.109  1.00  0.00    -0.372 C  
HETATM    3  C   UNL     1     -13.247  13.698  72.227  1.00  0.00    -0.565 C  
ENDROOT
BRANCH   2   4
HETATM    4  N   UNL     1     -12.694  13.503  69.847  1.00  0.00    -0.033 N  
HETATM    5  H   UNL     1     -13.677  13.507  69.574  1.00  0.00     0.000 HD 
BRANCH   4   6
HETATM    6  C   UNL     1     -11.767  12.924  69.023  1.00  0.00    -0.327 C  
HETATM    7  O   UNL     1     -11.670  13.168  67.834  1.00  0.00    -0.319 OA 
BRANCH   6   8
HETATM    8  N   UNL     1     -10.997  11.960  69.654  1.00  0.00    -0.467 N  
HETATM    9  H   UNL     1     -10.073  12.234  69.988  1.00  0.00     0.000 HD 
BRANCH   8  10
HETATM   10  S   UNL     1     -11.478  10.379  69.905  1.00  0.00    -0.307 S  
HETATM   11  O   UNL     1     -11.090   9.964  71.235  1.00  0.00    -0.351 OA 
HETATM   12  O   UNL     1     -12.873  10.360  69.507  1.00  0.00    -0.044 OA 
BRANCH  10  13
HETATM   13  C   UNL     1     -10.605   9.392  68.742  1.00  0.00    -0.208 A  
HETATM   14  C   UNL     1     -10.628   7.992  68.794  1.00  0.00    -0.118 A  
HETATM   15  N   UNL     1      -9.087   9.366  66.846  1.00  0.00    -0.133 NA 
HETATM   16  C   UNL     1      -9.797   7.320  67.882  1.00  0.00    -0.172 A  
HETATM   17  C   UNL     1      -9.061   8.028  66.947  1.00  0.00    -0.152 A  
HETATM   18  C   UNL     1      -9.850  10.015  67.755  1.00  0.00    -0.157 A  
BRANCH  14  19
HETATM   19  N   UNL     1     -11.518   7.263  69.619  1.00  0.00    -0.496 NA 
HETATM   20  H   UNL     1     -12.506   7.492  69.509  1.00  0.00     0.000 HD 
BRANCH  19  21
HETATM   21  C   UNL     1     -11.228   6.262  70.575  1.00  0.00    -0.354 A  
HETATM   22  C   UNL     1     -11.349   5.470  72.873  1.00  0.00    -0.348 A  
HETATM   23  C   UNL     1     -11.764   6.348  71.865  1.00  0.00    -0.378 A  
HETATM   24  C   UNL     1     -10.366   4.513  72.614  1.00  0.00    -0.252 A  
HETATM   25  C   UNL     1      -9.828   4.395  71.333  1.00  0.00    -0.262 A  
HETATM   26  C   UNL     1     -10.306   5.235  70.318  1.00  0.00    -0.350 A  
HETATM   27  C   UNL     1      -8.700   3.454  71.032  1.00  0.00    -0.123 C  
ENDBRANCH  19  21
ENDBRANCH  14  19
ENDBRANCH  10  13
ENDBRANCH   8  10
ENDBRANCH   6   8
ENDBRANCH   4   6
ENDBRANCH   2   4
TORSDOF 7
ENDMDL
MODEL      187
REMARK 921   NORMALIZED FREE ENERGY PREDICTED BY IDOCK:   -4.34 KCAL/MOL
REMARK 922        TOTAL FREE ENERGY PREDICTED BY IDOCK:   -7.97 KCAL/MOL
REMARK 923 INTER-LIGAND FREE ENERGY PREDICTED BY IDOCK:   -7.14 KCAL/MOL
REMARK 924 INTRA-LIGAND FREE ENERGY PREDICTED BY IDOCK:   -0.83 KCAL/MOL
REMARK 927      BINDING AFFINITY PREDICTED BY RF-SCORE:    0.00 PKD
ROOT
HETATM    1  C   UNL     1     -13.976  14.848  71.748  1.00  0.00    -0.583 C  
HETATM    2  C   UNL     1     -12.663  15.563  71.427  1.00  0.00    -0.451 C  
HETATM    3  C   UNL     1     -12.105  16.245  72.671  1.00  0.00    -0.628 C  
ENDROOT
BRANCH   2   4
HETATM    4  N   UNL     1     -11.679  14.651  70.858  1.00  0.00    -0.395 N  
HETATM    5  H   UNL     1     -10.714  14.683  71.189  1.00  0.00     0.000 HD 
BRANCH   4   6
HETATM    6  C   UNL     1     -12.030  13.753  69.887  1.00  0.00    -0.347 C  
HETATM    7  O   UNL     1     -12.014  12.544  70.042  1.00  0.00    -0.332 OA 
BRANCH   6   8
HETATM    8  N   UNL     1     -12.325  14.346  68.669  1.00  0.00    -0.584 N  
HETATM    9  H   UNL     1     -13.048  15.065  68.654  1.00  0.00     0.000 HD 
BRANCH   8  10
HETATM   10  S   UNL     1     -11.576  13.965  67.225  1.00  0.00    -0.387 S  
HETATM   11  O   UNL     1     -11.019  12.634  67.309  1.00  0.00    -0.242 OA 
HETATM   12  O   UNL     1     -12.566  14.284  66.212  1.00  0.00    -0.416 OA 
BRANCH  10  13
HETATM   13  C   UNL     1     -10.255  15.106  67.020  1.00  0.00    -0.262 A  
HETATM   14  C   UNL     1      -9.081  15.022  67.780  1.00  0.00    -0.180 A  
HETATM   15  N   UNL     1      -9.468  17.108  65.894  1.00  0.00    -0.523 NA 
HETATM   16  C   UNL     1      -8.150  16.061  67.607  1.00  0.00    -0.164 A  
HETATM   17  C   UNL     1      -8.377  17.061  66.675  1.00  0.00    -0.250 A  
HETATM   18  C   UNL     1     -10.386  16.135  66.096  1.00  0.00    -0.339 A  
BRANCH  14  19
HETATM   19  N   UNL     1      -8.762  13.907  68.592  1.00  0.00    -0.321 NA 
HETATM   20  H   UNL     1      -9.280  13.839  69.468  1.00  0.00     0.000 HD 
BRANCH  19  21
HETATM   21  C   UNL     1      -7.824  12.875  68.358  1.00  0.00    -0.133 A  
HETATM   22  C   UNL     1      -5.576  11.990  68.647  1.00  0.00    -0.052 A  
HETATM   23  C   UNL     1      -6.581  12.899  68.999  1.00  0.00    -0.102 A  
HETATM   24  C   UNL     1      -5.789  11.063  67.624  1.00  0.00    -0.044 A  
HETATM   25  C   UNL     1      -7.026  11.007  66.982  1.00  0.00    -0.117 A  
HETATM   26  C   UNL     1      -8.043  11.878  67.395  1.00  0.00    -0.165 A  
HETATM   27  C   UNL     1      -7.268  10.101  65.812  1.00  0.00    -0.128 C  
ENDBRANCH  19  21
ENDBRANCH  14  19
ENDBRANCH  10  13
ENDBRANCH   8  10
ENDBRANCH   6   8
ENDBRANCH   4   6
ENDBRANCH   2   4
TORSDOF 7
ENDMDL
MODEL      188
REMARK 921   NORMALIZED FREE ENERGY PREDICTED BY IDOCK:   -4.34 KCAL/MOL
REMARK 922        TOTAL FREE ENERGY PREDICTED BY IDOCK:   -7.97 KCAL/MOL
REMARK 923 INTER-LIGAND FREE ENERGY PREDICTED BY IDOCK:   -6.55 KCAL/MOL
REMARK 924 INTRA-LIGAND FREE ENERGY PREDICTED BY IDOCK:   -1.42 KCAL/MOL
REMARK 927      BINDING AFFINITY PREDICTED BY RF-SCORE:    0.00 PKD
ROOT
HETATM    1  C   UNL     1      -9.550  11.681  68.583  1.00  0.00    -0.139 C  
HETATM    2  C   UNL     1     -11.074  11.571  68.622  1.00  0.00    -0.238 C  
HETATM    3  C   UNL     1     -11.712  12.639  67.742  1.00  0.00    -0.412 C  
ENDROOT
BRANCH   2   4
HETATM    4  N   UNL     1     -11.528  10.244  68.227  1.00  0.00    -0.525 N  
HETATM    5  H   UNL     1     -12.380   9.861  68.638  1.00  0.00     0.000 HD 
BRANCH   4   6
HETATM    6  C   UNL     1     -10.829   9.504  67.312  1.00  0.00    -0.118 C  
HETATM    7  O   UNL     1     -10.270   9.978  66.339  1.00  0.00    -0.236 OA 
BRANCH   6   8
HETATM    8  N   UNL     1     -10.887   8.139  67.548  1.00  0.00    -0.510 N  
HETATM    9  H   UNL     1     -11.802   7.691  67.519  1.00  0.00     0.000 HD 
BRANCH   8  10
HETATM   10  S   UNL     1      -9.560   7.178  67.878  1.00  0.00    -0.134 S  
HETATM   11  O   UNL     1      -9.996   5.968  68.539  1.00  0.00    -0.128 OA 
HETATM   12  O   UNL     1      -8.844   7.109  66.618  1.00  0.00    -0.121 OA 
BRANCH  10  13
HETATM   13  C   UNL     1      -8.543   8.081  68.991  1.00  0.00    -0.137 A  
HETATM   14  C   UNL     1      -8.878   8.233  70.343  1.00  0.00    -0.141 A  
HETATM   15  N   UNL     1      -6.556   9.452  69.256  1.00  0.00    -0.048 NA 
HETATM   16  C   UNL     1      -8.046   9.074  71.101  1.00  0.00    -0.185 A  
HETATM   17  C   UNL     1      -6.922   9.650  70.533  1.00  0.00    -0.130 A  
HETATM   18  C   UNL     1      -7.384   8.682  68.514  1.00  0.00    -0.085 A  
BRANCH  14  19
HETATM   19  N   UNL     1      -9.914   7.500  70.971  1.00  0.00    -0.186 NA 
HETATM   20  H   UNL     1      -9.688   6.532  71.204  1.00  0.00     0.000 HD 
BRANCH  19  21
HETATM   21  C   UNL     1     -11.218   7.922  71.320  1.00  0.00    -0.255 A  
HETATM   22  C   UNL     1     -13.600   7.445  71.462  1.00  0.00    -0.454 A  
HETATM   23  C   UNL     1     -12.279   7.011  71.294  1.00  0.00    -0.419 A  
HETATM   24  C   UNL     1     -13.881   8.803  71.625  1.00  0.00    -0.443 A  
HETATM   25  C   UNL     1     -12.839   9.729  71.673  1.00  0.00    -0.519 A  
HETATM   26  C   UNL     1     -11.519   9.269  71.574  1.00  0.00    -0.454 A  
HETATM   27  C   UNL     1     -13.096  11.205  71.743  1.00  0.00    -0.536 C  
ENDBRANCH  19  21
ENDBRANCH  14  19
ENDBRANCH  10  13
ENDBRANCH   8  10
ENDBRANCH   6   8
ENDBRANCH   4   6
ENDBRANCH   2   4
TORSDOF 7
ENDMDL
MODEL      189
REMARK 921   NORMALIZED FREE ENERGY PREDICTED BY IDOCK:   -4.31 KCAL/MOL
REMARK 922        TOTAL FREE ENERGY PREDICTED BY IDOCK:   -7.93 KCAL/MOL
REMARK 923 INTER-LIGAND FREE ENERGY PREDICTED BY IDOCK:   -6.36 KCAL/MOL
REMARK 924 INTRA-LIGAND FREE ENERGY PREDICTED BY IDOCK:   -1.57 KCAL/MOL
REMARK 927      BINDING AFFINITY PREDICTED BY RF-SCORE:    0.00 PKD
ROOT
HETATM    1  C   UNL     1     -10.200   3.955  64.701  1.00  0.00    -0.216 C  
HETATM    2  C   UNL     1     -10.380   4.560  66.094  1.00  0.00    -0.223 C  
HETATM    3  C   UNL     1      -9.235   4.146  67.011  1.00  0.00    -0.173 C  
ENDROOT
BRANCH   2   4
HETATM    4  N   UNL     1     -10.493   6.012  66.039  1.00  0.00    -0.396 N  
HETATM    5  H   UNL     1     -10.341   6.494  65.153  1.00  0.00     0.000 HD 
BRANCH   4   6
HETATM    6  C   UNL     1     -10.800   6.737  67.158  1.00  0.00    -0.392 C  
HETATM    7  O   UNL     1     -11.531   6.338  68.047  1.00  0.00    -0.138 OA 
BRANCH   6   8
HETATM    8  N   UNL     1     -10.267   8.017  67.147  1.00  0.00    -0.262 N  
HETATM    9  H   UNL     1     -10.838   8.766  66.756  1.00  0.00     0.000 HD 
BRANCH   8  10
HETATM   10  S   UNL     1      -8.754   8.417  67.732  1.00  0.00    -0.138 S  
HETATM   11  O   UNL     1      -7.792   7.431  67.292  1.00  0.00    -0.110 OA 
HETATM   12  O   UNL     1      -8.588   9.814  67.375  1.00  0.00    -0.127 OA 
BRANCH  10  13
HETATM   13  C   UNL     1      -8.852   8.350  69.485  1.00  0.00    -0.145 A  
HETATM   14  C   UNL     1      -9.864   9.010  70.195  1.00  0.00    -0.187 A  
HETATM   15  N   UNL     1      -7.820   7.572  71.541  1.00  0.00    -0.085 NA 
HETATM   16  C   UNL     1      -9.766   8.977  71.597  1.00  0.00    -0.347 A  
HETATM   17  C   UNL     1      -8.752   8.264  72.215  1.00  0.00    -0.200 A  
HETATM   18  C   UNL     1      -7.887   7.643  70.192  1.00  0.00    -0.097 A  
BRANCH  14  19
HETATM   19  N   UNL     1     -11.001   9.580  69.573  1.00  0.00    -0.333 NA 
HETATM   20  H   UNL     1     -11.539   8.948  68.979  1.00  0.00     0.000 HD 
BRANCH  19  21
HETATM   21  C   UNL     1     -11.496  10.902  69.662  1.00  0.00    -0.305 A  
HETATM   22  C   UNL     1     -11.363  13.232  68.973  1.00  0.00    -0.334 A  
HETATM   23  C   UNL     1     -11.022  11.886  68.788  1.00  0.00    -0.280 A  
HETATM   24  C   UNL     1     -12.157  13.616  70.055  1.00  0.00    -0.417 A  
HETATM   25  C   UNL     1     -12.656  12.652  70.930  1.00  0.00    -0.338 A  
HETATM   26  C   UNL     1     -12.363  11.302  70.690  1.00  0.00    -0.477 A  
HETATM   27  C   UNL     1     -13.426  13.025  72.162  1.00  0.00    -0.638 C  
ENDBRANCH  19  21
ENDBRANCH  14  19
ENDBRANCH  10  13
ENDBRANCH   8  10
ENDBRANCH   6   8
ENDBRANCH   4   6
ENDBRANCH   2   4
TORSDOF 7
ENDMDL
MODEL      190
REMARK 921   NORMALIZED FREE ENERGY PREDICTED BY IDOCK:   -4.31 KCAL/MOL
REMARK 922        TOTAL FREE ENERGY PREDICTED BY IDOCK:   -7.93 KCAL/MOL
REMARK 923 INTER-LIGAND FREE ENERGY PREDICTED BY IDOCK:   -6.42 KCAL/MOL
REMARK 924 INTRA-LIGAND FREE ENERGY PREDICTED BY IDOCK:   -1.50 KCAL/MOL
REMARK 927      BINDING AFFINITY PREDICTED BY RF-SCORE:    0.00 PKD
ROOT
HETATM    1  C   UNL     1     -12.660  15.585  70.749  1.00  0.00    -0.505 C  
HETATM    2  C   UNL     1     -12.242  14.126  70.567  1.00  0.00    -0.361 C  
HETATM    3  C   UNL     1     -13.043  13.219  71.495  1.00  0.00    -0.414 C  
ENDROOT
BRANCH   2   4
HETATM    4  N   UNL     1     -12.383  13.694  69.183  1.00  0.00    -0.303 N  
HETATM    5  H   UNL     1     -13.008  14.205  68.558  1.00  0.00     0.000 HD 
BRANCH   4   6
HETATM    6  C   UNL     1     -11.690  12.615  68.707  1.00  0.00    -0.323 C  
HETATM    7  O   UNL     1     -12.190  11.726  68.040  1.00  0.00    -0.518 OA 
BRANCH   6   8
HETATM    8  N   UNL     1     -10.371  12.577  69.132  1.00  0.00    -0.422 N  
HETATM    9  H   UNL     1     -10.195  12.580  70.137  1.00  0.00     0.000 HD 
BRANCH   8  10
HETATM   10  S   UNL     1      -9.048  12.528  68.112  1.00  0.00    -0.192 S  
HETATM   11  O   UNL     1      -9.389  11.784  66.920  1.00  0.00    -0.183 OA 
HETATM   12  O   UNL     1      -8.616  13.910  68.017  1.00  0.00    -0.159 OA 
BRANCH  10  13
HETATM   13  C   UNL     1      -7.781  11.657  68.964  1.00  0.00    -0.002 A  
HETATM   14  C   UNL     1      -8.002  10.393  69.527  1.00  0.00    -0.144 A  
HETATM   15  N   UNL     1      -5.499  11.706  69.792  1.00  0.00    -0.068 NA 
HETATM   16  C   UNL     1      -6.946   9.854  70.282  1.00  0.00    -0.147 A  
HETATM   17  C   UNL     1      -5.740  10.527  70.387  1.00  0.00    -0.087 A  
HETATM   18  C   UNL     1      -6.531  12.247  69.106  1.00  0.00    -0.100 A  
BRANCH  14  19
HETATM   19  N   UNL     1      -9.160   9.621  69.267  1.00  0.00    -0.161 NA 
HETATM   20  H   UNL     1      -9.417   9.533  68.284  1.00  0.00     0.000 HD 
BRANCH  19  21
HETATM   21  C   UNL     1     -10.009   8.955  70.181  1.00  0.00    -0.185 A  
HETATM   22  C   UNL     1     -10.842   6.871  71.120  1.00  0.00    -0.270 A  
HETATM   23  C   UNL     1      -9.900   7.572  70.358  1.00  0.00    -0.183 A  
HETATM   24  C   UNL     1     -11.930   7.539  71.686  1.00  0.00    -0.333 A  
HETATM   25  C   UNL     1     -12.052   8.920  71.539  1.00  0.00    -0.395 A  
HETATM   26  C   UNL     1     -11.061   9.616  70.833  1.00  0.00    -0.422 A  
HETATM   27  C   UNL     1     -13.253   9.665  72.041  1.00  0.00    -0.546 C  
ENDBRANCH  19  21
ENDBRANCH  14  19
ENDBRANCH  10  13
ENDBRANCH   8  10
ENDBRANCH   6   8
ENDBRANCH   4   6
ENDBRANCH   2   4
TORSDOF 7
ENDMDL
MODEL      191
REMARK 921   NORMALIZED FREE ENERGY PREDICTED BY IDOCK:   -4.30 KCAL/MOL
REMARK 922        TOTAL FREE ENERGY PREDICTED BY IDOCK:   -7.91 KCAL/MOL
REMARK 923 INTER-LIGAND FREE ENERGY PREDICTED BY IDOCK:   -6.70 KCAL/MOL
REMARK 924 INTRA-LIGAND FREE ENERGY PREDICTED BY IDOCK:   -1.21 KCAL/MOL
REMARK 927      BINDING AFFINITY PREDICTED BY RF-SCORE:    0.00 PKD
ROOT
HETATM    1  C   UNL     1      -6.461  16.625  67.239  1.00  0.00    -0.215 C  
HETATM    2  C   UNL     1      -7.512  17.511  66.570  1.00  0.00    -0.274 C  
HETATM    3  C   UNL     1      -6.880  18.353  65.467  1.00  0.00    -0.218 C  
ENDROOT
BRANCH   2   4
HETATM    4  N   UNL     1      -8.620  16.726  66.043  1.00  0.00    -0.254 N  
HETATM    5  H   UNL     1      -8.432  15.964  65.391  1.00  0.00     0.000 HD 
BRANCH   4   6
HETATM    6  C   UNL     1      -9.911  16.995  66.410  1.00  0.00    -0.299 C  
HETATM    7  O   UNL     1     -10.402  18.110  66.397  1.00  0.00    -0.378 OA 
BRANCH   6   8
HETATM    8  N   UNL     1     -10.591  15.884  66.885  1.00  0.00    -0.314 N  
HETATM    9  H   UNL     1     -10.844  15.869  67.873  1.00  0.00     0.000 HD 
BRANCH   8  10
HETATM   10  S   UNL     1     -11.025  14.568  65.951  1.00  0.00    -0.330 S  
HETATM   11  O   UNL     1     -12.464  14.530  65.814  1.00  0.00    -0.323 OA 
HETATM   12  O   UNL     1     -10.178  14.665  64.777  1.00  0.00    -0.367 OA 
BRANCH  10  13
HETATM   13  C   UNL     1     -10.515  13.133  66.828  1.00  0.00    -0.261 A  
HETATM   14  C   UNL     1     -10.981  12.849  68.118  1.00  0.00    -0.248 A  
HETATM   15  N   UNL     1      -9.092  11.165  66.833  1.00  0.00    -0.156 NA 
HETATM   16  C   UNL     1     -10.409  11.736  68.757  1.00  0.00    -0.198 A  
HETATM   17  C   UNL     1      -9.490  10.939  68.095  1.00  0.00    -0.165 A  
HETATM   18  C   UNL     1      -9.606  12.265  66.236  1.00  0.00    -0.242 A  
BRANCH  14  19
HETATM   19  N   UNL     1     -12.052  13.548  68.726  1.00  0.00    -0.326 NA 
HETATM   20  H   UNL     1     -12.981  13.323  68.368  1.00  0.00     0.000 HD 
BRANCH  19  21
HETATM   21  C   UNL     1     -12.015  14.513  69.759  1.00  0.00    -0.332 A  
HETATM   22  C   UNL     1     -10.802  16.259  70.942  1.00  0.00     0.144 A  
HETATM   23  C   UNL     1     -10.950  15.418  69.833  1.00  0.00    -0.305 A  
HETATM   24  C   UNL     1     -11.698  16.184  72.010  1.00  0.00    -0.574 A  
HETATM   25  C   UNL     1     -12.778  15.303  71.952  1.00  0.00    -0.436 A  
HETATM   26  C   UNL     1     -12.951  14.519  70.803  1.00  0.00    -0.403 A  
HETATM   27  C   UNL     1     -13.707  15.114  73.115  1.00  0.00    -0.232 C  
ENDBRANCH  19  21
ENDBRANCH  14  19
ENDBRANCH  10  13
ENDBRANCH   8  10
ENDBRANCH   6   8
ENDBRANCH   4   6
ENDBRANCH   2   4
TORSDOF 7
ENDMDL
MODEL      192
REMARK 921   NORMALIZED FREE ENERGY PREDICTED BY IDOCK:   -4.28 KCAL/MOL
REMARK 922        TOTAL FREE ENERGY PREDICTED BY IDOCK:   -7.89 KCAL/MOL
REMARK 923 INTER-LIGAND FREE ENERGY PREDICTED BY IDOCK:   -7.11 KCAL/MOL
REMARK 924 INTRA-LIGAND FREE ENERGY PREDICTED BY IDOCK:   -0.78 KCAL/MOL
REMARK 927      BINDING AFFINITY PREDICTED BY RF-SCORE:    0.00 PKD
ROOT
HETATM    1  C   UNL     1     -11.381  15.307  64.286  1.00  0.00    -0.114 C  
HETATM    2  C   UNL     1     -12.401  14.177  64.140  1.00  0.00    -0.335 C  
HETATM    3  C   UNL     1     -11.780  12.984  63.422  1.00  0.00    -0.477 C  
ENDROOT
BRANCH   2   4
HETATM    4  N   UNL     1     -12.944  13.772  65.430  1.00  0.00    -0.727 N  
HETATM    5  H   UNL     1     -13.906  13.441  65.488  1.00  0.00     0.000 HD 
BRANCH   4   6
HETATM    6  C   UNL     1     -12.181  13.831  66.565  1.00  0.00    -0.430 C  
HETATM    7  O   UNL     1     -11.996  14.850  67.207  1.00  0.00    -0.316 OA 
BRANCH   6   8
HETATM    8  N   UNL     1     -11.558  12.631  66.872  1.00  0.00    -0.353 N  
HETATM    9  H   UNL     1     -12.150  11.837  67.113  1.00  0.00     0.000 HD 
BRANCH   8  10
HETATM   10  S   UNL     1      -9.903  12.397  66.873  1.00  0.00    -0.219 S  
HETATM   11  O   UNL     1      -9.349  12.879  65.628  1.00  0.00    -0.008 OA 
HETATM   12  O   UNL     1      -9.462  12.954  68.138  1.00  0.00    -0.210 OA 
BRANCH  10  13
HETATM   13  C   UNL     1      -9.636  10.662  66.963  1.00  0.00    -0.169 A  
HETATM   14  C   UNL     1     -10.459   9.825  67.728  1.00  0.00    -0.246 A  
HETATM   15  N   UNL     1      -8.220   8.797  66.318  1.00  0.00    -0.113 NA 
HETATM   16  C   UNL     1     -10.072   8.477  67.812  1.00  0.00    -0.266 A  
HETATM   17  C   UNL     1      -8.972   8.015  67.108  1.00  0.00    -0.135 A  
HETATM   18  C   UNL     1      -8.565  10.105  66.275  1.00  0.00    -0.131 A  
BRANCH  14  19
HETATM   19  N   UNL     1     -11.685  10.251  68.294  1.00  0.00    -0.719 NA 
HETATM   20  H   UNL     1     -12.420  10.483  67.626  1.00  0.00     0.000 HD 
BRANCH  19  21
HETATM   21  C   UNL     1     -12.032  10.401  69.657  1.00  0.00    -0.136 A  
HETATM   22  C   UNL     1     -12.752   9.394  71.751  1.00  0.00    -0.476 A  
HETATM   23  C   UNL     1     -12.238   9.271  70.455  1.00  0.00     0.001 A  
HETATM   24  C   UNL     1     -13.102  10.648  72.256  1.00  0.00    -0.200 A  
HETATM   25  C   UNL     1     -12.890  11.792  71.487  1.00  0.00    -0.450 A  
HETATM   26  C   UNL     1     -12.308  11.657  70.219  1.00  0.00    -0.339 A  
HETATM   27  C   UNL     1     -13.343  13.146  71.944  1.00  0.00    -0.546 C  
ENDBRANCH  19  21
ENDBRANCH  14  19
ENDBRANCH  10  13
ENDBRANCH   8  10
ENDBRANCH   6   8
ENDBRANCH   4   6
ENDBRANCH   2   4
TORSDOF 7
ENDMDL
MODEL      193
REMARK 921   NORMALIZED FREE ENERGY PREDICTED BY IDOCK:   -4.28 KCAL/MOL
REMARK 922        TOTAL FREE ENERGY PREDICTED BY IDOCK:   -7.88 KCAL/MOL
REMARK 923 INTER-LIGAND FREE ENERGY PREDICTED BY IDOCK:   -6.25 KCAL/MOL
REMARK 924 INTRA-LIGAND FREE ENERGY PREDICTED BY IDOCK:   -1.63 KCAL/MOL
REMARK 927      BINDING AFFINITY PREDICTED BY RF-SCORE:    0.00 PKD
ROOT
HETATM    1  C   UNL     1     -11.679  16.067  71.539  1.00  0.00    -0.554 C  
HETATM    2  C   UNL     1     -12.206  14.632  71.555  1.00  0.00    -0.352 C  
HETATM    3  C   UNL     1     -13.195  14.436  72.699  1.00  0.00    -0.586 C  
ENDROOT
BRANCH   2   4
HETATM    4  N   UNL     1     -12.817  14.269  70.283  1.00  0.00    -0.439 N  
HETATM    5  H   UNL     1     -13.832  14.306  70.184  1.00  0.00     0.000 HD 
BRANCH   4   6
HETATM    6  C   UNL     1     -12.050  13.880  69.219  1.00  0.00    -0.339 C  
HETATM    7  O   UNL     1     -12.093  14.407  68.121  1.00  0.00    -0.310 OA 
BRANCH   6   8
HETATM    8  N   UNL     1     -11.272  12.762  69.481  1.00  0.00    -0.464 N  
HETATM    9  H   UNL     1     -10.261  12.887  69.527  1.00  0.00     0.000 HD 
BRANCH   8  10
HETATM   10  S   UNL     1     -11.878  11.224  69.727  1.00  0.00    -0.392 S  
HETATM   11  O   UNL     1     -12.738  11.227  70.889  1.00  0.00    -0.347 OA 
HETATM   12  O   UNL     1     -12.397  10.831  68.430  1.00  0.00    -0.396 OA 
BRANCH  10  13
HETATM   13  C   UNL     1     -10.502  10.184  70.060  1.00  0.00    -0.274 A  
HETATM   14  C   UNL     1      -9.384  10.142  69.216  1.00  0.00    -0.215 A  
HETATM   15  N   UNL     1      -9.563   8.471  71.504  1.00  0.00    -0.204 NA 
HETATM   16  C   UNL     1      -8.403   9.185  69.527  1.00  0.00    -0.126 A  
HETATM   17  C   UNL     1      -8.528   8.389  70.653  1.00  0.00    -0.135 A  
HETATM   18  C   UNL     1     -10.530   9.359  71.178  1.00  0.00    -0.322 A  
BRANCH  14  19
HETATM   19  N   UNL     1      -9.163  11.078  68.177  1.00  0.00    -0.159 NA 
HETATM   20  H   UNL     1     -10.001  11.407  67.697  1.00  0.00     0.000 HD 
BRANCH  19  21
HETATM   21  C   UNL     1      -7.942  11.620  67.711  1.00  0.00    -0.131 A  
HETATM   22  C   UNL     1      -5.911  11.367  66.396  1.00  0.00    -0.099 A  
HETATM   23  C   UNL     1      -7.200  10.941  66.739  1.00  0.00    -0.134 A  
HETATM   24  C   UNL     1      -5.332  12.458  67.046  1.00  0.00     0.053 A  
HETATM   25  C   UNL     1      -6.057  13.163  68.007  1.00  0.00    -0.118 A  
HETATM   26  C   UNL     1      -7.372  12.766  68.287  1.00  0.00    -0.117 A  
HETATM   27  C   UNL     1      -5.443  14.275  68.803  1.00  0.00    -0.087 C  
ENDBRANCH  19  21
ENDBRANCH  14  19
ENDBRANCH  10  13
ENDBRANCH   8  10
ENDBRANCH   6   8
ENDBRANCH   4   6
ENDBRANCH   2   4
TORSDOF 7
ENDMDL
MODEL      194
REMARK 921   NORMALIZED FREE ENERGY PREDICTED BY IDOCK:   -4.27 KCAL/MOL
REMARK 922        TOTAL FREE ENERGY PREDICTED BY IDOCK:   -7.87 KCAL/MOL
REMARK 923 INTER-LIGAND FREE ENERGY PREDICTED BY IDOCK:   -6.28 KCAL/MOL
REMARK 924 INTRA-LIGAND FREE ENERGY PREDICTED BY IDOCK:   -1.60 KCAL/MOL
REMARK 927      BINDING AFFINITY PREDICTED BY RF-SCORE:    0.00 PKD
ROOT
HETATM    1  C   UNL     1      -8.688   2.513  71.809  1.00  0.00    -0.109 C  
HETATM    2  C   UNL     1      -8.609   3.658  70.799  1.00  0.00    -0.071 C  
HETATM    3  C   UNL     1      -9.582   3.428  69.649  1.00  0.00    -0.160 C  
ENDROOT
BRANCH   2   4
HETATM    4  N   UNL     1      -8.857   4.949  71.429  1.00  0.00    -0.131 N  
HETATM    5  H   UNL     1      -9.222   4.982  72.381  1.00  0.00     0.000 HD 
BRANCH   4   6
HETATM    6  C   UNL     1      -8.607   6.117  70.762  1.00  0.00    -0.135 C  
HETATM    7  O   UNL     1      -7.591   6.332  70.124  1.00  0.00    -0.091 OA 
BRANCH   6   8
HETATM    8  N   UNL     1      -9.586   7.080  70.952  1.00  0.00    -0.168 N  
HETATM    9  H   UNL     1      -9.283   8.037  71.131  1.00  0.00     0.000 HD 
BRANCH   8  10
HETATM   10  S   UNL     1     -11.230   6.780  70.906  1.00  0.00    -0.312 S  
HETATM   11  O   UNL     1     -11.589   6.271  69.601  1.00  0.00    -0.430 OA 
HETATM   12  O   UNL     1     -11.485   5.992  72.097  1.00  0.00    -0.289 OA 
BRANCH  10  13
HETATM   13  C   UNL     1     -12.035   8.325  71.137  1.00  0.00    -0.265 A  
HETATM   14  C   UNL     1     -11.722   9.446  70.357  1.00  0.00    -0.144 A  
HETATM   15  N   UNL     1     -13.632   9.597  72.452  1.00  0.00    -0.398 NA 
HETATM   16  C   UNL     1     -12.350  10.651  70.717  1.00  0.00    -0.472 A  
HETATM   17  C   UNL     1     -13.277  10.682  71.746  1.00  0.00    -0.421 A  
HETATM   18  C   UNL     1     -12.992   8.447  72.136  1.00  0.00    -0.337 A  
BRANCH  14  19
HETATM   19  N   UNL     1     -10.922   9.380  69.191  1.00  0.00    -0.403 NA 
HETATM   20  H   UNL     1     -10.605   8.447  68.928  1.00  0.00     0.000 HD 
BRANCH  19  21
HETATM   21  C   UNL     1     -10.501  10.428  68.339  1.00  0.00    -0.189 A  
HETATM   22  C   UNL     1      -9.008  12.302  67.915  1.00  0.00    -0.186 A  
HETATM   23  C   UNL     1      -9.343  11.154  68.642  1.00  0.00    -0.186 A  
HETATM   24  C   UNL     1      -9.846  12.762  66.897  1.00  0.00    -0.236 A  
HETATM   25  C   UNL     1     -10.996  12.048  66.565  1.00  0.00    -0.337 A  
HETATM   26  C   UNL     1     -11.279  10.861  67.255  1.00  0.00    -0.307 A  
HETATM   27  C   UNL     1     -11.978  12.556  65.551  1.00  0.00    -0.500 C  
ENDBRANCH  19  21
ENDBRANCH  14  19
ENDBRANCH  10  13
ENDBRANCH   8  10
ENDBRANCH   6   8
ENDBRANCH   4   6
ENDBRANCH   2   4
TORSDOF 7
ENDMDL
MODEL      195
REMARK 921   NORMALIZED FREE ENERGY PREDICTED BY IDOCK:   -4.27 KCAL/MOL
REMARK 922        TOTAL FREE ENERGY PREDICTED BY IDOCK:   -7.87 KCAL/MOL
REMARK 923 INTER-LIGAND FREE ENERGY PREDICTED BY IDOCK:   -6.91 KCAL/MOL
REMARK 924 INTRA-LIGAND FREE ENERGY PREDICTED BY IDOCK:   -0.97 KCAL/MOL
REMARK 927      BINDING AFFINITY PREDICTED BY RF-SCORE:    0.00 PKD
ROOT
HETATM    1  C   UNL     1     -11.690  15.006  64.215  1.00  0.00    -0.245 C  
HETATM    2  C   UNL     1     -12.327  13.630  64.016  1.00  0.00    -0.325 C  
HETATM    3  C   UNL     1     -11.304  12.638  63.474  1.00  0.00    -0.527 C  
ENDROOT
BRANCH   2   4
HETATM    4  N   UNL     1     -12.921  13.129  65.250  1.00  0.00    -0.593 N  
HETATM    5  H   UNL     1     -13.841  12.690  65.222  1.00  0.00     0.000 HD 
BRANCH   4   6
HETATM    6  C   UNL     1     -12.263  13.241  66.444  1.00  0.00    -0.356 C  
HETATM    7  O   UNL     1     -12.186  14.276  67.083  1.00  0.00    -0.410 OA 
BRANCH   6   8
HETATM    8  N   UNL     1     -11.610  12.079  66.824  1.00  0.00    -0.347 N  
HETATM    9  H   UNL     1     -12.179  11.253  67.007  1.00  0.00     0.000 HD 
BRANCH   8  10
HETATM   10  S   UNL     1      -9.955  11.937  67.002  1.00  0.00    -0.204 S  
HETATM   11  O   UNL     1      -9.296  12.915  66.165  1.00  0.00    -0.203 OA 
HETATM   12  O   UNL     1      -9.746  11.940  68.438  1.00  0.00    -0.203 OA 
BRANCH  10  13
HETATM   13  C   UNL     1      -9.517  10.335  66.429  1.00  0.00    -0.174 A  
HETATM   14  C   UNL     1      -9.956   9.172  67.077  1.00  0.00    -0.230 A  
HETATM   15  N   UNL     1      -8.237   9.040  64.821  1.00  0.00    -0.151 NA 
HETATM   16  C   UNL     1      -9.442   7.957  66.592  1.00  0.00    -0.270 A  
HETATM   17  C   UNL     1      -8.606   7.935  65.489  1.00  0.00    -0.116 A  
HETATM   18  C   UNL     1      -8.693  10.214  65.317  1.00  0.00    -0.165 A  
BRANCH  14  19
HETATM   19  N   UNL     1     -10.953   9.175  68.082  1.00  0.00    -0.484 NA 
HETATM   20  H   UNL     1     -11.836   9.615  67.822  1.00  0.00     0.000 HD 
BRANCH  19  21
HETATM   21  C   UNL     1     -10.896   8.652  69.395  1.00  0.00    -0.095 A  
HETATM   22  C   UNL     1     -10.597   9.027  71.780  1.00  0.00    -0.426 A  
HETATM   23  C   UNL     1     -10.833   9.519  70.491  1.00  0.00    -0.352 A  
HETATM   24  C   UNL     1     -10.386   7.662  71.987  1.00  0.00    -0.252 A  
HETATM   25  C   UNL     1     -10.460   6.775  70.913  1.00  0.00    -0.239 A  
HETATM   26  C   UNL     1     -10.768   7.277  69.641  1.00  0.00    -0.249 A  
HETATM   27  C   UNL     1     -10.140   5.318  71.068  1.00  0.00    -0.289 C  
ENDBRANCH  19  21
ENDBRANCH  14  19
ENDBRANCH  10  13
ENDBRANCH   8  10
ENDBRANCH   6   8
ENDBRANCH   4   6
ENDBRANCH   2   4
TORSDOF 7
ENDMDL
MODEL      196
REMARK 921   NORMALIZED FREE ENERGY PREDICTED BY IDOCK:   -4.27 KCAL/MOL
REMARK 922        TOTAL FREE ENERGY PREDICTED BY IDOCK:   -7.87 KCAL/MOL
REMARK 923 INTER-LIGAND FREE ENERGY PREDICTED BY IDOCK:   -6.90 KCAL/MOL
REMARK 924 INTRA-LIGAND FREE ENERGY PREDICTED BY IDOCK:   -0.97 KCAL/MOL
REMARK 927      BINDING AFFINITY PREDICTED BY RF-SCORE:    0.00 PKD
ROOT
HETATM    1  C   UNL     1     -13.792  13.625  72.183  1.00  0.00    -0.642 C  
HETATM    2  C   UNL     1     -12.925  14.863  71.953  1.00  0.00    -0.333 C  
HETATM    3  C   UNL     1     -12.551  15.511  73.282  1.00  0.00    -0.617 C  
ENDROOT
BRANCH   2   4
HETATM    4  N   UNL     1     -11.729  14.547  71.183  1.00  0.00    -0.484 N  
HETATM    5  H   UNL     1     -10.828  14.485  71.657  1.00  0.00     0.000 HD 
BRANCH   4   6
HETATM    6  C   UNL     1     -11.797  14.333  69.833  1.00  0.00    -0.322 C  
HETATM    7  O   UNL     1     -11.761  13.230  69.318  1.00  0.00    -0.288 OA 
BRANCH   6   8
HETATM    8  N   UNL     1     -11.823  15.504  69.091  1.00  0.00    -0.430 N  
HETATM    9  H   UNL     1     -12.487  16.227  69.368  1.00  0.00     0.000 HD 
BRANCH   8  10
HETATM   10  S   UNL     1     -10.841  15.812  67.775  1.00  0.00    -0.314 S  
HETATM   11  O   UNL     1     -11.192  14.919  66.694  1.00  0.00    -0.341 OA 
HETATM   12  O   UNL     1     -10.922  17.250  67.595  1.00  0.00    -0.286 OA 
BRANCH  10  13
HETATM   13  C   UNL     1      -9.195  15.456  68.275  1.00  0.00    -0.188 A  
HETATM   14  C   UNL     1      -8.603  14.208  68.036  1.00  0.00    -0.172 A  
HETATM   15  N   UNL     1      -7.215  16.251  69.436  1.00  0.00    -0.225 NA 
HETATM   16  C   UNL     1      -7.326  14.008  68.587  1.00  0.00    -0.120 A  
HETATM   17  C   UNL     1      -6.682  15.031  69.264  1.00  0.00    -0.141 A  
HETATM   18  C   UNL     1      -8.464  16.428  68.947  1.00  0.00    -0.247 A  
BRANCH  14  19
HETATM   19  N   UNL     1      -9.175  13.229  67.189  1.00  0.00    -0.227 NA 
HETATM   20  H   UNL     1      -9.375  13.535  66.236  1.00  0.00     0.000 HD 
BRANCH  19  21
HETATM   21  C   UNL     1      -9.509  11.885  67.479  1.00  0.00    -0.176 A  
HETATM   22  C   UNL     1     -11.021  10.000  67.194  1.00  0.00    -0.177 A  
HETATM   23  C   UNL     1     -10.561  11.262  66.800  1.00  0.00    -0.305 A  
HETATM   24  C   UNL     1     -10.457   9.357  68.298  1.00  0.00    -0.260 A  
HETATM   25  C   UNL     1      -9.395   9.949  68.982  1.00  0.00    -0.175 A  
HETATM   26  C   UNL     1      -8.901  11.180  68.529  1.00  0.00    -0.161 A  
HETATM   27  C   UNL     1      -8.826   9.346  70.231  1.00  0.00    -0.269 C  
ENDBRANCH  19  21
ENDBRANCH  14  19
ENDBRANCH  10  13
ENDBRANCH   8  10
ENDBRANCH   6   8
ENDBRANCH   4   6
ENDBRANCH   2   4
TORSDOF 7
ENDMDL
MODEL      197
REMARK 921   NORMALIZED FREE ENERGY PREDICTED BY IDOCK:   -4.25 KCAL/MOL
REMARK 922        TOTAL FREE ENERGY PREDICTED BY IDOCK:   -7.84 KCAL/MOL
REMARK 923 INTER-LIGAND FREE ENERGY PREDICTED BY IDOCK:   -6.20 KCAL/MOL
REMARK 924 INTRA-LIGAND FREE ENERGY PREDICTED BY IDOCK:   -1.64 KCAL/MOL
REMARK 927      BINDING AFFINITY PREDICTED BY RF-SCORE:    0.00 PKD
ROOT
HETATM    1  C   UNL     1     -11.032   5.980  66.710  1.00  0.00    -0.305 C  
HETATM    2  C   UNL     1      -9.971   7.035  67.027  1.00  0.00    -0.210 C  
HETATM    3  C   UNL     1      -8.885   7.043  65.957  1.00  0.00    -0.155 C  
ENDROOT
BRANCH   2   4
HETATM    4  N   UNL     1     -10.558   8.361  67.171  1.00  0.00    -0.391 N  
HETATM    5  H   UNL     1     -11.199   8.707  66.457  1.00  0.00     0.000 HD 
BRANCH   4   6
HETATM    6  C   UNL     1     -10.262   9.148  68.251  1.00  0.00    -0.206 C  
HETATM    7  O   UNL     1     -10.275   8.754  69.403  1.00  0.00    -0.199 OA 
BRANCH   6   8
HETATM    8  N   UNL     1     -10.028  10.474  67.917  1.00  0.00    -0.166 N  
HETATM    9  H   UNL     1     -10.746  11.157  68.156  1.00  0.00     0.000 HD 
BRANCH   8  10
HETATM   10  S   UNL     1      -8.650  11.028  67.152  1.00  0.00    -0.139 S  
HETATM   11  O   UNL     1      -8.448  12.422  67.477  1.00  0.00    -0.155 OA 
HETATM   12  O   UNL     1      -7.636  10.044  67.479  1.00  0.00    -0.091 OA 
BRANCH  10  13
HETATM   13  C   UNL     1      -8.943  10.900  65.424  1.00  0.00    -0.193 A  
HETATM   14  C   UNL     1     -10.163  11.280  64.849  1.00  0.00    -0.286 A  
HETATM   15  N   UNL     1      -8.075  10.179  63.273  1.00  0.00    -0.155 NA 
HETATM   16  C   UNL     1     -10.314  11.020  63.477  1.00  0.00    -0.402 A  
HETATM   17  C   UNL     1      -9.271  10.481  62.743  1.00  0.00    -0.309 A  
HETATM   18  C   UNL     1      -7.946  10.385  64.604  1.00  0.00    -0.092 A  
BRANCH  14  19
HETATM   19  N   UNL     1     -11.159  12.000  65.553  1.00  0.00    -0.305 NA 
HETATM   20  H   UNL     1     -11.964  11.453  65.857  1.00  0.00     0.000 HD 
BRANCH  19  21
HETATM   21  C   UNL     1     -11.193  13.373  65.891  1.00  0.00    -0.300 A  
HETATM   22  C   UNL     1     -10.609  15.673  65.352  1.00  0.00    -0.436 A  
HETATM   23  C   UNL     1     -10.750  14.332  64.974  1.00  0.00    -0.435 A  
HETATM   24  C   UNL     1     -10.875  16.068  66.664  1.00  0.00    -0.179 A  
HETATM   25  C   UNL     1     -11.335  15.134  67.593  1.00  0.00    -0.327 A  
HETATM   26  C   UNL     1     -11.538  13.811  67.179  1.00  0.00    -0.392 A  
HETATM   27  C   UNL     1     -11.537  15.489  69.036  1.00  0.00    -0.377 C  
ENDBRANCH  19  21
ENDBRANCH  14  19
ENDBRANCH  10  13
ENDBRANCH   8  10
ENDBRANCH   6   8
ENDBRANCH   4   6
ENDBRANCH   2   4
TORSDOF 7
ENDMDL
MODEL      198
REMARK 921   NORMALIZED FREE ENERGY PREDICTED BY IDOCK:   -4.25 KCAL/MOL
REMARK 922        TOTAL FREE ENERGY PREDICTED BY IDOCK:   -7.84 KCAL/MOL
REMARK 923 INTER-LIGAND FREE ENERGY PREDICTED BY IDOCK:   -6.50 KCAL/MOL
REMARK 924 INTRA-LIGAND FREE ENERGY PREDICTED BY IDOCK:   -1.34 KCAL/MOL
REMARK 927      BINDING AFFINITY PREDICTED BY RF-SCORE:    0.00 PKD
ROOT
HETATM    1  C   UNL     1      -7.263  20.967  67.188  1.00  0.00    -0.395 C  
HETATM    2  C   UNL     1      -8.261  19.900  67.640  1.00  0.00    -0.313 C  
HETATM    3  C   UNL     1      -9.607  20.100  66.953  1.00  0.00    -0.564 C  
ENDROOT
BRANCH   2   4
HETATM    4  N   UNL     1      -7.756  18.555  67.397  1.00  0.00    -0.226 N  
HETATM    5  H   UNL     1      -7.838  18.148  66.465  1.00  0.00     0.000 HD 
BRANCH   4   6
HETATM    6  C   UNL     1      -7.175  17.829  68.401  1.00  0.00    -0.250 C  
HETATM    7  O   UNL     1      -6.021  17.974  68.764  1.00  0.00    -0.186 OA 
BRANCH   6   8
HETATM    8  N   UNL     1      -8.002  16.841  68.915  1.00  0.00    -0.249 N  
HETATM    9  H   UNL     1      -8.513  17.049  69.772  1.00  0.00     0.000 HD 
BRANCH   8  10
HETATM   10  S   UNL     1      -8.217  15.334  68.227  1.00  0.00    -0.148 S  
HETATM   11  O   UNL     1      -8.344  15.474  66.794  1.00  0.00    -0.232 OA 
HETATM   12  O   UNL     1      -7.154  14.525  68.795  1.00  0.00    -0.099 OA 
BRANCH  10  13
HETATM   13  C   UNL     1      -9.729  14.699  68.857  1.00  0.00    -0.196 A  
HETATM   14  C   UNL     1     -10.142  13.384  68.606  1.00  0.00    -0.157 A  
HETATM   15  N   UNL     1     -11.767  15.177  70.090  1.00  0.00    -0.283 NA 
HETATM   16  C   UNL     1     -11.423  13.033  69.066  1.00  0.00    -0.353 A  
HETATM   17  C   UNL     1     -12.185  13.938  69.786  1.00  0.00    -0.332 A  
HETATM   18  C   UNL     1     -10.554  15.530  69.607  1.00  0.00    -0.282 A  
BRANCH  14  19
HETATM   19  N   UNL     1      -9.295  12.402  68.038  1.00  0.00    -0.198 NA 
HETATM   20  H   UNL     1      -8.378  12.306  68.475  1.00  0.00     0.000 HD 
BRANCH  19  21
HETATM   21  C   UNL     1      -9.543  11.536  66.947  1.00  0.00    -0.187 A  
HETATM   22  C   UNL     1      -9.333   9.331  65.941  1.00  0.00    -0.297 A  
HETATM   23  C   UNL     1      -9.263  10.170  67.059  1.00  0.00    -0.166 A  
HETATM   24  C   UNL     1      -9.649   9.853  64.685  1.00  0.00    -0.320 A  
HETATM   25  C   UNL     1      -9.948  11.208  64.549  1.00  0.00    -0.350 A  
HETATM   26  C   UNL     1      -9.943  12.020  65.692  1.00  0.00    -0.270 A  
HETATM   27  C   UNL     1     -10.192  11.833  63.208  1.00  0.00    -0.452 C  
ENDBRANCH  19  21
ENDBRANCH  14  19
ENDBRANCH  10  13
ENDBRANCH   8  10
ENDBRANCH   6   8
ENDBRANCH   4   6
ENDBRANCH   2   4
TORSDOF 7
ENDMDL
MODEL      199
REMARK 921   NORMALIZED FREE ENERGY PREDICTED BY IDOCK:   -4.25 KCAL/MOL
REMARK 922        TOTAL FREE ENERGY PREDICTED BY IDOCK:   -7.84 KCAL/MOL
REMARK 923 INTER-LIGAND FREE ENERGY PREDICTED BY IDOCK:   -6.67 KCAL/MOL
REMARK 924 INTRA-LIGAND FREE ENERGY PREDICTED BY IDOCK:   -1.17 KCAL/MOL
REMARK 927      BINDING AFFINITY PREDICTED BY RF-SCORE:    0.00 PKD
ROOT
HETATM    1  C   UNL     1     -11.493   5.794  72.593  1.00  0.00    -0.337 C  
HETATM    2  C   UNL     1     -11.784   7.102  71.856  1.00  0.00    -0.292 C  
HETATM    3  C   UNL     1     -10.570   8.023  71.898  1.00  0.00    -0.305 C  
ENDROOT
BRANCH   2   4
HETATM    4  N   UNL     1     -12.197   6.862  70.479  1.00  0.00    -0.601 N  
HETATM    5  H   UNL     1     -13.125   7.158  70.175  1.00  0.00     0.000 HD 
BRANCH   4   6
HETATM    6  C   UNL     1     -11.360   6.246  69.589  1.00  0.00    -0.422 C  
HETATM    7  O   UNL     1     -10.622   5.321  69.879  1.00  0.00    -0.306 OA 
BRANCH   6   8
HETATM    8  N   UNL     1     -11.363   6.834  68.334  1.00  0.00    -0.553 N  
HETATM    9  H   UNL     1     -12.266   7.055  67.915  1.00  0.00     0.000 HD 
BRANCH   8  10
HETATM   10  S   UNL     1      -9.988   7.206  67.459  1.00  0.00    -0.184 S  
HETATM   11  O   UNL     1      -9.329   5.983  67.059  1.00  0.00    -0.118 OA 
HETATM   12  O   UNL     1     -10.443   8.156  66.461  1.00  0.00    -0.252 OA 
BRANCH  10  13
HETATM   13  C   UNL     1      -8.918   8.082  68.543  1.00  0.00    -0.133 A  
HETATM   14  C   UNL     1      -9.162   9.413  68.907  1.00  0.00    -0.140 A  
HETATM   15  N   UNL     1      -6.855   8.036  69.823  1.00  0.00    -0.044 NA 
HETATM   16  C   UNL     1      -8.172  10.038  69.684  1.00  0.00    -0.185 A  
HETATM   17  C   UNL     1      -7.060   9.331  70.111  1.00  0.00    -0.072 A  
HETATM   18  C   UNL     1      -7.784   7.448  69.035  1.00  0.00    -0.118 A  
BRANCH  14  19
HETATM   19  N   UNL     1     -10.380  10.080  68.633  1.00  0.00    -0.181 NA 
HETATM   20  H   UNL     1     -10.930   9.692  67.866  1.00  0.00     0.000 HD 
BRANCH  19  21
HETATM   21  C   UNL     1     -10.941  11.209  69.274  1.00  0.00    -0.247 A  
HETATM   22  C   UNL     1     -12.422  12.126  70.974  1.00  0.00    -0.369 A  
HETATM   23  C   UNL     1     -11.715  11.047  70.428  1.00  0.00    -0.437 A  
HETATM   24  C   UNL     1     -12.393  13.375  70.352  1.00  0.00    -0.382 A  
HETATM   25  C   UNL     1     -11.616  13.567  69.209  1.00  0.00    -0.369 A  
HETATM   26  C   UNL     1     -10.858  12.495  68.718  1.00  0.00    -0.276 A  
HETATM   27  C   UNL     1     -11.634  14.860  68.449  1.00  0.00    -0.348 C  
ENDBRANCH  19  21
ENDBRANCH  14  19
ENDBRANCH  10  13
ENDBRANCH   8  10
ENDBRANCH   6   8
ENDBRANCH   4   6
ENDBRANCH   2   4
TORSDOF 7
ENDMDL
MODEL      200
REMARK 921   NORMALIZED FREE ENERGY PREDICTED BY IDOCK:   -4.24 KCAL/MOL
REMARK 922        TOTAL FREE ENERGY PREDICTED BY IDOCK:   -7.83 KCAL/MOL
REMARK 923 INTER-LIGAND FREE ENERGY PREDICTED BY IDOCK:   -6.65 KCAL/MOL
REMARK 924 INTRA-LIGAND FREE ENERGY PREDICTED BY IDOCK:   -1.18 KCAL/MOL
REMARK 927      BINDING AFFINITY PREDICTED BY RF-SCORE:    0.00 PKD
ROOT
HETATM    1  C   UNL     1      -8.230   9.528  63.478  1.00  0.00    -0.164 C  
HETATM    2  C   UNL     1      -8.875  10.715  64.194  1.00  0.00    -0.160 C  
HETATM    3  C   UNL     1     -10.100  11.202  63.430  1.00  0.00    -0.439 C  
ENDROOT
BRANCH   2   4
HETATM    4  N   UNL     1      -9.226  10.387  65.570  1.00  0.00    -0.172 N  
HETATM    5  H   UNL     1     -10.120   9.935  65.766  1.00  0.00     0.000 HD 
BRANCH   4   6
HETATM    6  C   UNL     1      -8.375  10.675  66.602  1.00  0.00    -0.136 C  
HETATM    7  O   UNL     1      -7.594  11.610  66.598  1.00  0.00    -0.130 OA 
BRANCH   6   8
HETATM    8  N   UNL     1      -8.421   9.745  67.629  1.00  0.00    -0.121 N  
HETATM    9  H   UNL     1      -7.664   9.755  68.312  1.00  0.00     0.000 HD 
BRANCH   8  10
HETATM   10  S   UNL     1      -9.632   8.610  67.826  1.00  0.00    -0.154 S  
HETATM   11  O   UNL     1     -10.537   8.674  66.701  1.00  0.00    -0.240 OA 
HETATM   12  O   UNL     1      -8.925   7.380  68.131  1.00  0.00    -0.130 OA 
BRANCH  10  13
HETATM   13  C   UNL     1     -10.518   9.059  69.275  1.00  0.00    -0.228 A  
HETATM   14  C   UNL     1     -11.403  10.145  69.296  1.00  0.00    -0.156 A  
HETATM   15  N   UNL     1     -10.895   8.618  71.634  1.00  0.00    -0.278 NA 
HETATM   16  C   UNL     1     -11.960  10.473  70.543  1.00  0.00    -0.436 A  
HETATM   17  C   UNL     1     -11.687   9.702  71.661  1.00  0.00    -0.369 A  
HETATM   18  C   UNL     1     -10.321   8.332  70.443  1.00  0.00    -0.205 A  
BRANCH  14  19
HETATM   19  N   UNL     1     -11.830  10.818  68.125  1.00  0.00    -0.782 NA 
HETATM   20  H   UNL     1     -12.549  10.340  67.582  1.00  0.00     0.000 HD 
BRANCH  19  21
HETATM   21  C   UNL     1     -11.399  12.060  67.604  1.00  0.00    -0.307 A  
HETATM   22  C   UNL     1     -10.310  14.208  67.956  1.00  0.00    -0.231 A  
HETATM   23  C   UNL     1     -10.599  12.905  68.381  1.00  0.00    -0.267 A  
HETATM   24  C   UNL     1     -10.847  14.696  66.763  1.00  0.00    -0.312 A  
HETATM   25  C   UNL     1     -11.633  13.868  65.962  1.00  0.00    -0.359 A  
HETATM   26  C   UNL     1     -11.854  12.544  66.368  1.00  0.00    -0.445 A  
HETATM   27  C   UNL     1     -12.315  14.378  64.727  1.00  0.00    -0.427 C  
ENDBRANCH  19  21
ENDBRANCH  14  19
ENDBRANCH  10  13
ENDBRANCH   8  10
ENDBRANCH   6   8
ENDBRANCH   4   6
ENDBRANCH   2   4
TORSDOF 7
ENDMDL
MODEL      201
REMARK 921   NORMALIZED FREE ENERGY PREDICTED BY IDOCK:   -4.23 KCAL/MOL
REMARK 922        TOTAL FREE ENERGY PREDICTED BY IDOCK:   -7.81 KCAL/MOL
REMARK 923 INTER-LIGAND FREE ENERGY PREDICTED BY IDOCK:   -6.06 KCAL/MOL
REMARK 924 INTRA-LIGAND FREE ENERGY PREDICTED BY IDOCK:   -1.75 KCAL/MOL
REMARK 927      BINDING AFFINITY PREDICTED BY RF-SCORE:    0.00 PKD
ROOT
HETATM    1  C   UNL     1     -11.499   5.660  73.165  1.00  0.00    -0.165 C  
HETATM    2  C   UNL     1     -11.127   6.689  72.097  1.00  0.00    -0.254 C  
HETATM    3  C   UNL     1     -12.277   6.883  71.115  1.00  0.00    -0.428 C  
ENDROOT
BRANCH   2   4
HETATM    4  N   UNL     1     -10.738   7.962  72.689  1.00  0.00    -0.319 N  
HETATM    5  H   UNL     1     -11.444   8.543  73.140  1.00  0.00     0.000 HD 
BRANCH   4   6
HETATM    6  C   UNL     1      -9.438   8.390  72.648  1.00  0.00    -0.265 C  
HETATM    7  O   UNL     1      -8.686   8.369  73.606  1.00  0.00    -0.265 OA 
BRANCH   6   8
HETATM    8  N   UNL     1      -9.077   8.937  71.426  1.00  0.00    -0.247 N  
HETATM    9  H   UNL     1      -9.466   9.847  71.180  1.00  0.00     0.000 HD 
BRANCH   8  10
HETATM   10  S   UNL     1      -8.048   8.209  70.330  1.00  0.00    -0.111 S  
HETATM   11  O   UNL     1      -7.219   9.216  69.707  1.00  0.00    -0.056 OA 
HETATM   12  O   UNL     1      -7.445   7.117  71.073  1.00  0.00    -0.075 OA 
BRANCH  10  13
HETATM   13  C   UNL     1      -9.059   7.481  69.090  1.00  0.00    -0.138 A  
HETATM   14  C   UNL     1      -9.883   8.252  68.261  1.00  0.00    -0.172 A  
HETATM   15  N   UNL     1      -9.841   5.420  68.070  1.00  0.00    -0.137 NA 
HETATM   16  C   UNL     1     -10.730   7.544  67.390  1.00  0.00    -0.331 A  
HETATM   17  C   UNL     1     -10.678   6.162  67.327  1.00  0.00    -0.335 A  
HETATM   18  C   UNL     1      -9.060   6.099  68.942  1.00  0.00    -0.123 A  
BRANCH  14  19
HETATM   19  N   UNL     1      -9.805   9.664  68.188  1.00  0.00    -0.146 NA 
HETATM   20  H   UNL     1      -8.999  10.034  67.683  1.00  0.00     0.000 HD 
BRANCH  19  21
HETATM   21  C   UNL     1     -10.689  10.633  68.717  1.00  0.00    -0.215 A  
HETATM   22  C   UNL     1     -11.395  12.957  68.865  1.00  0.00    -0.335 A  
HETATM   23  C   UNL     1     -10.658  11.946  68.236  1.00  0.00    -0.236 A  
HETATM   24  C   UNL     1     -12.147  12.675  70.007  1.00  0.00    -0.339 A  
HETATM   25  C   UNL     1     -12.208  11.371  70.497  1.00  0.00    -0.478 A  
HETATM   26  C   UNL     1     -11.521  10.358  69.814  1.00  0.00    -0.348 A  
HETATM   27  C   UNL     1     -12.917  11.039  71.777  1.00  0.00    -0.544 C  
ENDBRANCH  19  21
ENDBRANCH  14  19
ENDBRANCH  10  13
ENDBRANCH   8  10
ENDBRANCH   6   8
ENDBRANCH   4   6
ENDBRANCH   2   4
TORSDOF 7
ENDMDL
MODEL      202
REMARK 921   NORMALIZED FREE ENERGY PREDICTED BY IDOCK:   -4.22 KCAL/MOL
REMARK 922        TOTAL FREE ENERGY PREDICTED BY IDOCK:   -7.80 KCAL/MOL
REMARK 923 INTER-LIGAND FREE ENERGY PREDICTED BY IDOCK:   -6.61 KCAL/MOL
REMARK 924 INTRA-LIGAND FREE ENERGY PREDICTED BY IDOCK:   -1.19 KCAL/MOL
REMARK 927      BINDING AFFINITY PREDICTED BY RF-SCORE:    0.00 PKD
ROOT
HETATM    1  C   UNL     1     -11.392   6.546  69.293  1.00  0.00    -0.359 C  
HETATM    2  C   UNL     1     -11.274   7.566  70.425  1.00  0.00    -0.253 C  
HETATM    3  C   UNL     1     -10.065   7.257  71.302  1.00  0.00    -0.195 C  
ENDROOT
BRANCH   2   4
HETATM    4  N   UNL     1     -11.203   8.929  69.916  1.00  0.00    -0.425 N  
HETATM    5  H   UNL     1     -11.709   9.673  70.397  1.00  0.00     0.000 HD 
BRANCH   4   6
HETATM    6  C   UNL     1     -10.467   9.227  68.802  1.00  0.00    -0.210 C  
HETATM    7  O   UNL     1      -9.298   8.916  68.656  1.00  0.00    -0.140 OA 
BRANCH   6   8
HETATM    8  N   UNL     1     -11.154  10.000  67.879  1.00  0.00    -0.464 N  
HETATM    9  H   UNL     1     -11.767   9.520  67.220  1.00  0.00     0.000 HD 
BRANCH   8  10
HETATM   10  S   UNL     1     -11.048  11.664  67.771  1.00  0.00    -0.271 S  
HETATM   11  O   UNL     1     -12.029  12.266  68.646  1.00  0.00    -0.309 OA 
HETATM   12  O   UNL     1      -9.635  11.946  67.948  1.00  0.00    -0.181 OA 
BRANCH  10  13
HETATM   13  C   UNL     1     -11.447  12.093  66.114  1.00  0.00    -0.371 A  
HETATM   14  C   UNL     1     -10.897  11.412  65.020  1.00  0.00    -0.246 A  
HETATM   15  N   UNL     1     -12.648  13.616  64.652  1.00  0.00    -0.641 NA 
HETATM   16  C   UNL     1     -11.203  11.925  63.748  1.00  0.00    -0.519 A  
HETATM   17  C   UNL     1     -12.062  13.002  63.611  1.00  0.00    -0.531 A  
HETATM   18  C   UNL     1     -12.315  13.152  65.879  1.00  0.00    -0.398 A  
BRANCH  14  19
HETATM   19  N   UNL     1     -10.173  10.202  65.146  1.00  0.00    -0.256 NA 
HETATM   20  H   UNL     1     -10.676   9.434  65.590  1.00  0.00     0.000 HD 
BRANCH  19  21
HETATM   21  C   UNL     1      -8.849   9.910  64.742  1.00  0.00    -0.202 A  
HETATM   22  C   UNL     1      -7.334   8.788  63.204  1.00  0.00    -0.099 A  
HETATM   23  C   UNL     1      -8.616   9.242  63.535  1.00  0.00    -0.201 A  
HETATM   24  C   UNL     1      -6.271   8.966  64.092  1.00  0.00    -0.072 A  
HETATM   25  C   UNL     1      -6.473   9.644  65.294  1.00  0.00    -0.083 A  
HETATM   26  C   UNL     1      -7.748  10.154  65.577  1.00  0.00    -0.145 A  
HETATM   27  C   UNL     1      -5.389   9.770  66.323  1.00  0.00    -0.043 C  
ENDBRANCH  19  21
ENDBRANCH  14  19
ENDBRANCH  10  13
ENDBRANCH   8  10
ENDBRANCH   6   8
ENDBRANCH   4   6
ENDBRANCH   2   4
TORSDOF 7
ENDMDL
MODEL      203
REMARK 921   NORMALIZED FREE ENERGY PREDICTED BY IDOCK:   -4.22 KCAL/MOL
REMARK 922        TOTAL FREE ENERGY PREDICTED BY IDOCK:   -7.80 KCAL/MOL
REMARK 923 INTER-LIGAND FREE ENERGY PREDICTED BY IDOCK:   -6.07 KCAL/MOL
REMARK 924 INTRA-LIGAND FREE ENERGY PREDICTED BY IDOCK:   -1.73 KCAL/MOL
REMARK 927      BINDING AFFINITY PREDICTED BY RF-SCORE:    0.00 PKD
ROOT
HETATM    1  C   UNL     1     -10.628  12.608  63.975  1.00  0.00    -0.457 C  
HETATM    2  C   UNL     1     -10.298  11.116  64.021  1.00  0.00    -0.376 C  
HETATM    3  C   UNL     1      -9.530  10.697  62.773  1.00  0.00    -0.355 C  
ENDROOT
BRANCH   2   4
HETATM    4  N   UNL     1      -9.551  10.767  65.223  1.00  0.00    -0.211 N  
HETATM    5  H   UNL     1      -8.709  11.291  65.461  1.00  0.00     0.000 HD 
BRANCH   4   6
HETATM    6  C   UNL     1      -9.963   9.747  66.037  1.00  0.00    -0.272 C  
HETATM    7  O   UNL     1      -9.503   8.619  65.999  1.00  0.00    -0.225 OA 
BRANCH   6   8
HETATM    8  N   UNL     1     -11.024  10.093  66.859  1.00  0.00    -0.112 N  
HETATM    9  H   UNL     1     -11.867   9.521  66.813  1.00  0.00     0.000 HD 
BRANCH   8  10
HETATM   10  S   UNL     1     -11.018  11.383  67.920  1.00  0.00    -0.261 S  
HETATM   11  O   UNL     1      -9.676  11.912  68.026  1.00  0.00    -0.180 OA 
HETATM   12  O   UNL     1     -12.107  12.228  67.466  1.00  0.00    -0.514 OA 
BRANCH  10  13
HETATM   13  C   UNL     1     -11.488  10.751  69.491  1.00  0.00    -0.294 A  
HETATM   14  C   UNL     1     -10.982   9.541  69.984  1.00  0.00    -0.251 A  
HETATM   15  N   UNL     1     -12.892  11.043  71.452  1.00  0.00    -0.430 NA 
HETATM   16  C   UNL     1     -11.524   9.086  71.198  1.00  0.00    -0.376 A  
HETATM   17  C   UNL     1     -12.455   9.850  71.884  1.00  0.00    -0.347 A  
HETATM   18  C   UNL     1     -12.406  11.458  70.259  1.00  0.00    -0.297 A  
BRANCH  14  19
HETATM   19  N   UNL     1      -9.900   8.853  69.384  1.00  0.00    -0.179 NA 
HETATM   20  H   UNL     1      -9.402   9.367  68.657  1.00  0.00     0.000 HD 
BRANCH  19  21
HETATM   21  C   UNL     1      -9.412   7.553  69.654  1.00  0.00    -0.156 A  
HETATM   22  C   UNL     1      -7.705   6.123  70.635  1.00  0.00    -0.105 A  
HETATM   23  C   UNL     1      -8.310   7.379  70.497  1.00  0.00    -0.132 A  
HETATM   24  C   UNL     1      -8.173   5.031  69.903  1.00  0.00    -0.074 A  
HETATM   25  C   UNL     1      -9.281   5.174  69.068  1.00  0.00    -0.156 A  
HETATM   26  C   UNL     1      -9.918   6.421  68.997  1.00  0.00    -0.171 A  
HETATM   27  C   UNL     1      -9.756   4.058  68.186  1.00  0.00    -0.138 C  
ENDBRANCH  19  21
ENDBRANCH  14  19
ENDBRANCH  10  13
ENDBRANCH   8  10
ENDBRANCH   6   8
ENDBRANCH   4   6
ENDBRANCH   2   4
TORSDOF 7
ENDMDL
MODEL      204
REMARK 921   NORMALIZED FREE ENERGY PREDICTED BY IDOCK:   -4.22 KCAL/MOL
REMARK 922        TOTAL FREE ENERGY PREDICTED BY IDOCK:   -7.80 KCAL/MOL
REMARK 923 INTER-LIGAND FREE ENERGY PREDICTED BY IDOCK:   -7.03 KCAL/MOL
REMARK 924 INTRA-LIGAND FREE ENERGY PREDICTED BY IDOCK:   -0.76 KCAL/MOL
REMARK 927      BINDING AFFINITY PREDICTED BY RF-SCORE:    0.00 PKD
ROOT
HETATM    1  C   UNL     1      -5.601  17.026  69.585  1.00  0.00    -0.197 C  
HETATM    2  C   UNL     1      -5.269  15.599  69.148  1.00  0.00    -0.096 C  
HETATM    3  C   UNL     1      -5.912  14.586  70.088  1.00  0.00    -0.150 C  
ENDROOT
BRANCH   2   4
HETATM    4  N   UNL     1      -5.677  15.350  67.771  1.00  0.00    -0.137 N  
HETATM    5  H   UNL     1      -4.971  15.112  67.074  1.00  0.00     0.000 HD 
BRANCH   4   6
HETATM    6  C   UNL     1      -6.991  15.430  67.400  1.00  0.00    -0.189 C  
HETATM    7  O   UNL     1      -7.615  16.475  67.332  1.00  0.00    -0.132 OA 
BRANCH   6   8
HETATM    8  N   UNL     1      -7.581  14.193  67.191  1.00  0.00    -0.342 N  
HETATM    9  H   UNL     1      -7.138  13.563  66.523  1.00  0.00     0.000 HD 
BRANCH   8  10
HETATM   10  S   UNL     1      -8.968  13.664  67.958  1.00  0.00    -0.194 S  
HETATM   11  O   UNL     1      -8.849  12.252  68.246  1.00  0.00    -0.185 OA 
HETATM   12  O   UNL     1      -9.171  14.618  69.033  1.00  0.00    -0.184 OA 
BRANCH  10  13
HETATM   13  C   UNL     1     -10.292  13.887  66.825  1.00  0.00    -0.272 A  
HETATM   14  C   UNL     1     -11.598  14.155  67.256  1.00  0.00    -0.373 A  
HETATM   15  N   UNL     1     -10.991  13.858  64.499  1.00  0.00    -0.389 NA 
HETATM   16  C   UNL     1     -12.588  14.196  66.259  1.00  0.00    -0.297 A  
HETATM   17  C   UNL     1     -12.250  14.046  64.925  1.00  0.00    -0.437 A  
HETATM   18  C   UNL     1     -10.045  13.771  65.462  1.00  0.00    -0.284 A  
BRANCH  14  19
HETATM   19  N   UNL     1     -11.918  14.494  68.593  1.00  0.00    -0.498 NA 
HETATM   20  H   UNL     1     -11.803  15.478  68.836  1.00  0.00     0.000 HD 
BRANCH  19  21
HETATM   21  C   UNL     1     -12.374  13.658  69.639  1.00  0.00    -0.203 A  
HETATM   22  C   UNL     1     -13.342  13.430  71.859  1.00  0.00    -0.539 A  
HETATM   23  C   UNL     1     -13.042  14.211  70.737  1.00  0.00    -0.289 A  
HETATM   24  C   UNL     1     -12.948  12.091  71.914  1.00  0.00    -0.428 A  
HETATM   25  C   UNL     1     -12.296  11.512  70.826  1.00  0.00    -0.472 A  
HETATM   26  C   UNL     1     -12.067  12.289  69.682  1.00  0.00    -0.277 A  
HETATM   27  C   UNL     1     -11.763  10.111  70.878  1.00  0.00    -0.468 C  
ENDBRANCH  19  21
ENDBRANCH  14  19
ENDBRANCH  10  13
ENDBRANCH   8  10
ENDBRANCH   6   8
ENDBRANCH   4   6
ENDBRANCH   2   4
TORSDOF 7
ENDMDL
MODEL      205
REMARK 921   NORMALIZED FREE ENERGY PREDICTED BY IDOCK:   -4.21 KCAL/MOL
REMARK 922        TOTAL FREE ENERGY PREDICTED BY IDOCK:   -7.79 KCAL/MOL
REMARK 923 INTER-LIGAND FREE ENERGY PREDICTED BY IDOCK:   -7.23 KCAL/MOL
REMARK 924 INTRA-LIGAND FREE ENERGY PREDICTED BY IDOCK:   -0.56 KCAL/MOL
REMARK 927      BINDING AFFINITY PREDICTED BY RF-SCORE:    0.00 PKD
ROOT
HETATM    1  C   UNL     1      -5.928  14.359  68.712  1.00  0.00    -0.084 C  
HETATM    2  C   UNL     1      -5.935  12.914  68.212  1.00  0.00    -0.079 C  
HETATM    3  C   UNL     1      -6.263  11.954  69.350  1.00  0.00    -0.108 C  
ENDROOT
BRANCH   2   4
HETATM    4  N   UNL     1      -6.864  12.732  67.104  1.00  0.00    -0.354 N  
HETATM    5  H   UNL     1      -6.501  12.562  66.166  1.00  0.00     0.000 HD 
BRANCH   4   6
HETATM    6  C   UNL     1      -8.217  12.785  67.304  1.00  0.00    -0.181 C  
HETATM    7  O   UNL     1      -8.945  11.808  67.291  1.00  0.00    -0.163 OA 
BRANCH   6   8
HETATM    8  N   UNL     1      -8.702  14.077  67.439  1.00  0.00    -0.195 N  
HETATM    9  H   UNL     1      -8.077  14.781  67.830  1.00  0.00     0.000 HD 
BRANCH   8  10
HETATM   10  S   UNL     1     -10.242  14.559  67.004  1.00  0.00    -0.264 S  
HETATM   11  O   UNL     1     -10.428  14.349  65.586  1.00  0.00    -0.300 OA 
HETATM   12  O   UNL     1     -11.109  13.903  67.964  1.00  0.00    -0.246 OA 
BRANCH  10  13
HETATM   13  C   UNL     1     -10.343  16.284  67.324  1.00  0.00    -0.285 A  
HETATM   14  C   UNL     1     -10.601  16.785  68.607  1.00  0.00    -0.353 A  
HETATM   15  N   UNL     1     -10.306  18.523  66.382  1.00  0.00    -0.408 NA 
HETATM   16  C   UNL     1     -10.774  18.176  68.711  1.00  0.00     0.198 A  
HETATM   17  C   UNL     1     -10.622  18.989  67.601  1.00  0.00    -0.441 A  
HETATM   18  C   UNL     1     -10.187  17.180  66.273  1.00  0.00    -0.334 A  
BRANCH  14  19
HETATM   19  N   UNL     1     -10.572  15.981  69.772  1.00  0.00    -0.303 NA 
HETATM   20  H   UNL     1      -9.659  15.597  70.018  1.00  0.00     0.000 HD 
BRANCH  19  21
HETATM   21  C   UNL     1     -11.632  15.636  70.643  1.00  0.00    -0.367 A  
HETATM   22  C   UNL     1     -14.014  15.298  71.001  1.00  0.00    -0.368 A  
HETATM   23  C   UNL     1     -12.925  15.463  70.138  1.00  0.00    -0.104 A  
HETATM   24  C   UNL     1     -13.831  15.337  72.385  1.00  0.00    -0.641 A  
HETATM   25  C   UNL     1     -12.549  15.491  72.913  1.00  0.00    -0.533 A  
HETATM   26  C   UNL     1     -11.461  15.584  72.035  1.00  0.00    -0.515 A  
HETATM   27  C   UNL     1     -12.315  15.642  74.387  1.00  0.00    -0.802 C  
ENDBRANCH  19  21
ENDBRANCH  14  19
ENDBRANCH  10  13
ENDBRANCH   8  10
ENDBRANCH   6   8
ENDBRANCH   4   6
ENDBRANCH   2   4
TORSDOF 7
ENDMDL
MODEL      206
REMARK 921   NORMALIZED FREE ENERGY PREDICTED BY IDOCK:   -4.21 KCAL/MOL
REMARK 922        TOTAL FREE ENERGY PREDICTED BY IDOCK:   -7.78 KCAL/MOL
REMARK 923 INTER-LIGAND FREE ENERGY PREDICTED BY IDOCK:   -6.55 KCAL/MOL
REMARK 924 INTRA-LIGAND FREE ENERGY PREDICTED BY IDOCK:   -1.23 KCAL/MOL
REMARK 927      BINDING AFFINITY PREDICTED BY RF-SCORE:    0.00 PKD
ROOT
HETATM    1  C   UNL     1      -8.056   8.662  65.835  1.00  0.00    -0.111 C  
HETATM    2  C   UNL     1      -7.769  10.133  66.134  1.00  0.00    -0.113 C  
HETATM    3  C   UNL     1      -6.266  10.389  66.176  1.00  0.00    -0.101 C  
ENDROOT
BRANCH   2   4
HETATM    4  N   UNL     1      -8.411  11.014  65.167  1.00  0.00    -0.378 N  
HETATM    5  H   UNL     1      -7.837  11.627  64.587  1.00  0.00     0.000 HD 
BRANCH   4   6
HETATM    6  C   UNL     1      -9.772  11.031  65.025  1.00  0.00    -0.254 C  
HETATM    7  O   UNL     1     -10.348  10.829  63.971  1.00  0.00    -0.354 OA 
BRANCH   6   8
HETATM    8  N   UNL     1     -10.441  11.390  66.185  1.00  0.00    -0.248 N  
HETATM    9  H   UNL     1     -10.398  10.748  66.976  1.00  0.00     0.000 HD 
BRANCH   8  10
HETATM   10  S   UNL     1     -11.313  12.803  66.376  1.00  0.00    -0.342 S  
HETATM   11  O   UNL     1     -10.515  13.924  65.934  1.00  0.00    -0.290 OA 
HETATM   12  O   UNL     1     -12.594  12.522  65.754  1.00  0.00    -0.569 OA 
BRANCH  10  13
HETATM   13  C   UNL     1     -11.616  12.984  68.098  1.00  0.00    -0.341 A  
HETATM   14  C   UNL     1     -11.710  11.878  68.953  1.00  0.00    -0.323 A  
HETATM   15  N   UNL     1     -12.090  14.521  69.918  1.00  0.00    -0.318 NA 
HETATM   16  C   UNL     1     -12.071  12.149  70.284  1.00  0.00    -0.385 A  
HETATM   17  C   UNL     1     -12.247  13.453  70.716  1.00  0.00    -0.328 A  
HETATM   18  C   UNL     1     -11.790  14.258  68.625  1.00  0.00    -0.344 A  
BRANCH  14  19
HETATM   19  N   UNL     1     -11.349  10.566  68.565  1.00  0.00    -0.396 NA 
HETATM   20  H   UNL     1     -11.691  10.268  67.651  1.00  0.00     0.000 HD 
BRANCH  19  21
HETATM   21  C   UNL     1     -10.578   9.610  69.267  1.00  0.00    -0.219 A  
HETATM   22  C   UNL     1      -8.410   8.863  70.080  1.00  0.00    -0.133 A  
HETATM   23  C   UNL     1      -9.231   9.863  69.546  1.00  0.00    -0.238 A  
HETATM   24  C   UNL     1      -8.916   7.582  70.309  1.00  0.00    -0.147 A  
HETATM   25  C   UNL     1     -10.260   7.308  70.056  1.00  0.00    -0.206 A  
HETATM   26  C   UNL     1     -11.085   8.341  69.589  1.00  0.00    -0.009 A  
HETATM   27  C   UNL     1     -10.823   5.925  70.190  1.00  0.00    -0.402 C  
ENDBRANCH  19  21
ENDBRANCH  14  19
ENDBRANCH  10  13
ENDBRANCH   8  10
ENDBRANCH   6   8
ENDBRANCH   4   6
ENDBRANCH   2   4
TORSDOF 7
ENDMDL
MODEL      207
REMARK 921   NORMALIZED FREE ENERGY PREDICTED BY IDOCK:   -4.21 KCAL/MOL
REMARK 922        TOTAL FREE ENERGY PREDICTED BY IDOCK:   -7.78 KCAL/MOL
REMARK 923 INTER-LIGAND FREE ENERGY PREDICTED BY IDOCK:   -6.40 KCAL/MOL
REMARK 924 INTRA-LIGAND FREE ENERGY PREDICTED BY IDOCK:   -1.38 KCAL/MOL
REMARK 927      BINDING AFFINITY PREDICTED BY RF-SCORE:    0.00 PKD
ROOT
HETATM    1  C   UNL     1      -8.482   6.867  67.845  1.00  0.00    -0.120 C  
HETATM    2  C   UNL     1      -8.267   8.209  68.546  1.00  0.00    -0.125 C  
HETATM    3  C   UNL     1      -6.905   8.244  69.231  1.00  0.00    -0.050 C  
ENDROOT
BRANCH   2   4
HETATM    4  N   UNL     1      -8.405   9.327  67.622  1.00  0.00    -0.115 N  
HETATM    5  H   UNL     1      -7.572   9.825  67.308  1.00  0.00     0.000 HD 
BRANCH   4   6
HETATM    6  C   UNL     1      -9.636   9.719  67.170  1.00  0.00    -0.169 C  
HETATM    7  O   UNL     1      -9.926   9.819  65.991  1.00  0.00    -0.256 OA 
BRANCH   6   8
HETATM    8  N   UNL     1     -10.506  10.081  68.187  1.00  0.00    -0.198 N  
HETATM    9  H   UNL     1     -10.789   9.359  68.849  1.00  0.00     0.000 HD 
BRANCH   8  10
HETATM   10  S   UNL     1     -11.123  11.618  68.403  1.00  0.00    -0.258 S  
HETATM   11  O   UNL     1     -10.034  12.561  68.521  1.00  0.00    -0.219 OA 
HETATM   12  O   UNL     1     -12.108  11.762  67.347  1.00  0.00    -0.595 OA 
BRANCH  10  13
HETATM   13  C   UNL     1     -12.007  11.603  69.922  1.00  0.00    -0.340 A  
HETATM   14  C   UNL     1     -12.375  10.406  70.552  1.00  0.00    -0.322 A  
HETATM   15  N   UNL     1     -13.109  12.925  71.636  1.00  0.00    -0.380 NA 
HETATM   16  C   UNL     1     -13.179  10.526  71.698  1.00  0.00    -0.493 A  
HETATM   17  C   UNL     1     -13.515  11.774  72.195  1.00  0.00    -0.168 A  
HETATM   18  C   UNL     1     -12.374  12.809  70.505  1.00  0.00    -0.275 A  
BRANCH  14  19
HETATM   19  N   UNL     1     -11.880   9.140  70.157  1.00  0.00    -0.460 NA 
HETATM   20  H   UNL     1     -12.175   8.821  69.234  1.00  0.00     0.000 HD 
BRANCH  19  21
HETATM   21  C   UNL     1     -11.033   8.255  70.865  1.00  0.00    -0.246 A  
HETATM   22  C   UNL     1      -9.098   7.916  72.301  1.00  0.00    -0.217 A  
HETATM   23  C   UNL     1     -10.058   8.761  71.731  1.00  0.00    -0.403 A  
HETATM   24  C   UNL     1      -9.079   6.556  71.986  1.00  0.00    -0.140 A  
HETATM   25  C   UNL     1     -10.051   6.023  71.139  1.00  0.00    -0.241 A  
HETATM   26  C   UNL     1     -11.046   6.871  70.633  1.00  0.00    -0.322 A  
HETATM   27  C   UNL     1     -10.010   4.593  70.691  1.00  0.00    -0.293 C  
ENDBRANCH  19  21
ENDBRANCH  14  19
ENDBRANCH  10  13
ENDBRANCH   8  10
ENDBRANCH   6   8
ENDBRANCH   4   6
ENDBRANCH   2   4
TORSDOF 7
ENDMDL
MODEL      208
REMARK 921   NORMALIZED FREE ENERGY PREDICTED BY IDOCK:   -4.20 KCAL/MOL
REMARK 922        TOTAL FREE ENERGY PREDICTED BY IDOCK:   -7.77 KCAL/MOL
REMARK 923 INTER-LIGAND FREE ENERGY PREDICTED BY IDOCK:   -6.88 KCAL/MOL
REMARK 924 INTRA-LIGAND FREE ENERGY PREDICTED BY IDOCK:   -0.89 KCAL/MOL
REMARK 927      BINDING AFFINITY PREDICTED BY RF-SCORE:    0.00 PKD
ROOT
HETATM    1  C   UNL     1     -10.894   8.017  72.014  1.00  0.00    -0.333 C  
HETATM    2  C   UNL     1     -10.599   8.594  70.629  1.00  0.00    -0.211 C  
HETATM    3  C   UNL     1     -10.046   7.515  69.704  1.00  0.00    -0.189 C  
ENDROOT
BRANCH   2   4
HETATM    4  N   UNL     1     -11.780   9.215  70.043  1.00  0.00    -0.451 N  
HETATM    5  H   UNL     1     -12.213   8.795  69.220  1.00  0.00     0.000 HD 
BRANCH   4   6
HETATM    6  C   UNL     1     -12.317  10.354  70.580  1.00  0.00    -0.322 C  
HETATM    7  O   UNL     1     -13.360  10.382  71.209  1.00  0.00    -0.343 OA 
BRANCH   6   8
HETATM    8  N   UNL     1     -11.603  11.500  70.265  1.00  0.00    -0.504 N  
HETATM    9  H   UNL     1     -11.106  11.972  71.019  1.00  0.00     0.000 HD 
BRANCH   8  10
HETATM   10  S   UNL     1     -11.501  12.160  68.733  1.00  0.00    -0.332 S  
HETATM   11  O   UNL     1     -12.173  11.295  67.791  1.00  0.00    -0.504 OA 
HETATM   12  O   UNL     1     -11.933  13.535  68.905  1.00  0.00    -0.336 OA 
BRANCH  10  13
HETATM   13  C   UNL     1      -9.795  12.213  68.315  1.00  0.00    -0.212 A  
HETATM   14  C   UNL     1      -9.240  13.286  67.606  1.00  0.00    -0.209 A  
HETATM   15  N   UNL     1      -7.665  11.047  68.357  1.00  0.00    -0.111 NA 
HETATM   16  C   UNL     1      -7.891  13.156  67.232  1.00  0.00    -0.125 A  
HETATM   17  C   UNL     1      -7.157  12.047  67.618  1.00  0.00    -0.118 A  
HETATM   18  C   UNL     1      -8.975  11.151  68.676  1.00  0.00    -0.162 A  
BRANCH  14  19
HETATM   19  N   UNL     1      -9.930  14.500  67.372  1.00  0.00    -0.227 NA 
HETATM   20  H   UNL     1     -10.878  14.403  67.008  1.00  0.00     0.000 HD 
BRANCH  19  21
HETATM   21  C   UNL     1      -9.488  15.829  67.573  1.00  0.00    -0.218 A  
HETATM   22  C   UNL     1      -7.997  17.387  68.699  1.00  0.00    -0.271 A  
HETATM   23  C   UNL     1      -8.347  16.079  68.342  1.00  0.00    -0.178 A  
HETATM   24  C   UNL     1      -8.803  18.462  68.320  1.00  0.00    -0.323 A  
HETATM   25  C   UNL     1      -9.936  18.241  67.538  1.00  0.00    -0.345 A  
HETATM   26  C   UNL     1     -10.233  16.933  67.130  1.00  0.00    -0.297 A  
HETATM   27  C   UNL     1     -10.887  19.348  67.194  1.00  0.00    -0.561 C  
ENDBRANCH  19  21
ENDBRANCH  14  19
ENDBRANCH  10  13
ENDBRANCH   8  10
ENDBRANCH   6   8
ENDBRANCH   4   6
ENDBRANCH   2   4
TORSDOF 7
ENDMDL
MODEL      209
REMARK 921   NORMALIZED FREE ENERGY PREDICTED BY IDOCK:   -4.20 KCAL/MOL
REMARK 922        TOTAL FREE ENERGY PREDICTED BY IDOCK:   -7.77 KCAL/MOL
REMARK 923 INTER-LIGAND FREE ENERGY PREDICTED BY IDOCK:   -6.71 KCAL/MOL
REMARK 924 INTRA-LIGAND FREE ENERGY PREDICTED BY IDOCK:   -1.06 KCAL/MOL
REMARK 927      BINDING AFFINITY PREDICTED BY RF-SCORE:    0.00 PKD
ROOT
HETATM    1  C   UNL     1      -6.709   8.799  70.035  1.00  0.00    -0.039 C  
HETATM    2  C   UNL     1      -7.637  10.013  70.059  1.00  0.00    -0.172 C  
HETATM    3  C   UNL     1      -6.907  11.256  69.563  1.00  0.00    -0.115 C  
ENDROOT
BRANCH   2   4
HETATM    4  N   UNL     1      -8.845   9.782  69.278  1.00  0.00    -0.156 N  
HETATM    5  H   UNL     1      -8.785   9.743  68.260  1.00  0.00     0.000 HD 
BRANCH   4   6
HETATM    6  C   UNL     1     -10.058   9.618  69.889  1.00  0.00    -0.246 C  
HETATM    7  O   UNL     1     -10.633   8.548  69.982  1.00  0.00    -0.220 OA 
BRANCH   6   8
HETATM    8  N   UNL     1     -10.622  10.808  70.322  1.00  0.00    -0.389 N  
HETATM    9  H   UNL     1     -10.000  11.603  70.468  1.00  0.00     0.000 HD 
BRANCH   8  10
HETATM   10  S   UNL     1     -12.251  11.031  70.621  1.00  0.00    -0.404 S  
HETATM   11  O   UNL     1     -13.013  10.606  69.469  1.00  0.00    -0.089 OA 
HETATM   12  O   UNL     1     -12.467  10.410  71.915  1.00  0.00    -0.356 OA 
BRANCH  10  13
HETATM   13  C   UNL     1     -12.496  12.757  70.840  1.00  0.00    -0.283 A  
HETATM   14  C   UNL     1     -11.662  13.706  70.235  1.00  0.00    -0.189 A  
HETATM   15  N   UNL     1     -13.781  14.493  71.951  1.00  0.00    -0.390 NA 
HETATM   16  C   UNL     1     -11.889  15.049  70.582  1.00  0.00    -0.364 A  
HETATM   17  C   UNL     1     -12.935  15.391  71.423  1.00  0.00    -0.461 A  
HETATM   18  C   UNL     1     -13.532  13.196  71.656  1.00  0.00    -0.237 A  
BRANCH  14  19
HETATM   19  N   UNL     1     -10.716  13.379  69.233  1.00  0.00    -0.444 NA 
HETATM   20  H   UNL     1     -10.004  12.701  69.506  1.00  0.00     0.000 HD 
BRANCH  19  21
HETATM   21  C   UNL     1     -10.622  13.860  67.907  1.00  0.00    -0.245 A  
HETATM   22  C   UNL     1      -9.825  15.552  66.350  1.00  0.00    -0.298 A  
HETATM   23  C   UNL     1      -9.797  14.951  67.615  1.00  0.00    -0.217 A  
HETATM   24  C   UNL     1     -10.706  15.092  65.370  1.00  0.00    -0.396 A  
HETATM   25  C   UNL     1     -11.527  13.995  65.630  1.00  0.00    -0.319 A  
HETATM   26  C   UNL     1     -11.434  13.361  66.877  1.00  0.00    -0.376 A  
HETATM   27  C   UNL     1     -12.560  13.530  64.647  1.00  0.00    -0.303 C  
ENDBRANCH  19  21
ENDBRANCH  14  19
ENDBRANCH  10  13
ENDBRANCH   8  10
ENDBRANCH   6   8
ENDBRANCH   4   6
ENDBRANCH   2   4
TORSDOF 7
ENDMDL
MODEL      210
REMARK 921   NORMALIZED FREE ENERGY PREDICTED BY IDOCK:   -4.19 KCAL/MOL
REMARK 922        TOTAL FREE ENERGY PREDICTED BY IDOCK:   -7.76 KCAL/MOL
REMARK 923 INTER-LIGAND FREE ENERGY PREDICTED BY IDOCK:   -6.48 KCAL/MOL
REMARK 924 INTRA-LIGAND FREE ENERGY PREDICTED BY IDOCK:   -1.28 KCAL/MOL
REMARK 927      BINDING AFFINITY PREDICTED BY RF-SCORE:    0.00 PKD
ROOT
HETATM    1  C   UNL     1     -10.240   5.305  69.331  1.00  0.00    -0.321 C  
HETATM    2  C   UNL     1      -9.845   6.147  70.545  1.00  0.00    -0.178 C  
HETATM    3  C   UNL     1     -10.187   5.417  71.838  1.00  0.00    -0.258 C  
ENDROOT
BRANCH   2   4
HETATM    4  N   UNL     1      -8.432   6.503  70.515  1.00  0.00    -0.136 N  
HETATM    5  H   UNL     1      -7.776   6.005  71.116  1.00  0.00     0.000 HD 
BRANCH   4   6
HETATM    6  C   UNL     1      -7.973   7.496  69.693  1.00  0.00    -0.125 C  
HETATM    7  O   UNL     1      -7.105   7.336  68.853  1.00  0.00    -0.078 OA 
BRANCH   6   8
HETATM    8  N   UNL     1      -8.530   8.736  69.964  1.00  0.00    -0.126 N  
HETATM    9  H   UNL     1      -8.562   9.039  70.938  1.00  0.00     0.000 HD 
BRANCH   8  10
HETATM   10  S   UNL     1      -9.151   9.769  68.807  1.00  0.00    -0.141 S  
HETATM   11  O   UNL     1      -8.168  10.780  68.489  1.00  0.00    -0.121 OA 
HETATM   12  O   UNL     1      -9.658   8.886  67.773  1.00  0.00    -0.142 OA 
BRANCH  10  13
HETATM   13  C   UNL     1     -10.545  10.560  69.527  1.00  0.00    -0.246 A  
HETATM   14  C   UNL     1     -10.917  11.865  69.180  1.00  0.00    -0.198 A  
HETATM   15  N   UNL     1     -12.340  10.407  71.156  1.00  0.00    -0.364 NA 
HETATM   16  C   UNL     1     -11.978  12.427  69.910  1.00  0.00    -0.369 A  
HETATM   17  C   UNL     1     -12.647  11.682  70.867  1.00  0.00    -0.313 A  
HETATM   18  C   UNL     1     -11.288   9.883  70.486  1.00  0.00    -0.327 A  
BRANCH  14  19
HETATM   19  N   UNL     1     -10.361  12.562  68.079  1.00  0.00    -0.216 NA 
HETATM   20  H   UNL     1      -9.512  13.090  68.277  1.00  0.00     0.000 HD 
BRANCH  19  21
HETATM   21  C   UNL     1     -10.821  12.626  66.743  1.00  0.00    -0.250 A  
HETATM   22  C   UNL     1     -12.580  13.206  65.165  1.00  0.00    -0.525 A  
HETATM   23  C   UNL     1     -12.020  13.283  66.446  1.00  0.00    -0.465 A  
HETATM   24  C   UNL     1     -11.965  12.441  64.171  1.00  0.00    -0.518 A  
HETATM   25  C   UNL     1     -10.760  11.791  64.437  1.00  0.00    -0.381 A  
HETATM   26  C   UNL     1     -10.178  11.937  65.703  1.00  0.00    -0.280 A  
HETATM   27  C   UNL     1     -10.118  10.878  63.436  1.00  0.00    -0.398 C  
ENDBRANCH  19  21
ENDBRANCH  14  19
ENDBRANCH  10  13
ENDBRANCH   8  10
ENDBRANCH   6   8
ENDBRANCH   4   6
ENDBRANCH   2   4
TORSDOF 7
ENDMDL
MODEL      211
REMARK 921   NORMALIZED FREE ENERGY PREDICTED BY IDOCK:   -4.19 KCAL/MOL
REMARK 922        TOTAL FREE ENERGY PREDICTED BY IDOCK:   -7.76 KCAL/MOL
REMARK 923 INTER-LIGAND FREE ENERGY PREDICTED BY IDOCK:   -6.51 KCAL/MOL
REMARK 924 INTRA-LIGAND FREE ENERGY PREDICTED BY IDOCK:   -1.24 KCAL/MOL
REMARK 927      BINDING AFFINITY PREDICTED BY RF-SCORE:    0.00 PKD
ROOT
HETATM    1  C   UNL     1      -6.963   5.371  70.048  1.00  0.00    -0.060 C  
HETATM    2  C   UNL     1      -8.139   5.851  69.198  1.00  0.00    -0.106 C  
HETATM    3  C   UNL     1      -9.458   5.343  69.770  1.00  0.00    -0.202 C  
ENDROOT
BRANCH   2   4
HETATM    4  N   UNL     1      -8.159   7.303  69.077  1.00  0.00    -0.122 N  
HETATM    5  H   UNL     1      -8.538   7.866  69.840  1.00  0.00     0.000 HD 
BRANCH   4   6
HETATM    6  C   UNL     1      -7.677   7.924  67.957  1.00  0.00    -0.125 C  
HETATM    7  O   UNL     1      -6.574   7.712  67.484  1.00  0.00    -0.059 OA 
BRANCH   6   8
HETATM    8  N   UNL     1      -8.533   8.890  67.452  1.00  0.00    -0.115 N  
HETATM    9  H   UNL     1      -8.826   8.804  66.479  1.00  0.00     0.000 HD 
BRANCH   8  10
HETATM   10  S   UNL     1      -9.118  10.188  68.328  1.00  0.00    -0.124 S  
HETATM   11  O   UNL     1      -9.976   9.705  69.386  1.00  0.00    -0.176 OA 
HETATM   12  O   UNL     1      -7.938  10.973  68.639  1.00  0.00    -0.127 OA 
BRANCH  10  13
HETATM   13  C   UNL     1     -10.090  11.149  67.224  1.00  0.00    -0.188 A  
HETATM   14  C   UNL     1     -10.913  12.189  67.676  1.00  0.00    -0.243 A  
HETATM   15  N   UNL     1     -10.811  11.482  64.928  1.00  0.00    -0.298 NA 
HETATM   16  C   UNL     1     -11.728  12.805  66.710  1.00  0.00    -0.459 A  
HETATM   17  C   UNL     1     -11.648  12.431  65.379  1.00  0.00    -0.381 A  
HETATM   18  C   UNL     1     -10.062  10.857  65.865  1.00  0.00    -0.252 A  
BRANCH  14  19
HETATM   19  N   UNL     1     -10.860  12.700  68.995  1.00  0.00    -0.393 NA 
HETATM   20  H   UNL     1     -10.000  13.191  69.242  1.00  0.00     0.000 HD 
BRANCH  19  21
HETATM   21  C   UNL     1     -11.834  12.626  70.018  1.00  0.00    -0.285 A  
HETATM   22  C   UNL     1     -13.061  13.711  71.817  1.00  0.00    -0.468 A  
HETATM   23  C   UNL     1     -12.236  13.786  70.689  1.00  0.00    -0.434 A  
HETATM   24  C   UNL     1     -13.468  12.470  72.313  1.00  0.00    -0.490 A  
HETATM   25  C   UNL     1     -13.096  11.300  71.652  1.00  0.00    -0.513 A  
HETATM   26  C   UNL     1     -12.329  11.397  70.483  1.00  0.00    -0.439 A  
HETATM   27  C   UNL     1     -13.422   9.944  72.203  1.00  0.00    -0.454 C  
ENDBRANCH  19  21
ENDBRANCH  14  19
ENDBRANCH  10  13
ENDBRANCH   8  10
ENDBRANCH   6   8
ENDBRANCH   4   6
ENDBRANCH   2   4
TORSDOF 7
ENDMDL
MODEL      212
REMARK 921   NORMALIZED FREE ENERGY PREDICTED BY IDOCK:   -4.18 KCAL/MOL
REMARK 922        TOTAL FREE ENERGY PREDICTED BY IDOCK:   -7.74 KCAL/MOL
REMARK 923 INTER-LIGAND FREE ENERGY PREDICTED BY IDOCK:   -6.55 KCAL/MOL
REMARK 924 INTRA-LIGAND FREE ENERGY PREDICTED BY IDOCK:   -1.19 KCAL/MOL
REMARK 927      BINDING AFFINITY PREDICTED BY RF-SCORE:    0.00 PKD
ROOT
HETATM    1  C   UNL     1     -12.774  11.836  63.452  1.00  0.00    -0.395 C  
HETATM    2  C   UNL     1     -11.455  12.224  64.119  1.00  0.00    -0.383 C  
HETATM    3  C   UNL     1     -10.367  11.210  63.788  1.00  0.00    -0.447 C  
ENDROOT
BRANCH   2   4
HETATM    4  N   UNL     1     -11.035  13.567  63.740  1.00  0.00    -0.474 N  
HETATM    5  H   UNL     1     -10.335  13.687  63.007  1.00  0.00     0.000 HD 
BRANCH   4   6
HETATM    6  C   UNL     1     -11.566  14.670  64.351  1.00  0.00    -0.305 C  
HETATM    7  O   UNL     1     -12.669  15.123  64.098  1.00  0.00    -0.694 OA 
BRANCH   6   8
HETATM    8  N   UNL     1     -10.691  15.286  65.233  1.00  0.00    -0.385 N  
HETATM    9  H   UNL     1      -9.990  15.916  64.844  1.00  0.00     0.000 HD 
BRANCH   8  10
HETATM   10  S   UNL     1     -10.706  15.066  66.889  1.00  0.00    -0.313 S  
HETATM   11  O   UNL     1     -11.093  16.301  67.534  1.00  0.00    -0.260 OA 
HETATM   12  O   UNL     1     -11.488  13.860  67.085  1.00  0.00    -0.315 OA 
BRANCH  10  13
HETATM   13  C   UNL     1      -9.058  14.686  67.367  1.00  0.00    -0.197 A  
HETATM   14  C   UNL     1      -8.775  13.748  68.368  1.00  0.00    -0.162 A  
HETATM   15  N   UNL     1      -6.700  15.191  67.076  1.00  0.00    -0.156 NA 
HETATM   16  C   UNL     1      -7.426  13.618  68.739  1.00  0.00    -0.088 A  
HETATM   17  C   UNL     1      -6.443  14.341  68.084  1.00  0.00    -0.133 A  
HETATM   18  C   UNL     1      -8.004  15.350  66.752  1.00  0.00    -0.130 A  
BRANCH  14  19
HETATM   19  N   UNL     1      -9.750  12.874  68.908  1.00  0.00    -0.409 NA 
HETATM   20  H   UNL     1     -10.522  13.326  69.398  1.00  0.00     0.000 HD 
BRANCH  19  21
HETATM   21  C   UNL     1      -9.803  11.461  68.862  1.00  0.00    -0.112 A  
HETATM   22  C   UNL     1      -9.633   9.405  67.571  1.00  0.00    -0.174 A  
HETATM   23  C   UNL     1      -9.422  10.783  67.699  1.00  0.00    -0.166 A  
HETATM   24  C   UNL     1     -10.262   8.690  68.593  1.00  0.00    -0.214 A  
HETATM   25  C   UNL     1     -10.636   9.339  69.769  1.00  0.00    -0.244 A  
HETATM   26  C   UNL     1     -10.352  10.705  69.909  1.00  0.00    -0.076 A  
HETATM   27  C   UNL     1     -11.405   8.637  70.849  1.00  0.00    -0.314 C  
ENDBRANCH  19  21
ENDBRANCH  14  19
ENDBRANCH  10  13
ENDBRANCH   8  10
ENDBRANCH   6   8
ENDBRANCH   4   6
ENDBRANCH   2   4
TORSDOF 7
ENDMDL
MODEL      213
REMARK 921   NORMALIZED FREE ENERGY PREDICTED BY IDOCK:   -4.16 KCAL/MOL
REMARK 922        TOTAL FREE ENERGY PREDICTED BY IDOCK:   -7.72 KCAL/MOL
REMARK 923 INTER-LIGAND FREE ENERGY PREDICTED BY IDOCK:   -6.58 KCAL/MOL
REMARK 924 INTRA-LIGAND FREE ENERGY PREDICTED BY IDOCK:   -1.14 KCAL/MOL
REMARK 927      BINDING AFFINITY PREDICTED BY RF-SCORE:    0.00 PKD
ROOT
HETATM    1  C   UNL     1     -10.346   4.544  65.734  1.00  0.00    -0.287 C  
HETATM    2  C   UNL     1      -9.972   4.738  67.203  1.00  0.00    -0.190 C  
HETATM    3  C   UNL     1      -8.600   4.137  67.491  1.00  0.00    -0.107 C  
ENDROOT
BRANCH   2   4
HETATM    4  N   UNL     1     -10.006   6.143  67.587  1.00  0.00    -0.122 N  
HETATM    5  H   UNL     1      -9.684   6.852  66.928  1.00  0.00     0.000 HD 
BRANCH   4   6
HETATM    6  C   UNL     1     -10.464   6.526  68.818  1.00  0.00    -0.213 C  
HETATM    7  O   UNL     1     -11.540   6.187  69.278  1.00  0.00    -0.329 OA 
BRANCH   6   8
HETATM    8  N   UNL     1      -9.622   7.416  69.466  1.00  0.00    -0.156 N  
HETATM    9  H   UNL     1      -8.956   7.939  68.898  1.00  0.00     0.000 HD 
BRANCH   8  10
HETATM   10  S   UNL     1      -9.622   7.689  71.115  1.00  0.00    -0.158 S  
HETATM   11  O   UNL     1      -9.636   6.423  71.812  1.00  0.00    -0.154 OA 
HETATM   12  O   UNL     1      -8.537   8.630  71.323  1.00  0.00    -0.154 OA 
BRANCH  10  13
HETATM   13  C   UNL     1     -11.112   8.543  71.488  1.00  0.00    -0.275 A  
HETATM   14  C   UNL     1     -11.417   9.785  70.915  1.00  0.00    -0.369 A  
HETATM   15  N   UNL     1     -13.149   8.573  72.809  1.00  0.00    -0.163 NA 
HETATM   16  C   UNL     1     -12.580  10.419  71.383  1.00  0.00    -0.539 A  
HETATM   17  C   UNL     1     -13.400   9.794  72.308  1.00  0.00    -0.379 A  
HETATM   18  C   UNL     1     -12.004   7.984  72.395  1.00  0.00    -0.350 A  
BRANCH  14  19
HETATM   19  N   UNL     1     -10.686  10.341  69.837  1.00  0.00    -0.280 NA 
HETATM   20  H   UNL     1      -9.715  10.036  69.761  1.00  0.00     0.000 HD 
BRANCH  19  21
HETATM   21  C   UNL     1     -11.115  11.259  68.850  1.00  0.00    -0.238 A  
HETATM   22  C   UNL     1     -11.500  11.775  66.504  1.00  0.00    -0.325 A  
HETATM   23  C   UNL     1     -11.250  10.846  67.521  1.00  0.00    -0.364 A  
HETATM   24  C   UNL     1     -11.584  13.138  66.798  1.00  0.00    -0.414 A  
HETATM   25  C   UNL     1     -11.470  13.573  68.118  1.00  0.00    -0.338 A  
HETATM   26  C   UNL     1     -11.291  12.622  69.132  1.00  0.00    -0.339 A  
HETATM   27  C   UNL     1     -11.450  15.031  68.471  1.00  0.00    -0.335 C  
ENDBRANCH  19  21
ENDBRANCH  14  19
ENDBRANCH  10  13
ENDBRANCH   8  10
ENDBRANCH   6   8
ENDBRANCH   4   6
ENDBRANCH   2   4
TORSDOF 7
ENDMDL
MODEL      214
REMARK 921   NORMALIZED FREE ENERGY PREDICTED BY IDOCK:   -4.16 KCAL/MOL
REMARK 922        TOTAL FREE ENERGY PREDICTED BY IDOCK:   -7.71 KCAL/MOL
REMARK 923 INTER-LIGAND FREE ENERGY PREDICTED BY IDOCK:   -6.34 KCAL/MOL
REMARK 924 INTRA-LIGAND FREE ENERGY PREDICTED BY IDOCK:   -1.38 KCAL/MOL
REMARK 927      BINDING AFFINITY PREDICTED BY RF-SCORE:    0.00 PKD
ROOT
HETATM    1  C   UNL     1      -6.690  12.032  69.196  1.00  0.00    -0.101 C  
HETATM    2  C   UNL     1      -6.586  12.806  67.881  1.00  0.00    -0.118 C  
HETATM    3  C   UNL     1      -5.822  11.996  66.841  1.00  0.00    -0.071 C  
ENDROOT
BRANCH   2   4
HETATM    4  N   UNL     1      -7.899  13.184  67.374  1.00  0.00    -0.237 N  
HETATM    5  H   UNL     1      -8.089  13.118  66.374  1.00  0.00     0.000 HD 
BRANCH   4   6
HETATM    6  C   UNL     1      -8.880  13.626  68.219  1.00  0.00    -0.179 C  
HETATM    7  O   UNL     1      -8.879  14.725  68.746  1.00  0.00    -0.175 OA 
BRANCH   6   8
HETATM    8  N   UNL     1      -9.842  12.667  68.495  1.00  0.00    -0.359 N  
HETATM    9  H   UNL     1      -9.634  11.978  69.217  1.00  0.00     0.000 HD 
BRANCH   8  10
HETATM   10  S   UNL     1     -11.322  12.562  67.724  1.00  0.00    -0.318 S  
HETATM   11  O   UNL     1     -12.170  11.635  68.438  1.00  0.00    -0.498 OA 
HETATM   12  O   UNL     1     -11.731  13.942  67.542  1.00  0.00    -0.337 OA 
BRANCH  10  13
HETATM   13  C   UNL     1     -11.014  11.908  66.122  1.00  0.00    -0.308 A  
HETATM   14  C   UNL     1     -10.004  10.966  65.888  1.00  0.00    -0.243 A  
HETATM   15  N   UNL     1     -11.595  11.975  63.765  1.00  0.00    -0.441 NA 
HETATM   16  C   UNL     1      -9.782  10.610  64.547  1.00  0.00    -0.367 A  
HETATM   17  C   UNL     1     -10.580  11.125  63.540  1.00  0.00    -0.324 A  
HETATM   18  C   UNL     1     -11.778  12.355  65.050  1.00  0.00    -0.371 A  
BRANCH  14  19
HETATM   19  N   UNL     1      -9.313  10.298  66.928  1.00  0.00    -0.156 NA 
HETATM   20  H   UNL     1      -8.409  10.697  67.182  1.00  0.00     0.000 HD 
BRANCH  19  21
HETATM   21  C   UNL     1      -9.702   9.153  67.663  1.00  0.00    -0.159 A  
HETATM   22  C   UNL     1     -10.552   6.874  67.684  1.00  0.00    -0.328 A  
HETATM   23  C   UNL     1      -9.997   7.960  66.996  1.00  0.00    -0.322 A  
HETATM   24  C   UNL     1     -10.851   6.978  69.044  1.00  0.00    -0.212 A  
HETATM   25  C   UNL     1     -10.550   8.151  69.735  1.00  0.00    -0.231 A  
HETATM   26  C   UNL     1      -9.930   9.203  69.047  1.00  0.00    -0.189 A  
HETATM   27  C   UNL     1     -10.946   8.348  71.168  1.00  0.00    -0.292 C  
ENDBRANCH  19  21
ENDBRANCH  14  19
ENDBRANCH  10  13
ENDBRANCH   8  10
ENDBRANCH   6   8
ENDBRANCH   4   6
ENDBRANCH   2   4
TORSDOF 7
ENDMDL
MODEL      215
REMARK 921   NORMALIZED FREE ENERGY PREDICTED BY IDOCK:   -4.15 KCAL/MOL
REMARK 922        TOTAL FREE ENERGY PREDICTED BY IDOCK:   -7.71 KCAL/MOL
REMARK 923 INTER-LIGAND FREE ENERGY PREDICTED BY IDOCK:   -6.37 KCAL/MOL
REMARK 924 INTRA-LIGAND FREE ENERGY PREDICTED BY IDOCK:   -1.34 KCAL/MOL
REMARK 927      BINDING AFFINITY PREDICTED BY RF-SCORE:    0.00 PKD
ROOT
HETATM    1  C   UNL     1     -10.884  16.062  64.864  1.00  0.00    -0.391 C  
HETATM    2  C   UNL     1     -10.644  15.361  66.201  1.00  0.00    -0.316 C  
HETATM    3  C   UNL     1      -9.989  16.313  67.196  1.00  0.00    -0.257 C  
ENDROOT
BRANCH   2   4
HETATM    4  N   UNL     1     -11.878  14.815  66.751  1.00  0.00    -0.314 N  
HETATM    5  H   UNL     1     -12.353  15.309  67.507  1.00  0.00     0.000 HD 
BRANCH   4   6
HETATM    6  C   UNL     1     -12.409  13.650  66.269  1.00  0.00    -0.412 C  
HETATM    7  O   UNL     1     -13.114  13.584  65.278  1.00  0.00    -0.713 OA 
BRANCH   6   8
HETATM    8  N   UNL     1     -12.140  12.550  67.069  1.00  0.00    -0.211 N  
HETATM    9  H   UNL     1     -12.430  11.633  66.729  1.00  0.00     0.000 HD 
BRANCH   8  10
HETATM   10  S   UNL     1     -11.373  12.623  68.551  1.00  0.00    -0.321 S  
HETATM   11  O   UNL     1     -10.018  13.095  68.369  1.00  0.00    -0.235 OA 
HETATM   12  O   UNL     1     -12.297  13.353  69.399  1.00  0.00    -0.236 OA 
BRANCH  10  13
HETATM   13  C   UNL     1     -11.307  10.979  69.171  1.00  0.00    -0.280 A  
HETATM   14  C   UNL     1     -10.518   9.992  68.566  1.00  0.00    -0.202 A  
HETATM   15  N   UNL     1     -12.158   9.398  70.805  1.00  0.00    -0.247 NA 
HETATM   16  C   UNL     1     -10.642   8.691  69.084  1.00  0.00    -0.193 A  
HETATM   17  C   UNL     1     -11.453   8.443  70.178  1.00  0.00     0.012 A  
HETATM   18  C   UNL     1     -12.076  10.641  70.277  1.00  0.00    -0.338 A  
BRANCH  14  19
HETATM   19  N   UNL     1      -9.549  10.275  67.573  1.00  0.00    -0.155 NA 
HETATM   20  H   UNL     1      -8.674  10.673  67.914  1.00  0.00     0.000 HD 
BRANCH  19  21
HETATM   21  C   UNL     1      -9.626  10.082  66.174  1.00  0.00    -0.210 A  
HETATM   22  C   UNL     1      -8.893   8.884  64.187  1.00  0.00     0.004 A  
HETATM   23  C   UNL     1      -8.979   8.993  65.580  1.00  0.00    -0.252 A  
HETATM   24  C   UNL     1      -9.425   9.881  63.367  1.00  0.00    -0.124 A  
HETATM   25  C   UNL     1     -10.091  10.968  63.933  1.00  0.00    -0.414 A  
HETATM   26  C   UNL     1     -10.229  11.025  65.327  1.00  0.00    -0.344 A  
HETATM   27  C   UNL     1     -10.587  12.112  63.101  1.00  0.00    -0.221 C  
ENDBRANCH  19  21
ENDBRANCH  14  19
ENDBRANCH  10  13
ENDBRANCH   8  10
ENDBRANCH   6   8
ENDBRANCH   4   6
ENDBRANCH   2   4
TORSDOF 7
ENDMDL
MODEL      216
REMARK 921   NORMALIZED FREE ENERGY PREDICTED BY IDOCK:   -4.15 KCAL/MOL
REMARK 922        TOTAL FREE ENERGY PREDICTED BY IDOCK:   -7.71 KCAL/MOL
REMARK 923 INTER-LIGAND FREE ENERGY PREDICTED BY IDOCK:   -6.42 KCAL/MOL
REMARK 924 INTRA-LIGAND FREE ENERGY PREDICTED BY IDOCK:   -1.28 KCAL/MOL
REMARK 927      BINDING AFFINITY PREDICTED BY RF-SCORE:    0.00 PKD
ROOT
HETATM    1  C   UNL     1     -10.523   6.878  73.753  1.00  0.00    -0.390 C  
HETATM    2  C   UNL     1     -10.756   7.082  72.256  1.00  0.00    -0.220 C  
HETATM    3  C   UNL     1     -12.144   6.591  71.857  1.00  0.00    -0.388 C  
ENDROOT
BRANCH   2   4
HETATM    4  N   UNL     1     -10.575   8.475  71.868  1.00  0.00    -0.295 N  
HETATM    5  H   UNL     1     -11.370   9.113  71.900  1.00  0.00     0.000 HD 
BRANCH   4   6
HETATM    6  C   UNL     1      -9.353   8.939  71.461  1.00  0.00    -0.265 C  
HETATM    7  O   UNL     1      -8.300   8.632  71.990  1.00  0.00    -0.250 OA 
BRANCH   6   8
HETATM    8  N   UNL     1      -9.432   9.869  70.436  1.00  0.00    -0.372 N  
HETATM    9  H   UNL     1      -8.963  10.765  70.571  1.00  0.00     0.000 HD 
BRANCH   8  10
HETATM   10  S   UNL     1     -10.241   9.624  68.995  1.00  0.00    -0.209 S  
HETATM   11  O   UNL     1     -10.604   8.229  68.879  1.00  0.00    -0.211 OA 
HETATM   12  O   UNL     1     -11.263  10.653  68.977  1.00  0.00    -0.230 OA 
BRANCH  10  13
HETATM   13  C   UNL     1      -9.110  10.009  67.706  1.00  0.00    -0.131 A  
HETATM   14  C   UNL     1      -9.540  10.508  66.469  1.00  0.00    -0.174 A  
HETATM   15  N   UNL     1      -6.795   9.988  66.972  1.00  0.00    -0.085 NA 
HETATM   16  C   UNL     1      -8.552  10.665  65.482  1.00  0.00    -0.191 A  
HETATM   17  C   UNL     1      -7.223  10.400  65.768  1.00  0.00    -0.143 A  
HETATM   18  C   UNL     1      -7.753   9.791  67.907  1.00  0.00    -0.087 A  
BRANCH  14  19
HETATM   19  N   UNL     1     -10.862  10.956  66.232  1.00  0.00    -0.179 NA 
HETATM   20  H   UNL     1     -11.602  10.342  66.574  1.00  0.00     0.000 HD 
BRANCH  19  21
HETATM   21  C   UNL     1     -11.300  12.136  65.587  1.00  0.00    -0.347 A  
HETATM   22  C   UNL     1     -12.257  13.213  63.627  1.00  0.00    -0.553 A  
HETATM   23  C   UNL     1     -11.974  12.057  64.364  1.00  0.00    -0.385 A  
HETATM   24  C   UNL     1     -11.838  14.463  64.085  1.00  0.00    -0.316 A  
HETATM   25  C   UNL     1     -11.180  14.571  65.310  1.00  0.00    -0.352 A  
HETATM   26  C   UNL     1     -10.968  13.412  66.069  1.00  0.00    -0.281 A  
HETATM   27  C   UNL     1     -10.622  15.876  65.795  1.00  0.00    -0.368 C  
ENDBRANCH  19  21
ENDBRANCH  14  19
ENDBRANCH  10  13
ENDBRANCH   8  10
ENDBRANCH   6   8
ENDBRANCH   4   6
ENDBRANCH   2   4
TORSDOF 7
ENDMDL
MODEL      217
REMARK 921   NORMALIZED FREE ENERGY PREDICTED BY IDOCK:   -4.14 KCAL/MOL
REMARK 922        TOTAL FREE ENERGY PREDICTED BY IDOCK:   -7.68 KCAL/MOL
REMARK 923 INTER-LIGAND FREE ENERGY PREDICTED BY IDOCK:   -5.62 KCAL/MOL
REMARK 924 INTRA-LIGAND FREE ENERGY PREDICTED BY IDOCK:   -2.06 KCAL/MOL
REMARK 927      BINDING AFFINITY PREDICTED BY RF-SCORE:    0.00 PKD
ROOT
HETATM    1  C   UNL     1     -10.840  15.880  65.237  1.00  0.00    -0.401 C  
HETATM    2  C   UNL     1     -10.895  15.210  66.610  1.00  0.00    -0.318 C  
HETATM    3  C   UNL     1     -10.977  16.258  67.715  1.00  0.00    -0.281 C  
ENDROOT
BRANCH   2   4
HETATM    4  N   UNL     1     -12.007  14.274  66.708  1.00  0.00    -0.431 N  
HETATM    5  H   UNL     1     -12.753  14.449  67.382  1.00  0.00     0.000 HD 
BRANCH   4   6
HETATM    6  C   UNL     1     -12.066  13.164  65.910  1.00  0.00    -0.444 C  
HETATM    7  O   UNL     1     -13.015  12.889  65.198  1.00  0.00    -0.758 OA 
BRANCH   6   8
HETATM    8  N   UNL     1     -10.972  12.325  66.053  1.00  0.00    -0.281 N  
HETATM    9  H   UNL     1     -10.386  12.166  65.233  1.00  0.00     0.000 HD 
BRANCH   8  10
HETATM   10  S   UNL     1     -10.546  11.558  67.475  1.00  0.00    -0.217 S  
HETATM   11  O   UNL     1     -10.589  12.507  68.564  1.00  0.00    -0.234 OA 
HETATM   12  O   UNL     1     -11.376  10.368  67.503  1.00  0.00    -0.374 OA 
BRANCH  10  13
HETATM   13  C   UNL     1      -8.886  11.013  67.281  1.00  0.00    -0.135 A  
HETATM   14  C   UNL     1      -7.895  11.840  66.736  1.00  0.00    -0.103 A  
HETATM   15  N   UNL     1      -7.325   9.166  67.497  1.00  0.00    -0.083 NA 
HETATM   16  C   UNL     1      -6.637  11.250  66.526  1.00  0.00    -0.108 A  
HETATM   17  C   UNL     1      -6.399   9.942  66.911  1.00  0.00    -0.065 A  
HETATM   18  C   UNL     1      -8.550   9.718  67.656  1.00  0.00    -0.125 A  
BRANCH  14  19
HETATM   19  N   UNL     1      -8.078  13.227  66.516  1.00  0.00    -0.139 NA 
HETATM   20  H   UNL     1      -8.574  13.473  65.659  1.00  0.00     0.000 HD 
BRANCH  19  21
HETATM   21  C   UNL     1      -7.670  14.318  67.318  1.00  0.00    -0.120 A  
HETATM   22  C   UNL     1      -7.379  15.291  69.529  1.00  0.00    -0.210 A  
HETATM   23  C   UNL     1      -7.608  14.180  68.709  1.00  0.00    -0.125 A  
HETATM   24  C   UNL     1      -7.245  16.564  68.971  1.00  0.00    -0.219 A  
HETATM   25  C   UNL     1      -7.286  16.726  67.587  1.00  0.00    -0.163 A  
HETATM   26  C   UNL     1      -7.444  15.593  66.777  1.00  0.00    -0.063 A  
HETATM   27  C   UNL     1      -7.249  18.082  66.948  1.00  0.00    -0.225 C  
ENDBRANCH  19  21
ENDBRANCH  14  19
ENDBRANCH  10  13
ENDBRANCH   8  10
ENDBRANCH   6   8
ENDBRANCH   4   6
ENDBRANCH   2   4
TORSDOF 7
ENDMDL
MODEL      218
REMARK 921   NORMALIZED FREE ENERGY PREDICTED BY IDOCK:   -4.14 KCAL/MOL
REMARK 922        TOTAL FREE ENERGY PREDICTED BY IDOCK:   -7.68 KCAL/MOL
REMARK 923 INTER-LIGAND FREE ENERGY PREDICTED BY IDOCK:   -6.33 KCAL/MOL
REMARK 924 INTRA-LIGAND FREE ENERGY PREDICTED BY IDOCK:   -1.35 KCAL/MOL
REMARK 927      BINDING AFFINITY PREDICTED BY RF-SCORE:    0.00 PKD
ROOT
HETATM    1  C   UNL     1     -12.458  15.139  70.065  1.00  0.00    -0.316 C  
HETATM    2  C   UNL     1     -11.473  14.987  68.906  1.00  0.00    -0.314 C  
HETATM    3  C   UNL     1     -10.954  16.350  68.460  1.00  0.00    -0.350 C  
ENDROOT
BRANCH   2   4
HETATM    4  N   UNL     1     -10.365  14.107  69.254  1.00  0.00    -0.427 N  
HETATM    5  H   UNL     1      -9.977  14.136  70.197  1.00  0.00     0.000 HD 
BRANCH   4   6
HETATM    6  C   UNL     1      -9.837  13.242  68.335  1.00  0.00    -0.218 C  
HETATM    7  O   UNL     1      -9.423  13.583  67.240  1.00  0.00    -0.215 OA 
BRANCH   6   8
HETATM    8  N   UNL     1      -9.895  11.915  68.730  1.00  0.00    -0.389 N  
HETATM    9  H   UNL     1      -9.081  11.524  69.204  1.00  0.00     0.000 HD 
BRANCH   8  10
HETATM   10  S   UNL     1     -11.208  10.911  68.485  1.00  0.00    -0.298 S  
HETATM   11  O   UNL     1     -12.343  11.699  68.061  1.00  0.00    -0.429 OA 
HETATM   12  O   UNL     1     -10.696   9.848  67.640  1.00  0.00    -0.254 OA 
BRANCH  10  13
HETATM   13  C   UNL     1     -11.590  10.184  70.039  1.00  0.00    -0.253 A  
HETATM   14  C   UNL     1     -10.674   9.372  70.721  1.00  0.00    -0.305 A  
HETATM   15  N   UNL     1     -13.276   9.844  71.754  1.00  0.00    -0.414 NA 
HETATM   16  C   UNL     1     -11.140   8.756  71.895  1.00  0.00    -0.434 A  
HETATM   17  C   UNL     1     -12.417   9.013  72.366  1.00  0.00    -0.305 A  
HETATM   18  C   UNL     1     -12.844  10.399  70.598  1.00  0.00    -0.313 A  
BRANCH  14  19
HETATM   19  N   UNL     1      -9.314   9.256  70.346  1.00  0.00    -0.231 NA 
HETATM   20  H   UNL     1      -8.701  10.001  70.680  1.00  0.00     0.000 HD 
BRANCH  19  21
HETATM   21  C   UNL     1      -8.685   8.251  69.574  1.00  0.00    -0.138 A  
HETATM   22  C   UNL     1      -7.249   7.644  67.706  1.00  0.00    -0.087 A  
HETATM   23  C   UNL     1      -7.748   8.602  68.597  1.00  0.00    -0.099 A  
HETATM   24  C   UNL     1      -7.708   6.326  67.758  1.00  0.00    -0.102 A  
HETATM   25  C   UNL     1      -8.629   5.947  68.733  1.00  0.00    -0.110 A  
HETATM   26  C   UNL     1      -9.064   6.903  69.662  1.00  0.00    -0.143 A  
HETATM   27  C   UNL     1      -9.227   4.572  68.764  1.00  0.00    -0.184 C  
ENDBRANCH  19  21
ENDBRANCH  14  19
ENDBRANCH  10  13
ENDBRANCH   8  10
ENDBRANCH   6   8
ENDBRANCH   4   6
ENDBRANCH   2   4
TORSDOF 7
ENDMDL
MODEL      219
REMARK 921   NORMALIZED FREE ENERGY PREDICTED BY IDOCK:   -4.14 KCAL/MOL
REMARK 922        TOTAL FREE ENERGY PREDICTED BY IDOCK:   -7.68 KCAL/MOL
REMARK 923 INTER-LIGAND FREE ENERGY PREDICTED BY IDOCK:   -6.24 KCAL/MOL
REMARK 924 INTRA-LIGAND FREE ENERGY PREDICTED BY IDOCK:   -1.44 KCAL/MOL
REMARK 927      BINDING AFFINITY PREDICTED BY RF-SCORE:    0.00 PKD
ROOT
HETATM    1  C   UNL     1     -12.384   8.801  72.364  1.00  0.00    -0.414 C  
HETATM    2  C   UNL     1     -11.412   9.254  71.273  1.00  0.00    -0.347 C  
HETATM    3  C   UNL     1      -9.976   8.927  71.666  1.00  0.00    -0.397 C  
ENDROOT
BRANCH   2   4
HETATM    4  N   UNL     1     -11.738   8.661  69.983  1.00  0.00    -0.423 N  
HETATM    5  H   UNL     1     -12.353   9.162  69.341  1.00  0.00     0.000 HD 
BRANCH   4   6
HETATM    6  C   UNL     1     -11.231   7.443  69.619  1.00  0.00    -0.044 C  
HETATM    7  O   UNL     1     -10.990   6.545  70.406  1.00  0.00    -0.252 OA 
BRANCH   6   8
HETATM    8  N   UNL     1     -10.932   7.353  68.268  1.00  0.00    -0.449 N  
HETATM    9  H   UNL     1     -11.710   7.283  67.613  1.00  0.00     0.000 HD 
BRANCH   8  10
HETATM   10  S   UNL     1      -9.384   7.351  67.640  1.00  0.00    -0.134 S  
HETATM   11  O   UNL     1      -8.700   6.145  68.049  1.00  0.00    -0.115 OA 
HETATM   12  O   UNL     1      -9.566   7.650  66.232  1.00  0.00    -0.170 OA 
BRANCH  10  13
HETATM   13  C   UNL     1      -8.547   8.727  68.346  1.00  0.00    -0.134 A  
HETATM   14  C   UNL     1      -8.977  10.043  68.133  1.00  0.00    -0.122 A  
HETATM   15  N   UNL     1      -6.651   9.484  69.660  1.00  0.00    -0.044 NA 
HETATM   16  C   UNL     1      -8.157  11.059  68.653  1.00  0.00    -0.149 A  
HETATM   17  C   UNL     1      -7.030  10.744  69.393  1.00  0.00    -0.116 A  
HETATM   18  C   UNL     1      -7.413   8.507  69.118  1.00  0.00    -0.088 A  
BRANCH  14  19
HETATM   19  N   UNL     1     -10.223  10.365  67.541  1.00  0.00    -0.198 NA 
HETATM   20  H   UNL     1     -11.045  10.007  68.028  1.00  0.00     0.000 HD 
BRANCH  19  21
HETATM   21  C   UNL     1     -10.486  11.114  66.371  1.00  0.00    -0.260 A  
HETATM   22  C   UNL     1     -11.965  12.588  65.122  1.00  0.00    -0.484 A  
HETATM   23  C   UNL     1     -11.586  11.976  66.323  1.00  0.00    -0.378 A  
HETATM   24  C   UNL     1     -11.270  12.318  63.942  1.00  0.00    -0.488 A  
HETATM   25  C   UNL     1     -10.159  11.475  63.966  1.00  0.00    -0.366 A  
HETATM   26  C   UNL     1      -9.750  10.927  65.190  1.00  0.00    -0.312 A  
HETATM   27  C   UNL     1      -9.443  11.075  62.710  1.00  0.00    -0.361 C  
ENDBRANCH  19  21
ENDBRANCH  14  19
ENDBRANCH  10  13
ENDBRANCH   8  10
ENDBRANCH   6   8
ENDBRANCH   4   6
ENDBRANCH   2   4
TORSDOF 7
ENDMDL
MODEL      220
REMARK 921   NORMALIZED FREE ENERGY PREDICTED BY IDOCK:   -4.13 KCAL/MOL
REMARK 922        TOTAL FREE ENERGY PREDICTED BY IDOCK:   -7.67 KCAL/MOL
REMARK 923 INTER-LIGAND FREE ENERGY PREDICTED BY IDOCK:   -6.40 KCAL/MOL
REMARK 924 INTRA-LIGAND FREE ENERGY PREDICTED BY IDOCK:   -1.27 KCAL/MOL
REMARK 927      BINDING AFFINITY PREDICTED BY RF-SCORE:    0.00 PKD
ROOT
HETATM    1  C   UNL     1     -11.777  15.527  68.871  1.00  0.00    -0.385 C  
HETATM    2  C   UNL     1     -10.881  14.872  67.819  1.00  0.00    -0.286 C  
HETATM    3  C   UNL     1     -10.076  15.927  67.068  1.00  0.00    -0.268 C  
ENDROOT
BRANCH   2   4
HETATM    4  N   UNL     1      -9.995  13.878  68.411  1.00  0.00    -0.230 N  
HETATM    5  H   UNL     1      -9.250  14.179  69.040  1.00  0.00     0.000 HD 
BRANCH   4   6
HETATM    6  C   UNL     1     -10.147  12.547  68.135  1.00  0.00    -0.225 C  
HETATM    7  O   UNL     1     -10.811  12.116  67.209  1.00  0.00    -0.228 OA 
BRANCH   6   8
HETATM    8  N   UNL     1      -9.541  11.719  69.068  1.00  0.00    -0.409 N  
HETATM    9  H   UNL     1      -9.808  11.830  70.046  1.00  0.00     0.000 HD 
BRANCH   8  10
HETATM   10  S   UNL     1      -8.403  10.552  68.700  1.00  0.00    -0.140 S  
HETATM   11  O   UNL     1      -7.527  11.045  67.661  1.00  0.00    -0.092 OA 
HETATM   12  O   UNL     1      -7.865  10.156  69.988  1.00  0.00    -0.173 OA 
BRANCH  10  13
HETATM   13  C   UNL     1      -9.282   9.166  68.071  1.00  0.00    -0.134 A  
HETATM   14  C   UNL     1      -9.909   8.241  68.916  1.00  0.00    -0.180 A  
HETATM   15  N   UNL     1      -9.928   7.906  66.097  1.00  0.00     0.003 NA 
HETATM   16  C   UNL     1     -10.477   7.115  68.296  1.00  0.00    -0.235 A  
HETATM   17  C   UNL     1     -10.466   6.989  66.917  1.00  0.00    -0.286 A  
HETATM   18  C   UNL     1      -9.339   8.966  66.697  1.00  0.00    -0.185 A  
BRANCH  14  19
HETATM   19  N   UNL     1     -10.087   8.457  70.304  1.00  0.00    -0.186 NA 
HETATM   20  H   UNL     1      -9.240   8.399  70.870  1.00  0.00     0.000 HD 
BRANCH  19  21
HETATM   21  C   UNL     1     -11.276   8.741  71.015  1.00  0.00    -0.273 A  
HETATM   22  C   UNL     1     -13.441   8.004  71.845  1.00  0.00    -0.342 A  
HETATM   23  C   UNL     1     -12.183   7.716  71.302  1.00  0.00    -0.339 A  
HETATM   24  C   UNL     1     -13.824   9.326  72.076  1.00  0.00    -0.446 A  
HETATM   25  C   UNL     1     -12.931  10.366  71.815  1.00  0.00    -0.580 A  
HETATM   26  C   UNL     1     -11.650  10.055  71.339  1.00  0.00    -0.383 A  
HETATM   27  C   UNL     1     -13.332  11.805  71.951  1.00  0.00    -0.401 C  
ENDBRANCH  19  21
ENDBRANCH  14  19
ENDBRANCH  10  13
ENDBRANCH   8  10
ENDBRANCH   6   8
ENDBRANCH   4   6
ENDBRANCH   2   4
TORSDOF 7
ENDMDL
MODEL      221
REMARK 921   NORMALIZED FREE ENERGY PREDICTED BY IDOCK:   -4.13 KCAL/MOL
REMARK 922        TOTAL FREE ENERGY PREDICTED BY IDOCK:   -7.67 KCAL/MOL
REMARK 923 INTER-LIGAND FREE ENERGY PREDICTED BY IDOCK:   -6.15 KCAL/MOL
REMARK 924 INTRA-LIGAND FREE ENERGY PREDICTED BY IDOCK:   -1.52 KCAL/MOL
REMARK 927      BINDING AFFINITY PREDICTED BY RF-SCORE:    0.00 PKD
ROOT
HETATM    1  C   UNL     1      -6.486  10.698  66.441  1.00  0.00    -0.117 C  
HETATM    2  C   UNL     1      -6.605   9.578  67.474  1.00  0.00    -0.063 C  
HETATM    3  C   UNL     1      -6.040  10.024  68.817  1.00  0.00    -0.040 C  
ENDROOT
BRANCH   2   4
HETATM    4  N   UNL     1      -7.984   9.128  67.622  1.00  0.00    -0.100 N  
HETATM    5  H   UNL     1      -8.747   9.767  67.402  1.00  0.00     0.000 HD 
BRANCH   4   6
HETATM    6  C   UNL     1      -8.268   7.861  68.053  1.00  0.00    -0.127 C  
HETATM    7  O   UNL     1      -7.601   6.881  67.770  1.00  0.00    -0.102 OA 
BRANCH   6   8
HETATM    8  N   UNL     1      -9.448   7.777  68.777  1.00  0.00    -0.149 N  
HETATM    9  H   UNL     1     -10.317   7.664  68.256  1.00  0.00     0.000 HD 
BRANCH   8  10
HETATM   10  S   UNL     1      -9.542   7.850  70.443  1.00  0.00    -0.170 S  
HETATM   11  O   UNL     1      -9.600   6.508  70.980  1.00  0.00    -0.174 OA 
HETATM   12  O   UNL     1      -8.469   8.748  70.826  1.00  0.00    -0.138 OA 
BRANCH  10  13
HETATM   13  C   UNL     1     -11.049   8.666  70.832  1.00  0.00    -0.264 A  
HETATM   14  C   UNL     1     -11.406   9.884  70.237  1.00  0.00    -0.291 A  
HETATM   15  N   UNL     1     -13.055   8.667  72.201  1.00  0.00    -0.367 NA 
HETATM   16  C   UNL     1     -12.578  10.493  70.717  1.00  0.00    -0.474 A  
HETATM   17  C   UNL     1     -13.355   9.866  71.677  1.00  0.00    -0.389 A  
HETATM   18  C   UNL     1     -11.902   8.103  71.773  1.00  0.00    -0.300 A  
BRANCH  14  19
HETATM   19  N   UNL     1     -10.719  10.434  69.128  1.00  0.00    -0.218 NA 
HETATM   20  H   UNL     1      -9.914   9.900  68.801  1.00  0.00     0.000 HD 
BRANCH  19  21
HETATM   21  C   UNL     1     -10.993  11.623  68.412  1.00  0.00    -0.220 A  
HETATM   22  C   UNL     1     -11.492  14.004  68.429  1.00  0.00    -0.340 A  
HETATM   23  C   UNL     1     -11.050  12.848  69.084  1.00  0.00    -0.245 A  
HETATM   24  C   UNL     1     -11.917  13.943  67.100  1.00  0.00    -0.455 A  
HETATM   25  C   UNL     1     -11.854  12.737  66.403  1.00  0.00    -0.472 A  
HETATM   26  C   UNL     1     -11.342  11.606  67.053  1.00  0.00    -0.373 A  
HETATM   27  C   UNL     1     -12.393  12.600  65.010  1.00  0.00    -0.561 C  
ENDBRANCH  19  21
ENDBRANCH  14  19
ENDBRANCH  10  13
ENDBRANCH   8  10
ENDBRANCH   6   8
ENDBRANCH   4   6
ENDBRANCH   2   4
TORSDOF 7
ENDMDL
MODEL      222
REMARK 921   NORMALIZED FREE ENERGY PREDICTED BY IDOCK:   -4.12 KCAL/MOL
REMARK 922        TOTAL FREE ENERGY PREDICTED BY IDOCK:   -7.66 KCAL/MOL
REMARK 923 INTER-LIGAND FREE ENERGY PREDICTED BY IDOCK:   -6.92 KCAL/MOL
REMARK 924 INTRA-LIGAND FREE ENERGY PREDICTED BY IDOCK:   -0.74 KCAL/MOL
REMARK 927      BINDING AFFINITY PREDICTED BY RF-SCORE:    0.00 PKD
ROOT
HETATM    1  C   UNL     1     -11.691  15.489  72.271  1.00  0.00    -0.578 C  
HETATM    2  C   UNL     1     -12.376  14.304  71.590  1.00  0.00    -0.313 C  
HETATM    3  C   UNL     1     -13.528  13.787  72.443  1.00  0.00    -0.672 C  
ENDROOT
BRANCH   2   4
HETATM    4  N   UNL     1     -12.843  14.650  70.253  1.00  0.00    -0.550 N  
HETATM    5  H   UNL     1     -13.826  14.518  70.015  1.00  0.00     0.000 HD 
BRANCH   4   6
HETATM    6  C   UNL     1     -11.982  15.147  69.313  1.00  0.00    -0.292 C  
HETATM    7  O   UNL     1     -12.159  16.195  68.716  1.00  0.00    -0.184 OA 
BRANCH   6   8
HETATM    8  N   UNL     1     -10.921  14.299  69.035  1.00  0.00    -0.255 N  
HETATM    9  H   UNL     1      -9.979  14.640  69.222  1.00  0.00     0.000 HD 
BRANCH   8  10
HETATM   10  S   UNL     1     -11.080  12.757  68.413  1.00  0.00    -0.281 S  
HETATM   11  O   UNL     1      -9.816  12.063  68.517  1.00  0.00    -0.209 OA 
HETATM   12  O   UNL     1     -12.264  12.227  69.063  1.00  0.00    -0.198 OA 
BRANCH  10  13
HETATM   13  C   UNL     1     -11.475  12.934  66.709  1.00  0.00    -0.340 A  
HETATM   14  C   UNL     1     -11.374  11.863  65.811  1.00  0.00    -0.299 A  
HETATM   15  N   UNL     1     -12.142  14.452  64.934  1.00  0.00    -0.420 NA 
HETATM   16  C   UNL     1     -11.604  12.161  64.457  1.00  0.00    -0.403 A  
HETATM   17  C   UNL     1     -11.977  13.437  64.070  1.00  0.00    -0.464 A  
HETATM   18  C   UNL     1     -11.874  14.176  66.231  1.00  0.00    -0.411 A  
BRANCH  14  19
HETATM   19  N   UNL     1     -11.179  10.522  66.223  1.00  0.00     0.134 NA 
HETATM   20  H   UNL     1     -12.007  10.049  66.584  1.00  0.00     0.000 HD 
BRANCH  19  21
HETATM   21  C   UNL     1      -9.995   9.749  66.204  1.00  0.00    -0.268 A  
HETATM   22  C   UNL     1      -8.649   7.967  67.169  1.00  0.00    -0.128 A  
HETATM   23  C   UNL     1      -9.871   8.637  67.044  1.00  0.00    -0.284 A  
HETATM   24  C   UNL     1      -7.521   8.421  66.482  1.00  0.00    -0.081 A  
HETATM   25  C   UNL     1      -7.623   9.516  65.624  1.00  0.00    -0.101 A  
HETATM   26  C   UNL     1      -8.871  10.131  65.457  1.00  0.00    -0.191 A  
HETATM   27  C   UNL     1      -6.421  10.102  64.945  1.00  0.00    -0.129 C  
ENDBRANCH  19  21
ENDBRANCH  14  19
ENDBRANCH  10  13
ENDBRANCH   8  10
ENDBRANCH   6   8
ENDBRANCH   4   6
ENDBRANCH   2   4
TORSDOF 7
ENDMDL
MODEL      223
REMARK 921   NORMALIZED FREE ENERGY PREDICTED BY IDOCK:   -4.10 KCAL/MOL
REMARK 922        TOTAL FREE ENERGY PREDICTED BY IDOCK:   -7.63 KCAL/MOL
REMARK 923 INTER-LIGAND FREE ENERGY PREDICTED BY IDOCK:   -6.52 KCAL/MOL
REMARK 924 INTRA-LIGAND FREE ENERGY PREDICTED BY IDOCK:   -1.11 KCAL/MOL
REMARK 927      BINDING AFFINITY PREDICTED BY RF-SCORE:    0.00 PKD
ROOT
HETATM    1  C   UNL     1     -14.028  14.052  71.961  1.00  0.00    -0.598 C  
HETATM    2  C   UNL     1     -12.812  13.190  71.622  1.00  0.00    -0.291 C  
HETATM    3  C   UNL     1     -13.116  11.715  71.862  1.00  0.00    -0.490 C  
ENDROOT
BRANCH   2   4
HETATM    4  N   UNL     1     -12.366  13.404  70.252  1.00  0.00    -0.312 N  
HETATM    5  H   UNL     1     -12.375  12.626  69.593  1.00  0.00     0.000 HD 
BRANCH   4   6
HETATM    6  C   UNL     1     -11.936  14.635  69.836  1.00  0.00    -0.329 C  
HETATM    7  O   UNL     1     -11.459  15.475  70.579  1.00  0.00    -0.283 OA 
BRANCH   6   8
HETATM    8  N   UNL     1     -12.174  14.876  68.492  1.00  0.00    -0.597 N  
HETATM    9  H   UNL     1     -12.818  15.629  68.251  1.00  0.00     0.000 HD 
BRANCH   8  10
HETATM   10  S   UNL     1     -11.479  14.017  67.238  1.00  0.00    -0.369 S  
HETATM   11  O   UNL     1     -11.910  12.639  67.303  1.00  0.00    -0.365 OA 
HETATM   12  O   UNL     1     -11.751  14.817  66.059  1.00  0.00    -0.337 OA 
BRANCH  10  13
HETATM   13  C   UNL     1      -9.740  14.064  67.492  1.00  0.00    -0.232 A  
HETATM   14  C   UNL     1      -9.084  13.123  68.296  1.00  0.00    -0.181 A  
HETATM   15  N   UNL     1      -7.666  15.257  67.073  1.00  0.00    -0.200 NA 
HETATM   16  C   UNL     1      -7.712  13.337  68.515  1.00  0.00    -0.120 A  
HETATM   17  C   UNL     1      -7.057  14.391  67.899  1.00  0.00    -0.159 A  
HETATM   18  C   UNL     1      -8.996  15.078  66.901  1.00  0.00    -0.251 A  
BRANCH  14  19
HETATM   19  N   UNL     1      -9.706  11.943  68.772  1.00  0.00    -0.394 NA 
HETATM   20  H   UNL     1     -10.527  12.087  69.361  1.00  0.00     0.000 HD 
BRANCH  19  21
HETATM   21  C   UNL     1      -9.348  10.594  68.545  1.00  0.00    -0.170 A  
HETATM   22  C   UNL     1      -7.917   8.971  67.432  1.00  0.00    -0.100 A  
HETATM   23  C   UNL     1      -8.193  10.288  67.818  1.00  0.00    -0.110 A  
HETATM   24  C   UNL     1      -8.812   7.944  67.739  1.00  0.00    -0.122 A  
HETATM   25  C   UNL     1      -9.962   8.219  68.478  1.00  0.00    -0.206 A  
HETATM   26  C   UNL     1     -10.186   9.531  68.917  1.00  0.00    -0.213 A  
HETATM   27  C   UNL     1     -11.001   7.171  68.743  1.00  0.00    -0.094 C  
ENDBRANCH  19  21
ENDBRANCH  14  19
ENDBRANCH  10  13
ENDBRANCH   8  10
ENDBRANCH   6   8
ENDBRANCH   4   6
ENDBRANCH   2   4
TORSDOF 7
ENDMDL
MODEL      224
REMARK 921   NORMALIZED FREE ENERGY PREDICTED BY IDOCK:   -4.10 KCAL/MOL
REMARK 922        TOTAL FREE ENERGY PREDICTED BY IDOCK:   -7.63 KCAL/MOL
REMARK 923 INTER-LIGAND FREE ENERGY PREDICTED BY IDOCK:   -6.44 KCAL/MOL
REMARK 924 INTRA-LIGAND FREE ENERGY PREDICTED BY IDOCK:   -1.19 KCAL/MOL
REMARK 927      BINDING AFFINITY PREDICTED BY RF-SCORE:    0.00 PKD
ROOT
HETATM    1  C   UNL     1      -6.478  10.813  66.108  1.00  0.00    -0.129 C  
HETATM    2  C   UNL     1      -7.307   9.581  66.472  1.00  0.00    -0.090 C  
HETATM    3  C   UNL     1      -6.475   8.594  67.282  1.00  0.00    -0.058 C  
ENDROOT
BRANCH   2   4
HETATM    4  N   UNL     1      -8.519   9.944  67.196  1.00  0.00    -0.121 N  
HETATM    5  H   UNL     1      -8.547  10.817  67.724  1.00  0.00     0.000 HD 
BRANCH   4   6
HETATM    6  C   UNL     1      -9.620   9.131  67.179  1.00  0.00    -0.164 C  
HETATM    7  O   UNL     1     -10.245   8.856  66.170  1.00  0.00    -0.259 OA 
BRANCH   6   8
HETATM    8  N   UNL     1     -10.016   8.715  68.440  1.00  0.00    -0.177 N  
HETATM    9  H   UNL     1     -10.196   9.433  69.143  1.00  0.00     0.000 HD 
BRANCH   8  10
HETATM   10  S   UNL     1     -10.221   7.119  68.890  1.00  0.00    -0.191 S  
HETATM   11  O   UNL     1     -11.404   6.588  68.251  1.00  0.00    -0.230 OA 
HETATM   12  O   UNL     1      -8.924   6.510  68.656  1.00  0.00    -0.127 OA 
BRANCH  10  13
HETATM   13  C   UNL     1     -10.480   7.109  70.628  1.00  0.00    -0.210 A  
HETATM   14  C   UNL     1     -11.250   8.090  71.267  1.00  0.00    -0.256 A  
HETATM   15  N   UNL     1      -9.958   6.040  72.745  1.00  0.00    -0.174 NA 
HETATM   16  C   UNL     1     -11.284   8.040  72.671  1.00  0.00    -0.462 A  
HETATM   17  C   UNL     1     -10.640   7.022  73.355  1.00  0.00    -0.364 A  
HETATM   18  C   UNL     1      -9.885   6.116  71.397  1.00  0.00    -0.175 A  
BRANCH  14  19
HETATM   19  N   UNL     1     -12.060   9.016  70.567  1.00  0.00    -0.476 NA 
HETATM   20  H   UNL     1     -12.596   8.631  69.789  1.00  0.00     0.000 HD 
BRANCH  19  21
HETATM   21  C   UNL     1     -12.230  10.402  70.796  1.00  0.00    -0.359 A  
HETATM   22  C   UNL     1     -13.388  12.201  71.955  1.00  0.00    -0.421 A  
HETATM   23  C   UNL     1     -13.068  10.844  71.825  1.00  0.00    -0.564 A  
HETATM   24  C   UNL     1     -12.902  13.132  71.034  1.00  0.00    -0.295 A  
HETATM   25  C   UNL     1     -12.051  12.719  70.009  1.00  0.00    -0.355 A  
HETATM   26  C   UNL     1     -11.684  11.368  69.937  1.00  0.00    -0.424 A  
HETATM   27  C   UNL     1     -11.587  13.662  68.939  1.00  0.00    -0.362 C  
ENDBRANCH  19  21
ENDBRANCH  14  19
ENDBRANCH  10  13
ENDBRANCH   8  10
ENDBRANCH   6   8
ENDBRANCH   4   6
ENDBRANCH   2   4
TORSDOF 7
ENDMDL
MODEL      225
REMARK 921   NORMALIZED FREE ENERGY PREDICTED BY IDOCK:   -4.05 KCAL/MOL
REMARK 922        TOTAL FREE ENERGY PREDICTED BY IDOCK:   -7.55 KCAL/MOL
REMARK 923 INTER-LIGAND FREE ENERGY PREDICTED BY IDOCK:   -6.51 KCAL/MOL
REMARK 924 INTRA-LIGAND FREE ENERGY PREDICTED BY IDOCK:   -1.04 KCAL/MOL
REMARK 927      BINDING AFFINITY PREDICTED BY RF-SCORE:    0.00 PKD
ROOT
HETATM    1  C   UNL     1      -8.235  13.933  67.327  1.00  0.00    -0.176 C  
HETATM    2  C   UNL     1      -9.576  13.446  67.877  1.00  0.00    -0.216 C  
HETATM    3  C   UNL     1     -10.721  14.287  67.323  1.00  0.00    -0.277 C  
ENDROOT
BRANCH   2   4
HETATM    4  N   UNL     1      -9.794  12.034  67.592  1.00  0.00    -0.186 N  
HETATM    5  H   UNL     1     -10.638  11.745  67.097  1.00  0.00     0.000 HD 
BRANCH   4   6
HETATM    6  C   UNL     1      -8.883  11.089  67.979  1.00  0.00    -0.138 C  
HETATM    7  O   UNL     1      -8.235  10.411  67.201  1.00  0.00    -0.120 OA 
BRANCH   6   8
HETATM    8  N   UNL     1      -8.827  10.909  69.353  1.00  0.00    -0.390 N  
HETATM    9  H   UNL     1      -8.596  11.718  69.928  1.00  0.00     0.000 HD 
BRANCH   8  10
HETATM   10  S   UNL     1      -9.112   9.457  70.130  1.00  0.00    -0.246 S  
HETATM   11  O   UNL     1      -9.159   8.392  69.154  1.00  0.00    -0.146 OA 
HETATM   12  O   UNL     1      -8.137   9.427  71.204  1.00  0.00    -0.322 OA 
BRANCH  10  13
HETATM   13  C   UNL     1     -10.694   9.587  70.884  1.00  0.00    -0.333 A  
HETATM   14  C   UNL     1     -11.129   8.672  71.852  1.00  0.00    -0.346 A  
HETATM   15  N   UNL     1     -12.810  10.777  70.955  1.00  0.00    -0.360 NA 
HETATM   16  C   UNL     1     -12.456   8.815  72.292  1.00  0.00    -0.455 A  
HETATM   17  C   UNL     1     -13.244   9.855  71.830  1.00  0.00    -0.434 A  
HETATM   18  C   UNL     1     -11.549  10.611  70.495  1.00  0.00    -0.350 A  
BRANCH  14  19
HETATM   19  N   UNL     1     -10.272   7.726  72.464  1.00  0.00    -0.237 NA 
HETATM   20  H   UNL     1      -9.465   8.115  72.951  1.00  0.00     0.000 HD 
BRANCH  19  21
HETATM   21  C   UNL     1     -10.380   6.316  72.494  1.00  0.00    -0.192 A  
HETATM   22  C   UNL     1     -10.659   4.269  73.779  1.00  0.00    -0.311 A  
HETATM   23  C   UNL     1     -10.720   5.664  73.684  1.00  0.00    -0.302 A  
HETATM   24  C   UNL     1     -10.220   3.506  72.695  1.00  0.00    -0.241 A  
HETATM   25  C   UNL     1      -9.891   4.130  71.492  1.00  0.00    -0.255 A  
HETATM   26  C   UNL     1     -10.027   5.522  71.392  1.00  0.00    -0.241 A  
HETATM   27  C   UNL     1      -9.320   3.365  70.336  1.00  0.00    -0.240 C  
ENDBRANCH  19  21
ENDBRANCH  14  19
ENDBRANCH  10  13
ENDBRANCH   8  10
ENDBRANCH   6   8
ENDBRANCH   4   6
ENDBRANCH   2   4
TORSDOF 7
ENDMDL
MODEL      226
REMARK 921   NORMALIZED FREE ENERGY PREDICTED BY IDOCK:   -4.04 KCAL/MOL
REMARK 922        TOTAL FREE ENERGY PREDICTED BY IDOCK:   -7.55 KCAL/MOL
REMARK 923 INTER-LIGAND FREE ENERGY PREDICTED BY IDOCK:   -6.07 KCAL/MOL
REMARK 924 INTRA-LIGAND FREE ENERGY PREDICTED BY IDOCK:   -1.48 KCAL/MOL
REMARK 927      BINDING AFFINITY PREDICTED BY RF-SCORE:    0.00 PKD
ROOT
HETATM    1  C   UNL     1     -12.776   7.499  71.794  1.00  0.00    -0.360 C  
HETATM    2  C   UNL     1     -12.102   8.867  71.893  1.00  0.00    -0.373 C  
HETATM    3  C   UNL     1     -10.808   8.771  72.694  1.00  0.00     0.092 C  
ENDROOT
BRANCH   2   4
HETATM    4  N   UNL     1     -11.847   9.438  70.576  1.00  0.00    -0.426 N  
HETATM    5  H   UNL     1     -11.318   8.900  69.889  1.00  0.00     0.000 HD 
BRANCH   4   6
HETATM    6  C   UNL     1     -12.308  10.684  70.247  1.00  0.00    -0.325 C  
HETATM    7  O   UNL     1     -12.752  11.479  71.056  1.00  0.00    -0.371 OA 
BRANCH   6   8
HETATM    8  N   UNL     1     -12.303  10.930  68.883  1.00  0.00    -0.351 N  
HETATM    9  H   UNL     1     -13.021  10.479  68.317  1.00  0.00     0.000 HD 
BRANCH   8  10
HETATM   10  S   UNL     1     -11.201  11.914  68.102  1.00  0.00    -0.283 S  
HETATM   11  O   UNL     1     -11.878  13.087  67.597  1.00  0.00    -0.353 OA 
HETATM   12  O   UNL     1     -10.106  12.047  69.046  1.00  0.00    -0.072 OA 
BRANCH  10  13
HETATM   13  C   UNL     1     -10.583  11.000  66.734  1.00  0.00    -0.266 A  
HETATM   14  C   UNL     1     -10.217   9.652  66.849  1.00  0.00    -0.237 A  
HETATM   15  N   UNL     1      -9.906  11.057  64.403  1.00  0.00    -0.272 NA 
HETATM   16  C   UNL     1      -9.628   9.067  65.715  1.00  0.00    -0.287 A  
HETATM   17  C   UNL     1      -9.495   9.787  64.540  1.00  0.00    -0.202 A  
HETATM   18  C   UNL     1     -10.430  11.635  65.508  1.00  0.00    -0.273 A  
BRANCH  14  19
HETATM   19  N   UNL     1     -10.522   8.861  67.983  1.00  0.00    -0.300 NA 
HETATM   20  H   UNL     1     -11.063   9.328  68.712  1.00  0.00     0.000 HD 
BRANCH  19  21
HETATM   21  C   UNL     1     -10.182   7.514  68.247  1.00  0.00    -0.186 A  
HETATM   22  C   UNL     1     -10.489   5.149  67.763  1.00  0.00    -0.112 A  
HETATM   23  C   UNL     1     -10.666   6.494  67.420  1.00  0.00    -0.412 A  
HETATM   24  C   UNL     1      -9.855   4.803  68.958  1.00  0.00    -0.239 A  
HETATM   25  C   UNL     1      -9.348   5.800  69.792  1.00  0.00    -0.175 A  
HETATM   26  C   UNL     1      -9.471   7.140  69.397  1.00  0.00    -0.153 A  
HETATM   27  C   UNL     1      -8.752   5.483  71.131  1.00  0.00    -0.134 C  
ENDBRANCH  19  21
ENDBRANCH  14  19
ENDBRANCH  10  13
ENDBRANCH   8  10
ENDBRANCH   6   8
ENDBRANCH   4   6
ENDBRANCH   2   4
TORSDOF 7
ENDMDL
MODEL      227
REMARK 921   NORMALIZED FREE ENERGY PREDICTED BY IDOCK:   -4.04 KCAL/MOL
REMARK 922        TOTAL FREE ENERGY PREDICTED BY IDOCK:   -7.55 KCAL/MOL
REMARK 923 INTER-LIGAND FREE ENERGY PREDICTED BY IDOCK:   -5.84 KCAL/MOL
REMARK 924 INTRA-LIGAND FREE ENERGY PREDICTED BY IDOCK:   -1.71 KCAL/MOL
REMARK 927      BINDING AFFINITY PREDICTED BY RF-SCORE:    0.00 PKD
ROOT
HETATM    1  C   UNL     1      -6.279   7.380  70.652  1.00  0.00    -0.035 C  
HETATM    2  C   UNL     1      -6.784   8.603  71.419  1.00  0.00    -0.076 C  
HETATM    3  C   UNL     1      -6.104   9.871  70.915  1.00  0.00    -0.082 C  
ENDROOT
BRANCH   2   4
HETATM    4  N   UNL     1      -8.233   8.730  71.335  1.00  0.00    -0.159 N  
HETATM    5  H   UNL     1      -8.640   9.439  70.725  1.00  0.00     0.000 HD 
BRANCH   4   6
HETATM    6  C   UNL     1      -9.055   7.912  72.061  1.00  0.00    -0.148 C  
HETATM    7  O   UNL     1      -9.212   8.003  73.266  1.00  0.00    -0.257 OA 
BRANCH   6   8
HETATM    8  N   UNL     1      -9.634   6.903  71.306  1.00  0.00    -0.165 N  
HETATM    9  H   UNL     1      -9.014   6.227  70.862  1.00  0.00     0.000 HD 
BRANCH   8  10
HETATM   10  S   UNL     1     -11.279   6.719  71.075  1.00  0.00    -0.309 S  
HETATM   11  O   UNL     1     -11.523   6.216  69.743  1.00  0.00    -0.433 OA 
HETATM   12  O   UNL     1     -11.723   5.970  72.236  1.00  0.00    -0.310 OA 
BRANCH  10  13
HETATM   13  C   UNL     1     -11.992   8.320  71.202  1.00  0.00    -0.265 A  
HETATM   14  C   UNL     1     -11.621   9.365  70.346  1.00  0.00    -0.192 A  
HETATM   15  N   UNL     1     -13.506   9.769  72.430  1.00  0.00    -0.365 NA 
HETATM   16  C   UNL     1     -12.177  10.626  70.623  1.00  0.00    -0.459 A  
HETATM   17  C   UNL     1     -13.093  10.781  71.650  1.00  0.00    -0.446 A  
HETATM   18  C   UNL     1     -12.935   8.566  72.193  1.00  0.00    -0.363 A  
BRANCH  14  19
HETATM   19  N   UNL     1     -10.834   9.173  69.184  1.00  0.00    -0.389 NA 
HETATM   20  H   UNL     1     -10.634   8.201  68.946  1.00  0.00     0.000 HD 
BRANCH  19  21
HETATM   21  C   UNL     1     -10.288  10.140  68.309  1.00  0.00    -0.186 A  
HETATM   22  C   UNL     1     -10.377  11.322  66.185  1.00  0.00    -0.300 A  
HETATM   23  C   UNL     1     -10.978  10.504  67.149  1.00  0.00    -0.294 A  
HETATM   24  C   UNL     1      -9.061  11.759  66.351  1.00  0.00    -0.215 A  
HETATM   25  C   UNL     1      -8.357  11.424  67.507  1.00  0.00    -0.137 A  
HETATM   26  C   UNL     1      -8.999  10.663  68.494  1.00  0.00    -0.156 A  
HETATM   27  C   UNL     1      -6.912  11.782  67.684  1.00  0.00    -0.103 C  
ENDBRANCH  19  21
ENDBRANCH  14  19
ENDBRANCH  10  13
ENDBRANCH   8  10
ENDBRANCH   6   8
ENDBRANCH   4   6
ENDBRANCH   2   4
TORSDOF 7
ENDMDL
MODEL      228
REMARK 921   NORMALIZED FREE ENERGY PREDICTED BY IDOCK:   -4.04 KCAL/MOL
REMARK 922        TOTAL FREE ENERGY PREDICTED BY IDOCK:   -7.54 KCAL/MOL
REMARK 923 INTER-LIGAND FREE ENERGY PREDICTED BY IDOCK:   -6.57 KCAL/MOL
REMARK 924 INTRA-LIGAND FREE ENERGY PREDICTED BY IDOCK:   -0.97 KCAL/MOL
REMARK 927      BINDING AFFINITY PREDICTED BY RF-SCORE:    0.00 PKD
ROOT
HETATM    1  C   UNL     1     -10.428  12.187  63.323  1.00  0.00    -0.360 C  
HETATM    2  C   UNL     1     -10.358  12.631  64.784  1.00  0.00    -0.312 C  
HETATM    3  C   UNL     1     -11.568  13.485  65.144  1.00  0.00    -0.333 C  
ENDROOT
BRANCH   2   4
HETATM    4  N   UNL     1     -10.248  11.492  65.687  1.00  0.00    -0.238 N  
HETATM    5  H   UNL     1     -11.093  11.013  65.996  1.00  0.00     0.000 HD 
BRANCH   4   6
HETATM    6  C   UNL     1      -9.027  11.057  66.126  1.00  0.00    -0.191 C  
HETATM    7  O   UNL     1      -8.795   9.908  66.458  1.00  0.00    -0.136 OA 
BRANCH   6   8
HETATM    8  N   UNL     1      -8.090  12.072  66.242  1.00  0.00    -0.375 N  
HETATM    9  H   UNL     1      -7.648  12.410  65.388  1.00  0.00     0.000 HD 
BRANCH   8  10
HETATM   10  S   UNL     1      -7.636  12.780  67.686  1.00  0.00    -0.166 S  
HETATM   11  O   UNL     1      -8.214  12.041  68.786  1.00  0.00    -0.091 OA 
HETATM   12  O   UNL     1      -6.196  12.927  67.576  1.00  0.00    -0.149 OA 
BRANCH  10  13
HETATM   13  C   UNL     1      -8.313  14.402  67.692  1.00  0.00    -0.179 A  
HETATM   14  C   UNL     1      -9.674  14.634  67.925  1.00  0.00    -0.216 A  
HETATM   15  N   UNL     1      -7.895  16.770  67.349  1.00  0.00    -0.165 NA 
HETATM   16  C   UNL     1     -10.113  15.962  67.787  1.00  0.00    -0.244 A  
HETATM   17  C   UNL     1      -9.212  16.976  67.506  1.00  0.00    -0.231 A  
HETATM   18  C   UNL     1      -7.480  15.484  67.435  1.00  0.00    -0.204 A  
BRANCH  14  19
HETATM   19  N   UNL     1     -10.561  13.636  68.396  1.00  0.00    -0.245 NA 
HETATM   20  H   UNL     1     -10.486  12.729  67.935  1.00  0.00     0.000 HD 
BRANCH  19  21
HETATM   21  C   UNL     1     -11.537  13.721  69.416  1.00  0.00    -0.310 A  
HETATM   22  C   UNL     1     -12.799  15.079  70.992  1.00  0.00    -0.451 A  
HETATM   23  C   UNL     1     -11.971  14.972  69.867  1.00  0.00    -0.374 A  
HETATM   24  C   UNL     1     -13.176  13.938  71.703  1.00  0.00    -0.446 A  
HETATM   25  C   UNL     1     -12.770  12.678  71.264  1.00  0.00    -0.354 A  
HETATM   26  C   UNL     1     -12.001  12.584  70.096  1.00  0.00    -0.377 A  
HETATM   27  C   UNL     1     -13.063  11.435  72.050  1.00  0.00    -0.423 C  
ENDBRANCH  19  21
ENDBRANCH  14  19
ENDBRANCH  10  13
ENDBRANCH   8  10
ENDBRANCH   6   8
ENDBRANCH   4   6
ENDBRANCH   2   4
TORSDOF 7
ENDMDL
MODEL      229
REMARK 921   NORMALIZED FREE ENERGY PREDICTED BY IDOCK:   -4.02 KCAL/MOL
REMARK 922        TOTAL FREE ENERGY PREDICTED BY IDOCK:   -7.52 KCAL/MOL
REMARK 923 INTER-LIGAND FREE ENERGY PREDICTED BY IDOCK:   -5.95 KCAL/MOL
REMARK 924 INTRA-LIGAND FREE ENERGY PREDICTED BY IDOCK:   -1.57 KCAL/MOL
REMARK 927      BINDING AFFINITY PREDICTED BY RF-SCORE:    0.00 PKD
ROOT
HETATM    1  C   UNL     1      -7.739   9.917  64.279  1.00  0.00    -0.139 C  
HETATM    2  C   UNL     1      -9.076  10.123  64.991  1.00  0.00    -0.205 C  
HETATM    3  C   UNL     1     -10.036  10.917  64.112  1.00  0.00    -0.416 C  
ENDROOT
BRANCH   2   4
HETATM    4  N   UNL     1      -9.675   8.855  65.388  1.00  0.00    -0.420 N  
HETATM    5  H   UNL     1     -10.463   8.483  64.858  1.00  0.00     0.000 HD 
BRANCH   4   6
HETATM    6  C   UNL     1      -9.196   8.156  66.462  1.00  0.00    -0.188 C  
HETATM    7  O   UNL     1      -8.698   8.677  67.445  1.00  0.00    -0.132 OA 
BRANCH   6   8
HETATM    8  N   UNL     1      -9.248   6.781  66.292  1.00  0.00    -0.249 N  
HETATM    9  H   UNL     1      -8.519   6.344  65.729  1.00  0.00     0.000 HD 
BRANCH   8  10
HETATM   10  S   UNL     1     -10.425   5.791  66.946  1.00  0.00    -0.309 S  
HETATM   11  O   UNL     1     -11.526   6.600  67.417  1.00  0.00    -0.183 OA 
HETATM   12  O   UNL     1     -10.641   4.773  65.935  1.00  0.00    -0.303 OA 
BRANCH  10  13
HETATM   13  C   UNL     1      -9.699   4.986  68.330  1.00  0.00    -0.146 A  
HETATM   14  C   UNL     1      -9.267   5.696  69.457  1.00  0.00    -0.129 A  
HETATM   15  N   UNL     1      -8.924   2.885  69.270  1.00  0.00    -0.102 NA 
HETATM   16  C   UNL     1      -8.598   4.953  70.445  1.00  0.00    -0.115 A  
HETATM   17  C   UNL     1      -8.451   3.582  70.316  1.00  0.00    -0.056 A  
HETATM   18  C   UNL     1      -9.526   3.607  68.297  1.00  0.00    -0.152 A  
BRANCH  14  19
HETATM   19  N   UNL     1      -9.579   7.059  69.680  1.00  0.00    -0.151 NA 
HETATM   20  H   UNL     1      -8.947   7.731  69.245  1.00  0.00     0.000 HD 
BRANCH  19  21
HETATM   21  C   UNL     1     -10.646   7.619  70.421  1.00  0.00    -0.230 A  
HETATM   22  C   UNL     1     -12.770   7.326  71.570  1.00  0.00    -0.422 A  
HETATM   23  C   UNL     1     -11.617   6.787  70.988  1.00  0.00    -0.388 A  
HETATM   24  C   UNL     1     -12.985   8.706  71.564  1.00  0.00    -0.344 A  
HETATM   25  C   UNL     1     -12.024   9.558  71.020  1.00  0.00    -0.407 A  
HETATM   26  C   UNL     1     -10.843   9.006  70.505  1.00  0.00    -0.296 A  
HETATM   27  C   UNL     1     -12.256  11.035  70.898  1.00  0.00    -0.471 C  
ENDBRANCH  19  21
ENDBRANCH  14  19
ENDBRANCH  10  13
ENDBRANCH   8  10
ENDBRANCH   6   8
ENDBRANCH   4   6
ENDBRANCH   2   4
TORSDOF 7
ENDMDL
MODEL      230
REMARK 921   NORMALIZED FREE ENERGY PREDICTED BY IDOCK:   -4.02 KCAL/MOL
REMARK 922        TOTAL FREE ENERGY PREDICTED BY IDOCK:   -7.52 KCAL/MOL
REMARK 923 INTER-LIGAND FREE ENERGY PREDICTED BY IDOCK:   -6.15 KCAL/MOL
REMARK 924 INTRA-LIGAND FREE ENERGY PREDICTED BY IDOCK:   -1.37 KCAL/MOL
REMARK 927      BINDING AFFINITY PREDICTED BY RF-SCORE:    0.00 PKD
ROOT
HETATM    1  C   UNL     1     -10.438   8.873  67.001  1.00  0.00    -0.326 C  
HETATM    2  C   UNL     1      -9.291   9.738  66.478  1.00  0.00    -0.162 C  
HETATM    3  C   UNL     1      -9.316   9.800  64.955  1.00  0.00    -0.327 C  
ENDROOT
BRANCH   2   4
HETATM    4  N   UNL     1      -9.327  11.079  67.046  1.00  0.00    -0.170 N  
HETATM    5  H   UNL     1      -9.475  11.881  66.433  1.00  0.00     0.000 HD 
BRANCH   4   6
HETATM    6  C   UNL     1      -9.163  11.279  68.390  1.00  0.00    -0.178 C  
HETATM    7  O   UNL     1      -8.517  10.542  69.113  1.00  0.00    -0.146 OA 
BRANCH   6   8
HETATM    8  N   UNL     1      -9.879  12.362  68.876  1.00  0.00    -0.424 N  
HETATM    9  H   UNL     1      -9.439  12.940  69.592  1.00  0.00     0.000 HD 
BRANCH   8  10
HETATM   10  S   UNL     1     -11.414  12.787  68.369  1.00  0.00    -0.335 S  
HETATM   11  O   UNL     1     -12.101  11.612  67.882  1.00  0.00    -0.613 OA 
HETATM   12  O   UNL     1     -11.959  13.553  69.474  1.00  0.00    -0.311 OA 
BRANCH  10  13
HETATM   13  C   UNL     1     -11.214  13.905  67.028  1.00  0.00    -0.313 A  
HETATM   14  C   UNL     1     -10.571  15.140  67.183  1.00  0.00    -0.295 A  
HETATM   15  N   UNL     1     -11.694  14.370  64.692  1.00  0.00    -0.415 NA 
HETATM   16  C   UNL     1     -10.579  15.993  66.066  1.00  0.00    -0.324 A  
HETATM   17  C   UNL     1     -11.137  15.580  64.868  1.00  0.00    -0.416 A  
HETATM   18  C   UNL     1     -11.729  13.568  65.781  1.00  0.00    -0.345 A  
BRANCH  14  19
HETATM   19  N   UNL     1      -9.837  15.491  68.343  1.00  0.00    -0.207 NA 
HETATM   20  H   UNL     1     -10.395  15.798  69.139  1.00  0.00     0.000 HD 
BRANCH  19  21
HETATM   21  C   UNL     1      -8.438  15.474  68.550  1.00  0.00    -0.163 A  
HETATM   22  C   UNL     1      -6.191  15.346  67.625  1.00  0.00    -0.167 A  
HETATM   23  C   UNL     1      -7.567  15.539  67.456  1.00  0.00    -0.201 A  
HETATM   24  C   UNL     1      -5.669  15.050  68.886  1.00  0.00    -0.090 A  
HETATM   25  C   UNL     1      -6.513  14.997  69.994  1.00  0.00    -0.160 A  
HETATM   26  C   UNL     1      -7.878  15.263  69.819  1.00  0.00    -0.057 A  
HETATM   27  C   UNL     1      -6.016  14.584  71.347  1.00  0.00    -0.003 C  
ENDBRANCH  19  21
ENDBRANCH  14  19
ENDBRANCH  10  13
ENDBRANCH   8  10
ENDBRANCH   6   8
ENDBRANCH   4   6
ENDBRANCH   2   4
TORSDOF 7
ENDMDL
MODEL      231
REMARK 921   NORMALIZED FREE ENERGY PREDICTED BY IDOCK:   -4.02 KCAL/MOL
REMARK 922        TOTAL FREE ENERGY PREDICTED BY IDOCK:   -7.52 KCAL/MOL
REMARK 923 INTER-LIGAND FREE ENERGY PREDICTED BY IDOCK:   -6.49 KCAL/MOL
REMARK 924 INTRA-LIGAND FREE ENERGY PREDICTED BY IDOCK:   -1.03 KCAL/MOL
REMARK 927      BINDING AFFINITY PREDICTED BY RF-SCORE:    0.00 PKD
ROOT
HETATM    1  C   UNL     1      -8.926   1.687  65.309  1.00  0.00    -0.123 C  
HETATM    2  C   UNL     1      -8.603   2.825  66.278  1.00  0.00    -0.114 C  
HETATM    3  C   UNL     1      -7.430   3.651  65.763  1.00  0.00    -0.077 C  
ENDROOT
BRANCH   2   4
HETATM    4  N   UNL     1      -9.763   3.674  66.515  1.00  0.00    -0.390 N  
HETATM    5  H   UNL     1     -10.254   3.617  67.408  1.00  0.00     0.000 HD 
BRANCH   4   6
HETATM    6  C   UNL     1     -10.204   4.547  65.558  1.00  0.00    -0.231 C  
HETATM    7  O   UNL     1     -10.702   4.202  64.501  1.00  0.00    -0.251 OA 
BRANCH   6   8
HETATM    8  N   UNL     1      -9.951   5.875  65.865  1.00  0.00    -0.387 N  
HETATM    9  H   UNL     1      -9.686   6.497  65.102  1.00  0.00     0.000 HD 
BRANCH   8  10
HETATM   10  S   UNL     1     -10.050   6.527  67.401  1.00  0.00    -0.185 S  
HETATM   11  O   UNL     1     -11.279   6.094  68.028  1.00  0.00    -0.310 OA 
HETATM   12  O   UNL     1      -8.768   6.217  68.006  1.00  0.00    -0.116 OA 
BRANCH  10  13
HETATM   13  C   UNL     1     -10.112   8.272  67.209  1.00  0.00    -0.247 A  
HETATM   14  C   UNL     1     -10.447   9.122  68.271  1.00  0.00    -0.208 A  
HETATM   15  N   UNL     1      -9.924  10.147  65.676  1.00  0.00    -0.275 NA 
HETATM   16  C   UNL     1     -10.576  10.487  67.961  1.00  0.00    -0.251 A  
HETATM   17  C   UNL     1     -10.312  10.947  66.682  1.00  0.00    -0.239 A  
HETATM   18  C   UNL     1      -9.846   8.827  65.963  1.00  0.00    -0.164 A  
BRANCH  14  19
HETATM   19  N   UNL     1     -10.533   8.685  69.615  1.00  0.00    -0.219 NA 
HETATM   20  H   UNL     1      -9.824   8.012  69.904  1.00  0.00     0.000 HD 
BRANCH  19  21
HETATM   21  C   UNL     1     -11.467   9.051  70.612  1.00  0.00    -0.248 A  
HETATM   22  C   UNL     1     -13.292   8.427  72.096  1.00  0.00    -0.341 A  
HETATM   23  C   UNL     1     -12.243   8.071  71.239  1.00  0.00    -0.308 A  
HETATM   24  C   UNL     1     -13.602   9.771  72.310  1.00  0.00    -0.397 A  
HETATM   25  C   UNL     1     -12.833  10.768  71.710  1.00  0.00    -0.528 A  
HETATM   26  C   UNL     1     -11.743  10.394  70.913  1.00  0.00    -0.455 A  
HETATM   27  C   UNL     1     -13.190  12.220  71.828  1.00  0.00    -0.428 C  
ENDBRANCH  19  21
ENDBRANCH  14  19
ENDBRANCH  10  13
ENDBRANCH   8  10
ENDBRANCH   6   8
ENDBRANCH   4   6
ENDBRANCH   2   4
TORSDOF 7
ENDMDL
MODEL      232
REMARK 921   NORMALIZED FREE ENERGY PREDICTED BY IDOCK:   -4.02 KCAL/MOL
REMARK 922        TOTAL FREE ENERGY PREDICTED BY IDOCK:   -7.51 KCAL/MOL
REMARK 923 INTER-LIGAND FREE ENERGY PREDICTED BY IDOCK:   -6.20 KCAL/MOL
REMARK 924 INTRA-LIGAND FREE ENERGY PREDICTED BY IDOCK:   -1.31 KCAL/MOL
REMARK 927      BINDING AFFINITY PREDICTED BY RF-SCORE:    0.00 PKD
ROOT
HETATM    1  C   UNL     1     -10.969  16.365  68.161  1.00  0.00    -0.339 C  
HETATM    2  C   UNL     1     -10.525  15.947  66.759  1.00  0.00    -0.309 C  
HETATM    3  C   UNL     1     -10.167  17.170  65.922  1.00  0.00    -0.290 C  
ENDROOT
BRANCH   2   4
HETATM    4  N   UNL     1      -9.408  15.012  66.804  1.00  0.00    -0.236 N  
HETATM    5  H   UNL     1      -8.460  15.355  66.651  1.00  0.00     0.000 HD 
BRANCH   4   6
HETATM    6  C   UNL     1      -9.613  13.682  67.049  1.00  0.00    -0.251 C  
HETATM    7  O   UNL     1     -10.510  13.029  66.547  1.00  0.00    -0.271 OA 
BRANCH   6   8
HETATM    8  N   UNL     1      -8.749  13.158  67.998  1.00  0.00    -0.182 N  
HETATM    9  H   UNL     1      -8.713  13.613  68.910  1.00  0.00     0.000 HD 
BRANCH   8  10
HETATM   10  S   UNL     1      -7.762  11.832  67.751  1.00  0.00    -0.144 S  
HETATM   11  O   UNL     1      -6.923  12.065  66.597  1.00  0.00    -0.024 OA 
HETATM   12  O   UNL     1      -7.169  11.578  69.051  1.00  0.00    -0.109 OA 
BRANCH  10  13
HETATM   13  C   UNL     1      -8.818  10.471  67.401  1.00  0.00    -0.132 A  
HETATM   14  C   UNL     1      -9.681   9.936  68.367  1.00  0.00    -0.149 A  
HETATM   15  N   UNL     1      -9.497   8.805  65.769  1.00  0.00    -0.208 NA 
HETATM   16  C   UNL     1     -10.386   8.777  67.999  1.00  0.00    -0.273 A  
HETATM   17  C   UNL     1     -10.269   8.257  66.721  1.00  0.00    -0.304 A  
HETATM   18  C   UNL     1      -8.782   9.892  66.138  1.00  0.00    -0.136 A  
BRANCH  14  19
HETATM   19  N   UNL     1      -9.946  10.570  69.605  1.00  0.00    -0.403 NA 
HETATM   20  H   UNL     1      -9.126  10.914  70.106  1.00  0.00     0.000 HD 
BRANCH  19  21
HETATM   21  C   UNL     1     -11.188  10.792  70.244  1.00  0.00    -0.245 A  
HETATM   22  C   UNL     1     -12.870  12.351  71.054  1.00  0.00    -0.245 A  
HETATM   23  C   UNL     1     -11.737  12.078  70.279  1.00  0.00    -0.267 A  
HETATM   24  C   UNL     1     -13.450  11.349  71.834  1.00  0.00    -0.280 A  
HETATM   25  C   UNL     1     -12.932  10.055  71.804  1.00  0.00    -0.560 A  
HETATM   26  C   UNL     1     -11.841   9.782  70.967  1.00  0.00    -0.442 A  
HETATM   27  C   UNL     1     -13.456   8.972  72.700  1.00  0.00    -0.400 C  
ENDBRANCH  19  21
ENDBRANCH  14  19
ENDBRANCH  10  13
ENDBRANCH   8  10
ENDBRANCH   6   8
ENDBRANCH   4   6
ENDBRANCH   2   4
TORSDOF 7
ENDMDL
MODEL      233
REMARK 921   NORMALIZED FREE ENERGY PREDICTED BY IDOCK:   -4.01 KCAL/MOL
REMARK 922        TOTAL FREE ENERGY PREDICTED BY IDOCK:   -7.51 KCAL/MOL
REMARK 923 INTER-LIGAND FREE ENERGY PREDICTED BY IDOCK:   -6.29 KCAL/MOL
REMARK 924 INTRA-LIGAND FREE ENERGY PREDICTED BY IDOCK:   -1.22 KCAL/MOL
REMARK 927      BINDING AFFINITY PREDICTED BY RF-SCORE:    0.00 PKD
ROOT
HETATM    1  C   UNL     1     -12.699  11.997  63.408  1.00  0.00    -0.527 C  
HETATM    2  C   UNL     1     -11.877  12.645  64.523  1.00  0.00    -0.379 C  
HETATM    3  C   UNL     1     -12.784  13.390  65.495  1.00  0.00    -0.469 C  
ENDROOT
BRANCH   2   4
HETATM    4  N   UNL     1     -11.064  11.664  65.231  1.00  0.00    -0.271 N  
HETATM    5  H   UNL     1     -11.513  10.855  65.661  1.00  0.00     0.000 HD 
BRANCH   4   6
HETATM    6  C   UNL     1      -9.707  11.812  65.328  1.00  0.00    -0.211 C  
HETATM    7  O   UNL     1      -8.905  10.953  65.008  1.00  0.00    -0.194 OA 
BRANCH   6   8
HETATM    8  N   UNL     1      -9.325  13.010  65.911  1.00  0.00    -0.465 N  
HETATM    9  H   UNL     1      -9.373  13.853  65.339  1.00  0.00     0.000 HD 
BRANCH   8  10
HETATM   10  S   UNL     1      -8.792  13.168  67.487  1.00  0.00    -0.212 S  
HETATM   11  O   UNL     1      -7.891  12.082  67.800  1.00  0.00    -0.126 OA 
HETATM   12  O   UNL     1      -8.341  14.545  67.578  1.00  0.00    -0.162 OA 
BRANCH  10  13
HETATM   13  C   UNL     1     -10.207  13.029  68.519  1.00  0.00    -0.215 A  
HETATM   14  C   UNL     1     -10.543  11.827  69.156  1.00  0.00    -0.069 A  
HETATM   15  N   UNL     1     -12.180  14.132  69.406  1.00  0.00    -0.325 NA 
HETATM   16  C   UNL     1     -11.760  11.812  69.858  1.00  0.00    -0.399 A  
HETATM   17  C   UNL     1     -12.531  12.958  69.956  1.00  0.00    -0.015 A  
HETATM   18  C   UNL     1     -11.032  14.133  68.691  1.00  0.00    -0.258 A  
BRANCH  14  19
HETATM   19  N   UNL     1      -9.672  10.712  69.215  1.00  0.00    -0.338 NA 
HETATM   20  H   UNL     1      -8.739  10.903  69.581  1.00  0.00     0.000 HD 
BRANCH  19  21
HETATM   21  C   UNL     1      -9.915   9.371  68.837  1.00  0.00    -0.179 A  
HETATM   22  C   UNL     1     -10.905   7.787  67.278  1.00  0.00    -0.225 A  
HETATM   23  C   UNL     1     -10.495   9.088  67.596  1.00  0.00    -0.324 A  
HETATM   24  C   UNL     1     -10.773   6.757  68.211  1.00  0.00    -0.290 A  
HETATM   25  C   UNL     1     -10.181   7.010  69.448  1.00  0.00    -0.197 A  
HETATM   26  C   UNL     1      -9.712   8.302  69.723  1.00  0.00    -0.180 A  
HETATM   27  C   UNL     1     -10.110   5.962  70.519  1.00  0.00    -0.254 C  
ENDBRANCH  19  21
ENDBRANCH  14  19
ENDBRANCH  10  13
ENDBRANCH   8  10
ENDBRANCH   6   8
ENDBRANCH   4   6
ENDBRANCH   2   4
TORSDOF 7
ENDMDL
MODEL      234
REMARK 921   NORMALIZED FREE ENERGY PREDICTED BY IDOCK:   -4.00 KCAL/MOL
REMARK 922        TOTAL FREE ENERGY PREDICTED BY IDOCK:   -7.49 KCAL/MOL
REMARK 923 INTER-LIGAND FREE ENERGY PREDICTED BY IDOCK:   -5.96 KCAL/MOL
REMARK 924 INTRA-LIGAND FREE ENERGY PREDICTED BY IDOCK:   -1.52 KCAL/MOL
REMARK 927      BINDING AFFINITY PREDICTED BY RF-SCORE:    0.00 PKD
ROOT
HETATM    1  C   UNL     1     -12.621  11.222  71.549  1.00  0.00    -0.418 C  
HETATM    2  C   UNL     1     -12.782  12.400  70.589  1.00  0.00    -0.050 C  
HETATM    3  C   UNL     1     -12.577  13.721  71.322  1.00  0.00    -0.444 C  
ENDROOT
BRANCH   2   4
HETATM    4  N   UNL     1     -11.873  12.297  69.455  1.00  0.00    -0.315 N  
HETATM    5  H   UNL     1     -11.521  11.382  69.174  1.00  0.00     0.000 HD 
BRANCH   4   6
HETATM    6  C   UNL     1     -11.484  13.411  68.760  1.00  0.00    -0.305 C  
HETATM    7  O   UNL     1     -12.255  14.145  68.168  1.00  0.00    -0.306 OA 
BRANCH   6   8
HETATM    8  N   UNL     1     -10.109  13.581  68.718  1.00  0.00    -0.399 N  
HETATM    9  H   UNL     1      -9.637  13.844  69.583  1.00  0.00     0.000 HD 
BRANCH   8  10
HETATM   10  S   UNL     1      -9.172  13.385  67.348  1.00  0.00    -0.223 S  
HETATM   11  O   UNL     1      -9.606  14.317  66.332  1.00  0.00    -0.282 OA 
HETATM   12  O   UNL     1      -7.807  13.417  67.839  1.00  0.00    -0.123 OA 
BRANCH  10  13
HETATM   13  C   UNL     1      -9.463  11.754  66.763  1.00  0.00    -0.193 A  
HETATM   14  C   UNL     1      -9.316  10.633  67.591  1.00  0.00    -0.146 A  
HETATM   15  N   UNL     1     -10.015  10.358  64.854  1.00  0.00    -0.327 NA 
HETATM   16  C   UNL     1      -9.463   9.379  66.975  1.00  0.00    -0.200 A  
HETATM   17  C   UNL     1      -9.805   9.287  65.636  1.00  0.00    -0.167 A  
HETATM   18  C   UNL     1      -9.827  11.565  65.435  1.00  0.00    -0.235 A  
BRANCH  14  19
HETATM   19  N   UNL     1      -9.153  10.724  68.995  1.00  0.00    -0.282 NA 
HETATM   20  H   UNL     1      -8.944  11.655  69.353  1.00  0.00     0.000 HD 
BRANCH  19  21
HETATM   21  C   UNL     1      -9.241   9.702  69.969  1.00  0.00    -0.241 A  
HETATM   22  C   UNL     1      -8.135   8.250  71.578  1.00  0.00    -0.158 A  
HETATM   23  C   UNL     1      -8.121   9.371  70.739  1.00  0.00    -0.157 A  
HETATM   24  C   UNL     1      -9.259   7.424  71.633  1.00  0.00    -0.154 A  
HETATM   25  C   UNL     1     -10.395   7.742  70.888  1.00  0.00    -0.208 A  
HETATM   26  C   UNL     1     -10.388   8.906  70.108  1.00  0.00    -0.228 A  
HETATM   27  C   UNL     1     -11.585   6.832  70.836  1.00  0.00    -0.403 C  
ENDBRANCH  19  21
ENDBRANCH  14  19
ENDBRANCH  10  13
ENDBRANCH   8  10
ENDBRANCH   6   8
ENDBRANCH   4   6
ENDBRANCH   2   4
TORSDOF 7
ENDMDL
MODEL      235
REMARK 921   NORMALIZED FREE ENERGY PREDICTED BY IDOCK:   -3.99 KCAL/MOL
REMARK 922        TOTAL FREE ENERGY PREDICTED BY IDOCK:   -7.48 KCAL/MOL
REMARK 923 INTER-LIGAND FREE ENERGY PREDICTED BY IDOCK:   -6.52 KCAL/MOL
REMARK 924 INTRA-LIGAND FREE ENERGY PREDICTED BY IDOCK:   -0.96 KCAL/MOL
REMARK 927      BINDING AFFINITY PREDICTED BY RF-SCORE:    0.00 PKD
ROOT
HETATM    1  C   UNL     1     -14.010  15.319  71.944  1.00  0.00    -0.644 C  
HETATM    2  C   UNL     1     -12.866  14.336  71.696  1.00  0.00    -0.348 C  
HETATM    3  C   UNL     1     -13.297  12.914  72.040  1.00  0.00    -0.579 C  
ENDROOT
BRANCH   2   4
HETATM    4  N   UNL     1     -12.384  14.407  70.322  1.00  0.00    -0.332 N  
HETATM    5  H   UNL     1     -12.412  13.572  69.736  1.00  0.00     0.000 HD 
BRANCH   4   6
HETATM    6  C   UNL     1     -11.894  15.576  69.808  1.00  0.00    -0.359 C  
HETATM    7  O   UNL     1     -11.441  16.480  70.487  1.00  0.00    -0.254 OA 
BRANCH   6   8
HETATM    8  N   UNL     1     -12.042  15.677  68.433  1.00  0.00    -0.458 N  
HETATM    9  H   UNL     1     -12.497  16.511  68.064  1.00  0.00     0.000 HD 
BRANCH   8  10
HETATM   10  S   UNL     1     -11.525  14.524  67.338  1.00  0.00    -0.381 S  
HETATM   11  O   UNL     1     -12.008  13.224  67.746  1.00  0.00    -0.349 OA 
HETATM   12  O   UNL     1     -11.888  15.070  66.044  1.00  0.00    -0.190 OA 
BRANCH  10  13
HETATM   13  C   UNL     1      -9.769  14.509  67.408  1.00  0.00    -0.222 A  
HETATM   14  C   UNL     1      -9.035  13.321  67.296  1.00  0.00    -0.217 A  
HETATM   15  N   UNL     1      -7.746  15.811  67.738  1.00  0.00    -0.135 NA 
HETATM   16  C   UNL     1      -7.646  13.426  67.484  1.00  0.00    -0.176 A  
HETATM   17  C   UNL     1      -7.056  14.660  67.698  1.00  0.00    -0.182 A  
HETATM   18  C   UNL     1      -9.088  15.704  67.604  1.00  0.00    -0.192 A  
BRANCH  14  19
HETATM   19  N   UNL     1      -9.609  12.091  66.893  1.00  0.00    -0.199 NA 
HETATM   20  H   UNL     1     -10.373  11.751  67.476  1.00  0.00     0.000 HD 
BRANCH  19  21
HETATM   21  C   UNL     1      -9.269  11.268  65.793  1.00  0.00    -0.219 A  
HETATM   22  C   UNL     1      -9.902  10.236  63.682  1.00  0.00    -0.178 A  
HETATM   23  C   UNL     1     -10.131  11.176  64.695  1.00  0.00    -0.358 A  
HETATM   24  C   UNL     1      -8.826   9.350  63.771  1.00  0.00    -0.201 A  
HETATM   25  C   UNL     1      -7.943   9.433  64.848  1.00  0.00    -0.120 A  
HETATM   26  C   UNL     1      -8.147  10.426  65.816  1.00  0.00    -0.155 A  
HETATM   27  C   UNL     1      -6.836   8.440  65.039  1.00  0.00    -0.067 C  
ENDBRANCH  19  21
ENDBRANCH  14  19
ENDBRANCH  10  13
ENDBRANCH   8  10
ENDBRANCH   6   8
ENDBRANCH   4   6
ENDBRANCH   2   4
TORSDOF 7
ENDMDL
MODEL      236
REMARK 921   NORMALIZED FREE ENERGY PREDICTED BY IDOCK:   -3.98 KCAL/MOL
REMARK 922        TOTAL FREE ENERGY PREDICTED BY IDOCK:   -7.46 KCAL/MOL
REMARK 923 INTER-LIGAND FREE ENERGY PREDICTED BY IDOCK:   -6.46 KCAL/MOL
REMARK 924 INTRA-LIGAND FREE ENERGY PREDICTED BY IDOCK:   -1.00 KCAL/MOL
REMARK 927      BINDING AFFINITY PREDICTED BY RF-SCORE:    0.00 PKD
ROOT
HETATM    1  C   UNL     1      -6.728  10.044  66.238  1.00  0.00    -0.094 C  
HETATM    2  C   UNL     1      -7.609   9.864  67.474  1.00  0.00    -0.091 C  
HETATM    3  C   UNL     1      -7.260  10.899  68.538  1.00  0.00    -0.090 C  
ENDROOT
BRANCH   2   4
HETATM    4  N   UNL     1      -9.026   9.932  67.139  1.00  0.00    -0.138 N  
HETATM    5  H   UNL     1      -9.688   9.333  67.632  1.00  0.00     0.000 HD 
BRANCH   4   6
HETATM    6  C   UNL     1      -9.480  10.788  66.173  1.00  0.00    -0.187 C  
HETATM    7  O   UNL     1      -9.696  10.457  65.020  1.00  0.00    -0.251 OA 
BRANCH   6   8
HETATM    8  N   UNL     1      -9.592  12.099  66.607  1.00  0.00    -0.214 N  
HETATM    9  H   UNL     1      -8.756  12.549  66.980  1.00  0.00     0.000 HD 
BRANCH   8  10
HETATM   10  S   UNL     1     -11.001  12.996  66.561  1.00  0.00    -0.291 S  
HETATM   11  O   UNL     1     -10.992  13.845  65.392  1.00  0.00    -0.300 OA 
HETATM   12  O   UNL     1     -12.056  12.017  66.750  1.00  0.00    -0.613 OA 
BRANCH  10  13
HETATM   13  C   UNL     1     -10.998  14.020  67.989  1.00  0.00    -0.251 A  
HETATM   14  C   UNL     1     -10.013  14.994  68.200  1.00  0.00    -0.220 A  
HETATM   15  N   UNL     1     -12.054  14.528  70.116  1.00  0.00    -0.314 NA 
HETATM   16  C   UNL     1     -10.054  15.666  69.433  1.00  0.00    -0.269 A  
HETATM   17  C   UNL     1     -11.067  15.410  70.342  1.00  0.00    -0.328 A  
HETATM   18  C   UNL     1     -11.987  13.847  68.950  1.00  0.00    -0.358 A  
BRANCH  14  19
HETATM   19  N   UNL     1      -9.090  15.390  67.201  1.00  0.00    -0.210 NA 
HETATM   20  H   UNL     1      -8.644  14.630  66.689  1.00  0.00     0.000 HD 
BRANCH  19  21
HETATM   21  C   UNL     1      -8.702  16.695  66.816  1.00  0.00    -0.226 A  
HETATM   22  C   UNL     1      -6.966  18.391  66.640  1.00  0.00    -0.233 A  
HETATM   23  C   UNL     1      -7.352  17.061  66.845  1.00  0.00    -0.244 A  
HETATM   24  C   UNL     1      -7.928  19.382  66.438  1.00  0.00    -0.318 A  
HETATM   25  C   UNL     1      -9.280  19.040  66.387  1.00  0.00    -0.350 A  
HETATM   26  C   UNL     1      -9.643  17.693  66.524  1.00  0.00    -0.301 A  
HETATM   27  C   UNL     1     -10.354  20.081  66.275  1.00  0.00    -0.570 C  
ENDBRANCH  19  21
ENDBRANCH  14  19
ENDBRANCH  10  13
ENDBRANCH   8  10
ENDBRANCH   6   8
ENDBRANCH   4   6
ENDBRANCH   2   4
TORSDOF 7
ENDMDL
MODEL      237
REMARK 921   NORMALIZED FREE ENERGY PREDICTED BY IDOCK:   -3.98 KCAL/MOL
REMARK 922        TOTAL FREE ENERGY PREDICTED BY IDOCK:   -7.46 KCAL/MOL
REMARK 923 INTER-LIGAND FREE ENERGY PREDICTED BY IDOCK:   -6.20 KCAL/MOL
REMARK 924 INTRA-LIGAND FREE ENERGY PREDICTED BY IDOCK:   -1.25 KCAL/MOL
REMARK 927      BINDING AFFINITY PREDICTED BY RF-SCORE:    0.00 PKD
ROOT
HETATM    1  C   UNL     1     -11.705  14.358  67.224  1.00  0.00    -0.429 C  
HETATM    2  C   UNL     1     -10.468  14.314  68.120  1.00  0.00    -0.246 C  
HETATM    3  C   UNL     1     -10.599  15.310  69.267  1.00  0.00    -0.256 C  
ENDROOT
BRANCH   2   4
HETATM    4  N   UNL     1     -10.223  12.972  68.634  1.00  0.00    -0.372 N  
HETATM    5  H   UNL     1     -10.834  12.591  69.356  1.00  0.00     0.000 HD 
BRANCH   4   6
HETATM    6  C   UNL     1      -9.185  12.215  68.161  1.00  0.00    -0.197 C  
HETATM    7  O   UNL     1      -8.203  11.922  68.820  1.00  0.00    -0.106 OA 
BRANCH   6   8
HETATM    8  N   UNL     1      -9.312  11.883  66.821  1.00  0.00    -0.195 N  
HETATM    9  H   UNL     1      -8.654  12.300  66.164  1.00  0.00     0.000 HD 
BRANCH   8  10
HETATM   10  S   UNL     1     -10.470  10.844  66.210  1.00  0.00    -0.220 S  
HETATM   11  O   UNL     1     -11.555  10.722  67.157  1.00  0.00    -0.385 OA 
HETATM   12  O   UNL     1     -10.720  11.335  64.867  1.00  0.00    -0.303 OA 
BRANCH  10  13
HETATM   13  C   UNL     1      -9.704   9.272  66.040  1.00  0.00    -0.289 A  
HETATM   14  C   UNL     1      -9.926   8.238  66.960  1.00  0.00    -0.255 A  
HETATM   15  N   UNL     1      -8.138   7.909  64.779  1.00  0.00    -0.149 NA 
HETATM   16  C   UNL     1      -9.165   7.070  66.780  1.00  0.00    -0.181 A  
HETATM   17  C   UNL     1      -8.303   6.949  65.703  1.00  0.00    -0.146 A  
HETATM   18  C   UNL     1      -8.834   9.052  64.979  1.00  0.00    -0.170 A  
BRANCH  14  19
HETATM   19  N   UNL     1     -10.938   8.285  67.948  1.00  0.00    -0.476 NA 
HETATM   20  H   UNL     1     -11.878   8.481  67.605  1.00  0.00     0.000 HD 
BRANCH  19  21
HETATM   21  C   UNL     1     -10.827   8.097  69.346  1.00  0.00    -0.086 A  
HETATM   22  C   UNL     1     -10.251   8.991  71.534  1.00  0.00    -0.414 A  
HETATM   23  C   UNL     1     -10.539   9.184  70.178  1.00  0.00    -0.258 A  
HETATM   24  C   UNL     1     -10.212   7.703  72.071  1.00  0.00    -0.242 A  
HETATM   25  C   UNL     1     -10.513   6.604  71.267  1.00  0.00    -0.244 A  
HETATM   26  C   UNL     1     -10.868   6.821  69.929  1.00  0.00    -0.310 A  
HETATM   27  C   UNL     1     -10.385   5.197  71.771  1.00  0.00    -0.274 C  
ENDBRANCH  19  21
ENDBRANCH  14  19
ENDBRANCH  10  13
ENDBRANCH   8  10
ENDBRANCH   6   8
ENDBRANCH   4   6
ENDBRANCH   2   4
TORSDOF 7
ENDMDL
MODEL      238
REMARK 921   NORMALIZED FREE ENERGY PREDICTED BY IDOCK:   -3.97 KCAL/MOL
REMARK 922        TOTAL FREE ENERGY PREDICTED BY IDOCK:   -7.45 KCAL/MOL
REMARK 923 INTER-LIGAND FREE ENERGY PREDICTED BY IDOCK:   -5.80 KCAL/MOL
REMARK 924 INTRA-LIGAND FREE ENERGY PREDICTED BY IDOCK:   -1.66 KCAL/MOL
REMARK 927      BINDING AFFINITY PREDICTED BY RF-SCORE:    0.00 PKD
ROOT
HETATM    1  C   UNL     1      -7.459   4.365  65.955  1.00  0.00    -0.085 C  
HETATM    2  C   UNL     1      -8.650   4.689  65.054  1.00  0.00    -0.138 C  
HETATM    3  C   UNL     1      -9.584   3.490  64.946  1.00  0.00    -0.166 C  
ENDROOT
BRANCH   2   4
HETATM    4  N   UNL     1      -9.376   5.863  65.522  1.00  0.00    -0.368 N  
HETATM    5  H   UNL     1     -10.393   5.834  65.583  1.00  0.00     0.000 HD 
BRANCH   4   6
HETATM    6  C   UNL     1      -8.711   7.004  65.882  1.00  0.00    -0.126 C  
HETATM    7  O   UNL     1      -7.987   7.634  65.131  1.00  0.00    -0.117 OA 
BRANCH   6   8
HETATM    8  N   UNL     1      -8.870   7.335  67.219  1.00  0.00    -0.123 N  
HETATM    9  H   UNL     1      -8.334   8.124  67.580  1.00  0.00     0.000 HD 
BRANCH   8  10
HETATM   10  S   UNL     1      -9.877   6.529  68.280  1.00  0.00    -0.136 S  
HETATM   11  O   UNL     1     -11.232   6.562  67.776  1.00  0.00    -0.305 OA 
HETATM   12  O   UNL     1      -9.212   5.261  68.515  1.00  0.00    -0.108 OA 
BRANCH  10  13
HETATM   13  C   UNL     1      -9.830   7.415  69.798  1.00  0.00    -0.171 A  
HETATM   14  C   UNL     1     -10.414   8.682  69.933  1.00  0.00    -0.218 A  
HETATM   15  N   UNL     1      -9.018   7.466  72.086  1.00  0.00    -0.130 NA 
HETATM   16  C   UNL     1     -10.207   9.335  71.160  1.00  0.00    -0.387 A  
HETATM   17  C   UNL     1      -9.520   8.708  72.186  1.00  0.00    -0.303 A  
HETATM   18  C   UNL     1      -9.176   6.856  70.889  1.00  0.00    -0.157 A  
BRANCH  14  19
HETATM   19  N   UNL     1     -11.273   9.247  68.960  1.00  0.00    -0.442 NA 
HETATM   20  H   UNL     1     -12.175   8.784  68.849  1.00  0.00     0.000 HD 
BRANCH  19  21
HETATM   21  C   UNL     1     -11.054  10.364  68.120  1.00  0.00    -0.285 A  
HETATM   22  C   UNL     1     -11.444  12.714  67.626  1.00  0.00    -0.390 A  
HETATM   23  C   UNL     1     -11.491  11.633  68.514  1.00  0.00    -0.358 A  
HETATM   24  C   UNL     1     -10.991  12.533  66.318  1.00  0.00    -0.311 A  
HETATM   25  C   UNL     1     -10.533  11.282  65.906  1.00  0.00    -0.314 A  
HETATM   26  C   UNL     1     -10.520  10.228  66.829  1.00  0.00    -0.279 A  
HETATM   27  C   UNL     1     -10.133  11.015  64.485  1.00  0.00    -0.380 C  
ENDBRANCH  19  21
ENDBRANCH  14  19
ENDBRANCH  10  13
ENDBRANCH   8  10
ENDBRANCH   6   8
ENDBRANCH   4   6
ENDBRANCH   2   4
TORSDOF 7
ENDMDL
MODEL      239
REMARK 921   NORMALIZED FREE ENERGY PREDICTED BY IDOCK:   -3.97 KCAL/MOL
REMARK 922        TOTAL FREE ENERGY PREDICTED BY IDOCK:   -7.45 KCAL/MOL
REMARK 923 INTER-LIGAND FREE ENERGY PREDICTED BY IDOCK:   -6.22 KCAL/MOL
REMARK 924 INTRA-LIGAND FREE ENERGY PREDICTED BY IDOCK:   -1.22 KCAL/MOL
REMARK 927      BINDING AFFINITY PREDICTED BY RF-SCORE:    0.00 PKD
ROOT
HETATM    1  C   UNL     1      -5.886   9.256  69.936  1.00  0.00    -0.035 C  
HETATM    2  C   UNL     1      -6.713  10.484  70.319  1.00  0.00    -0.123 C  
HETATM    3  C   UNL     1      -6.112  11.746  69.711  1.00  0.00    -0.136 C  
ENDROOT
BRANCH   2   4
HETATM    4  N   UNL     1      -8.108  10.339  69.922  1.00  0.00    -0.342 N  
HETATM    5  H   UNL     1      -8.762   9.870  70.549  1.00  0.00     0.000 HD 
BRANCH   4   6
HETATM    6  C   UNL     1      -8.552  10.821  68.721  1.00  0.00    -0.156 C  
HETATM    7  O   UNL     1      -8.854  11.985  68.526  1.00  0.00    -0.166 OA 
BRANCH   6   8
HETATM    8  N   UNL     1      -8.713   9.836  67.759  1.00  0.00    -0.129 N  
HETATM    9  H   UNL     1      -7.873   9.452  67.327  1.00  0.00     0.000 HD 
BRANCH   8  10
HETATM   10  S   UNL     1     -10.190   9.235  67.257  1.00  0.00    -0.268 S  
HETATM   11  O   UNL     1     -11.252   9.939  67.940  1.00  0.00    -0.226 OA 
HETATM   12  O   UNL     1     -10.111   9.252  65.808  1.00  0.00    -0.268 OA 
BRANCH  10  13
HETATM   13  C   UNL     1     -10.243   7.547  67.743  1.00  0.00    -0.201 A  
HETATM   14  C   UNL     1     -10.171   7.162  69.088  1.00  0.00    -0.194 A  
HETATM   15  N   UNL     1     -10.321   5.233  67.011  1.00  0.00    -0.232 NA 
HETATM   16  C   UNL     1     -10.105   5.780  69.338  1.00  0.00    -0.277 A  
HETATM   17  C   UNL     1     -10.181   4.871  68.296  1.00  0.00    -0.032 A  
HETATM   18  C   UNL     1     -10.336   6.563  66.766  1.00  0.00    -0.210 A  
BRANCH  14  19
HETATM   19  N   UNL     1     -10.281   8.077  70.163  1.00  0.00    -0.199 NA 
HETATM   20  H   UNL     1      -9.415   8.544  70.433  1.00  0.00     0.000 HD 
BRANCH  19  21
HETATM   21  C   UNL     1     -11.425   8.433  70.915  1.00  0.00    -0.267 A  
HETATM   22  C   UNL     1     -13.605   7.831  71.813  1.00  0.00    -0.390 A  
HETATM   23  C   UNL     1     -12.387   7.466  71.227  1.00  0.00    -0.380 A  
HETATM   24  C   UNL     1     -13.893   9.173  72.063  1.00  0.00    -0.480 A  
HETATM   25  C   UNL     1     -12.945  10.155  71.777  1.00  0.00    -0.567 A  
HETATM   26  C   UNL     1     -11.703   9.765  71.257  1.00  0.00    -0.472 A  
HETATM   27  C   UNL     1     -13.247  11.616  71.932  1.00  0.00    -0.475 C  
ENDBRANCH  19  21
ENDBRANCH  14  19
ENDBRANCH  10  13
ENDBRANCH   8  10
ENDBRANCH   6   8
ENDBRANCH   4   6
ENDBRANCH   2   4
TORSDOF 7
ENDMDL
MODEL      240
REMARK 921   NORMALIZED FREE ENERGY PREDICTED BY IDOCK:   -3.96 KCAL/MOL
REMARK 922        TOTAL FREE ENERGY PREDICTED BY IDOCK:   -7.43 KCAL/MOL
REMARK 923 INTER-LIGAND FREE ENERGY PREDICTED BY IDOCK:   -6.08 KCAL/MOL
REMARK 924 INTRA-LIGAND FREE ENERGY PREDICTED BY IDOCK:   -1.35 KCAL/MOL
REMARK 927      BINDING AFFINITY PREDICTED BY RF-SCORE:    0.00 PKD
ROOT
HETATM    1  C   UNL     1      -5.898   9.128  70.706  1.00  0.00    -0.042 C  
HETATM    2  C   UNL     1      -6.347  10.398  69.984  1.00  0.00    -0.111 C  
HETATM    3  C   UNL     1      -5.616  11.616  70.535  1.00  0.00    -0.153 C  
ENDROOT
BRANCH   2   4
HETATM    4  N   UNL     1      -6.155  10.294  68.543  1.00  0.00    -0.044 N  
HETATM    5  H   UNL     1      -5.212  10.339  68.157  1.00  0.00     0.000 HD 
BRANCH   4   6
HETATM    6  C   UNL     1      -7.222  10.138  67.700  1.00  0.00    -0.088 C  
HETATM    7  O   UNL     1      -7.165   9.551  66.634  1.00  0.00    -0.085 OA 
BRANCH   6   8
HETATM    8  N   UNL     1      -8.366  10.790  68.133  1.00  0.00    -0.116 N  
HETATM    9  H   UNL     1      -8.312  11.798  68.278  1.00  0.00     0.000 HD 
BRANCH   8  10
HETATM   10  S   UNL     1      -9.828  10.038  68.435  1.00  0.00    -0.159 S  
HETATM   11  O   UNL     1     -10.446   9.670  67.182  1.00  0.00    -0.247 OA 
HETATM   12  O   UNL     1      -9.513   9.024  69.425  1.00  0.00    -0.154 OA 
BRANCH  10  13
HETATM   13  C   UNL     1     -10.853  11.222  69.231  1.00  0.00    -0.212 A  
HETATM   14  C   UNL     1     -10.896  12.561  68.819  1.00  0.00    -0.239 A  
HETATM   15  N   UNL     1     -12.406  11.659  71.047  1.00  0.00    -0.342 NA 
HETATM   16  C   UNL     1     -11.665  13.433  69.609  1.00  0.00    -0.375 A  
HETATM   17  C   UNL     1     -12.387  12.953  70.688  1.00  0.00    -0.302 A  
HETATM   18  C   UNL     1     -11.628  10.829  70.316  1.00  0.00    -0.338 A  
BRANCH  14  19
HETATM   19  N   UNL     1     -10.313  13.018  67.612  1.00  0.00    -0.220 NA 
HETATM   20  H   UNL     1      -9.413  13.488  67.710  1.00  0.00     0.000 HD 
BRANCH  19  21
HETATM   21  C   UNL     1     -10.805  12.915  66.290  1.00  0.00    -0.275 A  
HETATM   22  C   UNL     1     -12.674  13.070  64.739  1.00  0.00    -0.409 A  
HETATM   23  C   UNL     1     -12.109  13.327  65.995  1.00  0.00    -0.491 A  
HETATM   24  C   UNL     1     -11.954  12.366  63.773  1.00  0.00    -0.600 A  
HETATM   25  C   UNL     1     -10.646  11.959  64.037  1.00  0.00    -0.422 A  
HETATM   26  C   UNL     1     -10.072  12.287  65.273  1.00  0.00    -0.295 A  
HETATM   27  C   UNL     1      -9.871  11.113  63.071  1.00  0.00    -0.368 C  
ENDBRANCH  19  21
ENDBRANCH  14  19
ENDBRANCH  10  13
ENDBRANCH   8  10
ENDBRANCH   6   8
ENDBRANCH   4   6
ENDBRANCH   2   4
TORSDOF 7
ENDMDL
MODEL      241
REMARK 921   NORMALIZED FREE ENERGY PREDICTED BY IDOCK:   -3.95 KCAL/MOL
REMARK 922        TOTAL FREE ENERGY PREDICTED BY IDOCK:   -7.42 KCAL/MOL
REMARK 923 INTER-LIGAND FREE ENERGY PREDICTED BY IDOCK:   -5.87 KCAL/MOL
REMARK 924 INTRA-LIGAND FREE ENERGY PREDICTED BY IDOCK:   -1.55 KCAL/MOL
REMARK 927      BINDING AFFINITY PREDICTED BY RF-SCORE:    0.00 PKD
ROOT
HETATM    1  C   UNL     1      -8.532   6.982  66.715  1.00  0.00    -0.118 C  
HETATM    2  C   UNL     1      -8.297   5.691  67.499  1.00  0.00    -0.100 C  
HETATM    3  C   UNL     1      -6.947   5.082  67.139  1.00  0.00    -0.061 C  
ENDROOT
BRANCH   2   4
HETATM    4  N   UNL     1      -8.393   5.910  68.937  1.00  0.00    -0.102 N  
HETATM    5  H   UNL     1      -8.774   5.175  69.533  1.00  0.00     0.000 HD 
BRANCH   4   6
HETATM    6  C   UNL     1      -7.980   7.088  69.498  1.00  0.00    -0.125 C  
HETATM    7  O   UNL     1      -6.811   7.389  69.663  1.00  0.00    -0.050 OA 
BRANCH   6   8
HETATM    8  N   UNL     1      -9.025   7.879  69.949  1.00  0.00    -0.145 N  
HETATM    9  H   UNL     1      -8.843   8.873  70.085  1.00  0.00     0.000 HD 
BRANCH   8  10
HETATM   10  S   UNL     1     -10.563   7.317  70.283  1.00  0.00    -0.234 S  
HETATM   11  O   UNL     1     -11.135   6.742  69.086  1.00  0.00    -0.250 OA 
HETATM   12  O   UNL     1     -10.399   6.511  71.478  1.00  0.00    -0.208 OA 
BRANCH  10  13
HETATM   13  C   UNL     1     -11.526   8.713  70.740  1.00  0.00    -0.259 A  
HETATM   14  C   UNL     1     -11.444   9.928  70.048  1.00  0.00    -0.217 A  
HETATM   15  N   UNL     1     -13.120   9.641  72.321  1.00  0.00    -0.412 NA 
HETATM   16  C   UNL     1     -12.176  11.002  70.583  1.00  0.00    -0.481 A  
HETATM   17  C   UNL     1     -12.983  10.820  71.694  1.00  0.00    -0.476 A  
HETATM   18  C   UNL     1     -12.378   8.620  71.834  1.00  0.00    -0.354 A  
BRANCH  14  19
HETATM   19  N   UNL     1     -10.772  10.070  68.809  1.00  0.00    -0.215 NA 
HETATM   20  H   UNL     1     -10.449   9.201  68.383  1.00  0.00     0.000 HD 
BRANCH  19  21
HETATM   21  C   UNL     1     -10.487  11.248  68.081  1.00  0.00    -0.189 A  
HETATM   22  C   UNL     1      -9.081  13.205  67.741  1.00  0.00    -0.200 A  
HETATM   23  C   UNL     1      -9.299  11.948  68.319  1.00  0.00    -0.193 A  
HETATM   24  C   UNL     1     -10.063  13.795  66.943  1.00  0.00    -0.260 A  
HETATM   25  C   UNL     1     -11.248  13.110  66.677  1.00  0.00    -0.335 A  
HETATM   26  C   UNL     1     -11.420  11.823  67.205  1.00  0.00    -0.373 A  
HETATM   27  C   UNL     1     -12.372  13.744  65.912  1.00  0.00    -0.516 C  
ENDBRANCH  19  21
ENDBRANCH  14  19
ENDBRANCH  10  13
ENDBRANCH   8  10
ENDBRANCH   6   8
ENDBRANCH   4   6
ENDBRANCH   2   4
TORSDOF 7
ENDMDL
MODEL      242
REMARK 921   NORMALIZED FREE ENERGY PREDICTED BY IDOCK:   -3.95 KCAL/MOL
REMARK 922        TOTAL FREE ENERGY PREDICTED BY IDOCK:   -7.41 KCAL/MOL
REMARK 923 INTER-LIGAND FREE ENERGY PREDICTED BY IDOCK:   -5.67 KCAL/MOL
REMARK 924 INTRA-LIGAND FREE ENERGY PREDICTED BY IDOCK:   -1.74 KCAL/MOL
REMARK 927      BINDING AFFINITY PREDICTED BY RF-SCORE:    0.00 PKD
ROOT
HETATM    1  C   UNL     1     -10.743  13.762  66.457  1.00  0.00    -0.284 C  
HETATM    2  C   UNL     1     -10.483  13.646  67.959  1.00  0.00    -0.248 C  
HETATM    3  C   UNL     1     -11.620  14.282  68.751  1.00  0.00    -0.357 C  
ENDROOT
BRANCH   2   4
HETATM    4  N   UNL     1     -10.287  12.260  68.366  1.00  0.00    -0.221 N  
HETATM    5  H   UNL     1      -9.508  12.022  68.979  1.00  0.00     0.000 HD 
BRANCH   4   6
HETATM    6  C   UNL     1     -11.134  11.274  67.937  1.00  0.00    -0.267 C  
HETATM    7  O   UNL     1     -12.254  11.099  68.383  1.00  0.00    -0.610 OA 
BRANCH   6   8
HETATM    8  N   UNL     1     -10.562  10.428  66.999  1.00  0.00    -0.251 N  
HETATM    9  H   UNL     1     -11.185   9.952  66.346  1.00  0.00     0.000 HD 
BRANCH   8  10
HETATM   10  S   UNL     1      -8.923  10.135  66.863  1.00  0.00    -0.131 S  
HETATM   11  O   UNL     1      -8.318  11.157  66.040  1.00  0.00    -0.167 OA 
HETATM   12  O   UNL     1      -8.479   9.935  68.230  1.00  0.00    -0.109 OA 
BRANCH  10  13
HETATM   13  C   UNL     1      -8.750   8.590  66.043  1.00  0.00    -0.161 A  
HETATM   14  C   UNL     1      -9.442   7.447  66.463  1.00  0.00    -0.172 A  
HETATM   15  N   UNL     1      -7.618   7.346  64.290  1.00  0.00    -0.105 NA 
HETATM   16  C   UNL     1      -9.130   6.248  65.799  1.00  0.00    -0.039 A  
HETATM   17  C   UNL     1      -8.234   6.242  64.743  1.00  0.00    -0.100 A  
HETATM   18  C   UNL     1      -7.884   8.491  64.961  1.00  0.00    -0.112 A  
BRANCH  14  19
HETATM   19  N   UNL     1     -10.493   7.483  67.412  1.00  0.00    -0.273 NA 
HETATM   20  H   UNL     1     -11.388   7.827  67.063  1.00  0.00     0.000 HD 
BRANCH  19  21
HETATM   21  C   UNL     1     -10.474   7.109  68.776  1.00  0.00    -0.202 A  
HETATM   22  C   UNL     1     -10.374   5.356  70.459  1.00  0.00    -0.344 A  
HETATM   23  C   UNL     1     -10.222   5.781  69.134  1.00  0.00    -0.289 A  
HETATM   24  C   UNL     1     -10.814   6.246  71.440  1.00  0.00    -0.312 A  
HETATM   25  C   UNL     1     -11.056   7.580  71.112  1.00  0.00    -0.270 A  
HETATM   26  C   UNL     1     -10.831   8.005  69.795  1.00  0.00    -0.194 A  
HETATM   27  C   UNL     1     -11.627   8.548  72.106  1.00  0.00    -0.447 C  
ENDBRANCH  19  21
ENDBRANCH  14  19
ENDBRANCH  10  13
ENDBRANCH   8  10
ENDBRANCH   6   8
ENDBRANCH   4   6
ENDBRANCH   2   4
TORSDOF 7
ENDMDL
MODEL      243
REMARK 921   NORMALIZED FREE ENERGY PREDICTED BY IDOCK:   -3.93 KCAL/MOL
REMARK 922        TOTAL FREE ENERGY PREDICTED BY IDOCK:   -7.40 KCAL/MOL
REMARK 923 INTER-LIGAND FREE ENERGY PREDICTED BY IDOCK:   -6.07 KCAL/MOL
REMARK 924 INTRA-LIGAND FREE ENERGY PREDICTED BY IDOCK:   -1.32 KCAL/MOL
REMARK 927      BINDING AFFINITY PREDICTED BY RF-SCORE:    0.00 PKD
ROOT
HETATM    1  C   UNL     1     -13.128   9.014  71.743  1.00  0.00    -0.437 C  
HETATM    2  C   UNL     1     -12.103  10.109  71.446  1.00  0.00    -0.382 C  
HETATM    3  C   UNL     1     -10.830   9.508  70.860  1.00  0.00    -0.407 C  
ENDROOT
BRANCH   2   4
HETATM    4  N   UNL     1     -12.646  11.127  70.555  1.00  0.00    -0.296 N  
HETATM    5  H   UNL     1     -13.553  11.545  70.764  1.00  0.00     0.000 HD 
BRANCH   4   6
HETATM    6  C   UNL     1     -11.958  11.529  69.443  1.00  0.00    -0.325 C  
HETATM    7  O   UNL     1     -11.939  10.909  68.395  1.00  0.00    -0.543 OA 
BRANCH   6   8
HETATM    8  N   UNL     1     -11.205  12.675  69.647  1.00  0.00    -0.478 N  
HETATM    9  H   UNL     1     -10.428  12.622  70.305  1.00  0.00     0.000 HD 
BRANCH   8  10
HETATM   10  S   UNL     1     -11.482  14.137  68.887  1.00  0.00    -0.316 S  
HETATM   11  O   UNL     1     -12.250  13.915  67.683  1.00  0.00    -0.345 OA 
HETATM   12  O   UNL     1     -11.996  14.996  69.938  1.00  0.00    -0.296 OA 
BRANCH  10  13
HETATM   13  C   UNL     1      -9.911  14.779  68.431  1.00  0.00    -0.220 A  
HETATM   14  C   UNL     1      -8.993  14.028  67.684  1.00  0.00    -0.194 A  
HETATM   15  N   UNL     1      -8.354  16.635  68.607  1.00  0.00    -0.235 NA 
HETATM   16  C   UNL     1      -7.728  14.607  67.485  1.00  0.00    -0.216 A  
HETATM   17  C   UNL     1      -7.456  15.882  67.951  1.00  0.00    -0.131 A  
HETATM   18  C   UNL     1      -9.555  16.058  68.841  1.00  0.00    -0.236 A  
BRANCH  14  19
HETATM   19  N   UNL     1      -9.327  12.808  67.047  1.00  0.00    -0.222 NA 
HETATM   20  H   UNL     1     -10.132  12.846  66.421  1.00  0.00     0.000 HD 
BRANCH  19  21
HETATM   21  C   UNL     1      -8.702  11.545  67.158  1.00  0.00    -0.160 A  
HETATM   22  C   UNL     1      -7.549   9.898  68.529  1.00  0.00    -0.080 A  
HETATM   23  C   UNL     1      -8.324  11.058  68.414  1.00  0.00    -0.139 A  
HETATM   24  C   UNL     1      -7.109   9.227  67.386  1.00  0.00    -0.079 A  
HETATM   25  C   UNL     1      -7.486   9.682  66.123  1.00  0.00    -0.098 A  
HETATM   26  C   UNL     1      -8.322  10.803  66.029  1.00  0.00    -0.163 A  
HETATM   27  C   UNL     1      -6.957   9.056  64.867  1.00  0.00    -0.077 C  
ENDBRANCH  19  21
ENDBRANCH  14  19
ENDBRANCH  10  13
ENDBRANCH   8  10
ENDBRANCH   6   8
ENDBRANCH   4   6
ENDBRANCH   2   4
TORSDOF 7
ENDMDL
MODEL      244
REMARK 921   NORMALIZED FREE ENERGY PREDICTED BY IDOCK:   -3.93 KCAL/MOL
REMARK 922        TOTAL FREE ENERGY PREDICTED BY IDOCK:   -7.39 KCAL/MOL
REMARK 923 INTER-LIGAND FREE ENERGY PREDICTED BY IDOCK:   -5.98 KCAL/MOL
REMARK 924 INTRA-LIGAND FREE ENERGY PREDICTED BY IDOCK:   -1.41 KCAL/MOL
REMARK 927      BINDING AFFINITY PREDICTED BY RF-SCORE:    0.00 PKD
ROOT
HETATM    1  C   UNL     1      -9.568   3.826  67.898  1.00  0.00    -0.187 C  
HETATM    2  C   UNL     1     -10.025   4.494  69.195  1.00  0.00    -0.099 C  
HETATM    3  C   UNL     1      -8.911   4.462  70.236  1.00  0.00    -0.142 C  
ENDROOT
BRANCH   2   4
HETATM    4  N   UNL     1     -10.473   5.862  68.967  1.00  0.00    -0.235 N  
HETATM    5  H   UNL     1     -10.234   6.329  68.092  1.00  0.00     0.000 HD 
BRANCH   4   6
HETATM    6  C   UNL     1     -11.209   6.528  69.908  1.00  0.00    -0.395 C  
HETATM    7  O   UNL     1     -11.910   5.976  70.738  1.00  0.00    -0.116 OA 
BRANCH   6   8
HETATM    8  N   UNL     1     -11.154   7.907  69.775  1.00  0.00    -0.431 N  
HETATM    9  H   UNL     1     -12.037   8.412  69.701  1.00  0.00     0.000 HD 
BRANCH   8  10
HETATM   10  S   UNL     1      -9.741   8.798  69.729  1.00  0.00    -0.181 S  
HETATM   11  O   UNL     1      -9.958  10.075  70.371  1.00  0.00    -0.222 OA 
HETATM   12  O   UNL     1      -8.726   7.888  70.227  1.00  0.00    -0.136 OA 
BRANCH  10  13
HETATM   13  C   UNL     1      -9.377   9.085  68.034  1.00  0.00    -0.141 A  
HETATM   14  C   UNL     1     -10.225   9.839  67.212  1.00  0.00    -0.232 A  
HETATM   15  N   UNL     1      -7.874   8.626  66.182  1.00  0.00    -0.096 NA 
HETATM   16  C   UNL     1      -9.884   9.897  65.850  1.00  0.00    -0.342 A  
HETATM   17  C   UNL     1      -8.727   9.292  65.387  1.00  0.00    -0.178 A  
HETATM   18  C   UNL     1      -8.228   8.530  67.484  1.00  0.00    -0.117 A  
BRANCH  14  19
HETATM   19  N   UNL     1     -11.300  10.613  67.712  1.00  0.00    -0.480 NA 
HETATM   20  H   UNL     1     -11.972  10.109  68.291  1.00  0.00     0.000 HD 
BRANCH  19  21
HETATM   21  C   UNL     1     -11.573  11.988  67.520  1.00  0.00    -0.330 A  
HETATM   22  C   UNL     1     -12.265  13.793  66.043  1.00  0.00    -0.495 A  
HETATM   23  C   UNL     1     -12.152  12.426  66.324  1.00  0.00    -0.256 A  
HETATM   24  C   UNL     1     -11.769  14.742  66.940  1.00  0.00    -0.316 A  
HETATM   25  C   UNL     1     -11.203  14.330  68.146  1.00  0.00    -0.295 A  
HETATM   26  C   UNL     1     -11.162  12.961  68.443  1.00  0.00    -0.305 A  
HETATM   27  C   UNL     1     -10.565  15.304  69.092  1.00  0.00    -0.250 C  
ENDBRANCH  19  21
ENDBRANCH  14  19
ENDBRANCH  10  13
ENDBRANCH   8  10
ENDBRANCH   6   8
ENDBRANCH   4   6
ENDBRANCH   2   4
TORSDOF 7
ENDMDL
MODEL      245
REMARK 921   NORMALIZED FREE ENERGY PREDICTED BY IDOCK:   -3.92 KCAL/MOL
REMARK 922        TOTAL FREE ENERGY PREDICTED BY IDOCK:   -7.38 KCAL/MOL
REMARK 923 INTER-LIGAND FREE ENERGY PREDICTED BY IDOCK:   -6.44 KCAL/MOL
REMARK 924 INTRA-LIGAND FREE ENERGY PREDICTED BY IDOCK:   -0.94 KCAL/MOL
REMARK 927      BINDING AFFINITY PREDICTED BY RF-SCORE:    0.00 PKD
ROOT
HETATM    1  C   UNL     1      -9.935  18.203  68.086  1.00  0.00    -0.368 C  
HETATM    2  C   UNL     1      -9.876  19.676  67.681  1.00  0.00    -0.376 C  
HETATM    3  C   UNL     1     -10.449  20.560  68.783  1.00  0.00     0.150 C  
ENDROOT
BRANCH   2   4
HETATM    4  N   UNL     1      -8.518  20.088  67.348  1.00  0.00    -0.326 N  
HETATM    5  H   UNL     1      -8.366  20.751  66.588  1.00  0.00     0.000 HD 
BRANCH   4   6
HETATM    6  C   UNL     1      -7.444  19.598  68.041  1.00  0.00    -0.295 C  
HETATM    7  O   UNL     1      -7.320  19.682  69.250  1.00  0.00    -0.356 OA 
BRANCH   6   8
HETATM    8  N   UNL     1      -6.458  19.069  67.223  1.00  0.00    -0.189 N  
HETATM    9  H   UNL     1      -5.609  19.617  67.088  1.00  0.00     0.000 HD 
BRANCH   8  10
HETATM   10  S   UNL     1      -6.563  17.594  66.446  1.00  0.00    -0.268 S  
HETATM   11  O   UNL     1      -7.753  17.567  65.625  1.00  0.00    -0.495 OA 
HETATM   12  O   UNL     1      -5.254  17.408  65.847  1.00  0.00    -0.293 OA 
BRANCH  10  13
HETATM   13  C   UNL     1      -6.727  16.370  67.697  1.00  0.00    -0.138 A  
HETATM   14  C   UNL     1      -7.655  15.325  67.593  1.00  0.00    -0.172 A  
HETATM   15  N   UNL     1      -6.010  15.610  69.889  1.00  0.00    -0.150 NA 
HETATM   16  C   UNL     1      -7.770  14.481  68.710  1.00  0.00    -0.140 A  
HETATM   17  C   UNL     1      -6.949  14.653  69.812  1.00  0.00    -0.130 A  
HETATM   18  C   UNL     1      -5.932  16.452  68.833  1.00  0.00    -0.134 A  
BRANCH  14  19
HETATM   19  N   UNL     1      -8.360  15.032  66.401  1.00  0.00    -0.365 NA 
HETATM   20  H   UNL     1      -7.927  15.367  65.540  1.00  0.00     0.000 HD 
BRANCH  19  21
HETATM   21  C   UNL     1      -9.583  14.339  66.238  1.00  0.00    -0.288 A  
HETATM   22  C   UNL     1     -11.932  14.368  65.605  1.00  0.00    -0.356 A  
HETATM   23  C   UNL     1     -10.667  14.969  65.618  1.00  0.00    -0.365 A  
HETATM   24  C   UNL     1     -12.139  13.144  66.244  1.00  0.00    -0.460 A  
HETATM   25  C   UNL     1     -11.070  12.488  66.855  1.00  0.00    -0.323 A  
HETATM   26  C   UNL     1      -9.796  13.069  66.796  1.00  0.00    -0.243 A  
HETATM   27  C   UNL     1     -11.263  11.225  67.640  1.00  0.00    -0.357 C  
ENDBRANCH  19  21
ENDBRANCH  14  19
ENDBRANCH  10  13
ENDBRANCH   8  10
ENDBRANCH   6   8
ENDBRANCH   4   6
ENDBRANCH   2   4
TORSDOF 7
ENDMDL
MODEL      246
REMARK 921   NORMALIZED FREE ENERGY PREDICTED BY IDOCK:   -3.91 KCAL/MOL
REMARK 922        TOTAL FREE ENERGY PREDICTED BY IDOCK:   -7.37 KCAL/MOL
REMARK 923 INTER-LIGAND FREE ENERGY PREDICTED BY IDOCK:   -6.62 KCAL/MOL
REMARK 924 INTRA-LIGAND FREE ENERGY PREDICTED BY IDOCK:   -0.75 KCAL/MOL
REMARK 927      BINDING AFFINITY PREDICTED BY RF-SCORE:    0.00 PKD
ROOT
HETATM    1  C   UNL     1     -10.701  16.546  68.070  1.00  0.00    -0.343 C  
HETATM    2  C   UNL     1      -9.275  15.999  68.129  1.00  0.00    -0.195 C  
HETATM    3  C   UNL     1      -8.309  17.071  68.622  1.00  0.00    -0.264 C  
ENDROOT
BRANCH   2   4
HETATM    4  N   UNL     1      -9.189  14.809  68.966  1.00  0.00    -0.311 N  
HETATM    5  H   UNL     1      -9.197  14.907  69.981  1.00  0.00     0.000 HD 
BRANCH   4   6
HETATM    6  C   UNL     1      -9.097  13.562  68.410  1.00  0.00    -0.155 C  
HETATM    7  O   UNL     1      -8.163  12.802  68.595  1.00  0.00    -0.102 OA 
BRANCH   6   8
HETATM    8  N   UNL     1     -10.134  13.272  67.535  1.00  0.00    -0.221 N  
HETATM    9  H   UNL     1     -10.246  13.870  66.717  1.00  0.00     0.000 HD 
BRANCH   8  10
HETATM   10  S   UNL     1     -11.211  12.011  67.730  1.00  0.00    -0.294 S  
HETATM   11  O   UNL     1     -12.228  12.084  66.705  1.00  0.00    -0.550 OA 
HETATM   12  O   UNL     1     -10.370  10.834  67.847  1.00  0.00    -0.172 OA 
BRANCH  10  13
HETATM   13  C   UNL     1     -11.984  12.239  69.292  1.00  0.00    -0.253 A  
HETATM   14  C   UNL     1     -12.296  11.159  70.128  1.00  0.00    -0.295 A  
HETATM   15  N   UNL     1     -12.970  13.820  70.849  1.00  0.00    -0.260 NA 
HETATM   16  C   UNL     1     -13.017  11.462  71.296  1.00  0.00    -0.415 A  
HETATM   17  C   UNL     1     -13.327  12.774  71.612  1.00  0.00    -0.254 A  
HETATM   18  C   UNL     1     -12.318  13.524  69.702  1.00  0.00    -0.165 A  
BRANCH  14  19
HETATM   19  N   UNL     1     -11.821   9.844  69.905  1.00  0.00    -0.456 NA 
HETATM   20  H   UNL     1     -11.956   9.482  68.960  1.00  0.00     0.000 HD 
BRANCH  19  21
HETATM   21  C   UNL     1     -11.184   8.962  70.809  1.00  0.00    -0.272 A  
HETATM   22  C   UNL     1     -11.356   7.315  72.591  1.00  0.00    -0.333 A  
HETATM   23  C   UNL     1     -11.945   8.067  71.568  1.00  0.00    -0.331 A  
HETATM   24  C   UNL     1     -10.002   7.472  72.893  1.00  0.00    -0.303 A  
HETATM   25  C   UNL     1      -9.217   8.345  72.139  1.00  0.00    -0.313 A  
HETATM   26  C   UNL     1      -9.808   9.037  71.073  1.00  0.00    -0.352 A  
HETATM   27  C   UNL     1      -7.786   8.623  72.490  1.00  0.00    -0.007 C  
ENDBRANCH  19  21
ENDBRANCH  14  19
ENDBRANCH  10  13
ENDBRANCH   8  10
ENDBRANCH   6   8
ENDBRANCH   4   6
ENDBRANCH   2   4
TORSDOF 7
ENDMDL
MODEL      247
REMARK 921   NORMALIZED FREE ENERGY PREDICTED BY IDOCK:   -3.90 KCAL/MOL
REMARK 922        TOTAL FREE ENERGY PREDICTED BY IDOCK:   -7.35 KCAL/MOL
REMARK 923 INTER-LIGAND FREE ENERGY PREDICTED BY IDOCK:   -5.83 KCAL/MOL
REMARK 924 INTRA-LIGAND FREE ENERGY PREDICTED BY IDOCK:   -1.52 KCAL/MOL
REMARK 927      BINDING AFFINITY PREDICTED BY RF-SCORE:    0.00 PKD
ROOT
HETATM    1  C   UNL     1     -10.569  15.023  64.974  1.00  0.00    -0.437 C  
HETATM    2  C   UNL     1     -10.896  13.532  65.063  1.00  0.00    -0.340 C  
HETATM    3  C   UNL     1     -12.282  13.321  65.663  1.00  0.00    -0.514 C  
ENDROOT
BRANCH   2   4
HETATM    4  N   UNL     1     -10.795  12.881  63.764  1.00  0.00    -0.514 N  
HETATM    5  H   UNL     1     -11.486  13.088  63.043  1.00  0.00     0.000 HD 
BRANCH   4   6
HETATM    6  C   UNL     1      -9.787  11.995  63.496  1.00  0.00    -0.289 C  
HETATM    7  O   UNL     1      -9.531  11.573  62.382  1.00  0.00    -0.122 OA 
BRANCH   6   8
HETATM    8  N   UNL     1      -9.131  11.548  64.633  1.00  0.00    -0.407 N  
HETATM    9  H   UNL     1      -8.531  12.209  65.126  1.00  0.00     0.000 HD 
BRANCH   8  10
HETATM   10  S   UNL     1      -9.256  10.001  65.251  1.00  0.00    -0.239 S  
HETATM   11  O   UNL     1     -10.594   9.792  65.756  1.00  0.00    -0.026 OA 
HETATM   12  O   UNL     1      -8.725   9.150  64.202  1.00  0.00    -0.198 OA 
BRANCH  10  13
HETATM   13  C   UNL     1      -8.134   9.901  66.601  1.00  0.00    -0.117 A  
HETATM   14  C   UNL     1      -7.842  11.011  67.404  1.00  0.00    -0.118 A  
HETATM   15  N   UNL     1      -6.572   8.509  67.834  1.00  0.00    -0.060 NA 
HETATM   16  C   UNL     1      -6.842  10.832  68.376  1.00  0.00    -0.068 A  
HETATM   17  C   UNL     1      -6.247   9.595  68.554  1.00  0.00    -0.047 A  
HETATM   18  C   UNL     1      -7.500   8.693  66.867  1.00  0.00    -0.083 A  
BRANCH  14  19
HETATM   19  N   UNL     1      -8.577  12.220  67.351  1.00  0.00    -0.169 NA 
HETATM   20  H   UNL     1      -8.224  12.921  66.699  1.00  0.00     0.000 HD 
BRANCH  19  21
HETATM   21  C   UNL     1      -9.733  12.591  68.077  1.00  0.00    -0.215 A  
HETATM   22  C   UNL     1     -10.976  14.288  69.300  1.00  0.00    -0.271 A  
HETATM   23  C   UNL     1      -9.936  13.928  68.434  1.00  0.00    -0.233 A  
HETATM   24  C   UNL     1     -11.807  13.310  69.849  1.00  0.00    -0.380 A  
HETATM   25  C   UNL     1     -11.636  11.972  69.496  1.00  0.00    -0.389 A  
HETATM   26  C   UNL     1     -10.636  11.638  68.572  1.00  0.00    -0.241 A  
HETATM   27  C   UNL     1     -12.436  10.877  70.136  1.00  0.00    -0.356 C  
ENDBRANCH  19  21
ENDBRANCH  14  19
ENDBRANCH  10  13
ENDBRANCH   8  10
ENDBRANCH   6   8
ENDBRANCH   4   6
ENDBRANCH   2   4
TORSDOF 7
ENDMDL
MODEL      248
REMARK 921   NORMALIZED FREE ENERGY PREDICTED BY IDOCK:   -3.90 KCAL/MOL
REMARK 922        TOTAL FREE ENERGY PREDICTED BY IDOCK:   -7.34 KCAL/MOL
REMARK 923 INTER-LIGAND FREE ENERGY PREDICTED BY IDOCK:   -6.02 KCAL/MOL
REMARK 924 INTRA-LIGAND FREE ENERGY PREDICTED BY IDOCK:   -1.32 KCAL/MOL
REMARK 927      BINDING AFFINITY PREDICTED BY RF-SCORE:    0.00 PKD
ROOT
HETATM    1  C   UNL     1      -9.036   1.619  66.226  1.00  0.00    -0.092 C  
HETATM    2  C   UNL     1      -8.711   2.988  66.826  1.00  0.00    -0.129 C  
HETATM    3  C   UNL     1      -7.673   3.713  65.978  1.00  0.00    -0.089 C  
ENDROOT
BRANCH   2   4
HETATM    4  N   UNL     1      -9.908   3.805  66.980  1.00  0.00    -0.327 N  
HETATM    5  H   UNL     1     -10.438   3.761  67.850  1.00  0.00     0.000 HD 
BRANCH   4   6
HETATM    6  C   UNL     1     -10.332   4.629  65.973  1.00  0.00    -0.284 C  
HETATM    7  O   UNL     1     -10.900   4.238  64.968  1.00  0.00    -0.253 OA 
BRANCH   6   8
HETATM    8  N   UNL     1      -9.976   5.955  66.161  1.00  0.00    -0.376 N  
HETATM    9  H   UNL     1      -9.434   6.410  65.426  1.00  0.00     0.000 HD 
BRANCH   8  10
HETATM   10  S   UNL     1     -10.373   6.861  67.508  1.00  0.00    -0.249 S  
HETATM   11  O   UNL     1     -10.775   8.186  67.095  1.00  0.00    -0.316 OA 
HETATM   12  O   UNL     1     -11.286   6.014  68.254  1.00  0.00    -0.273 OA 
BRANCH  10  13
HETATM   13  C   UNL     1      -8.911   7.003  68.473  1.00  0.00    -0.124 A  
HETATM   14  C   UNL     1      -8.953   7.315  69.839  1.00  0.00    -0.142 A  
HETATM   15  N   UNL     1      -6.482   6.970  68.484  1.00  0.00    -0.035 NA 
HETATM   16  C   UNL     1      -7.714   7.516  70.471  1.00  0.00    -0.094 A  
HETATM   17  C   UNL     1      -6.530   7.337  69.774  1.00  0.00    -0.036 A  
HETATM   18  C   UNL     1      -7.675   6.824  67.863  1.00  0.00    -0.112 A  
BRANCH  14  19
HETATM   19  N   UNL     1     -10.148   7.315  70.597  1.00  0.00    -0.194 NA 
HETATM   20  H   UNL     1     -10.493   6.395  70.873  1.00  0.00     0.000 HD 
BRANCH  19  21
HETATM   21  C   UNL     1     -10.932   8.411  71.025  1.00  0.00    -0.246 A  
HETATM   22  C   UNL     1     -12.804   9.259  72.328  1.00  0.00    -0.459 A  
HETATM   23  C   UNL     1     -11.901   8.234  72.018  1.00  0.00    -0.408 A  
HETATM   24  C   UNL     1     -12.773  10.464  71.624  1.00  0.00    -0.560 A  
HETATM   25  C   UNL     1     -11.805  10.672  70.641  1.00  0.00    -0.463 A  
HETATM   26  C   UNL     1     -10.865   9.663  70.393  1.00  0.00    -0.353 A  
HETATM   27  C   UNL     1     -11.796  11.907  69.790  1.00  0.00    -0.411 C  
ENDBRANCH  19  21
ENDBRANCH  14  19
ENDBRANCH  10  13
ENDBRANCH   8  10
ENDBRANCH   6   8
ENDBRANCH   4   6
ENDBRANCH   2   4
TORSDOF 7
ENDMDL
MODEL      249
REMARK 921   NORMALIZED FREE ENERGY PREDICTED BY IDOCK:   -3.89 KCAL/MOL
REMARK 922        TOTAL FREE ENERGY PREDICTED BY IDOCK:   -7.34 KCAL/MOL
REMARK 923 INTER-LIGAND FREE ENERGY PREDICTED BY IDOCK:   -5.47 KCAL/MOL
REMARK 924 INTRA-LIGAND FREE ENERGY PREDICTED BY IDOCK:   -1.87 KCAL/MOL
REMARK 927      BINDING AFFINITY PREDICTED BY RF-SCORE:    0.00 PKD
ROOT
HETATM    1  C   UNL     1      -7.394   1.713  65.794  1.00  0.00    -0.057 C  
HETATM    2  C   UNL     1      -8.773   2.365  65.904  1.00  0.00    -0.122 C  
HETATM    3  C   UNL     1      -9.178   2.521  67.366  1.00  0.00    -0.185 C  
ENDROOT
BRANCH   2   4
HETATM    4  N   UNL     1      -8.814   3.652  65.221  1.00  0.00    -0.118 N  
HETATM    5  H   UNL     1      -7.946   4.075  64.894  1.00  0.00     0.000 HD 
BRANCH   4   6
HETATM    6  C   UNL     1     -10.001   4.301  65.014  1.00  0.00    -0.188 C  
HETATM    7  O   UNL     1     -10.901   3.865  64.318  1.00  0.00    -0.286 OA 
BRANCH   6   8
HETATM    8  N   UNL     1     -10.053   5.555  65.603  1.00  0.00    -0.381 N  
HETATM    9  H   UNL     1     -10.972   5.944  65.811  1.00  0.00     0.000 HD 
BRANCH   8  10
HETATM   10  S   UNL     1      -8.712   6.473  65.995  1.00  0.00    -0.134 S  
HETATM   11  O   UNL     1      -8.070   5.910  67.162  1.00  0.00    -0.102 OA 
HETATM   12  O   UNL     1      -7.986   6.600  64.746  1.00  0.00    -0.114 OA 
BRANCH  10  13
HETATM   13  C   UNL     1      -9.298   8.078  66.407  1.00  0.00    -0.200 A  
HETATM   14  C   UNL     1     -10.441   8.269  67.196  1.00  0.00    -0.316 A  
HETATM   15  N   UNL     1      -9.015  10.472  66.114  1.00  0.00    -0.156 NA 
HETATM   16  C   UNL     1     -10.874   9.596  67.356  1.00  0.00    -0.242 A  
HETATM   17  C   UNL     1     -10.149  10.643  66.812  1.00  0.00    -0.224 A  
HETATM   18  C   UNL     1      -8.625   9.191  65.919  1.00  0.00    -0.151 A  
BRANCH  14  19
HETATM   19  N   UNL     1     -11.075   7.221  67.907  1.00  0.00    -0.505 NA 
HETATM   20  H   UNL     1     -11.731   6.658  67.366  1.00  0.00     0.000 HD 
BRANCH  19  21
HETATM   21  C   UNL     1     -10.925   6.847  69.263  1.00  0.00    -0.221 A  
HETATM   22  C   UNL     1     -10.495   5.115  70.917  1.00  0.00    -0.258 A  
HETATM   23  C   UNL     1     -10.481   5.562  69.590  1.00  0.00    -0.379 A  
HETATM   24  C   UNL     1     -10.987   5.937  71.932  1.00  0.00    -0.321 A  
HETATM   25  C   UNL     1     -11.420   7.229  71.635  1.00  0.00    -0.297 A  
HETATM   26  C   UNL     1     -11.332   7.685  70.312  1.00  0.00    -0.197 A  
HETATM   27  C   UNL     1     -12.050   8.110  72.672  1.00  0.00    -0.311 C  
ENDBRANCH  19  21
ENDBRANCH  14  19
ENDBRANCH  10  13
ENDBRANCH   8  10
ENDBRANCH   6   8
ENDBRANCH   4   6
ENDBRANCH   2   4
TORSDOF 7
ENDMDL
MODEL      250
REMARK 921   NORMALIZED FREE ENERGY PREDICTED BY IDOCK:   -3.89 KCAL/MOL
REMARK 922        TOTAL FREE ENERGY PREDICTED BY IDOCK:   -7.34 KCAL/MOL
REMARK 923 INTER-LIGAND FREE ENERGY PREDICTED BY IDOCK:   -5.50 KCAL/MOL
REMARK 924 INTRA-LIGAND FREE ENERGY PREDICTED BY IDOCK:   -1.83 KCAL/MOL
REMARK 927      BINDING AFFINITY PREDICTED BY RF-SCORE:    0.00 PKD
ROOT
HETATM    1  C   UNL     1      -7.184  10.276  65.556  1.00  0.00    -0.149 C  
HETATM    2  C   UNL     1      -6.864  10.103  67.041  1.00  0.00    -0.083 C  
HETATM    3  C   UNL     1      -5.382   9.808  67.239  1.00  0.00    -0.039 C  
ENDROOT
BRANCH   2   4
HETATM    4  N   UNL     1      -7.263  11.271  67.816  1.00  0.00    -0.085 N  
HETATM    5  H   UNL     1      -7.049  12.204  67.465  1.00  0.00     0.000 HD 
BRANCH   4   6
HETATM    6  C   UNL     1      -7.919  11.133  69.009  1.00  0.00    -0.086 C  
HETATM    7  O   UNL     1      -7.619  10.312  69.858  1.00  0.00    -0.160 OA 
BRANCH   6   8
HETATM    8  N   UNL     1      -9.022  11.963  69.129  1.00  0.00    -0.246 N  
HETATM    9  H   UNL     1      -8.893  12.862  69.593  1.00  0.00     0.000 HD 
BRANCH   8  10
HETATM   10  S   UNL     1     -10.551  11.592  68.566  1.00  0.00    -0.223 S  
HETATM   11  O   UNL     1     -11.195  12.797  68.094  1.00  0.00    -0.239 OA 
HETATM   12  O   UNL     1     -10.342  10.471  67.669  1.00  0.00    -0.193 OA 
BRANCH  10  13
HETATM   13  C   UNL     1     -11.464  10.981  69.938  1.00  0.00    -0.320 A  
HETATM   14  C   UNL     1     -11.283   9.680  70.427  1.00  0.00    -0.283 A  
HETATM   15  N   UNL     1     -13.215  11.422  71.562  1.00  0.00    -0.319 NA 
HETATM   16  C   UNL     1     -12.154   9.272  71.451  1.00  0.00    -0.424 A  
HETATM   17  C   UNL     1     -13.083  10.153  71.979  1.00  0.00    -0.437 A  
HETATM   18  C   UNL     1     -12.409  11.800  70.544  1.00  0.00    -0.299 A  
BRANCH  14  19
HETATM   19  N   UNL     1     -10.215   8.842  70.023  1.00  0.00    -0.192 NA 
HETATM   20  H   UNL     1      -9.304   9.296  69.953  1.00  0.00     0.000 HD 
BRANCH  19  21
HETATM   21  C   UNL     1     -10.236   7.465  69.702  1.00  0.00    -0.210 A  
HETATM   22  C   UNL     1      -9.624   5.179  70.268  1.00  0.00    -0.249 A  
HETATM   23  C   UNL     1      -9.778   6.523  70.629  1.00  0.00    -0.194 A  
HETATM   24  C   UNL     1      -9.894   4.764  68.963  1.00  0.00    -0.239 A  
HETATM   25  C   UNL     1     -10.369   5.680  68.024  1.00  0.00    -0.258 A  
HETATM   26  C   UNL     1     -10.584   7.006  68.422  1.00  0.00    -0.240 A  
HETATM   27  C   UNL     1     -10.574   5.304  66.587  1.00  0.00    -0.334 C  
ENDBRANCH  19  21
ENDBRANCH  14  19
ENDBRANCH  10  13
ENDBRANCH   8  10
ENDBRANCH   6   8
ENDBRANCH   4   6
ENDBRANCH   2   4
TORSDOF 7
ENDMDL
MODEL      251
REMARK 921   NORMALIZED FREE ENERGY PREDICTED BY IDOCK:   -3.87 KCAL/MOL
REMARK 922        TOTAL FREE ENERGY PREDICTED BY IDOCK:   -7.31 KCAL/MOL
REMARK 923 INTER-LIGAND FREE ENERGY PREDICTED BY IDOCK:   -6.10 KCAL/MOL
REMARK 924 INTRA-LIGAND FREE ENERGY PREDICTED BY IDOCK:   -1.21 KCAL/MOL
REMARK 927      BINDING AFFINITY PREDICTED BY RF-SCORE:    0.00 PKD
ROOT
HETATM    1  C   UNL     1     -11.995  13.676  69.479  1.00  0.00    -0.397 C  
HETATM    2  C   UNL     1     -11.822  13.089  68.078  1.00  0.00    -0.347 C  
HETATM    3  C   UNL     1     -11.596  14.197  67.056  1.00  0.00    -0.404 C  
ENDROOT
BRANCH   2   4
HETATM    4  N   UNL     1     -10.734  12.120  68.032  1.00  0.00    -0.206 N  
HETATM    5  H   UNL     1      -9.911  12.260  68.618  1.00  0.00     0.000 HD 
BRANCH   4   6
HETATM    6  C   UNL     1     -10.800  11.025  67.213  1.00  0.00    -0.281 C  
HETATM    7  O   UNL     1     -10.540  11.050  66.023  1.00  0.00    -0.252 OA 
BRANCH   6   8
HETATM    8  N   UNL     1     -11.280   9.890  67.850  1.00  0.00    -0.509 N  
HETATM    9  H   UNL     1     -12.179   9.519  67.544  1.00  0.00     0.000 HD 
BRANCH   8  10
HETATM   10  S   UNL     1     -10.486   9.090  69.083  1.00  0.00    -0.208 S  
HETATM   11  O   UNL     1     -10.342   7.694  68.735  1.00  0.00    -0.200 OA 
HETATM   12  O   UNL     1      -9.315   9.906  69.346  1.00  0.00    -0.187 OA 
BRANCH  10  13
HETATM   13  C   UNL     1     -11.512   9.202  70.505  1.00  0.00    -0.229 A  
HETATM   14  C   UNL     1     -11.263   8.448  71.659  1.00  0.00    -0.278 A  
HETATM   15  N   UNL     1     -13.514  10.168  71.484  1.00  0.00    -0.308 NA 
HETATM   16  C   UNL     1     -12.222   8.539  72.683  1.00  0.00    -0.297 A  
HETATM   17  C   UNL     1     -13.306   9.390  72.558  1.00  0.00    -0.343 A  
HETATM   18  C   UNL     1     -12.617  10.045  70.479  1.00  0.00    -0.150 A  
BRANCH  14  19
HETATM   19  N   UNL     1     -10.064   7.723  71.867  1.00  0.00    -0.177 NA 
HETATM   20  H   UNL     1      -9.281   7.991  71.271  1.00  0.00     0.000 HD 
BRANCH  19  21
HETATM   21  C   UNL     1      -9.802   6.680  72.786  1.00  0.00    -0.169 A  
HETATM   22  C   UNL     1      -8.223   5.504  74.214  1.00  0.00    -0.104 A  
HETATM   23  C   UNL     1      -8.568   6.619  73.441  1.00  0.00    -0.134 A  
HETATM   24  C   UNL     1      -9.095   4.418  74.315  1.00  0.00    -0.107 A  
HETATM   25  C   UNL     1     -10.338   4.462  73.685  1.00  0.00    -0.244 A  
HETATM   26  C   UNL     1     -10.696   5.616  72.974  1.00  0.00    -0.290 A  
HETATM   27  C   UNL     1     -11.264   3.282  73.680  1.00  0.00    -0.280 C  
ENDBRANCH  19  21
ENDBRANCH  14  19
ENDBRANCH  10  13
ENDBRANCH   8  10
ENDBRANCH   6   8
ENDBRANCH   4   6
ENDBRANCH   2   4
TORSDOF 7
ENDMDL
MODEL      252
REMARK 921   NORMALIZED FREE ENERGY PREDICTED BY IDOCK:   -3.87 KCAL/MOL
REMARK 922        TOTAL FREE ENERGY PREDICTED BY IDOCK:   -7.31 KCAL/MOL
REMARK 923 INTER-LIGAND FREE ENERGY PREDICTED BY IDOCK:   -5.67 KCAL/MOL
REMARK 924 INTRA-LIGAND FREE ENERGY PREDICTED BY IDOCK:   -1.64 KCAL/MOL
REMARK 927      BINDING AFFINITY PREDICTED BY RF-SCORE:    0.00 PKD
ROOT
HETATM    1  C   UNL     1      -8.252  17.179  68.681  1.00  0.00    -0.255 C  
HETATM    2  C   UNL     1      -7.232  16.049  68.830  1.00  0.00    -0.157 C  
HETATM    3  C   UNL     1      -6.072  16.487  69.717  1.00  0.00    -0.215 C  
ENDROOT
BRANCH   2   4
HETATM    4  N   UNL     1      -7.847  14.835  69.352  1.00  0.00    -0.331 N  
HETATM    5  H   UNL     1      -8.033  14.756  70.352  1.00  0.00     0.000 HD 
BRANCH   4   6
HETATM    6  C   UNL     1      -8.177  13.800  68.520  1.00  0.00    -0.124 C  
HETATM    7  O   UNL     1      -7.471  13.409  67.607  1.00  0.00    -0.148 OA 
BRANCH   6   8
HETATM    8  N   UNL     1      -9.443  13.286  68.758  1.00  0.00    -0.406 N  
HETATM    9  H   UNL     1      -9.552  12.632  69.533  1.00  0.00     0.000 HD 
BRANCH   8  10
HETATM   10  S   UNL     1     -10.802  13.665  67.863  1.00  0.00    -0.256 S  
HETATM   11  O   UNL     1     -11.984  13.256  68.587  1.00  0.00    -0.339 OA 
HETATM   12  O   UNL     1     -10.612  15.055  67.492  1.00  0.00    -0.257 OA 
BRANCH  10  13
HETATM   13  C   UNL     1     -10.711  12.727  66.379  1.00  0.00    -0.262 A  
HETATM   14  C   UNL     1     -10.533  11.337  66.392  1.00  0.00    -0.257 A  
HETATM   15  N   UNL     1     -10.672  12.781  63.951  1.00  0.00    -0.421 NA 
HETATM   16  C   UNL     1     -10.358  10.720  65.141  1.00  0.00    -0.341 A  
HETATM   17  C   UNL     1     -10.433  11.460  63.973  1.00  0.00    -0.378 A  
HETATM   18  C   UNL     1     -10.793  13.383  65.157  1.00  0.00    -0.313 A  
BRANCH  14  19
HETATM   19  N   UNL     1     -10.642  10.553  67.565  1.00  0.00    -0.239 NA 
HETATM   20  H   UNL     1     -11.362  10.849  68.225  1.00  0.00     0.000 HD 
BRANCH  19  21
HETATM   21  C   UNL     1      -9.893   9.417  67.951  1.00  0.00    -0.165 A  
HETATM   22  C   UNL     1      -9.800   7.025  68.386  1.00  0.00    -0.148 A  
HETATM   23  C   UNL     1     -10.454   8.140  67.847  1.00  0.00    -0.259 A  
HETATM   24  C   UNL     1      -8.591   7.177  69.068  1.00  0.00    -0.129 A  
HETATM   25  C   UNL     1      -8.002   8.438  69.170  1.00  0.00    -0.110 A  
HETATM   26  C   UNL     1      -8.635   9.532  68.563  1.00  0.00    -0.119 A  
HETATM   27  C   UNL     1      -6.760   8.667  69.978  1.00  0.00    -0.039 C  
ENDBRANCH  19  21
ENDBRANCH  14  19
ENDBRANCH  10  13
ENDBRANCH   8  10
ENDBRANCH   6   8
ENDBRANCH   4   6
ENDBRANCH   2   4
TORSDOF 7
ENDMDL
MODEL      253
REMARK 921   NORMALIZED FREE ENERGY PREDICTED BY IDOCK:   -3.87 KCAL/MOL
REMARK 922        TOTAL FREE ENERGY PREDICTED BY IDOCK:   -7.31 KCAL/MOL
REMARK 923 INTER-LIGAND FREE ENERGY PREDICTED BY IDOCK:   -6.34 KCAL/MOL
REMARK 924 INTRA-LIGAND FREE ENERGY PREDICTED BY IDOCK:   -0.97 KCAL/MOL
REMARK 927      BINDING AFFINITY PREDICTED BY RF-SCORE:    0.00 PKD
ROOT
HETATM    1  C   UNL     1      -8.386  15.526  69.190  1.00  0.00    -0.253 C  
HETATM    2  C   UNL     1      -9.885  15.484  68.892  1.00  0.00    -0.219 C  
HETATM    3  C   UNL     1     -10.153  14.714  67.604  1.00  0.00    -0.228 C  
ENDROOT
BRANCH   2   4
HETATM    4  N   UNL     1     -10.637  14.908  69.999  1.00  0.00    -0.455 N  
HETATM    5  H   UNL     1     -10.430  15.201  70.954  1.00  0.00     0.000 HD 
BRANCH   4   6
HETATM    6  C   UNL     1     -11.619  13.981  69.776  1.00  0.00    -0.281 C  
HETATM    7  O   UNL     1     -12.786  14.263  69.570  1.00  0.00    -0.127 OA 
BRANCH   6   8
HETATM    8  N   UNL     1     -11.176  12.672  69.895  1.00  0.00    -0.477 N  
HETATM    9  H   UNL     1     -10.184  12.491  69.741  1.00  0.00     0.000 HD 
BRANCH   8  10
HETATM   10  S   UNL     1     -12.155  11.372  70.272  1.00  0.00    -0.370 S  
HETATM   11  O   UNL     1     -13.070  11.750  71.326  1.00  0.00    -0.307 OA 
HETATM   12  O   UNL     1     -12.660  10.918  68.990  1.00  0.00    -0.350 OA 
BRANCH  10  13
HETATM   13  C   UNL     1     -11.103  10.103  70.881  1.00  0.00    -0.253 A  
HETATM   14  C   UNL     1      -9.854   9.837  70.305  1.00  0.00    -0.240 A  
HETATM   15  N   UNL     1     -10.839   8.281  72.465  1.00  0.00    -0.355 NA 
HETATM   16  C   UNL     1      -9.160   8.723  70.807  1.00  0.00    -0.233 A  
HETATM   17  C   UNL     1      -9.675   7.989  71.862  1.00  0.00    -0.190 A  
HETATM   18  C   UNL     1     -11.529   9.324  71.950  1.00  0.00    -0.311 A  
BRANCH  14  19
HETATM   19  N   UNL     1      -9.241  10.692  69.357  1.00  0.00    -0.395 NA 
HETATM   20  H   UNL     1      -8.932  11.596  69.717  1.00  0.00     0.000 HD 
BRANCH  19  21
HETATM   21  C   UNL     1      -8.997  10.468  67.982  1.00  0.00    -0.135 A  
HETATM   22  C   UNL     1      -7.408  10.171  66.164  1.00  0.00    -0.115 A  
HETATM   23  C   UNL     1      -7.696  10.219  67.533  1.00  0.00    -0.094 A  
HETATM   24  C   UNL     1      -8.412  10.408  65.223  1.00  0.00    -0.173 A  
HETATM   25  C   UNL     1      -9.720  10.642  65.644  1.00  0.00    -0.283 A  
HETATM   26  C   UNL     1     -10.005  10.615  67.017  1.00  0.00    -0.243 A  
HETATM   27  C   UNL     1     -10.809  11.001  64.678  1.00  0.00    -0.248 C  
ENDBRANCH  19  21
ENDBRANCH  14  19
ENDBRANCH  10  13
ENDBRANCH   8  10
ENDBRANCH   6   8
ENDBRANCH   4   6
ENDBRANCH   2   4
TORSDOF 7
ENDMDL
MODEL      254
REMARK 921   NORMALIZED FREE ENERGY PREDICTED BY IDOCK:   -3.87 KCAL/MOL
REMARK 922        TOTAL FREE ENERGY PREDICTED BY IDOCK:   -7.31 KCAL/MOL
REMARK 923 INTER-LIGAND FREE ENERGY PREDICTED BY IDOCK:   -6.01 KCAL/MOL
REMARK 924 INTRA-LIGAND FREE ENERGY PREDICTED BY IDOCK:   -1.30 KCAL/MOL
REMARK 927      BINDING AFFINITY PREDICTED BY RF-SCORE:    0.00 PKD
ROOT
HETATM    1  C   UNL     1     -11.803  12.712  63.459  1.00  0.00    -0.619 C  
HETATM    2  C   UNL     1     -12.088  14.015  64.208  1.00  0.00    -0.445 C  
HETATM    3  C   UNL     1     -12.905  13.743  65.466  1.00  0.00    -0.464 C  
ENDROOT
BRANCH   2   4
HETATM    4  N   UNL     1     -10.859  14.725  64.538  1.00  0.00    -0.625 N  
HETATM    5  H   UNL     1     -10.004  14.196  64.707  1.00  0.00     0.000 HD 
BRANCH   4   6
HETATM    6  C   UNL     1     -10.837  16.090  64.625  1.00  0.00    -0.179 C  
HETATM    7  O   UNL     1     -11.634  16.820  64.063  1.00  0.00    -1.195 OA 
BRANCH   6   8
HETATM    8  N   UNL     1      -9.760  16.578  65.349  1.00  0.00     0.081 N  
HETATM    9  H   UNL     1      -8.827  16.445  64.960  1.00  0.00     0.000 HD 
BRANCH   8  10
HETATM   10  S   UNL     1      -9.885  17.368  66.816  1.00  0.00    -0.310 S  
HETATM   11  O   UNL     1      -8.565  17.721  67.287  1.00  0.00    -0.227 OA 
HETATM   12  O   UNL     1     -10.882  18.397  66.586  1.00  0.00    -0.271 OA 
BRANCH  10  13
HETATM   13  C   UNL     1     -10.589  16.225  67.951  1.00  0.00    -0.318 A  
HETATM   14  C   UNL     1      -9.920  15.056  68.335  1.00  0.00    -0.225 A  
HETATM   15  N   UNL     1     -12.527  15.641  69.293  1.00  0.00    -0.035 NA 
HETATM   16  C   UNL     1     -10.636  14.167  69.155  1.00  0.00    -0.176 A  
HETATM   17  C   UNL     1     -11.907  14.490  69.601  1.00  0.00    -0.318 A  
HETATM   18  C   UNL     1     -11.856  16.474  68.465  1.00  0.00     0.300 A  
BRANCH  14  19
HETATM   19  N   UNL     1      -8.558  14.810  68.036  1.00  0.00    -0.160 NA 
HETATM   20  H   UNL     1      -8.193  15.296  67.216  1.00  0.00     0.000 HD 
BRANCH  19  21
HETATM   21  C   UNL     1      -7.632  13.984  68.716  1.00  0.00    -0.113 A  
HETATM   22  C   UNL     1      -6.828  11.752  69.254  1.00  0.00    -0.093 A  
HETATM   23  C   UNL     1      -7.608  12.607  68.467  1.00  0.00    -0.121 A  
HETATM   24  C   UNL     1      -6.086  12.256  70.323  1.00  0.00    -0.075 A  
HETATM   25  C   UNL     1      -6.080  13.627  70.581  1.00  0.00    -0.081 A  
HETATM   26  C   UNL     1      -6.810  14.477  69.740  1.00  0.00    -0.126 A  
HETATM   27  C   UNL     1      -5.383  14.203  71.778  1.00  0.00    -0.212 C  
ENDBRANCH  19  21
ENDBRANCH  14  19
ENDBRANCH  10  13
ENDBRANCH   8  10
ENDBRANCH   6   8
ENDBRANCH   4   6
ENDBRANCH   2   4
TORSDOF 7
ENDMDL
MODEL      255
REMARK 921   NORMALIZED FREE ENERGY PREDICTED BY IDOCK:   -3.83 KCAL/MOL
REMARK 922        TOTAL FREE ENERGY PREDICTED BY IDOCK:   -7.26 KCAL/MOL
REMARK 923 INTER-LIGAND FREE ENERGY PREDICTED BY IDOCK:   -5.52 KCAL/MOL
REMARK 924 INTRA-LIGAND FREE ENERGY PREDICTED BY IDOCK:   -1.74 KCAL/MOL
REMARK 927      BINDING AFFINITY PREDICTED BY RF-SCORE:    0.00 PKD
ROOT
HETATM    1  C   UNL     1     -13.514  10.551  71.758  1.00  0.00    -0.345 C  
HETATM    2  C   UNL     1     -12.164  10.697  71.055  1.00  0.00    -0.393 C  
HETATM    3  C   UNL     1     -11.308   9.455  71.276  1.00  0.00    -0.436 C  
ENDROOT
BRANCH   2   4
HETATM    4  N   UNL     1     -12.325  10.962  69.631  1.00  0.00    -0.434 N  
HETATM    5  H   UNL     1     -12.684  10.228  69.021  1.00  0.00     0.000 HD 
BRANCH   4   6
HETATM    6  C   UNL     1     -12.001  12.181  69.101  1.00  0.00    -0.255 C  
HETATM    7  O   UNL     1     -11.969  13.215  69.745  1.00  0.00    -0.313 OA 
BRANCH   6   8
HETATM    8  N   UNL     1     -11.795  12.148  67.730  1.00  0.00    -0.317 N  
HETATM    9  H   UNL     1     -12.600  11.960  67.134  1.00  0.00     0.000 HD 
BRANCH   8  10
HETATM   10  S   UNL     1     -10.318  12.394  66.989  1.00  0.00    -0.221 S  
HETATM   11  O   UNL     1     -10.336  11.797  65.672  1.00  0.00    -0.234 OA 
HETATM   12  O   UNL     1     -10.068  13.815  67.148  1.00  0.00    -0.237 OA 
BRANCH  10  13
HETATM   13  C   UNL     1      -9.116  11.556  67.959  1.00  0.00    -0.174 A  
HETATM   14  C   UNL     1      -9.199  10.181  68.215  1.00  0.00    -0.130 A  
HETATM   15  N   UNL     1      -7.117  11.761  69.323  1.00  0.00    -0.075 NA 
HETATM   16  C   UNL     1      -8.244   9.652  69.100  1.00  0.00    -0.120 A  
HETATM   17  C   UNL     1      -7.243  10.457  69.619  1.00  0.00    -0.148 A  
HETATM   18  C   UNL     1      -8.065  12.280  68.510  1.00  0.00    -0.101 A  
BRANCH  14  19
HETATM   19  N   UNL     1     -10.101   9.321  67.542  1.00  0.00    -0.203 NA 
HETATM   20  H   UNL     1     -10.846   9.786  67.023  1.00  0.00     0.000 HD 
BRANCH  19  21
HETATM   21  C   UNL     1     -10.113   7.908  67.490  1.00  0.00    -0.213 A  
HETATM   22  C   UNL     1     -10.579   5.782  68.577  1.00  0.00    -0.299 A  
HETATM   23  C   UNL     1     -10.711   7.174  68.520  1.00  0.00    -0.191 A  
HETATM   24  C   UNL     1      -9.815   5.106  67.623  1.00  0.00    -0.197 A  
HETATM   25  C   UNL     1      -9.223   5.812  66.577  1.00  0.00    -0.150 A  
HETATM   26  C   UNL     1      -9.425   7.197  66.495  1.00  0.00    -0.208 A  
HETATM   27  C   UNL     1      -8.312   5.146  65.589  1.00  0.00    -0.123 C  
ENDBRANCH  19  21
ENDBRANCH  14  19
ENDBRANCH  10  13
ENDBRANCH   8  10
ENDBRANCH   6   8
ENDBRANCH   4   6
ENDBRANCH   2   4
TORSDOF 7
ENDMDL
MODEL      256
REMARK 921   NORMALIZED FREE ENERGY PREDICTED BY IDOCK:   -3.83 KCAL/MOL
REMARK 922        TOTAL FREE ENERGY PREDICTED BY IDOCK:   -7.25 KCAL/MOL
REMARK 923 INTER-LIGAND FREE ENERGY PREDICTED BY IDOCK:   -6.07 KCAL/MOL
REMARK 924 INTRA-LIGAND FREE ENERGY PREDICTED BY IDOCK:   -1.19 KCAL/MOL
REMARK 927      BINDING AFFINITY PREDICTED BY RF-SCORE:    0.00 PKD
ROOT
HETATM    1  C   UNL     1     -11.625  12.227  68.003  1.00  0.00    -0.408 C  
HETATM    2  C   UNL     1     -11.433  13.536  68.767  1.00  0.00    -0.311 C  
HETATM    3  C   UNL     1     -12.278  13.546  70.036  1.00  0.00    -0.381 C  
ENDROOT
BRANCH   2   4
HETATM    4  N   UNL     1     -10.030  13.773  69.084  1.00  0.00    -0.425 N  
HETATM    5  H   UNL     1      -9.781  14.197  69.978  1.00  0.00     0.000 HD 
BRANCH   4   6
HETATM    6  C   UNL     1      -9.042  13.435  68.200  1.00  0.00    -0.207 C  
HETATM    7  O   UNL     1      -9.133  13.575  66.993  1.00  0.00    -0.228 OA 
BRANCH   6   8
HETATM    8  N   UNL     1      -7.948  12.832  68.801  1.00  0.00    -0.326 N  
HETATM    9  H   UNL     1      -7.680  13.154  69.731  1.00  0.00     0.000 HD 
BRANCH   8  10
HETATM   10  S   UNL     1      -7.038  11.614  68.108  1.00  0.00    -0.084 S  
HETATM   11  O   UNL     1      -6.293  12.148  66.990  1.00  0.00    -0.155 OA 
HETATM   12  O   UNL     1      -6.346  11.001  69.226  1.00  0.00    -0.051 OA 
BRANCH  10  13
HETATM   13  C   UNL     1      -8.172  10.419  67.496  1.00  0.00    -0.114 A  
HETATM   14  C   UNL     1      -8.782   9.479  68.337  1.00  0.00    -0.124 A  
HETATM   15  N   UNL     1      -9.260   9.478  65.538  1.00  0.00    -0.217 NA 
HETATM   16  C   UNL     1      -9.577   8.504  67.710  1.00  0.00    -0.185 A  
HETATM   17  C   UNL     1      -9.785   8.538  66.341  1.00  0.00    -0.258 A  
HETATM   18  C   UNL     1      -8.456  10.387  66.136  1.00  0.00    -0.147 A  
BRANCH  14  19
HETATM   19  N   UNL     1      -8.725   9.551  69.750  1.00  0.00    -0.176 NA 
HETATM   20  H   UNL     1      -7.863   9.939  70.135  1.00  0.00     0.000 HD 
BRANCH  19  21
HETATM   21  C   UNL     1      -9.695   9.161  70.701  1.00  0.00    -0.256 A  
HETATM   22  C   UNL     1     -10.377   7.670  72.499  1.00  0.00    -0.310 A  
HETATM   23  C   UNL     1      -9.383   8.196  71.665  1.00  0.00    -0.228 A  
HETATM   24  C   UNL     1     -11.706   8.075  72.357  1.00  0.00    -0.444 A  
HETATM   25  C   UNL     1     -12.040   9.048  71.415  1.00  0.00    -0.392 A  
HETATM   26  C   UNL     1     -11.021   9.617  70.638  1.00  0.00    -0.386 A  
HETATM   27  C   UNL     1     -13.464   9.441  71.156  1.00  0.00    -0.253 C  
ENDBRANCH  19  21
ENDBRANCH  14  19
ENDBRANCH  10  13
ENDBRANCH   8  10
ENDBRANCH   6   8
ENDBRANCH   4   6
ENDBRANCH   2   4
TORSDOF 7
ENDMDL
MODEL      257
REMARK 921   NORMALIZED FREE ENERGY PREDICTED BY IDOCK:   -3.78 KCAL/MOL
REMARK 922        TOTAL FREE ENERGY PREDICTED BY IDOCK:   -7.18 KCAL/MOL
REMARK 923 INTER-LIGAND FREE ENERGY PREDICTED BY IDOCK:   -5.90 KCAL/MOL
REMARK 924 INTRA-LIGAND FREE ENERGY PREDICTED BY IDOCK:   -1.28 KCAL/MOL
REMARK 927      BINDING AFFINITY PREDICTED BY RF-SCORE:    0.00 PKD
ROOT
HETATM    1  C   UNL     1     -12.290  15.090  64.197  1.00  0.00    -0.167 C  
HETATM    2  C   UNL     1     -11.638  13.802  64.701  1.00  0.00    -0.378 C  
HETATM    3  C   UNL     1     -11.997  12.630  63.795  1.00  0.00    -0.588 C  
ENDROOT
BRANCH   2   4
HETATM    4  N   UNL     1     -10.191  13.939  64.812  1.00  0.00    -0.583 N  
HETATM    5  H   UNL     1      -9.606  13.775  63.992  1.00  0.00     0.000 HD 
BRANCH   4   6
HETATM    6  C   UNL     1      -9.606  14.284  66.000  1.00  0.00    -0.243 C  
HETATM    7  O   UNL     1      -9.797  15.345  66.568  1.00  0.00    -0.248 OA 
BRANCH   6   8
HETATM    8  N   UNL     1      -8.699  13.343  66.460  1.00  0.00    -0.445 N  
HETATM    9  H   UNL     1      -7.737  13.409  66.129  1.00  0.00     0.000 HD 
BRANCH   8  10
HETATM   10  S   UNL     1      -9.073  12.107  67.521  1.00  0.00    -0.188 S  
HETATM   11  O   UNL     1      -8.113  12.094  68.602  1.00  0.00    -0.127 OA 
HETATM   12  O   UNL     1     -10.487  12.284  67.795  1.00  0.00    -0.203 OA 
BRANCH  10  13
HETATM   13  C   UNL     1      -8.915  10.603  66.625  1.00  0.00    -0.150 A  
HETATM   14  C   UNL     1      -8.382   9.446  67.208  1.00  0.00    -0.125 A  
HETATM   15  N   UNL     1      -9.176   9.487  64.483  1.00  0.00    -0.216 NA 
HETATM   16  C   UNL     1      -8.200   8.344  66.355  1.00  0.00    -0.109 A  
HETATM   17  C   UNL     1      -8.601   8.405  65.031  1.00  0.00    -0.106 A  
HETATM   18  C   UNL     1      -9.307  10.564  65.292  1.00  0.00    -0.213 A  
BRANCH  14  19
HETATM   19  N   UNL     1      -8.145   9.319  68.598  1.00  0.00    -0.104 NA 
HETATM   20  H   UNL     1      -7.221   9.611  68.916  1.00  0.00     0.000 HD 
BRANCH  19  21
HETATM   21  C   UNL     1      -9.013   8.841  69.609  1.00  0.00    -0.145 A  
HETATM   22  C   UNL     1     -11.278   8.421  70.389  1.00  0.00    -0.220 A  
HETATM   23  C   UNL     1     -10.383   8.720  69.356  1.00  0.00    -0.217 A  
HETATM   24  C   UNL     1     -10.820   8.274  71.700  1.00  0.00    -0.320 A  
HETATM   25  C   UNL     1      -9.456   8.373  71.976  1.00  0.00    -0.339 A  
HETATM   26  C   UNL     1      -8.566   8.602  70.917  1.00  0.00    -0.204 A  
HETATM   27  C   UNL     1      -8.928   8.324  73.379  1.00  0.00    -0.260 C  
ENDBRANCH  19  21
ENDBRANCH  14  19
ENDBRANCH  10  13
ENDBRANCH   8  10
ENDBRANCH   6   8
ENDBRANCH   4   6
ENDBRANCH   2   4
TORSDOF 7
ENDMDL
MODEL      258
REMARK 921   NORMALIZED FREE ENERGY PREDICTED BY IDOCK:   -3.78 KCAL/MOL
REMARK 922        TOTAL FREE ENERGY PREDICTED BY IDOCK:   -7.18 KCAL/MOL
REMARK 923 INTER-LIGAND FREE ENERGY PREDICTED BY IDOCK:   -6.65 KCAL/MOL
REMARK 924 INTRA-LIGAND FREE ENERGY PREDICTED BY IDOCK:   -0.53 KCAL/MOL
REMARK 927      BINDING AFFINITY PREDICTED BY RF-SCORE:    0.00 PKD
ROOT
HETATM    1  C   UNL     1     -10.632  18.748  66.363  1.00  0.00    -0.429 C  
HETATM    2  C   UNL     1      -9.941  18.388  67.679  1.00  0.00    -0.338 C  
HETATM    3  C   UNL     1      -9.610  19.646  68.473  1.00  0.00    -0.467 C  
ENDROOT
BRANCH   2   4
HETATM    4  N   UNL     1     -10.749  17.476  68.478  1.00  0.00    -0.295 N  
HETATM    5  H   UNL     1     -11.460  17.852  69.105  1.00  0.00     0.000 HD 
BRANCH   4   6
HETATM    6  C   UNL     1     -10.567  16.122  68.400  1.00  0.00    -0.286 C  
HETATM    7  O   UNL     1      -9.521  15.559  68.673  1.00  0.00    -0.190 OA 
BRANCH   6   8
HETATM    8  N   UNL     1     -11.667  15.447  67.892  1.00  0.00    -0.353 N  
HETATM    9  H   UNL     1     -12.555  15.947  67.856  1.00  0.00     0.000 HD 
BRANCH   8  10
HETATM   10  S   UNL     1     -11.637  13.873  67.334  1.00  0.00    -0.390 S  
HETATM   11  O   UNL     1     -12.676  13.693  66.345  1.00  0.00    -0.300 OA 
HETATM   12  O   UNL     1     -10.247  13.640  66.989  1.00  0.00    -0.246 OA 
BRANCH  10  13
HETATM   13  C   UNL     1     -11.998  12.839  68.709  1.00  0.00    -0.240 A  
HETATM   14  C   UNL     1     -12.060  11.445  68.591  1.00  0.00    -0.145 A  
HETATM   15  N   UNL     1     -12.605  12.738  71.059  1.00  0.00    -0.335 NA 
HETATM   16  C   UNL     1     -12.472  10.739  69.735  1.00  0.00    -0.231 A  
HETATM   17  C   UNL     1     -12.729  11.408  70.920  1.00  0.00    -0.303 A  
HETATM   18  C   UNL     1     -12.254  13.421  69.945  1.00  0.00    -0.271 A  
BRANCH  14  19
HETATM   19  N   UNL     1     -11.619  10.745  67.442  1.00  0.00    -0.489 NA 
HETATM   20  H   UNL     1     -12.239  10.794  66.633  1.00  0.00     0.000 HD 
BRANCH  19  21
HETATM   21  C   UNL     1     -10.439   9.987  67.259  1.00  0.00    -0.254 A  
HETATM   22  C   UNL     1      -8.348   9.128  68.158  1.00  0.00    -0.120 A  
HETATM   23  C   UNL     1      -9.602   9.720  68.348  1.00  0.00    -0.157 A  
HETATM   24  C   UNL     1      -7.897   8.826  66.872  1.00  0.00    -0.101 A  
HETATM   25  C   UNL     1      -8.719   9.066  65.771  1.00  0.00    -0.197 A  
HETATM   26  C   UNL     1     -10.000   9.593  65.985  1.00  0.00    -0.344 A  
HETATM   27  C   UNL     1      -8.240   8.854  64.366  1.00  0.00    -0.164 C  
ENDBRANCH  19  21
ENDBRANCH  14  19
ENDBRANCH  10  13
ENDBRANCH   8  10
ENDBRANCH   6   8
ENDBRANCH   4   6
ENDBRANCH   2   4
TORSDOF 7
ENDMDL
MODEL      259
REMARK 921   NORMALIZED FREE ENERGY PREDICTED BY IDOCK:   -3.78 KCAL/MOL
REMARK 922        TOTAL FREE ENERGY PREDICTED BY IDOCK:   -7.18 KCAL/MOL
REMARK 923 INTER-LIGAND FREE ENERGY PREDICTED BY IDOCK:   -5.67 KCAL/MOL
REMARK 924 INTRA-LIGAND FREE ENERGY PREDICTED BY IDOCK:   -1.50 KCAL/MOL
REMARK 927      BINDING AFFINITY PREDICTED BY RF-SCORE:    0.00 PKD
ROOT
HETATM    1  C   UNL     1     -10.335   6.268  74.402  1.00  0.00    -0.278 C  
HETATM    2  C   UNL     1     -10.399   6.594  72.910  1.00  0.00    -0.213 C  
HETATM    3  C   UNL     1     -11.401   5.686  72.205  1.00  0.00    -0.300 C  
ENDROOT
BRANCH   2   4
HETATM    4  N   UNL     1     -10.727   7.995  72.679  1.00  0.00    -0.334 N  
HETATM    5  H   UNL     1     -11.633   8.355  72.979  1.00  0.00     0.000 HD 
BRANCH   4   6
HETATM    6  C   UNL     1      -9.837   8.835  72.066  1.00  0.00    -0.306 C  
HETATM    7  O   UNL     1      -8.657   8.905  72.359  1.00  0.00    -0.399 OA 
BRANCH   6   8
HETATM    8  N   UNL     1     -10.425   9.670  71.129  1.00  0.00    -0.282 N  
HETATM    9  H   UNL     1     -10.717  10.598  71.436  1.00  0.00     0.000 HD 
BRANCH   8  10
HETATM   10  S   UNL     1     -10.689   9.261  69.530  1.00  0.00    -0.197 S  
HETATM   11  O   UNL     1     -10.911   7.836  69.428  1.00  0.00    -0.207 OA 
HETATM   12  O   UNL     1     -11.705  10.196  69.083  1.00  0.00    -0.108 OA 
BRANCH  10  13
HETATM   13  C   UNL     1      -9.217   9.655  68.655  1.00  0.00    -0.136 A  
HETATM   14  C   UNL     1      -8.860  10.979  68.364  1.00  0.00    -0.151 A  
HETATM   15  N   UNL     1      -7.270   8.799  67.482  1.00  0.00    -0.080 NA 
HETATM   16  C   UNL     1      -7.722  11.156  67.559  1.00  0.00    -0.116 A  
HETATM   17  C   UNL     1      -6.973  10.066  67.149  1.00  0.00    -0.084 A  
HETATM   18  C   UNL     1      -8.392   8.626  68.217  1.00  0.00    -0.127 A  
BRANCH  14  19
HETATM   19  N   UNL     1      -9.512  12.099  68.935  1.00  0.00    -0.406 NA 
HETATM   20  H   UNL     1      -9.511  12.136  69.954  1.00  0.00     0.000 HD 
BRANCH  19  21
HETATM   21  C   UNL     1     -10.163  13.175  68.287  1.00  0.00    -0.250 A  
HETATM   22  C   UNL     1     -11.431  14.009  66.386  1.00  0.00    -0.361 A  
HETATM   23  C   UNL     1     -10.927  12.942  67.139  1.00  0.00    -0.290 A  
HETATM   24  C   UNL     1     -11.148  15.327  66.751  1.00  0.00    -0.278 A  
HETATM   25  C   UNL     1     -10.403  15.586  67.902  1.00  0.00    -0.250 A  
HETATM   26  C   UNL     1      -9.967  14.507  68.683  1.00  0.00    -0.237 A  
HETATM   27  C   UNL     1      -9.988  16.977  68.278  1.00  0.00    -0.285 C  
ENDBRANCH  19  21
ENDBRANCH  14  19
ENDBRANCH  10  13
ENDBRANCH   8  10
ENDBRANCH   6   8
ENDBRANCH   4   6
ENDBRANCH   2   4
TORSDOF 7
ENDMDL
MODEL      260
REMARK 921   NORMALIZED FREE ENERGY PREDICTED BY IDOCK:   -3.77 KCAL/MOL
REMARK 922        TOTAL FREE ENERGY PREDICTED BY IDOCK:   -7.17 KCAL/MOL
REMARK 923 INTER-LIGAND FREE ENERGY PREDICTED BY IDOCK:   -5.66 KCAL/MOL
REMARK 924 INTRA-LIGAND FREE ENERGY PREDICTED BY IDOCK:   -1.51 KCAL/MOL
REMARK 927      BINDING AFFINITY PREDICTED BY RF-SCORE:    0.00 PKD
ROOT
HETATM    1  C   UNL     1     -11.777  15.841  64.238  1.00  0.00    -0.162 C  
HETATM    2  C   UNL     1     -10.654  15.206  65.058  1.00  0.00    -0.413 C  
HETATM    3  C   UNL     1     -10.341  16.054  66.286  1.00  0.00    -0.330 C  
ENDROOT
BRANCH   2   4
HETATM    4  N   UNL     1     -10.979  13.840  65.448  1.00  0.00    -0.300 N  
HETATM    5  H   UNL     1     -11.750  13.672  66.094  1.00  0.00     0.000 HD 
BRANCH   4   6
HETATM    6  C   UNL     1     -10.265  12.780  64.960  1.00  0.00    -0.272 C  
HETATM    7  O   UNL     1     -10.524  12.210  63.915  1.00  0.00    -0.338 OA 
BRANCH   6   8
HETATM    8  N   UNL     1      -9.261  12.352  65.816  1.00  0.00    -0.441 N  
HETATM    9  H   UNL     1      -8.339  12.180  65.417  1.00  0.00     0.000 HD 
BRANCH   8  10
HETATM   10  S   UNL     1      -9.460  12.097  67.455  1.00  0.00    -0.185 S  
HETATM   11  O   UNL     1      -9.461  13.370  68.142  1.00  0.00    -0.208 OA 
HETATM   12  O   UNL     1     -10.607  11.213  67.546  1.00  0.00    -0.197 OA 
BRANCH  10  13
HETATM   13  C   UNL     1      -8.065  11.177  67.999  1.00  0.00    -0.123 A  
HETATM   14  C   UNL     1      -8.056  10.504  69.228  1.00  0.00    -0.148 A  
HETATM   15  N   UNL     1      -5.774  10.514  67.539  1.00  0.00    -0.044 NA 
HETATM   16  C   UNL     1      -6.841   9.903  69.601  1.00  0.00    -0.076 A  
HETATM   17  C   UNL     1      -5.751   9.930  68.748  1.00  0.00    -0.035 A  
HETATM   18  C   UNL     1      -6.928  11.134  67.201  1.00  0.00    -0.112 A  
BRANCH  14  19
HETATM   19  N   UNL     1      -9.217  10.313  70.015  1.00  0.00    -0.384 NA 
HETATM   20  H   UNL     1      -9.750  11.158  70.224  1.00  0.00     0.000 HD 
BRANCH  19  21
HETATM   21  C   UNL     1      -9.742   9.114  70.551  1.00  0.00    -0.236 A  
HETATM   22  C   UNL     1      -9.997   7.609  72.446  1.00  0.00    -0.256 A  
HETATM   23  C   UNL     1      -9.646   8.860  71.923  1.00  0.00    -0.326 A  
HETATM   24  C   UNL     1     -10.416   6.582  71.598  1.00  0.00    -0.241 A  
HETATM   25  C   UNL     1     -10.537   6.816  70.228  1.00  0.00    -0.251 A  
HETATM   26  C   UNL     1     -10.250   8.095  69.731  1.00  0.00    -0.203 A  
HETATM   27  C   UNL     1     -10.884   5.718  69.267  1.00  0.00    -0.374 C  
ENDBRANCH  19  21
ENDBRANCH  14  19
ENDBRANCH  10  13
ENDBRANCH   8  10
ENDBRANCH   6   8
ENDBRANCH   4   6
ENDBRANCH   2   4
TORSDOF 7
ENDMDL
MODEL      261
REMARK 921   NORMALIZED FREE ENERGY PREDICTED BY IDOCK:   -3.76 KCAL/MOL
REMARK 922        TOTAL FREE ENERGY PREDICTED BY IDOCK:   -7.15 KCAL/MOL
REMARK 923 INTER-LIGAND FREE ENERGY PREDICTED BY IDOCK:   -5.60 KCAL/MOL
REMARK 924 INTRA-LIGAND FREE ENERGY PREDICTED BY IDOCK:   -1.56 KCAL/MOL
REMARK 927      BINDING AFFINITY PREDICTED BY RF-SCORE:    0.00 PKD
ROOT
HETATM    1  C   UNL     1      -9.024   1.548  66.279  1.00  0.00    -0.094 C  
HETATM    2  C   UNL     1      -8.992   2.850  67.080  1.00  0.00    -0.159 C  
HETATM    3  C   UNL     1      -7.563   3.362  67.217  1.00  0.00    -0.078 C  
ENDROOT
BRANCH   2   4
HETATM    4  N   UNL     1      -9.847   3.869  66.484  1.00  0.00    -0.376 N  
HETATM    5  H   UNL     1     -10.761   4.061  66.894  1.00  0.00     0.000 HD 
BRANCH   4   6
HETATM    6  C   UNL     1      -9.440   4.572  65.383  1.00  0.00    -0.172 C  
HETATM    7  O   UNL     1      -9.171   4.060  64.311  1.00  0.00    -0.134 OA 
BRANCH   6   8
HETATM    8  N   UNL     1      -9.276   5.927  65.625  1.00  0.00    -0.342 N  
HETATM    9  H   UNL     1      -8.725   6.466  64.957  1.00  0.00     0.000 HD 
BRANCH   8  10
HETATM   10  S   UNL     1      -9.920   6.740  66.935  1.00  0.00    -0.191 S  
HETATM   11  O   UNL     1     -11.338   6.469  67.019  1.00  0.00    -0.342 OA 
HETATM   12  O   UNL     1      -9.041   6.398  68.038  1.00  0.00    -0.116 OA 
BRANCH  10  13
HETATM   13  C   UNL     1      -9.703   8.456  66.626  1.00  0.00    -0.251 A  
HETATM   14  C   UNL     1     -10.427   9.431  67.324  1.00  0.00    -0.264 A  
HETATM   15  N   UNL     1      -8.599  10.144  65.272  1.00  0.00    -0.150 NA 
HETATM   16  C   UNL     1     -10.249  10.761  66.903  1.00  0.00    -0.274 A  
HETATM   17  C   UNL     1      -9.347  11.067  65.898  1.00  0.00    -0.204 A  
HETATM   18  C   UNL     1      -8.806   8.860  65.644  1.00  0.00    -0.191 A  
BRANCH  14  19
HETATM   19  N   UNL     1     -11.205   9.145  68.472  1.00  0.00    -0.396 NA 
HETATM   20  H   UNL     1     -12.215   9.206  68.344  1.00  0.00     0.000 HD 
BRANCH  19  21
HETATM   21  C   UNL     1     -10.776   8.785  69.771  1.00  0.00    -0.218 A  
HETATM   22  C   UNL     1      -9.046   8.814  71.482  1.00  0.00    -0.322 A  
HETATM   23  C   UNL     1      -9.575   9.293  70.277  1.00  0.00    -0.276 A  
HETATM   24  C   UNL     1      -9.695   7.794  72.181  1.00  0.00    -0.240 A  
HETATM   25  C   UNL     1     -10.902   7.283  71.706  1.00  0.00    -0.251 A  
HETATM   26  C   UNL     1     -11.453   7.824  70.536  1.00  0.00    -0.219 A  
HETATM   27  C   UNL     1     -11.582   6.120  72.365  1.00  0.00    -0.338 C  
ENDBRANCH  19  21
ENDBRANCH  14  19
ENDBRANCH  10  13
ENDBRANCH   8  10
ENDBRANCH   6   8
ENDBRANCH   4   6
ENDBRANCH   2   4
TORSDOF 7
ENDMDL
MODEL      262
REMARK 921   NORMALIZED FREE ENERGY PREDICTED BY IDOCK:   -3.76 KCAL/MOL
REMARK 922        TOTAL FREE ENERGY PREDICTED BY IDOCK:   -7.15 KCAL/MOL
REMARK 923 INTER-LIGAND FREE ENERGY PREDICTED BY IDOCK:   -5.98 KCAL/MOL
REMARK 924 INTRA-LIGAND FREE ENERGY PREDICTED BY IDOCK:   -1.17 KCAL/MOL
REMARK 927      BINDING AFFINITY PREDICTED BY RF-SCORE:    0.00 PKD
ROOT
HETATM    1  C   UNL     1     -13.129  10.437  69.949  1.00  0.00     0.390 C  
HETATM    2  C   UNL     1     -11.944  11.104  70.649  1.00  0.00    -0.360 C  
HETATM    3  C   UNL     1     -10.628  10.635  70.040  1.00  0.00    -0.150 C  
ENDROOT
BRANCH   2   4
HETATM    4  N   UNL     1     -12.041  12.557  70.602  1.00  0.00    -0.498 N  
HETATM    5  H   UNL     1     -12.534  13.052  71.346  1.00  0.00     0.000 HD 
BRANCH   4   6
HETATM    6  C   UNL     1     -11.480  13.268  69.576  1.00  0.00    -0.234 C  
HETATM    7  O   UNL     1     -10.569  14.064  69.719  1.00  0.00     0.077 OA 
BRANCH   6   8
HETATM    8  N   UNL     1     -12.107  13.062  68.357  1.00  0.00    -0.247 N  
HETATM    9  H   UNL     1     -13.113  13.225  68.307  1.00  0.00     0.000 HD 
BRANCH   8  10
HETATM   10  S   UNL     1     -11.330  12.566  66.964  1.00  0.00    -0.349 S  
HETATM   11  O   UNL     1      -9.930  12.344  67.248  1.00  0.00    -0.204 OA 
HETATM   12  O   UNL     1     -12.156  11.486  66.456  1.00  0.00    -0.252 OA 
BRANCH  10  13
HETATM   13  C   UNL     1     -11.458  13.887  65.812  1.00  0.00    -0.321 A  
HETATM   14  C   UNL     1     -10.837  15.124  66.033  1.00  0.00    -0.335 A  
HETATM   15  N   UNL     1     -12.440  14.672  63.734  1.00  0.00    -0.742 NA 
HETATM   16  C   UNL     1     -11.111  16.135  65.097  1.00  0.00    -0.256 A  
HETATM   17  C   UNL     1     -11.899  15.874  63.988  1.00  0.00     0.181 A  
HETATM   18  C   UNL     1     -12.215  13.712  64.660  1.00  0.00    -0.409 A  
BRANCH  14  19
HETATM   19  N   UNL     1      -9.885  15.340  67.058  1.00  0.00    -0.227 NA 
HETATM   20  H   UNL     1      -9.389  14.509  67.379  1.00  0.00     0.000 HD 
BRANCH  19  21
HETATM   21  C   UNL     1      -9.526  16.549  67.700  1.00  0.00    -0.225 A  
HETATM   22  C   UNL     1     -10.202  18.642  68.740  1.00  0.00    -0.316 A  
HETATM   23  C   UNL     1     -10.515  17.365  68.260  1.00  0.00    -0.385 A  
HETATM   24  C   UNL     1      -8.901  19.137  68.633  1.00  0.00    -0.404 A  
HETATM   25  C   UNL     1      -7.894  18.338  68.093  1.00  0.00    -0.299 A  
HETATM   26  C   UNL     1      -8.210  17.035  67.684  1.00  0.00    -0.193 A  
HETATM   27  C   UNL     1      -6.507  18.861  67.864  1.00  0.00    -0.227 C  
ENDBRANCH  19  21
ENDBRANCH  14  19
ENDBRANCH  10  13
ENDBRANCH   8  10
ENDBRANCH   6   8
ENDBRANCH   4   6
ENDBRANCH   2   4
TORSDOF 7
ENDMDL
MODEL      263
REMARK 921   NORMALIZED FREE ENERGY PREDICTED BY IDOCK:   -3.75 KCAL/MOL
REMARK 922        TOTAL FREE ENERGY PREDICTED BY IDOCK:   -7.13 KCAL/MOL
REMARK 923 INTER-LIGAND FREE ENERGY PREDICTED BY IDOCK:   -6.18 KCAL/MOL
REMARK 924 INTRA-LIGAND FREE ENERGY PREDICTED BY IDOCK:   -0.96 KCAL/MOL
REMARK 927      BINDING AFFINITY PREDICTED BY RF-SCORE:    0.00 PKD
ROOT
HETATM    1  C   UNL     1      -6.971   5.598  74.069  1.00  0.00    -0.082 C  
HETATM    2  C   UNL     1      -7.476   6.651  73.082  1.00  0.00    -0.088 C  
HETATM    3  C   UNL     1      -6.694   6.582  71.776  1.00  0.00    -0.063 C  
ENDROOT
BRANCH   2   4
HETATM    4  N   UNL     1      -8.905   6.512  72.832  1.00  0.00    -0.123 N  
HETATM    5  H   UNL     1      -9.566   7.087  73.355  1.00  0.00     0.000 HD 
BRANCH   4   6
HETATM    6  C   UNL     1      -9.374   5.620  71.906  1.00  0.00    -0.144 C  
HETATM    7  O   UNL     1      -8.826   4.564  71.641  1.00  0.00    -0.116 OA 
BRANCH   6   8
HETATM    8  N   UNL     1     -10.495   6.071  71.226  1.00  0.00    -0.222 N  
HETATM    9  H   UNL     1     -11.356   5.532  71.319  1.00  0.00     0.000 HD 
BRANCH   8  10
HETATM   10  S   UNL     1     -10.533   7.437  70.265  1.00  0.00    -0.225 S  
HETATM   11  O   UNL     1      -9.265   8.124  70.357  1.00  0.00    -0.149 OA 
HETATM   12  O   UNL     1     -11.020   6.962  68.984  1.00  0.00    -0.225 OA 
BRANCH  10  13
HETATM   13  C   UNL     1     -11.779   8.487  70.924  1.00  0.00    -0.245 A  
HETATM   14  C   UNL     1     -11.685   9.883  70.851  1.00  0.00    -0.364 A  
HETATM   15  N   UNL     1     -13.868   8.621  72.156  1.00  0.00    -0.419 NA 
HETATM   16  C   UNL     1     -12.686  10.611  71.517  1.00  0.00    -0.549 A  
HETATM   17  C   UNL     1     -13.735   9.957  72.142  1.00  0.00    -0.206 A  
HETATM   18  C   UNL     1     -12.879   7.920  71.556  1.00  0.00    -0.317 A  
BRANCH  14  19
HETATM   19  N   UNL     1     -10.724  10.554  70.058  1.00  0.00    -0.420 NA 
HETATM   20  H   UNL     1      -9.838  10.758  70.521  1.00  0.00     0.000 HD 
BRANCH  19  21
HETATM   21  C   UNL     1     -10.820  10.981  68.713  1.00  0.00    -0.210 A  
HETATM   22  C   UNL     1     -10.059  10.812  66.408  1.00  0.00    -0.278 A  
HETATM   23  C   UNL     1     -10.119  10.302  67.711  1.00  0.00    -0.213 A  
HETATM   24  C   UNL     1     -10.671  12.028  66.097  1.00  0.00    -0.312 A  
HETATM   25  C   UNL     1     -11.390  12.716  67.074  1.00  0.00    -0.377 A  
HETATM   26  C   UNL     1     -11.500  12.155  68.355  1.00  0.00    -0.356 A  
HETATM   27  C   UNL     1     -11.977  14.072  66.816  1.00  0.00    -0.473 C  
ENDBRANCH  19  21
ENDBRANCH  14  19
ENDBRANCH  10  13
ENDBRANCH   8  10
ENDBRANCH   6   8
ENDBRANCH   4   6
ENDBRANCH   2   4
TORSDOF 7
ENDMDL
MODEL      264
REMARK 921   NORMALIZED FREE ENERGY PREDICTED BY IDOCK:   -3.68 KCAL/MOL
REMARK 922        TOTAL FREE ENERGY PREDICTED BY IDOCK:   -7.04 KCAL/MOL
REMARK 923 INTER-LIGAND FREE ENERGY PREDICTED BY IDOCK:   -6.05 KCAL/MOL
REMARK 924 INTRA-LIGAND FREE ENERGY PREDICTED BY IDOCK:   -0.99 KCAL/MOL
REMARK 927      BINDING AFFINITY PREDICTED BY RF-SCORE:    0.00 PKD
ROOT
HETATM    1  C   UNL     1      -7.046  15.840  69.489  1.00  0.00    -0.190 C  
HETATM    2  C   UNL     1      -7.563  16.736  68.363  1.00  0.00    -0.205 C  
HETATM    3  C   UNL     1      -7.443  16.030  67.018  1.00  0.00    -0.264 C  
ENDROOT
BRANCH   2   4
HETATM    4  N   UNL     1      -8.937  17.159  68.600  1.00  0.00    -0.270 N  
HETATM    5  H   UNL     1      -9.132  17.855  69.319  1.00  0.00     0.000 HD 
BRANCH   4   6
HETATM    6  C   UNL     1      -9.970  16.635  67.871  1.00  0.00    -0.254 C  
HETATM    7  O   UNL     1     -10.644  17.279  67.087  1.00  0.00    -0.324 OA 
BRANCH   6   8
HETATM    8  N   UNL     1     -10.240  15.309  68.174  1.00  0.00    -0.228 N  
HETATM    9  H   UNL     1      -9.458  14.655  68.181  1.00  0.00     0.000 HD 
BRANCH   8  10
HETATM   10  S   UNL     1     -11.759  14.709  68.527  1.00  0.00    -0.304 S  
HETATM   11  O   UNL     1     -12.359  15.506  69.573  1.00  0.00    -0.292 OA 
HETATM   12  O   UNL     1     -12.407  14.586  67.234  1.00  0.00    -0.276 OA 
BRANCH  10  13
HETATM   13  C   UNL     1     -11.532  13.077  69.137  1.00  0.00    -0.299 A  
HETATM   14  C   UNL     1     -10.702  12.153  68.488  1.00  0.00    -0.232 A  
HETATM   15  N   UNL     1     -12.167  11.436  70.812  1.00  0.00    -0.383 NA 
HETATM   16  C   UNL     1     -10.695  10.848  69.009  1.00  0.00    -0.262 A  
HETATM   17  C   UNL     1     -11.425  10.538  70.144  1.00  0.00    -0.325 A  
HETATM   18  C   UNL     1     -12.211  12.681  70.283  1.00  0.00    -0.271 A  
BRANCH  14  19
HETATM   19  N   UNL     1      -9.813  12.510  67.445  1.00  0.00    -0.199 NA 
HETATM   20  H   UNL     1      -9.478  13.473  67.464  1.00  0.00     0.000 HD 
BRANCH  19  21
HETATM   21  C   UNL     1      -9.326  11.716  66.381  1.00  0.00    -0.213 A  
HETATM   22  C   UNL     1      -9.769  10.414  64.373  1.00  0.00    -0.396 A  
HETATM   23  C   UNL     1     -10.181  11.341  65.339  1.00  0.00    -0.323 A  
HETATM   24  C   UNL     1      -8.507   9.823  64.456  1.00  0.00    -0.182 A  
HETATM   25  C   UNL     1      -7.630  10.193  65.475  1.00  0.00    -0.146 A  
HETATM   26  C   UNL     1      -8.032  11.174  66.392  1.00  0.00    -0.147 A  
HETATM   27  C   UNL     1      -6.307   9.512  65.665  1.00  0.00    -0.070 C  
ENDBRANCH  19  21
ENDBRANCH  14  19
ENDBRANCH  10  13
ENDBRANCH   8  10
ENDBRANCH   6   8
ENDBRANCH   4   6
ENDBRANCH   2   4
TORSDOF 7
ENDMDL
MODEL      265
REMARK 921   NORMALIZED FREE ENERGY PREDICTED BY IDOCK:   -3.68 KCAL/MOL
REMARK 922        TOTAL FREE ENERGY PREDICTED BY IDOCK:   -7.04 KCAL/MOL
REMARK 923 INTER-LIGAND FREE ENERGY PREDICTED BY IDOCK:   -6.60 KCAL/MOL
REMARK 924 INTRA-LIGAND FREE ENERGY PREDICTED BY IDOCK:   -0.44 KCAL/MOL
REMARK 927      BINDING AFFINITY PREDICTED BY RF-SCORE:    0.00 PKD
ROOT
HETATM    1  C   UNL     1     -12.837  13.400  71.171  1.00  0.00    -0.372 C  
HETATM    2  C   UNL     1     -12.609  14.900  70.988  1.00  0.00    -0.336 C  
HETATM    3  C   UNL     1     -13.095  15.671  72.210  1.00  0.00    -0.538 C  
ENDROOT
BRANCH   2   4
HETATM    4  N   UNL     1     -11.209  15.202  70.715  1.00  0.00    -0.413 N  
HETATM    5  H   UNL     1     -10.515  15.076  71.452  1.00  0.00     0.000 HD 
BRANCH   4   6
HETATM    6  C   UNL     1     -10.813  15.651  69.485  1.00  0.00    -0.271 C  
HETATM    7  O   UNL     1     -11.358  16.562  68.886  1.00  0.00    -0.300 OA 
BRANCH   6   8
HETATM    8  N   UNL     1      -9.777  14.911  68.936  1.00  0.00    -0.219 N  
HETATM    9  H   UNL     1      -9.252  14.296  69.557  1.00  0.00     0.000 HD 
BRANCH   8  10
HETATM   10  S   UNL     1      -9.330  14.956  67.327  1.00  0.00    -0.211 S  
HETATM   11  O   UNL     1      -9.337  16.326  66.864  1.00  0.00    -0.211 OA 
HETATM   12  O   UNL     1      -8.113  14.168  67.269  1.00  0.00    -0.187 OA 
BRANCH  10  13
HETATM   13  C   UNL     1     -10.554  14.065  66.434  1.00  0.00    -0.280 A  
HETATM   14  C   UNL     1     -10.448  12.687  66.207  1.00  0.00    -0.251 A  
HETATM   15  N   UNL     1     -12.619  14.187  65.160  1.00  0.00    -0.602 NA 
HETATM   16  C   UNL     1     -11.430  12.113  65.381  1.00  0.00    -0.387 A  
HETATM   17  C   UNL     1     -12.473  12.880  64.890  1.00  0.00    -0.478 A  
HETATM   18  C   UNL     1     -11.647  14.749  65.916  1.00  0.00    -0.286 A  
BRANCH  14  19
HETATM   19  N   UNL     1      -9.494  11.866  66.857  1.00  0.00    -0.195 NA 
HETATM   20  H   UNL     1      -9.148  12.219  67.750  1.00  0.00     0.000 HD 
BRANCH  19  21
HETATM   21  C   UNL     1      -8.955  10.627  66.441  1.00  0.00    -0.162 A  
HETATM   22  C   UNL     1      -8.470   9.057  64.646  1.00  0.00    -0.194 A  
HETATM   23  C   UNL     1      -8.832  10.339  65.077  1.00  0.00    -0.209 A  
HETATM   24  C   UNL     1      -8.259   8.034  65.573  1.00  0.00    -0.138 A  
HETATM   25  C   UNL     1      -8.358   8.300  66.938  1.00  0.00    -0.114 A  
HETATM   26  C   UNL     1      -8.652   9.605  67.354  1.00  0.00    -0.125 A  
HETATM   27  C   UNL     1      -8.242   7.213  67.965  1.00  0.00    -0.120 C  
ENDBRANCH  19  21
ENDBRANCH  14  19
ENDBRANCH  10  13
ENDBRANCH   8  10
ENDBRANCH   6   8
ENDBRANCH   4   6
ENDBRANCH   2   4
TORSDOF 7
ENDMDL
MODEL      266
REMARK 921   NORMALIZED FREE ENERGY PREDICTED BY IDOCK:   -3.68 KCAL/MOL
REMARK 922        TOTAL FREE ENERGY PREDICTED BY IDOCK:   -7.04 KCAL/MOL
REMARK 923 INTER-LIGAND FREE ENERGY PREDICTED BY IDOCK:   -5.70 KCAL/MOL
REMARK 924 INTRA-LIGAND FREE ENERGY PREDICTED BY IDOCK:   -1.34 KCAL/MOL
REMARK 927      BINDING AFFINITY PREDICTED BY RF-SCORE:    0.00 PKD
ROOT
HETATM    1  C   UNL     1      -8.176  12.077  66.474  1.00  0.00     0.013 C  
HETATM    2  C   UNL     1      -7.267  11.342  67.460  1.00  0.00    -0.100 C  
HETATM    3  C   UNL     1      -7.610  11.726  68.895  1.00  0.00    -0.063 C  
ENDROOT
BRANCH   2   4
HETATM    4  N   UNL     1      -7.342   9.897  67.285  1.00  0.00    -0.087 N  
HETATM    5  H   UNL     1      -6.788   9.289  67.888  1.00  0.00     0.000 HD 
BRANCH   4   6
HETATM    6  C   UNL     1      -8.142   9.345  66.323  1.00  0.00    -0.111 C  
HETATM    7  O   UNL     1      -7.778   9.121  65.182  1.00  0.00    -0.099 OA 
BRANCH   6   8
HETATM    8  N   UNL     1      -9.447   9.140  66.744  1.00  0.00    -0.163 N  
HETATM    9  H   UNL     1     -10.154   9.810  66.443  1.00  0.00     0.000 HD 
BRANCH   8  10
HETATM   10  S   UNL     1      -9.942   7.869  67.710  1.00  0.00    -0.185 S  
HETATM   11  O   UNL     1     -10.991   7.136  67.039  1.00  0.00    -0.369 OA 
HETATM   12  O   UNL     1      -8.709   7.206  68.090  1.00  0.00    -0.128 OA 
BRANCH  10  13
HETATM   13  C   UNL     1     -10.610   8.575  69.175  1.00  0.00    -0.173 A  
HETATM   14  C   UNL     1     -11.266   9.813  69.167  1.00  0.00    -0.061 A  
HETATM   15  N   UNL     1     -10.877   8.369  71.580  1.00  0.00    -0.243 NA 
HETATM   16  C   UNL     1     -11.651  10.323  70.419  1.00  0.00    -0.411 A  
HETATM   17  C   UNL     1     -11.443   9.587  71.573  1.00  0.00    -0.395 A  
HETATM   18  C   UNL     1     -10.464   7.900  70.380  1.00  0.00    -0.218 A  
BRANCH  14  19
HETATM   19  N   UNL     1     -11.648  10.480  67.977  1.00  0.00    -0.716 NA 
HETATM   20  H   UNL     1     -11.975   9.877  67.222  1.00  0.00     0.000 HD 
BRANCH  19  21
HETATM   21  C   UNL     1     -11.638  11.865  67.691  1.00  0.00    -0.312 A  
HETATM   22  C   UNL     1     -11.811  13.661  66.059  1.00  0.00    -0.415 A  
HETATM   23  C   UNL     1     -11.984  12.318  66.413  1.00  0.00    -0.286 A  
HETATM   24  C   UNL     1     -11.255  14.565  66.967  1.00  0.00    -0.342 A  
HETATM   25  C   UNL     1     -10.918  14.142  68.252  1.00  0.00    -0.266 A  
HETATM   26  C   UNL     1     -11.164  12.810  68.613  1.00  0.00    -0.322 A  
HETATM   27  C   UNL     1     -10.225  15.048  69.226  1.00  0.00    -0.244 C  
ENDBRANCH  19  21
ENDBRANCH  14  19
ENDBRANCH  10  13
ENDBRANCH   8  10
ENDBRANCH   6   8
ENDBRANCH   4   6
ENDBRANCH   2   4
TORSDOF 7
ENDMDL
MODEL      267
REMARK 921   NORMALIZED FREE ENERGY PREDICTED BY IDOCK:   -3.67 KCAL/MOL
REMARK 922        TOTAL FREE ENERGY PREDICTED BY IDOCK:   -7.03 KCAL/MOL
REMARK 923 INTER-LIGAND FREE ENERGY PREDICTED BY IDOCK:   -6.29 KCAL/MOL
REMARK 924 INTRA-LIGAND FREE ENERGY PREDICTED BY IDOCK:   -0.74 KCAL/MOL
REMARK 927      BINDING AFFINITY PREDICTED BY RF-SCORE:    0.00 PKD
ROOT
HETATM    1  C   UNL     1      -9.046  11.223  62.713  1.00  0.00    -0.327 C  
HETATM    2  C   UNL     1      -9.685  11.120  64.098  1.00  0.00    -0.276 C  
HETATM    3  C   UNL     1     -11.013  11.869  64.134  1.00  0.00    -0.430 C  
ENDROOT
BRANCH   2   4
HETATM    4  N   UNL     1      -9.869   9.733  64.504  1.00  0.00    -0.384 N  
HETATM    5  H   UNL     1     -10.507   9.136  63.978  1.00  0.00     0.000 HD 
BRANCH   4   6
HETATM    6  C   UNL     1      -9.198   9.219  65.580  1.00  0.00    -0.231 C  
HETATM    7  O   UNL     1      -7.984   9.143  65.651  1.00  0.00    -0.103 OA 
BRANCH   6   8
HETATM    8  N   UNL     1     -10.037   8.706  66.558  1.00  0.00    -0.301 N  
HETATM    9  H   UNL     1     -10.810   9.291  66.875  1.00  0.00     0.000 HD 
BRANCH   8  10
HETATM   10  S   UNL     1      -9.870   7.195  67.252  1.00  0.00    -0.184 S  
HETATM   11  O   UNL     1     -11.178   6.632  67.498  1.00  0.00    -0.319 OA 
HETATM   12  O   UNL     1      -8.924   6.508  66.392  1.00  0.00    -0.140 OA 
BRANCH  10  13
HETATM   13  C   UNL     1      -9.069   7.432  68.798  1.00  0.00    -0.131 A  
HETATM   14  C   UNL     1      -9.073   8.672  69.451  1.00  0.00    -0.149 A  
HETATM   15  N   UNL     1      -7.686   6.444  70.533  1.00  0.00    -0.103 NA 
HETATM   16  C   UNL     1      -8.300   8.763  70.622  1.00  0.00    -0.173 A  
HETATM   17  C   UNL     1      -7.638   7.652  71.116  1.00  0.00    -0.080 A  
HETATM   18  C   UNL     1      -8.391   6.368  69.381  1.00  0.00    -0.122 A  
BRANCH  14  19
HETATM   19  N   UNL     1      -9.896   9.754  69.054  1.00  0.00    -0.173 NA 
HETATM   20  H   UNL     1      -9.655  10.183  68.161  1.00  0.00     0.000 HD 
BRANCH  19  21
HETATM   21  C   UNL     1     -11.005  10.321  69.724  1.00  0.00    -0.289 A  
HETATM   22  C   UNL     1     -12.229  12.302  70.430  1.00  0.00    -0.371 A  
HETATM   23  C   UNL     1     -11.247  11.696  69.636  1.00  0.00    -0.249 A  
HETATM   24  C   UNL     1     -12.959  11.547  71.349  1.00  0.00    -0.450 A  
HETATM   25  C   UNL     1     -12.749  10.171  71.443  1.00  0.00    -0.530 A  
HETATM   26  C   UNL     1     -11.812   9.569  70.591  1.00  0.00    -0.301 A  
HETATM   27  C   UNL     1     -13.434   9.336  72.484  1.00  0.00    -0.471 C  
ENDBRANCH  19  21
ENDBRANCH  14  19
ENDBRANCH  10  13
ENDBRANCH   8  10
ENDBRANCH   6   8
ENDBRANCH   4   6
ENDBRANCH   2   4
TORSDOF 7
ENDMDL
MODEL      268
REMARK 921   NORMALIZED FREE ENERGY PREDICTED BY IDOCK:   -3.66 KCAL/MOL
REMARK 922        TOTAL FREE ENERGY PREDICTED BY IDOCK:   -7.01 KCAL/MOL
REMARK 923 INTER-LIGAND FREE ENERGY PREDICTED BY IDOCK:   -5.59 KCAL/MOL
REMARK 924 INTRA-LIGAND FREE ENERGY PREDICTED BY IDOCK:   -1.42 KCAL/MOL
REMARK 927      BINDING AFFINITY PREDICTED BY RF-SCORE:    0.00 PKD
ROOT
HETATM    1  C   UNL     1      -8.692   9.300  64.596  1.00  0.00    -0.223 C  
HETATM    2  C   UNL     1      -8.709   8.177  65.633  1.00  0.00    -0.145 C  
HETATM    3  C   UNL     1      -7.330   8.004  66.261  1.00  0.00    -0.078 C  
ENDROOT
BRANCH   2   4
HETATM    4  N   UNL     1      -9.714   8.410  66.662  1.00  0.00    -0.229 N  
HETATM    5  H   UNL     1      -9.968   9.367  66.909  1.00  0.00     0.000 HD 
BRANCH   4   6
HETATM    6  C   UNL     1     -10.323   7.364  67.302  1.00  0.00    -0.286 C  
HETATM    7  O   UNL     1     -11.170   6.654  66.788  1.00  0.00    -0.333 OA 
BRANCH   6   8
HETATM    8  N   UNL     1      -9.949   7.239  68.630  1.00  0.00    -0.161 N  
HETATM    9  H   UNL     1      -9.860   8.092  69.181  1.00  0.00     0.000 HD 
BRANCH   8  10
HETATM   10  S   UNL     1      -9.633   5.785  69.392  1.00  0.00    -0.147 S  
HETATM   11  O   UNL     1     -10.878   5.095  69.644  1.00  0.00    -0.122 OA 
HETATM   12  O   UNL     1      -8.603   5.168  68.576  1.00  0.00    -0.095 OA 
BRANCH  10  13
HETATM   13  C   UNL     1      -8.891   6.172  70.937  1.00  0.00    -0.136 A  
HETATM   14  C   UNL     1      -9.571   6.899  71.923  1.00  0.00    -0.154 A  
HETATM   15  N   UNL     1      -6.887   6.058  72.304  1.00  0.00    -0.072 NA 
HETATM   16  C   UNL     1      -8.831   7.244  73.067  1.00  0.00    -0.165 A  
HETATM   17  C   UNL     1      -7.523   6.813  73.214  1.00  0.00    -0.082 A  
HETATM   18  C   UNL     1      -7.585   5.766  71.183  1.00  0.00    -0.099 A  
BRANCH  14  19
HETATM   19  N   UNL     1     -10.958   7.178  71.861  1.00  0.00    -0.228 NA 
HETATM   20  H   UNL     1     -11.571   6.363  71.864  1.00  0.00     0.000 HD 
BRANCH  19  21
HETATM   21  C   UNL     1     -11.612   8.431  71.794  1.00  0.00    -0.308 A  
HETATM   22  C   UNL     1     -13.584   9.784  72.240  1.00  0.00    -0.397 A  
HETATM   23  C   UNL     1     -12.839   8.616  72.439  1.00  0.00    -0.413 A  
HETATM   24  C   UNL     1     -13.128  10.771  71.363  1.00  0.00    -0.469 A  
HETATM   25  C   UNL     1     -11.900  10.618  70.721  1.00  0.00    -0.459 A  
HETATM   26  C   UNL     1     -11.134   9.475  70.988  1.00  0.00    -0.433 A  
HETATM   27  C   UNL     1     -11.417  11.600  69.696  1.00  0.00    -0.359 C  
ENDBRANCH  19  21
ENDBRANCH  14  19
ENDBRANCH  10  13
ENDBRANCH   8  10
ENDBRANCH   6   8
ENDBRANCH   4   6
ENDBRANCH   2   4
TORSDOF 7
ENDMDL
MODEL      269
REMARK 921   NORMALIZED FREE ENERGY PREDICTED BY IDOCK:   -3.66 KCAL/MOL
REMARK 922        TOTAL FREE ENERGY PREDICTED BY IDOCK:   -7.00 KCAL/MOL
REMARK 923 INTER-LIGAND FREE ENERGY PREDICTED BY IDOCK:   -5.94 KCAL/MOL
REMARK 924 INTRA-LIGAND FREE ENERGY PREDICTED BY IDOCK:   -1.07 KCAL/MOL
REMARK 927      BINDING AFFINITY PREDICTED BY RF-SCORE:    0.00 PKD
ROOT
HETATM    1  C   UNL     1      -5.974   8.803  72.413  1.00  0.00    -0.074 C  
HETATM    2  C   UNL     1      -7.027   8.011  73.188  1.00  0.00    -0.098 C  
HETATM    3  C   UNL     1      -7.324   8.679  74.525  1.00  0.00    -0.176 C  
ENDROOT
BRANCH   2   4
HETATM    4  N   UNL     1      -8.251   7.843  72.415  1.00  0.00    -0.121 N  
HETATM    5  H   UNL     1      -9.123   8.241  72.764  1.00  0.00     0.000 HD 
BRANCH   4   6
HETATM    6  C   UNL     1      -8.247   7.161  71.229  1.00  0.00    -0.108 C  
HETATM    7  O   UNL     1      -7.526   6.206  70.997  1.00  0.00    -0.081 OA 
BRANCH   6   8
HETATM    8  N   UNL     1      -9.086   7.713  70.274  1.00  0.00    -0.149 N  
HETATM    9  H   UNL     1      -8.680   8.373  69.610  1.00  0.00     0.000 HD 
BRANCH   8  10
HETATM   10  S   UNL     1     -10.716   7.372  70.134  1.00  0.00    -0.244 S  
HETATM   11  O   UNL     1     -11.032   7.098  68.750  1.00  0.00    -0.156 OA 
HETATM   12  O   UNL     1     -10.963   6.372  71.155  1.00  0.00    -0.251 OA 
BRANCH  10  13
HETATM   13  C   UNL     1     -11.582   8.821  70.623  1.00  0.00    -0.205 A  
HETATM   14  C   UNL     1     -11.204  10.095  70.177  1.00  0.00    -0.310 A  
HETATM   15  N   UNL     1     -13.360   9.750  71.992  1.00  0.00    -0.443 NA 
HETATM   16  C   UNL     1     -11.902  11.181  70.731  1.00  0.00    -0.325 A  
HETATM   17  C   UNL     1     -12.948  10.971  71.614  1.00  0.00    -0.456 A  
HETATM   18  C   UNL     1     -12.657   8.706  71.495  1.00  0.00    -0.322 A  
BRANCH  14  19
HETATM   19  N   UNL     1     -10.266  10.305  69.137  1.00  0.00    -0.205 NA 
HETATM   20  H   UNL     1      -9.311  10.008  69.341  1.00  0.00     0.000 HD 
BRANCH  19  21
HETATM   21  C   UNL     1     -10.468  10.868  67.856  1.00  0.00    -0.195 A  
HETATM   22  C   UNL     1     -11.774  12.303  66.388  1.00  0.00    -0.431 A  
HETATM   23  C   UNL     1     -11.437  11.861  67.673  1.00  0.00    -0.387 A  
HETATM   24  C   UNL     1     -11.173  11.733  65.264  1.00  0.00    -0.315 A  
HETATM   25  C   UNL     1     -10.192  10.754  65.421  1.00  0.00    -0.341 A  
HETATM   26  C   UNL     1      -9.815  10.374  66.717  1.00  0.00    -0.242 A  
HETATM   27  C   UNL     1      -9.592  10.041  64.246  1.00  0.00    -0.301 C  
ENDBRANCH  19  21
ENDBRANCH  14  19
ENDBRANCH  10  13
ENDBRANCH   8  10
ENDBRANCH   6   8
ENDBRANCH   4   6
ENDBRANCH   2   4
TORSDOF 7
ENDMDL
MODEL      270
REMARK 921   NORMALIZED FREE ENERGY PREDICTED BY IDOCK:   -3.62 KCAL/MOL
REMARK 922        TOTAL FREE ENERGY PREDICTED BY IDOCK:   -6.96 KCAL/MOL
REMARK 923 INTER-LIGAND FREE ENERGY PREDICTED BY IDOCK:   -6.36 KCAL/MOL
REMARK 924 INTRA-LIGAND FREE ENERGY PREDICTED BY IDOCK:   -0.60 KCAL/MOL
REMARK 927      BINDING AFFINITY PREDICTED BY RF-SCORE:    0.00 PKD
ROOT
HETATM    1  C   UNL     1      -9.690   7.793  66.650  1.00  0.00    -0.292 C  
HETATM    2  C   UNL     1     -10.314   6.423  66.921  1.00  0.00    -0.241 C  
HETATM    3  C   UNL     1      -9.235   5.400  67.258  1.00  0.00    -0.111 C  
ENDROOT
BRANCH   2   4
HETATM    4  N   UNL     1     -11.309   6.487  67.983  1.00  0.00    -0.598 N  
HETATM    5  H   UNL     1     -12.293   6.334  67.759  1.00  0.00     0.000 HD 
BRANCH   4   6
HETATM    6  C   UNL     1     -10.945   6.748  69.275  1.00  0.00    -0.259 C  
HETATM    7  O   UNL     1     -10.358   5.954  69.990  1.00  0.00    -0.203 OA 
BRANCH   6   8
HETATM    8  N   UNL     1     -11.384   7.981  69.733  1.00  0.00    -0.452 N  
HETATM    9  H   UNL     1     -12.322   8.279  69.467  1.00  0.00     0.000 HD 
BRANCH   8  10
HETATM   10  S   UNL     1     -10.483   9.011  70.691  1.00  0.00    -0.252 S  
HETATM   11  O   UNL     1     -11.317  10.104  71.137  1.00  0.00    -0.346 OA 
HETATM   12  O   UNL     1      -9.841   8.137  71.654  1.00  0.00    -0.162 OA 
BRANCH  10  13
HETATM   13  C   UNL     1      -9.210   9.667  69.673  1.00  0.00    -0.211 A  
HETATM   14  C   UNL     1      -9.396  10.828  68.910  1.00  0.00    -0.175 A  
HETATM   15  N   UNL     1      -6.959   9.376  68.809  1.00  0.00    -0.063 NA 
HETATM   16  C   UNL     1      -8.344  11.184  68.049  1.00  0.00    -0.134 A  
HETATM   17  C   UNL     1      -7.170  10.449  68.029  1.00  0.00    -0.084 A  
HETATM   18  C   UNL     1      -7.990   9.005  69.602  1.00  0.00    -0.093 A  
BRANCH  14  19
HETATM   19  N   UNL     1     -10.512  11.685  69.064  1.00  0.00    -0.366 NA 
HETATM   20  H   UNL     1     -11.073  11.529  69.902  1.00  0.00     0.000 HD 
BRANCH  19  21
HETATM   21  C   UNL     1     -10.958  12.727  68.218  1.00  0.00    -0.252 A  
HETATM   22  C   UNL     1     -11.837  13.436  66.063  1.00  0.00    -0.423 A  
HETATM   23  C   UNL     1     -11.552  12.424  66.988  1.00  0.00    -0.434 A  
HETATM   24  C   UNL     1     -11.500  14.762  66.340  1.00  0.00    -0.319 A  
HETATM   25  C   UNL     1     -10.923  15.092  67.567  1.00  0.00    -0.307 A  
HETATM   26  C   UNL     1     -10.710  14.077  68.510  1.00  0.00    -0.266 A  
HETATM   27  C   UNL     1     -10.451  16.483  67.869  1.00  0.00    -0.313 C  
ENDBRANCH  19  21
ENDBRANCH  14  19
ENDBRANCH  10  13
ENDBRANCH   8  10
ENDBRANCH   6   8
ENDBRANCH   4   6
ENDBRANCH   2   4
TORSDOF 7
ENDMDL
MODEL      271
REMARK 921   NORMALIZED FREE ENERGY PREDICTED BY IDOCK:   -3.62 KCAL/MOL
REMARK 922        TOTAL FREE ENERGY PREDICTED BY IDOCK:   -6.95 KCAL/MOL
REMARK 923 INTER-LIGAND FREE ENERGY PREDICTED BY IDOCK:   -6.09 KCAL/MOL
REMARK 924 INTRA-LIGAND FREE ENERGY PREDICTED BY IDOCK:   -0.86 KCAL/MOL
REMARK 927      BINDING AFFINITY PREDICTED BY RF-SCORE:    0.00 PKD
ROOT
HETATM    1  C   UNL     1     -10.286   5.584  69.334  1.00  0.00    -0.348 C  
HETATM    2  C   UNL     1      -8.842   5.270  68.944  1.00  0.00    -0.092 C  
HETATM    3  C   UNL     1      -8.511   5.871  67.582  1.00  0.00    -0.103 C  
ENDROOT
BRANCH   2   4
HETATM    4  N   UNL     1      -7.898   5.736  69.952  1.00  0.00    -0.087 N  
HETATM    5  H   UNL     1      -7.947   5.358  70.898  1.00  0.00     0.000 HD 
BRANCH   4   6
HETATM    6  C   UNL     1      -6.948   6.672  69.648  1.00  0.00    -0.067 C  
HETATM    7  O   UNL     1      -6.008   6.469  68.900  1.00  0.00    -0.020 OA 
BRANCH   6   8
HETATM    8  N   UNL     1      -7.105   7.861  70.344  1.00  0.00    -0.046 N  
HETATM    9  H   UNL     1      -6.531   8.004  71.175  1.00  0.00     0.000 HD 
BRANCH   8  10
HETATM   10  S   UNL     1      -8.169   9.076  69.915  1.00  0.00    -0.137 S  
HETATM   11  O   UNL     1      -7.620  10.355  70.305  1.00  0.00    -0.180 OA 
HETATM   12  O   UNL     1      -8.484   8.804  68.525  1.00  0.00    -0.127 OA 
BRANCH  10  13
HETATM   13  C   UNL     1      -9.645   8.806  70.832  1.00  0.00    -0.221 A  
HETATM   14  C   UNL     1     -10.901   9.182  70.339  1.00  0.00    -0.242 A  
HETATM   15  N   UNL     1     -10.618   8.023  72.915  1.00  0.00    -0.356 NA 
HETATM   16  C   UNL     1     -11.988   9.020  71.215  1.00  0.00    -0.374 A  
HETATM   17  C   UNL     1     -11.808   8.450  72.464  1.00  0.00    -0.358 A  
HETATM   18  C   UNL     1      -9.563   8.223  72.091  1.00  0.00    -0.268 A  
BRANCH  14  19
HETATM   19  N   UNL     1     -11.118   9.589  69.000  1.00  0.00    -0.432 NA 
HETATM   20  H   UNL     1     -11.175   8.834  68.316  1.00  0.00     0.000 HD 
BRANCH  19  21
HETATM   21  C   UNL     1     -11.267  10.896  68.480  1.00  0.00    -0.274 A  
HETATM   22  C   UNL     1     -11.868  13.227  68.829  1.00  0.00    -0.371 A  
HETATM   23  C   UNL     1     -11.543  11.965  69.339  1.00  0.00    -0.388 A  
HETATM   24  C   UNL     1     -11.956  13.430  67.450  1.00  0.00    -0.391 A  
HETATM   25  C   UNL     1     -11.669  12.385  66.572  1.00  0.00    -0.443 A  
HETATM   26  C   UNL     1     -11.276  11.147  67.099  1.00  0.00    -0.320 A  
HETATM   27  C   UNL     1     -11.849  12.526  65.090  1.00  0.00    -0.450 C  
ENDBRANCH  19  21
ENDBRANCH  14  19
ENDBRANCH  10  13
ENDBRANCH   8  10
ENDBRANCH   6   8
ENDBRANCH   4   6
ENDBRANCH   2   4
TORSDOF 7
ENDMDL
MODEL      272
REMARK 921   NORMALIZED FREE ENERGY PREDICTED BY IDOCK:   -3.62 KCAL/MOL
REMARK 922        TOTAL FREE ENERGY PREDICTED BY IDOCK:   -6.95 KCAL/MOL
REMARK 923 INTER-LIGAND FREE ENERGY PREDICTED BY IDOCK:   -6.86 KCAL/MOL
REMARK 924 INTRA-LIGAND FREE ENERGY PREDICTED BY IDOCK:   -0.09 KCAL/MOL
REMARK 927      BINDING AFFINITY PREDICTED BY RF-SCORE:    0.00 PKD
ROOT
HETATM    1  C   UNL     1      -7.182  16.873  67.132  1.00  0.00    -0.215 C  
HETATM    2  C   UNL     1      -6.939  17.015  68.635  1.00  0.00    -0.202 C  
HETATM    3  C   UNL     1      -7.224  18.441  69.091  1.00  0.00    -0.193 C  
ENDROOT
BRANCH   2   4
HETATM    4  N   UNL     1      -7.734  16.064  69.401  1.00  0.00    -0.221 N  
HETATM    5  H   UNL     1      -7.305  15.560  70.177  1.00  0.00     0.000 HD 
BRANCH   4   6
HETATM    6  C   UNL     1      -9.048  15.836  69.093  1.00  0.00    -0.262 C  
HETATM    7  O   UNL     1      -9.899  16.707  69.060  1.00  0.00    -0.256 OA 
BRANCH   6   8
HETATM    8  N   UNL     1      -9.345  14.495  68.906  1.00  0.00    -0.330 N  
HETATM    9  H   UNL     1     -10.132  14.105  69.423  1.00  0.00     0.000 HD 
BRANCH   8  10
HETATM   10  S   UNL     1      -8.501  13.472  67.889  1.00  0.00    -0.193 S  
HETATM   11  O   UNL     1      -8.390  14.078  66.581  1.00  0.00    -0.005 OA 
HETATM   12  O   UNL     1      -7.309  13.122  68.639  1.00  0.00    -0.107 OA 
BRANCH  10  13
HETATM   13  C   UNL     1      -9.455  12.003  67.739  1.00  0.00    -0.190 A  
HETATM   14  C   UNL     1     -10.694  11.857  68.377  1.00  0.00    -0.220 A  
HETATM   15  N   UNL     1      -9.568   9.746  66.849  1.00  0.00    -0.172 NA 
HETATM   16  C   UNL     1     -11.303  10.595  68.276  1.00  0.00    -0.357 A  
HETATM   17  C   UNL     1     -10.721   9.591  67.520  1.00  0.00    -0.245 A  
HETATM   18  C   UNL     1      -8.958  10.946  66.986  1.00  0.00    -0.143 A  
BRANCH  14  19
HETATM   19  N   UNL     1     -11.380  12.933  68.991  1.00  0.00    -0.276 NA 
HETATM   20  H   UNL     1     -11.424  13.794  68.445  1.00  0.00     0.000 HD 
BRANCH  19  21
HETATM   21  C   UNL     1     -12.014  12.980  70.255  1.00  0.00    -0.285 A  
HETATM   22  C   UNL     1     -13.219  11.835  72.031  1.00  0.00    -0.460 A  
HETATM   23  C   UNL     1     -12.436  11.797  70.871  1.00  0.00    -0.416 A  
HETATM   24  C   UNL     1     -13.620  13.057  72.572  1.00  0.00    -0.537 A  
HETATM   25  C   UNL     1     -13.198  14.251  71.987  1.00  0.00    -0.470 A  
HETATM   26  C   UNL     1     -12.356  14.195  70.868  1.00  0.00    -0.438 A  
HETATM   27  C   UNL     1     -13.686  15.584  72.471  1.00  0.00    -0.668 C  
ENDBRANCH  19  21
ENDBRANCH  14  19
ENDBRANCH  10  13
ENDBRANCH   8  10
ENDBRANCH   6   8
ENDBRANCH   4   6
ENDBRANCH   2   4
TORSDOF 7
ENDMDL
MODEL      273
REMARK 921   NORMALIZED FREE ENERGY PREDICTED BY IDOCK:   -3.60 KCAL/MOL
REMARK 922        TOTAL FREE ENERGY PREDICTED BY IDOCK:   -6.93 KCAL/MOL
REMARK 923 INTER-LIGAND FREE ENERGY PREDICTED BY IDOCK:   -5.96 KCAL/MOL
REMARK 924 INTRA-LIGAND FREE ENERGY PREDICTED BY IDOCK:   -0.97 KCAL/MOL
REMARK 927      BINDING AFFINITY PREDICTED BY RF-SCORE:    0.00 PKD
ROOT
HETATM    1  C   UNL     1     -10.248  14.265  65.520  1.00  0.00    -0.379 C  
HETATM    2  C   UNL     1      -9.574  13.627  66.735  1.00  0.00    -0.275 C  
HETATM    3  C   UNL     1     -10.118  14.226  68.027  1.00  0.00    -0.227 C  
ENDROOT
BRANCH   2   4
HETATM    4  N   UNL     1      -9.729  12.178  66.737  1.00  0.00    -0.203 N  
HETATM    5  H   UNL     1      -9.116  11.606  66.156  1.00  0.00     0.000 HD 
BRANCH   4   6
HETATM    6  C   UNL     1     -10.684  11.573  67.507  1.00  0.00    -0.223 C  
HETATM    7  O   UNL     1     -11.877  11.603  67.258  1.00  0.00    -0.609 OA 
BRANCH   6   8
HETATM    8  N   UNL     1     -10.176  10.990  68.657  1.00  0.00    -0.191 N  
HETATM    9  H   UNL     1     -10.544  11.308  69.554  1.00  0.00     0.000 HD 
BRANCH   8  10
HETATM   10  S   UNL     1      -9.002   9.801  68.677  1.00  0.00    -0.133 S  
HETATM   11  O   UNL     1      -7.995  10.104  67.685  1.00  0.00    -0.102 OA 
HETATM   12  O   UNL     1      -8.640   9.676  70.077  1.00  0.00    -0.184 OA 
BRANCH  10  13
HETATM   13  C   UNL     1      -9.792   8.299  68.222  1.00  0.00    -0.172 A  
HETATM   14  C   UNL     1     -10.614   7.595  69.112  1.00  0.00    -0.186 A  
HETATM   15  N   UNL     1     -10.079   6.603  66.507  1.00  0.00    -0.122 NA 
HETATM   16  C   UNL     1     -11.092   6.350  68.669  1.00  0.00    -0.393 A  
HETATM   17  C   UNL     1     -10.808   5.902  67.390  1.00  0.00    -0.248 A  
HETATM   18  C   UNL     1      -9.579   7.779  66.951  1.00  0.00    -0.198 A  
BRANCH  14  19
HETATM   19  N   UNL     1     -11.059   8.133  70.345  1.00  0.00    -0.261 NA 
HETATM   20  H   UNL     1     -11.519   9.041  70.287  1.00  0.00     0.000 HD 
BRANCH  19  21
HETATM   21  C   UNL     1     -10.954   7.585  71.645  1.00  0.00    -0.232 A  
HETATM   22  C   UNL     1      -9.991   7.675  73.877  1.00  0.00    -0.032 A  
HETATM   23  C   UNL     1     -10.258   8.277  72.642  1.00  0.00    -0.368 A  
HETATM   24  C   UNL     1     -10.387   6.359  74.121  1.00  0.00    -0.335 A  
HETATM   25  C   UNL     1     -11.097   5.653  73.150  1.00  0.00    -0.315 A  
HETATM   26  C   UNL     1     -11.417   6.295  71.946  1.00  0.00    -0.360 A  
HETATM   27  C   UNL     1     -11.453   4.207  73.326  1.00  0.00    -0.208 C  
ENDBRANCH  19  21
ENDBRANCH  14  19
ENDBRANCH  10  13
ENDBRANCH   8  10
ENDBRANCH   6   8
ENDBRANCH   4   6
ENDBRANCH   2   4
TORSDOF 7
ENDMDL
MODEL      274
REMARK 921   NORMALIZED FREE ENERGY PREDICTED BY IDOCK:   -3.57 KCAL/MOL
REMARK 922        TOTAL FREE ENERGY PREDICTED BY IDOCK:   -6.88 KCAL/MOL
REMARK 923 INTER-LIGAND FREE ENERGY PREDICTED BY IDOCK:   -5.85 KCAL/MOL
REMARK 924 INTRA-LIGAND FREE ENERGY PREDICTED BY IDOCK:   -1.03 KCAL/MOL
REMARK 927      BINDING AFFINITY PREDICTED BY RF-SCORE:    0.00 PKD
ROOT
HETATM    1  C   UNL     1      -8.600  11.103  62.339  1.00  0.00    -0.307 C  
HETATM    2  C   UNL     1      -9.508  11.049  63.569  1.00  0.00    -0.292 C  
HETATM    3  C   UNL     1     -10.857  11.693  63.269  1.00  0.00    -0.380 C  
ENDROOT
BRANCH   2   4
HETATM    4  N   UNL     1      -9.688   9.683  64.044  1.00  0.00    -0.417 N  
HETATM    5  H   UNL     1      -9.867   8.936  63.372  1.00  0.00     0.000 HD 
BRANCH   4   6
HETATM    6  C   UNL     1      -9.619   9.387  65.378  1.00  0.00    -0.226 C  
HETATM    7  O   UNL     1      -9.026   8.424  65.831  1.00  0.00    -0.172 OA 
BRANCH   6   8
HETATM    8  N   UNL     1     -10.368  10.244  66.171  1.00  0.00    -0.215 N  
HETATM    9  H   UNL     1     -10.965  10.925  65.701  1.00  0.00     0.000 HD 
BRANCH   8  10
HETATM   10  S   UNL     1     -10.361  10.237  67.842  1.00  0.00    -0.212 S  
HETATM   11  O   UNL     1     -11.368  11.151  68.330  1.00  0.00    -0.238 OA 
HETATM   12  O   UNL     1     -10.411   8.830  68.196  1.00  0.00    -0.216 OA 
BRANCH  10  13
HETATM   13  C   UNL     1      -8.785  10.830  68.345  1.00  0.00    -0.142 A  
HETATM   14  C   UNL     1      -8.138  11.874  67.672  1.00  0.00    -0.148 A  
HETATM   15  N   UNL     1      -6.912  10.557  69.867  1.00  0.00    -0.144 NA 
HETATM   16  C   UNL     1      -6.833  12.178  68.098  1.00  0.00    -0.075 A  
HETATM   17  C   UNL     1      -6.271  11.511  69.174  1.00  0.00    -0.071 A  
HETATM   18  C   UNL     1      -8.149  10.232  69.427  1.00  0.00    -0.163 A  
BRANCH  14  19
HETATM   19  N   UNL     1      -8.776  12.681  66.699  1.00  0.00    -0.396 NA 
HETATM   20  H   UNL     1      -8.700  12.352  65.736  1.00  0.00     0.000 HD 
BRANCH  19  21
HETATM   21  C   UNL     1      -9.504  13.881  66.875  1.00  0.00    -0.258 A  
HETATM   22  C   UNL     1     -10.366  15.957  65.945  1.00  0.00    -0.383 A  
HETATM   23  C   UNL     1      -9.806  14.686  65.772  1.00  0.00    -0.359 A  
HETATM   24  C   UNL     1     -10.600  16.457  67.227  1.00  0.00    -0.293 A  
HETATM   25  C   UNL     1     -10.324  15.667  68.344  1.00  0.00    -0.231 A  
HETATM   26  C   UNL     1      -9.830  14.370  68.150  1.00  0.00    -0.223 A  
HETATM   27  C   UNL     1     -10.462  16.197  69.740  1.00  0.00    -0.286 C  
ENDBRANCH  19  21
ENDBRANCH  14  19
ENDBRANCH  10  13
ENDBRANCH   8  10
ENDBRANCH   6   8
ENDBRANCH   4   6
ENDBRANCH   2   4
TORSDOF 7
ENDMDL
MODEL      275
REMARK 921   NORMALIZED FREE ENERGY PREDICTED BY IDOCK:   -3.56 KCAL/MOL
REMARK 922        TOTAL FREE ENERGY PREDICTED BY IDOCK:   -6.88 KCAL/MOL
REMARK 923 INTER-LIGAND FREE ENERGY PREDICTED BY IDOCK:   -5.76 KCAL/MOL
REMARK 924 INTRA-LIGAND FREE ENERGY PREDICTED BY IDOCK:   -1.12 KCAL/MOL
REMARK 927      BINDING AFFINITY PREDICTED BY RF-SCORE:    0.00 PKD
ROOT
HETATM    1  C   UNL     1      -7.889  15.703  69.035  1.00  0.00    -0.204 C  
HETATM    2  C   UNL     1      -7.570  14.405  68.291  1.00  0.00    -0.124 C  
HETATM    3  C   UNL     1      -6.084  14.327  67.960  1.00  0.00    -0.153 C  
ENDROOT
BRANCH   2   4
HETATM    4  N   UNL     1      -7.989  13.234  69.051  1.00  0.00    -0.331 N  
HETATM    5  H   UNL     1      -7.772  13.177  70.046  1.00  0.00     0.000 HD 
BRANCH   4   6
HETATM    6  C   UNL     1      -8.667  12.210  68.448  1.00  0.00    -0.141 C  
HETATM    7  O   UNL     1      -8.327  11.041  68.508  1.00  0.00    -0.134 OA 
BRANCH   6   8
HETATM    8  N   UNL     1      -9.741  12.637  67.682  1.00  0.00    -0.192 N  
HETATM    9  H   UNL     1      -9.609  13.462  67.098  1.00  0.00     0.000 HD 
BRANCH   8  10
HETATM   10  S   UNL     1     -11.236  11.892  67.650  1.00  0.00    -0.299 S  
HETATM   11  O   UNL     1     -12.164  12.710  66.901  1.00  0.00    -0.489 OA 
HETATM   12  O   UNL     1     -10.952  10.532  67.230  1.00  0.00    -0.291 OA 
BRANCH  10  13
HETATM   13  C   UNL     1     -11.796  11.803  69.313  1.00  0.00    -0.326 A  
HETATM   14  C   UNL     1     -11.677  10.631  70.072  1.00  0.00    -0.324 A  
HETATM   15  N   UNL     1     -12.921  12.951  71.134  1.00  0.00    -0.234 NA 
HETATM   16  C   UNL     1     -12.267  10.651  71.348  1.00  0.00    -0.405 A  
HETATM   17  C   UNL     1     -12.865  11.803  71.829  1.00  0.00    -0.298 A  
HETATM   18  C   UNL     1     -12.395  12.917  69.888  1.00  0.00    -0.088 A  
BRANCH  14  19
HETATM   19  N   UNL     1     -10.906   9.516  69.660  1.00  0.00    -0.236 NA 
HETATM   20  H   UNL     1     -10.821   9.390  68.651  1.00  0.00     0.000 HD 
BRANCH  19  21
HETATM   21  C   UNL     1     -10.239   8.553  70.453  1.00  0.00    -0.195 A  
HETATM   22  C   UNL     1      -8.296   7.918  71.772  1.00  0.00    -0.144 A  
HETATM   23  C   UNL     1      -9.064   8.896  71.130  1.00  0.00    -0.315 A  
HETATM   24  C   UNL     1      -8.674   6.575  71.715  1.00  0.00    -0.131 A  
HETATM   25  C   UNL     1      -9.850   6.209  71.061  1.00  0.00    -0.213 A  
HETATM   26  C   UNL     1     -10.644   7.210  70.485  1.00  0.00    -0.243 A  
HETATM   27  C   UNL     1     -10.243   4.772  70.886  1.00  0.00    -0.247 C  
ENDBRANCH  19  21
ENDBRANCH  14  19
ENDBRANCH  10  13
ENDBRANCH   8  10
ENDBRANCH   6   8
ENDBRANCH   4   6
ENDBRANCH   2   4
TORSDOF 7
ENDMDL
MODEL      276
REMARK 921   NORMALIZED FREE ENERGY PREDICTED BY IDOCK:   -3.55 KCAL/MOL
REMARK 922        TOTAL FREE ENERGY PREDICTED BY IDOCK:   -6.86 KCAL/MOL
REMARK 923 INTER-LIGAND FREE ENERGY PREDICTED BY IDOCK:   -5.21 KCAL/MOL
REMARK 924 INTRA-LIGAND FREE ENERGY PREDICTED BY IDOCK:   -1.65 KCAL/MOL
REMARK 927      BINDING AFFINITY PREDICTED BY RF-SCORE:    0.00 PKD
ROOT
HETATM    1  C   UNL     1     -12.160  14.747  66.171  1.00  0.00    -0.100 C  
HETATM    2  C   UNL     1     -10.866  14.780  66.985  1.00  0.00    -0.315 C  
HETATM    3  C   UNL     1     -10.911  15.899  68.019  1.00  0.00    -0.317 C  
ENDROOT
BRANCH   2   4
HETATM    4  N   UNL     1     -10.603  13.499  67.629  1.00  0.00    -0.239 N  
HETATM    5  H   UNL     1     -11.301  13.099  68.256  1.00  0.00     0.000 HD 
BRANCH   4   6
HETATM    6  C   UNL     1      -9.433  12.826  67.404  1.00  0.00    -0.190 C  
HETATM    7  O   UNL     1      -8.590  12.624  68.261  1.00  0.00    -0.178 OA 
BRANCH   6   8
HETATM    8  N   UNL     1      -9.252  12.464  66.078  1.00  0.00    -0.425 N  
HETATM    9  H   UNL     1      -8.397  12.771  65.615  1.00  0.00     0.000 HD 
BRANCH   8  10
HETATM   10  S   UNL     1     -10.338  11.560  65.186  1.00  0.00    -0.292 S  
HETATM   11  O   UNL     1     -11.478  11.230  66.010  1.00  0.00    -0.177 OA 
HETATM   12  O   UNL     1     -10.512  12.316  63.960  1.00  0.00    -0.337 OA 
BRANCH  10  13
HETATM   13  C   UNL     1      -9.519  10.067  64.751  1.00  0.00    -0.304 A  
HETATM   14  C   UNL     1      -9.417   8.992  65.643  1.00  0.00    -0.203 A  
HETATM   15  N   UNL     1      -8.225   8.886  63.069  1.00  0.00    -0.178 NA 
HETATM   16  C   UNL     1      -8.638   7.902  65.219  1.00  0.00    -0.084 A  
HETATM   17  C   UNL     1      -8.073   7.889  63.955  1.00  0.00    -0.082 A  
HETATM   18  C   UNL     1      -8.935   9.956  63.495  1.00  0.00    -0.252 A  
BRANCH  14  19
HETATM   19  N   UNL     1     -10.143   8.921  66.856  1.00  0.00    -0.248 NA 
HETATM   20  H   UNL     1     -11.159   8.899  66.759  1.00  0.00     0.000 HD 
BRANCH  19  21
HETATM   21  C   UNL     1      -9.658   8.876  68.184  1.00  0.00    -0.145 A  
HETATM   22  C   UNL     1     -10.101   8.624  70.563  1.00  0.00    -0.228 A  
HETATM   23  C   UNL     1     -10.510   8.504  69.229  1.00  0.00    -0.224 A  
HETATM   24  C   UNL     1      -8.846   9.151  70.872  1.00  0.00    -0.292 A  
HETATM   25  C   UNL     1      -7.971   9.513  69.848  1.00  0.00    -0.154 A  
HETATM   26  C   UNL     1      -8.369   9.319  68.518  1.00  0.00    -0.119 A  
HETATM   27  C   UNL     1      -6.656  10.176  70.129  1.00  0.00    -0.128 C  
ENDBRANCH  19  21
ENDBRANCH  14  19
ENDBRANCH  10  13
ENDBRANCH   8  10
ENDBRANCH   6   8
ENDBRANCH   4   6
ENDBRANCH   2   4
TORSDOF 7
ENDMDL
MODEL      277
REMARK 921   NORMALIZED FREE ENERGY PREDICTED BY IDOCK:   -3.54 KCAL/MOL
REMARK 922        TOTAL FREE ENERGY PREDICTED BY IDOCK:   -6.84 KCAL/MOL
REMARK 923 INTER-LIGAND FREE ENERGY PREDICTED BY IDOCK:   -5.51 KCAL/MOL
REMARK 924 INTRA-LIGAND FREE ENERGY PREDICTED BY IDOCK:   -1.33 KCAL/MOL
REMARK 927      BINDING AFFINITY PREDICTED BY RF-SCORE:    0.00 PKD
ROOT
HETATM    1  C   UNL     1     -11.960  14.815  64.110  1.00  0.00    -0.282 C  
HETATM    2  C   UNL     1     -11.503  13.551  64.838  1.00  0.00    -0.334 C  
HETATM    3  C   UNL     1     -10.774  12.614  63.881  1.00  0.00    -0.465 C  
ENDROOT
BRANCH   2   4
HETATM    4  N   UNL     1     -10.663  13.865  65.987  1.00  0.00    -0.284 N  
HETATM    5  H   UNL     1      -9.655  13.953  65.862  1.00  0.00     0.000 HD 
BRANCH   4   6
HETATM    6  C   UNL     1     -11.208  14.045  67.229  1.00  0.00    -0.312 C  
HETATM    7  O   UNL     1     -12.384  14.295  67.425  1.00  0.00    -0.311 OA 
BRANCH   6   8
HETATM    8  N   UNL     1     -10.273  14.002  68.251  1.00  0.00    -0.242 N  
HETATM    9  H   UNL     1     -10.151  13.119  68.747  1.00  0.00     0.000 HD 
BRANCH   8  10
HETATM   10  S   UNL     1      -9.330  15.297  68.727  1.00  0.00    -0.221 S  
HETATM   11  O   UNL     1      -9.646  16.447  67.910  1.00  0.00    -0.225 OA 
HETATM   12  O   UNL     1      -9.496  15.352  70.168  1.00  0.00    -0.089 OA 
BRANCH  10  13
HETATM   13  C   UNL     1      -7.659  14.847  68.426  1.00  0.00    -0.113 A  
HETATM   14  C   UNL     1      -6.589  15.649  68.844  1.00  0.00    -0.116 A  
HETATM   15  N   UNL     1      -6.148  13.255  67.384  1.00  0.00    -0.330 NA 
HETATM   16  C   UNL     1      -5.307  15.240  68.441  1.00  0.00    -0.106 A  
HETATM   17  C   UNL     1      -5.134  14.064  67.729  1.00  0.00     0.015 A  
HETATM   18  C   UNL     1      -7.387  13.674  67.732  1.00  0.00    -0.166 A  
BRANCH  14  19
HETATM   19  N   UNL     1      -6.743  16.745  69.727  1.00  0.00    -0.090 NA 
HETATM   20  H   UNL     1      -7.189  16.531  70.619  1.00  0.00     0.000 HD 
BRANCH  19  21
HETATM   21  C   UNL     1      -6.363  18.095  69.545  1.00  0.00    -0.220 A  
HETATM   22  C   UNL     1      -5.306  20.104  70.421  1.00  0.00    -0.299 A  
HETATM   23  C   UNL     1      -5.546  18.727  70.489  1.00  0.00    -0.214 A  
HETATM   24  C   UNL     1      -5.909  20.877  69.427  1.00  0.00    -0.251 A  
HETATM   25  C   UNL     1      -6.713  20.269  68.464  1.00  0.00    -0.305 A  
HETATM   26  C   UNL     1      -6.885  18.879  68.505  1.00  0.00    -0.285 A  
HETATM   27  C   UNL     1      -7.462  21.069  67.440  1.00  0.00    -0.264 C  
ENDBRANCH  19  21
ENDBRANCH  14  19
ENDBRANCH  10  13
ENDBRANCH   8  10
ENDBRANCH   6   8
ENDBRANCH   4   6
ENDBRANCH   2   4
TORSDOF 7
ENDMDL
MODEL      278
REMARK 921   NORMALIZED FREE ENERGY PREDICTED BY IDOCK:   -3.53 KCAL/MOL
REMARK 922        TOTAL FREE ENERGY PREDICTED BY IDOCK:   -6.82 KCAL/MOL
REMARK 923 INTER-LIGAND FREE ENERGY PREDICTED BY IDOCK:   -5.69 KCAL/MOL
REMARK 924 INTRA-LIGAND FREE ENERGY PREDICTED BY IDOCK:   -1.13 KCAL/MOL
REMARK 927      BINDING AFFINITY PREDICTED BY RF-SCORE:    0.00 PKD
ROOT
HETATM    1  C   UNL     1      -9.877   4.936  68.975  1.00  0.00    -0.250 C  
HETATM    2  C   UNL     1      -8.561   5.707  69.085  1.00  0.00    -0.105 C  
HETATM    3  C   UNL     1      -8.774   7.181  68.756  1.00  0.00    -0.124 C  
ENDROOT
BRANCH   2   4
HETATM    4  N   UNL     1      -7.960   5.558  70.404  1.00  0.00    -0.100 N  
HETATM    5  H   UNL     1      -8.074   4.681  70.912  1.00  0.00     0.000 HD 
BRANCH   4   6
HETATM    6  C   UNL     1      -7.244   6.578  70.971  1.00  0.00    -0.078 C  
HETATM    7  O   UNL     1      -6.213   7.026  70.502  1.00  0.00    -0.030 OA 
BRANCH   6   8
HETATM    8  N   UNL     1      -7.758   7.000  72.187  1.00  0.00    -0.091 N  
HETATM    9  H   UNL     1      -7.606   6.404  73.000  1.00  0.00     0.000 HD 
BRANCH   8  10
HETATM   10  S   UNL     1      -8.609   8.421  72.413  1.00  0.00    -0.166 S  
HETATM   11  O   UNL     1      -8.565   8.790  73.810  1.00  0.00    -0.234 OA 
HETATM   12  O   UNL     1      -8.086   9.318  71.400  1.00  0.00    -0.330 OA 
BRANCH  10  13
HETATM   13  C   UNL     1     -10.279   8.086  71.982  1.00  0.00    -0.226 A  
HETATM   14  C   UNL     1     -11.086   9.041  71.349  1.00  0.00    -0.329 A  
HETATM   15  N   UNL     1     -12.113   6.497  72.075  1.00  0.00    -0.331 NA 
HETATM   16  C   UNL     1     -12.435   8.694  71.163  1.00  0.00    -0.210 A  
HETATM   17  C   UNL     1     -12.897   7.442  71.531  1.00  0.00    -0.375 A  
HETATM   18  C   UNL     1     -10.826   6.848  72.297  1.00  0.00    -0.230 A  
BRANCH  14  19
HETATM   19  N   UNL     1     -10.577  10.245  70.803  1.00  0.00    -0.334 NA 
HETATM   20  H   UNL     1      -9.796  10.662  71.311  1.00  0.00     0.000 HD 
BRANCH  19  21
HETATM   21  C   UNL     1     -11.001  10.949  69.652  1.00  0.00    -0.252 A  
HETATM   22  C   UNL     1     -10.999  11.188  67.231  1.00  0.00    -0.354 A  
HETATM   23  C   UNL     1     -10.748  10.427  68.379  1.00  0.00    -0.263 A  
HETATM   24  C   UNL     1     -11.473  12.497  67.341  1.00  0.00    -0.404 A  
HETATM   25  C   UNL     1     -11.749  13.034  68.598  1.00  0.00    -0.359 A  
HETATM   26  C   UNL     1     -11.560  12.234  69.733  1.00  0.00    -0.314 A  
HETATM   27  C   UNL     1     -12.161  14.466  68.772  1.00  0.00    -0.200 C  
ENDBRANCH  19  21
ENDBRANCH  14  19
ENDBRANCH  10  13
ENDBRANCH   8  10
ENDBRANCH   6   8
ENDBRANCH   4   6
ENDBRANCH   2   4
TORSDOF 7
ENDMDL
MODEL      279
REMARK 921   NORMALIZED FREE ENERGY PREDICTED BY IDOCK:   -3.53 KCAL/MOL
REMARK 922        TOTAL FREE ENERGY PREDICTED BY IDOCK:   -6.82 KCAL/MOL
REMARK 923 INTER-LIGAND FREE ENERGY PREDICTED BY IDOCK:   -5.29 KCAL/MOL
REMARK 924 INTRA-LIGAND FREE ENERGY PREDICTED BY IDOCK:   -1.53 KCAL/MOL
REMARK 927      BINDING AFFINITY PREDICTED BY RF-SCORE:    0.00 PKD
ROOT
HETATM    1  C   UNL     1      -8.480   5.387  65.304  1.00  0.00    -0.149 C  
HETATM    2  C   UNL     1      -8.408   4.026  65.995  1.00  0.00    -0.109 C  
HETATM    3  C   UNL     1      -7.240   3.210  65.453  1.00  0.00    -0.067 C  
ENDROOT
BRANCH   2   4
HETATM    4  N   UNL     1      -8.310   4.162  67.442  1.00  0.00    -0.099 N  
HETATM    5  H   UNL     1      -8.683   3.427  68.043  1.00  0.00     0.000 HD 
BRANCH   4   6
HETATM    6  C   UNL     1      -7.724   5.262  68.008  1.00  0.00    -0.084 C  
HETATM    7  O   UNL     1      -6.533   5.509  67.939  1.00  0.00    -0.044 OA 
BRANCH   6   8
HETATM    8  N   UNL     1      -8.605   6.034  68.750  1.00  0.00    -0.112 N  
HETATM    9  H   UNL     1      -8.286   6.950  69.063  1.00  0.00     0.000 HD 
BRANCH   8  10
HETATM   10  S   UNL     1     -10.155   5.567  69.165  1.00  0.00    -0.236 S  
HETATM   11  O   UNL     1     -11.031   5.743  68.029  1.00  0.00    -0.230 OA 
HETATM   12  O   UNL     1      -9.986   4.256  69.766  1.00  0.00    -0.222 OA 
BRANCH  10  13
HETATM   13  C   UNL     1     -10.685   6.647  70.446  1.00  0.00    -0.250 A  
HETATM   14  C   UNL     1     -10.935   8.005  70.212  1.00  0.00    -0.242 A  
HETATM   15  N   UNL     1     -11.178   6.891  72.812  1.00  0.00    -0.260 NA 
HETATM   16  C   UNL     1     -11.239   8.787  71.340  1.00  0.00    -0.362 A  
HETATM   17  C   UNL     1     -11.348   8.205  72.592  1.00  0.00    -0.381 A  
HETATM   18  C   UNL     1     -10.838   6.148  71.734  1.00  0.00    -0.255 A  
BRANCH  14  19
HETATM   19  N   UNL     1     -11.010   8.567  68.914  1.00  0.00    -0.429 NA 
HETATM   20  H   UNL     1     -11.465   7.986  68.210  1.00  0.00     0.000 HD 
BRANCH  19  21
HETATM   21  C   UNL     1     -10.540   9.821  68.458  1.00  0.00    -0.221 A  
HETATM   22  C   UNL     1      -8.868  11.586  68.555  1.00  0.00    -0.139 A  
HETATM   23  C   UNL     1      -9.277  10.279  68.848  1.00  0.00    -0.176 A  
HETATM   24  C   UNL     1      -9.732  12.465  67.898  1.00  0.00    -0.204 A  
HETATM   25  C   UNL     1     -10.989  12.027  67.484  1.00  0.00    -0.303 A  
HETATM   26  C   UNL     1     -11.354  10.695  67.722  1.00  0.00    -0.320 A  
HETATM   27  C   UNL     1     -11.988  12.961  66.868  1.00  0.00    -0.402 C  
ENDBRANCH  19  21
ENDBRANCH  14  19
ENDBRANCH  10  13
ENDBRANCH   8  10
ENDBRANCH   6   8
ENDBRANCH   4   6
ENDBRANCH   2   4
TORSDOF 7
ENDMDL
MODEL      280
REMARK 921   NORMALIZED FREE ENERGY PREDICTED BY IDOCK:   -3.51 KCAL/MOL
REMARK 922        TOTAL FREE ENERGY PREDICTED BY IDOCK:   -6.80 KCAL/MOL
REMARK 923 INTER-LIGAND FREE ENERGY PREDICTED BY IDOCK:   -5.63 KCAL/MOL
REMARK 924 INTRA-LIGAND FREE ENERGY PREDICTED BY IDOCK:   -1.17 KCAL/MOL
REMARK 927      BINDING AFFINITY PREDICTED BY RF-SCORE:    0.00 PKD
ROOT
HETATM    1  C   UNL     1      -8.075  15.873  69.210  1.00  0.00    -0.228 C  
HETATM    2  C   UNL     1      -8.039  14.680  68.255  1.00  0.00    -0.143 C  
HETATM    3  C   UNL     1      -6.612  14.402  67.797  1.00  0.00    -0.189 C  
ENDROOT
BRANCH   2   4
HETATM    4  N   UNL     1      -8.624  13.490  68.859  1.00  0.00    -0.363 N  
HETATM    5  H   UNL     1      -9.015  13.544  69.799  1.00  0.00     0.000 HD 
BRANCH   4   6
HETATM    6  C   UNL     1      -8.657  12.300  68.183  1.00  0.00    -0.181 C  
HETATM    7  O   UNL     1      -7.931  11.355  68.435  1.00  0.00    -0.127 OA 
BRANCH   6   8
HETATM    8  N   UNL     1      -9.540  12.299  67.115  1.00  0.00    -0.196 N  
HETATM    9  H   UNL     1      -9.392  12.984  66.374  1.00  0.00     0.000 HD 
BRANCH   8  10
HETATM   10  S   UNL     1     -10.832  11.251  66.957  1.00  0.00    -0.288 S  
HETATM   11  O   UNL     1     -11.978  11.973  66.452  1.00  0.00    -0.611 OA 
HETATM   12  O   UNL     1     -10.292  10.123  66.220  1.00  0.00    -0.226 OA 
BRANCH  10  13
HETATM   13  C   UNL     1     -11.213  10.667  68.570  1.00  0.00    -0.282 A  
HETATM   14  C   UNL     1     -10.724   9.444  69.049  1.00  0.00    -0.187 A  
HETATM   15  N   UNL     1     -12.457  11.053  70.620  1.00  0.00    -0.361 NA 
HETATM   16  C   UNL     1     -11.195   9.035  70.308  1.00  0.00    -0.232 A  
HETATM   17  C   UNL     1     -12.040   9.849  71.043  1.00  0.00    -0.358 A  
HETATM   18  C   UNL     1     -12.042  11.426  69.387  1.00  0.00    -0.291 A  
BRANCH  14  19
HETATM   19  N   UNL     1      -9.718   8.699  68.387  1.00  0.00    -0.159 NA 
HETATM   20  H   UNL     1      -9.007   9.252  67.907  1.00  0.00     0.000 HD 
BRANCH  19  21
HETATM   21  C   UNL     1      -9.563   7.296  68.297  1.00  0.00    -0.148 A  
HETATM   22  C   UNL     1      -8.328   5.289  68.901  1.00  0.00    -0.092 A  
HETATM   23  C   UNL     1      -8.621   6.643  69.100  1.00  0.00    -0.130 A  
HETATM   24  C   UNL     1      -8.947   4.576  67.873  1.00  0.00    -0.133 A  
HETATM   25  C   UNL     1      -9.902   5.199  67.070  1.00  0.00    -0.197 A  
HETATM   26  C   UNL     1     -10.235   6.536  67.328  1.00  0.00    -0.242 A  
HETATM   27  C   UNL     1     -10.518   4.506  65.891  1.00  0.00    -0.262 C  
ENDBRANCH  19  21
ENDBRANCH  14  19
ENDBRANCH  10  13
ENDBRANCH   8  10
ENDBRANCH   6   8
ENDBRANCH   4   6
ENDBRANCH   2   4
TORSDOF 7
ENDMDL
MODEL      281
REMARK 921   NORMALIZED FREE ENERGY PREDICTED BY IDOCK:   -3.51 KCAL/MOL
REMARK 922        TOTAL FREE ENERGY PREDICTED BY IDOCK:   -6.80 KCAL/MOL
REMARK 923 INTER-LIGAND FREE ENERGY PREDICTED BY IDOCK:   -5.35 KCAL/MOL
REMARK 924 INTRA-LIGAND FREE ENERGY PREDICTED BY IDOCK:   -1.45 KCAL/MOL
REMARK 927      BINDING AFFINITY PREDICTED BY RF-SCORE:    0.00 PKD
ROOT
HETATM    1  C   UNL     1      -5.685  16.836  67.091  1.00  0.00    -0.202 C  
HETATM    2  C   UNL     1      -6.837  17.629  66.474  1.00  0.00    -0.242 C  
HETATM    3  C   UNL     1      -6.328  18.540  65.363  1.00  0.00    -0.306 C  
ENDROOT
BRANCH   2   4
HETATM    4  N   UNL     1      -7.888  16.751  65.975  1.00  0.00    -0.198 N  
HETATM    5  H   UNL     1      -7.636  15.904  65.466  1.00  0.00     0.000 HD 
BRANCH   4   6
HETATM    6  C   UNL     1      -9.209  17.047  66.180  1.00  0.00    -0.210 C  
HETATM    7  O   UNL     1      -9.744  18.070  65.790  1.00  0.00    -0.521 OA 
BRANCH   6   8
HETATM    8  N   UNL     1      -9.869  16.108  66.956  1.00  0.00    -0.240 N  
HETATM    9  H   UNL     1     -10.356  15.351  66.475  1.00  0.00     0.000 HD 
BRANCH   8  10
HETATM   10  S   UNL     1      -9.923  16.128  68.626  1.00  0.00    -0.238 S  
HETATM   11  O   UNL     1      -8.577  16.079  69.151  1.00  0.00    -0.236 OA 
HETATM   12  O   UNL     1     -10.795  17.244  68.944  1.00  0.00    -0.261 OA 
BRANCH  10  13
HETATM   13  C   UNL     1     -10.765  14.669  69.125  1.00  0.00    -0.255 A  
HETATM   14  C   UNL     1     -10.553  13.438  68.490  1.00  0.00    -0.253 A  
HETATM   15  N   UNL     1     -12.440  13.701  70.594  1.00  0.00    -0.354 NA 
HETATM   16  C   UNL     1     -11.372  12.373  68.904  1.00  0.00    -0.342 A  
HETATM   17  C   UNL     1     -12.280  12.543  69.935  1.00  0.00    -0.163 A  
HETATM   18  C   UNL     1     -11.686  14.739  70.164  1.00  0.00    -0.301 A  
BRANCH  14  19
HETATM   19  N   UNL     1      -9.500  13.213  67.570  1.00  0.00    -0.205 NA 
HETATM   20  H   UNL     1      -9.354  13.951  66.881  1.00  0.00     0.000 HD 
BRANCH  19  21
HETATM   21  C   UNL     1      -8.624  12.107  67.474  1.00  0.00    -0.171 A  
HETATM   22  C   UNL     1      -7.862  10.146  66.251  1.00  0.00    -0.113 A  
HETATM   23  C   UNL     1      -8.587  11.342  66.303  1.00  0.00    -0.156 A  
HETATM   24  C   UNL     1      -7.191   9.678  67.383  1.00  0.00    -0.086 A  
HETATM   25  C   UNL     1      -7.198  10.430  68.557  1.00  0.00    -0.084 A  
HETATM   26  C   UNL     1      -7.869  11.660  68.570  1.00  0.00    -0.140 A  
HETATM   27  C   UNL     1      -6.579   9.921  69.825  1.00  0.00    -0.066 C  
ENDBRANCH  19  21
ENDBRANCH  14  19
ENDBRANCH  10  13
ENDBRANCH   8  10
ENDBRANCH   6   8
ENDBRANCH   4   6
ENDBRANCH   2   4
TORSDOF 7
ENDMDL
MODEL      282
REMARK 921   NORMALIZED FREE ENERGY PREDICTED BY IDOCK:   -3.49 KCAL/MOL
REMARK 922        TOTAL FREE ENERGY PREDICTED BY IDOCK:   -6.78 KCAL/MOL
REMARK 923 INTER-LIGAND FREE ENERGY PREDICTED BY IDOCK:   -5.77 KCAL/MOL
REMARK 924 INTRA-LIGAND FREE ENERGY PREDICTED BY IDOCK:   -1.01 KCAL/MOL
REMARK 927      BINDING AFFINITY PREDICTED BY RF-SCORE:    0.00 PKD
ROOT
HETATM    1  C   UNL     1     -12.130  14.566  68.549  1.00  0.00    -0.257 C  
HETATM    2  C   UNL     1     -10.748  14.445  67.908  1.00  0.00    -0.244 C  
HETATM    3  C   UNL     1     -10.146  15.825  67.665  1.00  0.00    -0.247 C  
ENDROOT
BRANCH   2   4
HETATM    4  N   UNL     1      -9.850  13.630  68.716  1.00  0.00    -0.403 N  
HETATM    5  H   UNL     1      -9.710  13.861  69.700  1.00  0.00     0.000 HD 
BRANCH   4   6
HETATM    6  C   UNL     1      -9.191  12.560  68.175  1.00  0.00    -0.209 C  
HETATM    7  O   UNL     1      -8.516  12.619  67.162  1.00  0.00    -0.184 OA 
BRANCH   6   8
HETATM    8  N   UNL     1      -9.436  11.369  68.841  1.00  0.00    -0.383 N  
HETATM    9  H   UNL     1      -8.729  11.038  69.497  1.00  0.00     0.000 HD 
BRANCH   8  10
HETATM   10  S   UNL     1     -10.809  10.438  68.643  1.00  0.00    -0.248 S  
HETATM   11  O   UNL     1     -11.716  11.106  67.737  1.00  0.00    -0.560 OA 
HETATM   12  O   UNL     1     -10.304   9.113  68.332  1.00  0.00    -0.195 OA 
BRANCH  10  13
HETATM   13  C   UNL     1     -11.581  10.330  70.218  1.00  0.00    -0.316 A  
HETATM   14  C   UNL     1     -11.599   9.137  70.953  1.00  0.00    -0.291 A  
HETATM   15  N   UNL     1     -12.894  11.474  71.911  1.00  0.00    -0.347 NA 
HETATM   16  C   UNL     1     -12.348   9.148  72.142  1.00  0.00    -0.424 A  
HETATM   17  C   UNL     1     -12.965  10.310  72.575  1.00  0.00     0.279 A  
HETATM   18  C   UNL     1     -12.213  11.451  70.742  1.00  0.00    -0.376 A  
BRANCH  14  19
HETATM   19  N   UNL     1     -10.819   8.005  70.612  1.00  0.00    -0.230 NA 
HETATM   20  H   UNL     1     -11.223   7.389  69.907  1.00  0.00     0.000 HD 
BRANCH  19  21
HETATM   21  C   UNL     1      -9.556   7.611  71.114  1.00  0.00    -0.158 A  
HETATM   22  C   UNL     1      -7.758   5.974  71.190  1.00  0.00    -0.109 A  
HETATM   23  C   UNL     1      -8.917   6.482  70.591  1.00  0.00    -0.148 A  
HETATM   24  C   UNL     1      -7.242   6.567  72.343  1.00  0.00    -0.082 A  
HETATM   25  C   UNL     1      -7.851   7.704  72.875  1.00  0.00    -0.135 A  
HETATM   26  C   UNL     1      -8.968   8.241  72.221  1.00  0.00    -0.280 A  
HETATM   27  C   UNL     1      -7.395   8.315  74.166  1.00  0.00    -0.225 C  
ENDBRANCH  19  21
ENDBRANCH  14  19
ENDBRANCH  10  13
ENDBRANCH   8  10
ENDBRANCH   6   8
ENDBRANCH   4   6
ENDBRANCH   2   4
TORSDOF 7
ENDMDL
MODEL      283
REMARK 921   NORMALIZED FREE ENERGY PREDICTED BY IDOCK:   -3.49 KCAL/MOL
REMARK 922        TOTAL FREE ENERGY PREDICTED BY IDOCK:   -6.77 KCAL/MOL
REMARK 923 INTER-LIGAND FREE ENERGY PREDICTED BY IDOCK:   -5.20 KCAL/MOL
REMARK 924 INTRA-LIGAND FREE ENERGY PREDICTED BY IDOCK:   -1.57 KCAL/MOL
REMARK 927      BINDING AFFINITY PREDICTED BY RF-SCORE:    0.00 PKD
ROOT
HETATM    1  C   UNL     1     -11.569  12.095  69.159  1.00  0.00    -0.374 C  
HETATM    2  C   UNL     1     -11.510  11.411  67.793  1.00  0.00    -0.281 C  
HETATM    3  C   UNL     1     -11.587  12.441  66.673  1.00  0.00    -0.447 C  
ENDROOT
BRANCH   2   4
HETATM    4  N   UNL     1     -10.312  10.592  67.654  1.00  0.00    -0.204 N  
HETATM    5  H   UNL     1      -9.452  10.876  68.122  1.00  0.00     0.000 HD 
BRANCH   4   6
HETATM    6  C   UNL     1     -10.326   9.447  66.904  1.00  0.00    -0.238 C  
HETATM    7  O   UNL     1     -10.012   9.402  65.727  1.00  0.00    -0.309 OA 
BRANCH   6   8
HETATM    8  N   UNL     1     -10.818   8.346  67.588  1.00  0.00    -0.503 N  
HETATM    9  H   UNL     1     -11.796   8.097  67.445  1.00  0.00     0.000 HD 
BRANCH   8  10
HETATM   10  S   UNL     1      -9.918   7.400  68.631  1.00  0.00    -0.174 S  
HETATM   11  O   UNL     1     -10.075   6.009  68.273  1.00  0.00    -0.141 OA 
HETATM   12  O   UNL     1      -8.604   8.015  68.631  1.00  0.00    -0.127 OA 
BRANCH  10  13
HETATM   13  C   UNL     1     -10.589   7.636  70.238  1.00  0.00    -0.230 A  
HETATM   14  C   UNL     1     -10.125   6.916  71.347  1.00  0.00    -0.185 A  
HETATM   15  N   UNL     1     -12.264   8.767  71.585  1.00  0.00    -0.319 NA 
HETATM   16  C   UNL     1     -10.821   7.110  72.552  1.00  0.00    -0.299 A  
HETATM   17  C   UNL     1     -11.860   8.023  72.627  1.00  0.00    -0.321 A  
HETATM   18  C   UNL     1     -11.626   8.545  70.413  1.00  0.00    -0.069 A  
BRANCH  14  19
HETATM   19  N   UNL     1      -8.950   6.127  71.321  1.00  0.00    -0.139 NA 
HETATM   20  H   UNL     1      -8.117   6.592  70.961  1.00  0.00     0.000 HD 
BRANCH  19  21
HETATM   21  C   UNL     1      -8.772   4.783  71.724  1.00  0.00    -0.123 A  
HETATM   22  C   UNL     1      -9.552   2.478  71.717  1.00  0.00    -0.213 A  
HETATM   23  C   UNL     1      -9.594   3.779  71.201  1.00  0.00    -0.246 A  
HETATM   24  C   UNL     1      -8.711   2.170  72.788  1.00  0.00    -0.066 A  
HETATM   25  C   UNL     1      -7.869   3.149  73.316  1.00  0.00    -0.064 A  
HETATM   26  C   UNL     1      -7.872   4.427  72.741  1.00  0.00    -0.086 A  
HETATM   27  C   UNL     1      -7.025   2.894  74.529  1.00  0.00    -0.040 C  
ENDBRANCH  19  21
ENDBRANCH  14  19
ENDBRANCH  10  13
ENDBRANCH   8  10
ENDBRANCH   6   8
ENDBRANCH   4   6
ENDBRANCH   2   4
TORSDOF 7
ENDMDL
MODEL      284
REMARK 921   NORMALIZED FREE ENERGY PREDICTED BY IDOCK:   -3.48 KCAL/MOL
REMARK 922        TOTAL FREE ENERGY PREDICTED BY IDOCK:   -6.76 KCAL/MOL
REMARK 923 INTER-LIGAND FREE ENERGY PREDICTED BY IDOCK:   -6.81 KCAL/MOL
REMARK 924 INTRA-LIGAND FREE ENERGY PREDICTED BY IDOCK:    0.05 KCAL/MOL
REMARK 927      BINDING AFFINITY PREDICTED BY RF-SCORE:    0.00 PKD
ROOT
HETATM    1  C   UNL     1      -5.165  14.748  70.611  1.00  0.00    -0.126 C  
HETATM    2  C   UNL     1      -6.045  15.635  69.730  1.00  0.00    -0.160 C  
HETATM    3  C   UNL     1      -5.855  15.287  68.258  1.00  0.00    -0.121 C  
ENDROOT
BRANCH   2   4
HETATM    4  N   UNL     1      -7.451  15.537  70.103  1.00  0.00     0.164 N  
HETATM    5  H   UNL     1      -7.726  15.695  71.072  1.00  0.00     0.000 HD 
BRANCH   4   6
HETATM    6  C   UNL     1      -8.406  15.235  69.171  1.00  0.00    -0.233 C  
HETATM    7  O   UNL     1      -8.248  15.361  67.970  1.00  0.00    -0.139 OA 
BRANCH   6   8
HETATM    8  N   UNL     1      -9.616  14.851  69.729  1.00  0.00    -0.443 N  
HETATM    9  H   UNL     1      -9.650  13.958  70.220  1.00  0.00     0.000 HD 
BRANCH   8  10
HETATM   10  S   UNL     1     -11.022  15.750  69.652  1.00  0.00    -0.339 S  
HETATM   11  O   UNL     1     -10.694  17.157  69.661  1.00  0.00    -0.226 OA 
HETATM   12  O   UNL     1     -11.757  15.174  68.540  1.00  0.00    -0.330 OA 
BRANCH  10  13
HETATM   13  C   UNL     1     -11.938  15.387  71.107  1.00  0.00    -0.362 A  
HETATM   14  C   UNL     1     -12.815  14.296  71.177  1.00  0.00    -0.359 A  
HETATM   15  N   UNL     1     -12.507  16.078  73.365  1.00  0.00    -0.504 NA 
HETATM   16  C   UNL     1     -13.576  14.181  72.353  1.00  0.00    -0.632 A  
HETATM   17  C   UNL     1     -13.395  15.072  73.398  1.00  0.00    -0.161 A  
HETATM   18  C   UNL     1     -11.809  16.217  72.214  1.00  0.00    -0.536 A  
BRANCH  14  19
HETATM   19  N   UNL     1     -12.867  13.280  70.192  1.00  0.00     0.111 NA 
HETATM   20  H   UNL     1     -13.488  13.463  69.404  1.00  0.00     0.000 HD 
BRANCH  19  21
HETATM   21  C   UNL     1     -12.177  12.046  70.150  1.00  0.00    -0.231 A  
HETATM   22  C   UNL     1     -10.842  10.441  68.900  1.00  0.00    -0.273 A  
HETATM   23  C   UNL     1     -11.386  11.723  69.042  1.00  0.00    -0.338 A  
HETATM   24  C   UNL     1     -11.109   9.452  69.848  1.00  0.00    -0.223 A  
HETATM   25  C   UNL     1     -11.880   9.753  70.971  1.00  0.00    -0.442 A  
HETATM   26  C   UNL     1     -12.358  11.060  71.133  1.00  0.00    -0.465 A  
HETATM   27  C   UNL     1     -12.278   8.700  71.961  1.00  0.00    -0.439 C  
ENDBRANCH  19  21
ENDBRANCH  14  19
ENDBRANCH  10  13
ENDBRANCH   8  10
ENDBRANCH   6   8
ENDBRANCH   4   6
ENDBRANCH   2   4
TORSDOF 7
ENDMDL
MODEL      285
REMARK 921   NORMALIZED FREE ENERGY PREDICTED BY IDOCK:   -3.47 KCAL/MOL
REMARK 922        TOTAL FREE ENERGY PREDICTED BY IDOCK:   -6.74 KCAL/MOL
REMARK 923 INTER-LIGAND FREE ENERGY PREDICTED BY IDOCK:   -5.56 KCAL/MOL
REMARK 924 INTRA-LIGAND FREE ENERGY PREDICTED BY IDOCK:   -1.18 KCAL/MOL
REMARK 927      BINDING AFFINITY PREDICTED BY RF-SCORE:    0.00 PKD
ROOT
HETATM    1  C   UNL     1     -10.708  14.856  65.222  1.00  0.00    -0.409 C  
HETATM    2  C   UNL     1      -9.900  14.633  66.501  1.00  0.00    -0.275 C  
HETATM    3  C   UNL     1     -10.532  15.378  67.671  1.00  0.00    -0.272 C  
ENDROOT
BRANCH   2   4
HETATM    4  N   UNL     1      -9.763  13.216  66.810  1.00  0.00    -0.239 N  
HETATM    5  H   UNL     1      -9.098  12.649  66.283  1.00  0.00     0.000 HD 
BRANCH   4   6
HETATM    6  C   UNL     1     -10.513  12.634  67.795  1.00  0.00    -0.221 C  
HETATM    7  O   UNL     1     -11.731  12.605  67.795  1.00  0.00    -0.330 OA 
BRANCH   6   8
HETATM    8  N   UNL     1      -9.755  12.152  68.851  1.00  0.00    -0.416 N  
HETATM    9  H   UNL     1     -10.051  12.391  69.797  1.00  0.00     0.000 HD 
BRANCH   8  10
HETATM   10  S   UNL     1      -8.389  11.205  68.681  1.00  0.00    -0.139 S  
HETATM   11  O   UNL     1      -7.294  12.021  68.208  1.00  0.00    -0.081 OA 
HETATM   12  O   UNL     1      -8.284  10.495  69.942  1.00  0.00    -0.047 OA 
BRANCH  10  13
HETATM   13  C   UNL     1      -8.754  10.003  67.452  1.00  0.00    -0.125 A  
HETATM   14  C   UNL     1      -9.739   9.025  67.642  1.00  0.00    -0.156 A  
HETATM   15  N   UNL     1      -8.175   9.096  65.274  1.00  0.00    -0.126 NA 
HETATM   16  C   UNL     1      -9.854   8.051  66.635  1.00  0.00    -0.322 A  
HETATM   17  C   UNL     1      -9.072   8.122  65.495  1.00  0.00     0.037 A  
HETATM   18  C   UNL     1      -8.030  10.006  66.265  1.00  0.00    -0.111 A  
BRANCH  14  19
HETATM   19  N   UNL     1     -10.665   9.056  68.713  1.00  0.00    -0.384 NA 
HETATM   20  H   UNL     1     -11.296   9.857  68.723  1.00  0.00     0.000 HD 
BRANCH  19  21
HETATM   21  C   UNL     1     -10.836   8.132  69.770  1.00  0.00    -0.190 A  
HETATM   22  C   UNL     1     -11.286   7.711  72.124  1.00  0.00    -0.341 A  
HETATM   23  C   UNL     1     -11.281   8.574  71.021  1.00  0.00    -0.312 A  
HETATM   24  C   UNL     1     -10.813   6.404  72.000  1.00  0.00    -0.277 A  
HETATM   25  C   UNL     1     -10.380   5.934  70.760  1.00  0.00    -0.292 A  
HETATM   26  C   UNL     1     -10.448   6.789  69.651  1.00  0.00    -0.243 A  
HETATM   27  C   UNL     1      -9.769   4.574  70.599  1.00  0.00    -0.282 C  
ENDBRANCH  19  21
ENDBRANCH  14  19
ENDBRANCH  10  13
ENDBRANCH   8  10
ENDBRANCH   6   8
ENDBRANCH   4   6
ENDBRANCH   2   4
TORSDOF 7
ENDMDL
MODEL      286
REMARK 921   NORMALIZED FREE ENERGY PREDICTED BY IDOCK:   -3.47 KCAL/MOL
REMARK 922        TOTAL FREE ENERGY PREDICTED BY IDOCK:   -6.74 KCAL/MOL
REMARK 923 INTER-LIGAND FREE ENERGY PREDICTED BY IDOCK:   -5.38 KCAL/MOL
REMARK 924 INTRA-LIGAND FREE ENERGY PREDICTED BY IDOCK:   -1.36 KCAL/MOL
REMARK 927      BINDING AFFINITY PREDICTED BY RF-SCORE:    0.00 PKD
ROOT
HETATM    1  C   UNL     1      -7.583   9.414  66.216  1.00  0.00    -0.097 C  
HETATM    2  C   UNL     1      -7.336   8.891  67.631  1.00  0.00    -0.085 C  
HETATM    3  C   UNL     1      -5.886   8.449  67.795  1.00  0.00    -0.043 C  
ENDROOT
BRANCH   2   4
HETATM    4  N   UNL     1      -7.686   9.883  68.640  1.00  0.00    -0.079 N  
HETATM    5  H   UNL     1      -7.036  10.642  68.844  1.00  0.00     0.000 HD 
BRANCH   4   6
HETATM    6  C   UNL     1      -8.873   9.811  69.317  1.00  0.00    -0.169 C  
HETATM    7  O   UNL     1      -9.125   8.965  70.157  1.00  0.00    -0.155 OA 
BRANCH   6   8
HETATM    8  N   UNL     1      -9.806  10.744  68.893  1.00  0.00    -0.194 N  
HETATM    9  H   UNL     1      -9.714  11.699  69.240  1.00  0.00     0.000 HD 
BRANCH   8  10
HETATM   10  S   UNL     1     -11.071  10.414  67.852  1.00  0.00    -0.256 S  
HETATM   11  O   UNL     1     -11.032   9.018  67.477  1.00  0.00    -0.152 OA 
HETATM   12  O   UNL     1     -12.237  10.963  68.518  1.00  0.00    -0.535 OA 
BRANCH  10  13
HETATM   13  C   UNL     1     -10.807  11.382  66.409  1.00  0.00    -0.271 A  
HETATM   14  C   UNL     1     -10.302  12.687  66.476  1.00  0.00    -0.242 A  
HETATM   15  N   UNL     1     -11.034  11.517  63.995  1.00  0.00    -0.374 NA 
HETATM   16  C   UNL     1     -10.247  13.397  65.264  1.00  0.00    -0.312 A  
HETATM   17  C   UNL     1     -10.614  12.790  64.075  1.00  0.00    -0.416 A  
HETATM   18  C   UNL     1     -11.132  10.849  65.167  1.00  0.00     0.155 A  
BRANCH  14  19
HETATM   19  N   UNL     1      -9.751  13.245  67.655  1.00  0.00    -0.214 NA 
HETATM   20  H   UNL     1      -8.884  12.817  67.980  1.00  0.00     0.000 HD 
BRANCH  19  21
HETATM   21  C   UNL     1     -10.236  14.313  68.445  1.00  0.00    -0.245 A  
HETATM   22  C   UNL     1     -11.808  15.132  70.112  1.00  0.00    -0.351 A  
HETATM   23  C   UNL     1     -11.186  14.071  69.443  1.00  0.00    -0.283 A  
HETATM   24  C   UNL     1     -11.514  16.453  69.768  1.00  0.00    -0.095 A  
HETATM   25  C   UNL     1     -10.558  16.721  68.789  1.00  0.00    -0.348 A  
HETATM   26  C   UNL     1      -9.894  15.648  68.179  1.00  0.00    -0.212 A  
HETATM   27  C   UNL     1     -10.283  18.117  68.314  1.00  0.00    -0.402 C  
ENDBRANCH  19  21
ENDBRANCH  14  19
ENDBRANCH  10  13
ENDBRANCH   8  10
ENDBRANCH   6   8
ENDBRANCH   4   6
ENDBRANCH   2   4
TORSDOF 7
ENDMDL
MODEL      287
REMARK 921   NORMALIZED FREE ENERGY PREDICTED BY IDOCK:   -3.45 KCAL/MOL
REMARK 922        TOTAL FREE ENERGY PREDICTED BY IDOCK:   -6.72 KCAL/MOL
REMARK 923 INTER-LIGAND FREE ENERGY PREDICTED BY IDOCK:   -5.22 KCAL/MOL
REMARK 924 INTRA-LIGAND FREE ENERGY PREDICTED BY IDOCK:   -1.50 KCAL/MOL
REMARK 927      BINDING AFFINITY PREDICTED BY RF-SCORE:    0.00 PKD
ROOT
HETATM    1  C   UNL     1     -11.417  10.995  68.940  1.00  0.00    -0.364 C  
HETATM    2  C   UNL     1     -11.275  10.951  67.419  1.00  0.00    -0.273 C  
HETATM    3  C   UNL     1     -11.464  12.342  66.822  1.00  0.00    -0.421 C  
ENDROOT
BRANCH   2   4
HETATM    4  N   UNL     1      -9.992  10.391  67.014  1.00  0.00    -0.198 N  
HETATM    5  H   UNL     1      -9.181  10.501  67.623  1.00  0.00     0.000 HD 
BRANCH   4   6
HETATM    6  C   UNL     1      -9.860   9.719  65.829  1.00  0.00    -0.290 C  
HETATM    7  O   UNL     1      -9.704  10.267  64.752  1.00  0.00    -0.287 OA 
BRANCH   6   8
HETATM    8  N   UNL     1     -10.008   8.347  65.955  1.00  0.00    -0.416 N  
HETATM    9  H   UNL     1     -10.356   7.831  65.147  1.00  0.00     0.000 HD 
BRANCH   8  10
HETATM   10  S   UNL     1      -9.655   7.479  67.339  1.00  0.00    -0.159 S  
HETATM   11  O   UNL     1      -8.420   7.968  67.910  1.00  0.00    -0.124 OA 
HETATM   12  O   UNL     1     -10.885   7.514  68.108  1.00  0.00    -0.129 OA 
BRANCH  10  13
HETATM   13  C   UNL     1      -9.413   5.810  66.844  1.00  0.00    -0.133 A  
HETATM   14  C   UNL     1      -9.696   4.737  67.699  1.00  0.00    -0.160 A  
HETATM   15  N   UNL     1      -8.617   4.309  65.109  1.00  0.00    -0.119 NA 
HETATM   16  C   UNL     1      -9.350   3.458  67.231  1.00  0.00    -0.237 A  
HETATM   17  C   UNL     1      -8.825   3.292  65.960  1.00  0.00    -0.138 A  
HETATM   18  C   UNL     1      -8.905   5.545  65.578  1.00  0.00    -0.144 A  
BRANCH  14  19
HETATM   19  N   UNL     1     -10.402   4.883  68.918  1.00  0.00    -0.076 NA 
HETATM   20  H   UNL     1     -11.417   4.934  68.834  1.00  0.00     0.000 HD 
BRANCH  19  21
HETATM   21  C   UNL     1      -9.895   4.968  70.236  1.00  0.00    -0.234 A  
HETATM   22  C   UNL     1      -8.810   3.893  72.130  1.00  0.00    -0.130 A  
HETATM   23  C   UNL     1      -9.165   3.903  70.776  1.00  0.00    -0.198 A  
HETATM   24  C   UNL     1      -9.210   4.931  72.973  1.00  0.00    -0.128 A  
HETATM   25  C   UNL     1      -9.924   6.012  72.456  1.00  0.00    -0.195 A  
HETATM   26  C   UNL     1     -10.210   6.041  71.084  1.00  0.00    -0.257 A  
HETATM   27  C   UNL     1     -10.462   7.098  73.338  1.00  0.00    -0.410 C  
ENDBRANCH  19  21
ENDBRANCH  14  19
ENDBRANCH  10  13
ENDBRANCH   8  10
ENDBRANCH   6   8
ENDBRANCH   4   6
ENDBRANCH   2   4
TORSDOF 7
ENDMDL
MODEL      288
REMARK 921   NORMALIZED FREE ENERGY PREDICTED BY IDOCK:   -3.44 KCAL/MOL
REMARK 922        TOTAL FREE ENERGY PREDICTED BY IDOCK:   -6.71 KCAL/MOL
REMARK 923 INTER-LIGAND FREE ENERGY PREDICTED BY IDOCK:   -6.24 KCAL/MOL
REMARK 924 INTRA-LIGAND FREE ENERGY PREDICTED BY IDOCK:   -0.47 KCAL/MOL
REMARK 927      BINDING AFFINITY PREDICTED BY RF-SCORE:    0.00 PKD
ROOT
HETATM    1  C   UNL     1      -9.289   5.680  68.052  1.00  0.00    -0.114 C  
HETATM    2  C   UNL     1      -9.820   5.742  69.484  1.00  0.00    -0.178 C  
HETATM    3  C   UNL     1      -8.703   6.109  70.455  1.00  0.00    -0.142 C  
ENDROOT
BRANCH   2   4
HETATM    4  N   UNL     1     -10.932   6.676  69.606  1.00  0.00    -0.285 N  
HETATM    5  H   UNL     1     -11.889   6.325  69.564  1.00  0.00     0.000 HD 
BRANCH   4   6
HETATM    6  C   UNL     1     -10.711   8.015  69.775  1.00  0.00    -0.231 C  
HETATM    7  O   UNL     1     -10.911   8.610  70.820  1.00  0.00    -0.231 OA 
BRANCH   6   8
HETATM    8  N   UNL     1     -10.318   8.660  68.612  1.00  0.00    -0.198 N  
HETATM    9  H   UNL     1      -9.824   8.111  67.909  1.00  0.00     0.000 HD 
BRANCH   8  10
HETATM   10  S   UNL     1     -10.598  10.274  68.283  1.00  0.00    -0.238 S  
HETATM   11  O   UNL     1     -11.992  10.577  68.519  1.00  0.00    -0.354 OA 
HETATM   12  O   UNL     1      -9.560  10.975  69.014  1.00  0.00    -0.190 OA 
BRANCH  10  13
HETATM   13  C   UNL     1     -10.263  10.510  66.574  1.00  0.00    -0.231 A  
HETATM   14  C   UNL     1     -10.783  11.598  65.861  1.00  0.00    -0.278 A  
HETATM   15  N   UNL     1      -9.204   9.617  64.578  1.00  0.00    -0.245 NA 
HETATM   16  C   UNL     1     -10.539  11.610  64.477  1.00  0.00    -0.373 A  
HETATM   17  C   UNL     1      -9.764  10.625  63.889  1.00  0.00    -0.321 A  
HETATM   18  C   UNL     1      -9.479   9.579  65.903  1.00  0.00    -0.244 A  
BRANCH  14  19
HETATM   19  N   UNL     1     -11.414  12.701  66.484  1.00  0.00    -0.333 NA 
HETATM   20  H   UNL     1     -12.033  12.472  67.262  1.00  0.00     0.000 HD 
BRANCH  19  21
HETATM   21  C   UNL     1     -11.306  14.078  66.178  1.00  0.00    -0.321 A  
HETATM   22  C   UNL     1     -11.482  15.875  64.547  1.00  0.00    -0.287 A  
HETATM   23  C   UNL     1     -11.741  14.555  64.937  1.00  0.00    -0.402 A  
HETATM   24  C   UNL     1     -10.753  16.727  65.379  1.00  0.00    -0.201 A  
HETATM   25  C   UNL     1     -10.323  16.280  66.628  1.00  0.00    -0.302 A  
HETATM   26  C   UNL     1     -10.653  14.979  67.032  1.00  0.00    -0.293 A  
HETATM   27  C   UNL     1      -9.452  17.122  67.512  1.00  0.00    -0.247 C  
ENDBRANCH  19  21
ENDBRANCH  14  19
ENDBRANCH  10  13
ENDBRANCH   8  10
ENDBRANCH   6   8
ENDBRANCH   4   6
ENDBRANCH   2   4
TORSDOF 7
ENDMDL
MODEL      289
REMARK 921   NORMALIZED FREE ENERGY PREDICTED BY IDOCK:   -3.44 KCAL/MOL
REMARK 922        TOTAL FREE ENERGY PREDICTED BY IDOCK:   -6.71 KCAL/MOL
REMARK 923 INTER-LIGAND FREE ENERGY PREDICTED BY IDOCK:   -5.97 KCAL/MOL
REMARK 924 INTRA-LIGAND FREE ENERGY PREDICTED BY IDOCK:   -0.74 KCAL/MOL
REMARK 927      BINDING AFFINITY PREDICTED BY RF-SCORE:    0.00 PKD
ROOT
HETATM    1  C   UNL     1     -12.199  15.453  64.561  1.00  0.00    -0.130 C  
HETATM    2  C   UNL     1     -11.227  14.439  65.165  1.00  0.00    -0.359 C  
HETATM    3  C   UNL     1      -9.815  15.011  65.209  1.00  0.00    -0.249 C  
ENDROOT
BRANCH   2   4
HETATM    4  N   UNL     1     -11.649  14.015  66.494  1.00  0.00    -0.357 N  
HETATM    5  H   UNL     1     -12.060  14.696  67.132  1.00  0.00     0.000 HD 
BRANCH   4   6
HETATM    6  C   UNL     1     -11.503  12.715  66.897  1.00  0.00    -0.343 C  
HETATM    7  O   UNL     1     -12.118  11.781  66.415  1.00  0.00    -0.467 OA 
BRANCH   6   8
HETATM    8  N   UNL     1     -10.645  12.568  67.977  1.00  0.00    -0.217 N  
HETATM    9  H   UNL     1     -10.338  13.413  68.458  1.00  0.00     0.000 HD 
BRANCH   8  10
HETATM   10  S   UNL     1     -10.082  11.101  68.544  1.00  0.00    -0.206 S  
HETATM   11  O   UNL     1     -10.184  10.109  67.497  1.00  0.00    -0.186 OA 
HETATM   12  O   UNL     1      -8.794  11.415  69.135  1.00  0.00     0.021 OA 
BRANCH  10  13
HETATM   13  C   UNL     1     -11.142  10.624  69.862  1.00  0.00    -0.298 A  
HETATM   14  C   UNL     1     -11.091   9.343  70.427  1.00  0.00    -0.261 A  
HETATM   15  N   UNL     1     -12.985  11.265  71.308  1.00  0.00    -0.370 NA 
HETATM   16  C   UNL     1     -12.068   9.048  71.393  1.00  0.00    -0.392 A  
HETATM   17  C   UNL     1     -12.975  10.013  71.795  1.00  0.00    -0.458 A  
HETATM   18  C   UNL     1     -12.075  11.534  70.344  1.00  0.00    -0.382 A  
BRANCH  14  19
HETATM   19  N   UNL     1     -10.053   8.418  70.156  1.00  0.00    -0.188 NA 
HETATM   20  H   UNL     1      -9.648   8.474  69.221  1.00  0.00     0.000 HD 
BRANCH  19  21
HETATM   21  C   UNL     1      -9.500   7.428  71.001  1.00  0.00    -0.157 A  
HETATM   22  C   UNL     1      -7.701   6.704  72.470  1.00  0.00    -0.098 A  
HETATM   23  C   UNL     1      -8.365   7.716  71.768  1.00  0.00    -0.121 A  
HETATM   24  C   UNL     1      -8.141   5.381  72.389  1.00  0.00    -0.107 A  
HETATM   25  C   UNL     1      -9.280   5.071  71.645  1.00  0.00    -0.178 A  
HETATM   26  C   UNL     1      -9.974   6.108  71.006  1.00  0.00    -0.221 A  
HETATM   27  C   UNL     1      -9.731   3.655  71.445  1.00  0.00    -0.241 C  
ENDBRANCH  19  21
ENDBRANCH  14  19
ENDBRANCH  10  13
ENDBRANCH   8  10
ENDBRANCH   6   8
ENDBRANCH   4   6
ENDBRANCH   2   4
TORSDOF 7
ENDMDL
MODEL      290
REMARK 921   NORMALIZED FREE ENERGY PREDICTED BY IDOCK:   -3.42 KCAL/MOL
REMARK 922        TOTAL FREE ENERGY PREDICTED BY IDOCK:   -6.68 KCAL/MOL
REMARK 923 INTER-LIGAND FREE ENERGY PREDICTED BY IDOCK:   -6.10 KCAL/MOL
REMARK 924 INTRA-LIGAND FREE ENERGY PREDICTED BY IDOCK:   -0.58 KCAL/MOL
REMARK 927      BINDING AFFINITY PREDICTED BY RF-SCORE:    0.00 PKD
ROOT
HETATM    1  C   UNL     1     -10.202   4.134  64.703  1.00  0.00    -0.195 C  
HETATM    2  C   UNL     1     -10.302   4.603  66.155  1.00  0.00    -0.275 C  
HETATM    3  C   UNL     1      -9.343   3.816  67.040  1.00  0.00    -0.219 C  
ENDROOT
BRANCH   2   4
HETATM    4  N   UNL     1     -10.055   6.034  66.277  1.00  0.00    -0.390 N  
HETATM    5  H   UNL     1      -9.321   6.466  65.716  1.00  0.00     0.000 HD 
BRANCH   4   6
HETATM    6  C   UNL     1     -10.792   6.806  67.133  1.00  0.00    -0.392 C  
HETATM    7  O   UNL     1     -11.379   6.368  68.107  1.00  0.00    -0.266 OA 
BRANCH   6   8
HETATM    8  N   UNL     1     -10.883   8.132  66.739  1.00  0.00    -0.335 N  
HETATM    9  H   UNL     1     -11.103   8.323  65.762  1.00  0.00     0.000 HD 
BRANCH   8  10
HETATM   10  S   UNL     1     -10.655   9.439  67.755  1.00  0.00    -0.231 S  
HETATM   11  O   UNL     1     -11.598  10.480  67.416  1.00  0.00    -0.383 OA 
HETATM   12  O   UNL     1     -10.645   8.862  69.086  1.00  0.00    -0.227 OA 
BRANCH  10  13
HETATM   13  C   UNL     1      -9.032  10.042  67.451  1.00  0.00    -0.131 A  
HETATM   14  C   UNL     1      -8.743  11.413  67.436  1.00  0.00    -0.145 A  
HETATM   15  N   UNL     1      -6.738   9.480  66.886  1.00  0.00    -0.071 NA 
HETATM   16  C   UNL     1      -7.435  11.770  67.066  1.00  0.00    -0.137 A  
HETATM   17  C   UNL     1      -6.486  10.796  66.805  1.00  0.00    -0.096 A  
HETATM   18  C   UNL     1      -8.010   9.137  67.195  1.00  0.00    -0.106 A  
BRANCH  14  19
HETATM   19  N   UNL     1      -9.654  12.401  67.882  1.00  0.00    -0.198 NA 
HETATM   20  H   UNL     1     -10.031  12.260  68.819  1.00  0.00     0.000 HD 
BRANCH  19  21
HETATM   21  C   UNL     1     -10.113  13.557  67.209  1.00  0.00    -0.235 A  
HETATM   22  C   UNL     1     -10.479  14.752  65.121  1.00  0.00    -0.443 A  
HETATM   23  C   UNL     1     -10.198  13.567  65.813  1.00  0.00    -0.305 A  
HETATM   24  C   UNL     1     -10.644  15.952  65.815  1.00  0.00    -0.368 A  
HETATM   25  C   UNL     1     -10.581  15.966  67.208  1.00  0.00    -0.314 A  
HETATM   26  C   UNL     1     -10.370  14.758  67.888  1.00  0.00    -0.240 A  
HETATM   27  C   UNL     1     -10.650  17.243  67.990  1.00  0.00    -0.394 C  
ENDBRANCH  19  21
ENDBRANCH  14  19
ENDBRANCH  10  13
ENDBRANCH   8  10
ENDBRANCH   6   8
ENDBRANCH   4   6
ENDBRANCH   2   4
TORSDOF 7
ENDMDL
MODEL      291
REMARK 921   NORMALIZED FREE ENERGY PREDICTED BY IDOCK:   -3.42 KCAL/MOL
REMARK 922        TOTAL FREE ENERGY PREDICTED BY IDOCK:   -6.67 KCAL/MOL
REMARK 923 INTER-LIGAND FREE ENERGY PREDICTED BY IDOCK:   -4.91 KCAL/MOL
REMARK 924 INTRA-LIGAND FREE ENERGY PREDICTED BY IDOCK:   -1.75 KCAL/MOL
REMARK 927      BINDING AFFINITY PREDICTED BY RF-SCORE:    0.00 PKD
ROOT
HETATM    1  C   UNL     1      -8.399   5.261  65.247  1.00  0.00    -0.139 C  
HETATM    2  C   UNL     1      -8.385   4.041  66.169  1.00  0.00    -0.108 C  
HETATM    3  C   UNL     1      -7.241   3.103  65.800  1.00  0.00    -0.071 C  
ENDROOT
BRANCH   2   4
HETATM    4  N   UNL     1      -8.298   4.428  67.571  1.00  0.00    -0.099 N  
HETATM    5  H   UNL     1      -8.694   3.818  68.286  1.00  0.00     0.000 HD 
BRANCH   4   6
HETATM    6  C   UNL     1      -7.693   5.597  67.943  1.00  0.00    -0.093 C  
HETATM    7  O   UNL     1      -6.490   5.786  67.891  1.00  0.00    -0.040 OA 
BRANCH   6   8
HETATM    8  N   UNL     1      -8.573   6.529  68.471  1.00  0.00    -0.123 N  
HETATM    9  H   UNL     1      -8.291   7.509  68.461  1.00  0.00     0.000 HD 
BRANCH   8  10
HETATM   10  S   UNL     1     -10.066   6.157  69.123  1.00  0.00    -0.185 S  
HETATM   11  O   UNL     1     -10.998   5.867  68.056  1.00  0.00    -0.274 OA 
HETATM   12  O   UNL     1      -9.778   5.159  70.137  1.00  0.00    -0.170 OA 
BRANCH  10  13
HETATM   13  C   UNL     1     -10.624   7.593  69.968  1.00  0.00    -0.238 A  
HETATM   14  C   UNL     1     -10.976   8.764  69.285  1.00  0.00     0.014 A  
HETATM   15  N   UNL     1     -11.047   8.637  72.120  1.00  0.00    -0.362 NA 
HETATM   16  C   UNL     1     -11.293   9.879  70.080  1.00  0.00    -0.303 A  
HETATM   17  C   UNL     1     -11.316   9.776  71.461  1.00  0.00    -0.275 A  
HETATM   18  C   UNL     1     -10.696   7.577  71.356  1.00  0.00    -0.223 A  
BRANCH  14  19
HETATM   19  N   UNL     1     -11.135   8.822  67.879  1.00  0.00    -0.435 NA 
HETATM   20  H   UNL     1     -11.818   8.174  67.488  1.00  0.00     0.000 HD 
BRANCH  19  21
HETATM   21  C   UNL     1     -10.479   9.654  66.942  1.00  0.00    -0.212 A  
HETATM   22  C   UNL     1     -10.348  11.783  65.771  1.00  0.00    -0.293 A  
HETATM   23  C   UNL     1     -10.858  10.994  66.809  1.00  0.00    -0.307 A  
HETATM   24  C   UNL     1      -9.476  11.233  64.830  1.00  0.00    -0.221 A  
HETATM   25  C   UNL     1      -9.069   9.904  64.950  1.00  0.00    -0.271 A  
HETATM   26  C   UNL     1      -9.534   9.149  66.036  1.00  0.00    -0.321 A  
HETATM   27  C   UNL     1      -8.217   9.241  63.910  1.00  0.00    -0.165 C  
ENDBRANCH  19  21
ENDBRANCH  14  19
ENDBRANCH  10  13
ENDBRANCH   8  10
ENDBRANCH   6   8
ENDBRANCH   4   6
ENDBRANCH   2   4
TORSDOF 7
ENDMDL
MODEL      292
REMARK 921   NORMALIZED FREE ENERGY PREDICTED BY IDOCK:   -3.41 KCAL/MOL
REMARK 922        TOTAL FREE ENERGY PREDICTED BY IDOCK:   -6.66 KCAL/MOL
REMARK 923 INTER-LIGAND FREE ENERGY PREDICTED BY IDOCK:   -5.95 KCAL/MOL
REMARK 924 INTRA-LIGAND FREE ENERGY PREDICTED BY IDOCK:   -0.71 KCAL/MOL
REMARK 927      BINDING AFFINITY PREDICTED BY RF-SCORE:    0.00 PKD
ROOT
HETATM    1  C   UNL     1      -5.491  15.397  71.027  1.00  0.00    -0.030 C  
HETATM    2  C   UNL     1      -5.346  16.550  70.034  1.00  0.00    -0.182 C  
HETATM    3  C   UNL     1      -5.145  16.018  68.620  1.00  0.00    -0.094 C  
ENDROOT
BRANCH   2   4
HETATM    4  N   UNL     1      -6.491  17.450  70.084  1.00  0.00     0.189 N  
HETATM    5  H   UNL     1      -6.701  17.948  70.949  1.00  0.00     0.000 HD 
BRANCH   4   6
HETATM    6  C   UNL     1      -7.289  17.637  68.988  1.00  0.00    -0.194 C  
HETATM    7  O   UNL     1      -7.143  18.544  68.188  1.00  0.00    -0.236 OA 
BRANCH   6   8
HETATM    8  N   UNL     1      -8.344  16.740  68.916  1.00  0.00    -0.244 N  
HETATM    9  H   UNL     1      -8.182  15.789  69.246  1.00  0.00     0.000 HD 
BRANCH   8  10
HETATM   10  S   UNL     1      -9.863  17.111  68.327  1.00  0.00    -0.305 S  
HETATM   11  O   UNL     1     -10.266  18.408  68.822  1.00  0.00    -0.379 OA 
HETATM   12  O   UNL     1      -9.764  16.868  66.900  1.00  0.00    -0.242 OA 
BRANCH  10  13
HETATM   13  C   UNL     1     -10.966  15.905  68.971  1.00  0.00    -0.277 A  
HETATM   14  C   UNL     1     -11.164  14.670  68.340  1.00  0.00    -0.274 A  
HETATM   15  N   UNL     1     -12.605  15.371  70.683  1.00  0.00    -0.416 NA 
HETATM   16  C   UNL     1     -12.158  13.841  68.888  1.00  0.00    -0.348 A  
HETATM   17  C   UNL     1     -12.839  14.220  70.032  1.00  0.00     0.011 A  
HETATM   18  C   UNL     1     -11.682  16.190  70.128  1.00  0.00    -0.181 A  
BRANCH  14  19
HETATM   19  N   UNL     1     -10.344  14.199  67.286  1.00  0.00    -0.266 NA 
HETATM   20  H   UNL     1      -9.360  14.463  67.344  1.00  0.00     0.000 HD 
BRANCH  19  21
HETATM   21  C   UNL     1     -10.699  13.414  66.164  1.00  0.00    -0.284 A  
HETATM   22  C   UNL     1     -12.330  12.829  64.456  1.00  0.00    -0.515 A  
HETATM   23  C   UNL     1     -11.870  13.697  65.454  1.00  0.00    -0.370 A  
HETATM   24  C   UNL     1     -11.642  11.647  64.178  1.00  0.00    -0.342 A  
HETATM   25  C   UNL     1     -10.462  11.350  64.860  1.00  0.00    -0.363 A  
HETATM   26  C   UNL     1      -9.979  12.265  65.805  1.00  0.00    -0.273 A  
HETATM   27  C   UNL     1      -9.745  10.046  64.669  1.00  0.00    -0.339 C  
ENDBRANCH  19  21
ENDBRANCH  14  19
ENDBRANCH  10  13
ENDBRANCH   8  10
ENDBRANCH   6   8
ENDBRANCH   4   6
ENDBRANCH   2   4
TORSDOF 7
ENDMDL
MODEL      293
REMARK 921   NORMALIZED FREE ENERGY PREDICTED BY IDOCK:   -3.39 KCAL/MOL
REMARK 922        TOTAL FREE ENERGY PREDICTED BY IDOCK:   -6.64 KCAL/MOL
REMARK 923 INTER-LIGAND FREE ENERGY PREDICTED BY IDOCK:   -5.34 KCAL/MOL
REMARK 924 INTRA-LIGAND FREE ENERGY PREDICTED BY IDOCK:   -1.30 KCAL/MOL
REMARK 927      BINDING AFFINITY PREDICTED BY RF-SCORE:    0.00 PKD
ROOT
HETATM    1  C   UNL     1      -8.020  10.451  64.244  1.00  0.00    -0.080 C  
HETATM    2  C   UNL     1      -9.386  10.481  64.931  1.00  0.00    -0.232 C  
HETATM    3  C   UNL     1     -10.390  11.266  64.095  1.00  0.00    -0.410 C  
ENDROOT
BRANCH   2   4
HETATM    4  N   UNL     1      -9.882   9.137  65.200  1.00  0.00    -0.339 N  
HETATM    5  H   UNL     1     -10.129   8.528  64.420  1.00  0.00     0.000 HD 
BRANCH   4   6
HETATM    6  C   UNL     1     -10.022   8.682  66.483  1.00  0.00    -0.282 C  
HETATM    7  O   UNL     1      -9.891   7.514  66.807  1.00  0.00    -0.201 OA 
BRANCH   6   8
HETATM    8  N   UNL     1     -10.416   9.665  67.376  1.00  0.00    -0.245 N  
HETATM    9  H   UNL     1     -11.218  10.242  67.124  1.00  0.00     0.000 HD 
BRANCH   8  10
HETATM   10  S   UNL     1      -9.667   9.972  68.838  1.00  0.00    -0.191 S  
HETATM   11  O   UNL     1      -8.431   9.225  68.911  1.00  0.00    -0.124 OA 
HETATM   12  O   UNL     1      -9.657  11.419  68.941  1.00  0.00    -0.170 OA 
BRANCH  10  13
HETATM   13  C   UNL     1     -10.744   9.381  70.095  1.00  0.00    -0.243 A  
HETATM   14  C   UNL     1     -11.050   8.021  70.228  1.00  0.00    -0.224 A  
HETATM   15  N   UNL     1     -12.222   9.966  71.932  1.00  0.00    -0.331 NA 
HETATM   16  C   UNL     1     -12.014   7.690  71.196  1.00  0.00    -0.319 A  
HETATM   17  C   UNL     1     -12.562   8.669  72.008  1.00  0.00    -0.378 A  
HETATM   18  C   UNL     1     -11.330  10.290  70.968  1.00  0.00    -0.226 A  
BRANCH  14  19
HETATM   19  N   UNL     1     -10.358   6.999  69.534  1.00  0.00    -0.205 NA 
HETATM   20  H   UNL     1     -10.428   7.035  68.517  1.00  0.00     0.000 HD 
BRANCH  19  21
HETATM   21  C   UNL     1      -9.582   5.937  70.054  1.00  0.00    -0.163 A  
HETATM   22  C   UNL     1      -7.587   4.550  69.926  1.00  0.00    -0.054 A  
HETATM   23  C   UNL     1      -8.298   5.697  69.553  1.00  0.00    -0.103 A  
HETATM   24  C   UNL     1      -8.165   3.607  70.778  1.00  0.00    -0.080 A  
HETATM   25  C   UNL     1      -9.437   3.831  71.304  1.00  0.00    -0.229 A  
HETATM   26  C   UNL     1     -10.106   5.019  70.977  1.00  0.00    -0.297 A  
HETATM   27  C   UNL     1     -10.140   2.802  72.139  1.00  0.00    -0.210 C  
ENDBRANCH  19  21
ENDBRANCH  14  19
ENDBRANCH  10  13
ENDBRANCH   8  10
ENDBRANCH   6   8
ENDBRANCH   4   6
ENDBRANCH   2   4
TORSDOF 7
ENDMDL
MODEL      294
REMARK 921   NORMALIZED FREE ENERGY PREDICTED BY IDOCK:   -3.37 KCAL/MOL
REMARK 922        TOTAL FREE ENERGY PREDICTED BY IDOCK:   -6.61 KCAL/MOL
REMARK 923 INTER-LIGAND FREE ENERGY PREDICTED BY IDOCK:   -5.65 KCAL/MOL
REMARK 924 INTRA-LIGAND FREE ENERGY PREDICTED BY IDOCK:   -0.96 KCAL/MOL
REMARK 927      BINDING AFFINITY PREDICTED BY RF-SCORE:    0.00 PKD
ROOT
HETATM    1  C   UNL     1     -10.366   3.869  64.333  1.00  0.00    -0.242 C  
HETATM    2  C   UNL     1      -9.247   4.431  65.211  1.00  0.00    -0.155 C  
HETATM    3  C   UNL     1      -8.035   3.507  65.192  1.00  0.00    -0.086 C  
ENDROOT
BRANCH   2   4
HETATM    4  N   UNL     1      -8.870   5.779  64.805  1.00  0.00    -0.363 N  
HETATM    5  H   UNL     1      -9.092   6.100  63.863  1.00  0.00     0.000 HD 
BRANCH   4   6
HETATM    6  C   UNL     1      -8.222   6.619  65.669  1.00  0.00    -0.137 C  
HETATM    7  O   UNL     1      -7.011   6.653  65.804  1.00  0.00    -0.054 OA 
BRANCH   6   8
HETATM    8  N   UNL     1      -9.082   7.375  66.451  1.00  0.00    -0.158 N  
HETATM    9  H   UNL     1      -9.746   6.878  67.044  1.00  0.00     0.000 HD 
BRANCH   8  10
HETATM   10  S   UNL     1      -9.106   9.045  66.487  1.00  0.00    -0.175 S  
HETATM   11  O   UNL     1      -7.779   9.539  66.777  1.00  0.00    -0.097 OA 
HETATM   12  O   UNL     1      -9.778   9.422  65.257  1.00  0.00    -0.263 OA 
BRANCH  10  13
HETATM   13  C   UNL     1     -10.169   9.509  67.808  1.00  0.00    -0.216 A  
HETATM   14  C   UNL     1     -10.844  10.737  67.818  1.00  0.00    -0.269 A  
HETATM   15  N   UNL     1     -11.066   8.918  69.986  1.00  0.00    -0.212 NA 
HETATM   16  C   UNL     1     -11.569  11.040  68.983  1.00  0.00    -0.392 A  
HETATM   17  C   UNL     1     -11.653  10.125  70.019  1.00  0.00    -0.253 A  
HETATM   18  C   UNL     1     -10.328   8.646  68.885  1.00  0.00    -0.211 A  
BRANCH  14  19
HETATM   19  N   UNL     1     -10.915  11.592  66.691  1.00  0.00    -0.288 NA 
HETATM   20  H   UNL     1     -11.283  11.166  65.840  1.00  0.00     0.000 HD 
BRANCH  19  21
HETATM   21  C   UNL     1     -10.546  12.953  66.581  1.00  0.00    -0.261 A  
HETATM   22  C   UNL     1     -10.844  15.117  65.510  1.00  0.00    -0.373 A  
HETATM   23  C   UNL     1     -11.292  13.817  65.772  1.00  0.00    -0.309 A  
HETATM   24  C   UNL     1      -9.625  15.561  66.025  1.00  0.00    -0.380 A  
HETATM   25  C   UNL     1      -8.871  14.725  66.848  1.00  0.00    -0.274 A  
HETATM   26  C   UNL     1      -9.368  13.451  67.158  1.00  0.00    -0.240 A  
HETATM   27  C   UNL     1      -7.510  15.118  67.340  1.00  0.00    -0.239 C  
ENDBRANCH  19  21
ENDBRANCH  14  19
ENDBRANCH  10  13
ENDBRANCH   8  10
ENDBRANCH   6   8
ENDBRANCH   4   6
ENDBRANCH   2   4
TORSDOF 7
ENDMDL
MODEL      295
REMARK 921   NORMALIZED FREE ENERGY PREDICTED BY IDOCK:   -3.36 KCAL/MOL
REMARK 922        TOTAL FREE ENERGY PREDICTED BY IDOCK:   -6.59 KCAL/MOL
REMARK 923 INTER-LIGAND FREE ENERGY PREDICTED BY IDOCK:   -5.58 KCAL/MOL
REMARK 924 INTRA-LIGAND FREE ENERGY PREDICTED BY IDOCK:   -1.01 KCAL/MOL
REMARK 927      BINDING AFFINITY PREDICTED BY RF-SCORE:    0.00 PKD
ROOT
HETATM    1  C   UNL     1      -9.736   3.284  72.428  1.00  0.00    -0.214 C  
HETATM    2  C   UNL     1      -9.976   4.792  72.485  1.00  0.00    -0.166 C  
HETATM    3  C   UNL     1     -11.356   5.095  73.058  1.00  0.00    -0.381 C  
ENDROOT
BRANCH   2   4
HETATM    4  N   UNL     1      -8.942   5.472  73.254  1.00  0.00    -0.124 N  
HETATM    5  H   UNL     1      -8.891   5.331  74.263  1.00  0.00     0.000 HD 
BRANCH   4   6
HETATM    6  C   UNL     1      -8.037   6.297  72.643  1.00  0.00    -0.106 C  
HETATM    7  O   UNL     1      -7.280   7.040  73.243  1.00  0.00    -0.074 OA 
BRANCH   6   8
HETATM    8  N   UNL     1      -8.121   6.277  71.259  1.00  0.00    -0.116 N  
HETATM    9  H   UNL     1      -7.855   5.417  70.780  1.00  0.00     0.000 HD 
BRANCH   8  10
HETATM   10  S   UNL     1      -8.628   7.564  70.322  1.00  0.00    -0.145 S  
HETATM   11  O   UNL     1      -9.593   8.346  71.062  1.00  0.00    -0.154 OA 
HETATM   12  O   UNL     1      -7.398   8.171  69.849  1.00  0.00    -0.062 OA 
BRANCH  10  13
HETATM   13  C   UNL     1      -9.431   6.883  68.915  1.00  0.00    -0.136 A  
HETATM   14  C   UNL     1     -10.080   7.689  67.970  1.00  0.00    -0.187 A  
HETATM   15  N   UNL     1     -10.082   4.860  67.739  1.00  0.00    -0.131 NA 
HETATM   16  C   UNL     1     -10.783   7.019  66.955  1.00  0.00    -0.423 A  
HETATM   17  C   UNL     1     -10.759   5.636  66.877  1.00  0.00    -0.272 A  
HETATM   18  C   UNL     1      -9.445   5.504  68.744  1.00  0.00    -0.129 A  
BRANCH  14  19
HETATM   19  N   UNL     1      -9.951   9.099  67.937  1.00  0.00    -0.176 NA 
HETATM   20  H   UNL     1      -9.491   9.517  68.746  1.00  0.00     0.000 HD 
BRANCH  19  21
HETATM   21  C   UNL     1     -10.373  10.008  66.939  1.00  0.00    -0.234 A  
HETATM   22  C   UNL     1     -10.206  10.828  64.654  1.00  0.00    -0.419 A  
HETATM   23  C   UNL     1      -9.946   9.845  65.617  1.00  0.00    -0.353 A  
HETATM   24  C   UNL     1     -10.866  12.006  65.009  1.00  0.00    -0.351 A  
HETATM   25  C   UNL     1     -11.317  12.186  66.316  1.00  0.00    -0.411 A  
HETATM   26  C   UNL     1     -11.111  11.161  67.250  1.00  0.00    -0.366 A  
HETATM   27  C   UNL     1     -11.938  13.474  66.768  1.00  0.00    -0.453 C  
ENDBRANCH  19  21
ENDBRANCH  14  19
ENDBRANCH  10  13
ENDBRANCH   8  10
ENDBRANCH   6   8
ENDBRANCH   4   6
ENDBRANCH   2   4
TORSDOF 7
ENDMDL
MODEL      296
REMARK 921   NORMALIZED FREE ENERGY PREDICTED BY IDOCK:   -3.35 KCAL/MOL
REMARK 922        TOTAL FREE ENERGY PREDICTED BY IDOCK:   -6.57 KCAL/MOL
REMARK 923 INTER-LIGAND FREE ENERGY PREDICTED BY IDOCK:   -6.01 KCAL/MOL
REMARK 924 INTRA-LIGAND FREE ENERGY PREDICTED BY IDOCK:   -0.56 KCAL/MOL
REMARK 927      BINDING AFFINITY PREDICTED BY RF-SCORE:    0.00 PKD
ROOT
HETATM    1  C   UNL     1     -12.859  13.827  65.227  1.00  0.00    -0.430 C  
HETATM    2  C   UNL     1     -12.231  12.463  64.943  1.00  0.00    -0.418 C  
HETATM    3  C   UNL     1     -12.510  12.031  63.508  1.00  0.00    -0.654 C  
ENDROOT
BRANCH   2   4
HETATM    4  N   UNL     1     -10.797  12.465  65.207  1.00  0.00    -0.281 N  
HETATM    5  H   UNL     1     -10.294  13.352  65.238  1.00  0.00     0.000 HD 
BRANCH   4   6
HETATM    6  C   UNL     1     -10.117  11.296  65.414  1.00  0.00    -0.264 C  
HETATM    7  O   UNL     1      -9.911  10.467  64.545  1.00  0.00    -0.332 OA 
BRANCH   6   8
HETATM    8  N   UNL     1      -9.756  11.096  66.737  1.00  0.00    -0.190 N  
HETATM    9  H   UNL     1      -9.376  11.891  67.251  1.00  0.00     0.000 HD 
BRANCH   8  10
HETATM   10  S   UNL     1      -9.899   9.642  67.549  1.00  0.00    -0.179 S  
HETATM   11  O   UNL     1     -10.666   8.717  66.745  1.00  0.00    -0.206 OA 
HETATM   12  O   UNL     1      -8.542   9.318  67.948  1.00  0.00    -0.120 OA 
BRANCH  10  13
HETATM   13  C   UNL     1     -10.797   9.970  69.023  1.00  0.00    -0.222 A  
HETATM   14  C   UNL     1     -10.442   9.393  70.250  1.00  0.00    -0.251 A  
HETATM   15  N   UNL     1     -12.712  11.082  70.021  1.00  0.00    -0.176 NA 
HETATM   16  C   UNL     1     -11.308   9.640  71.329  1.00  0.00    -0.458 A  
HETATM   17  C   UNL     1     -12.405  10.471  71.176  1.00  0.00    -0.405 A  
HETATM   18  C   UNL     1     -11.906  10.806  68.970  1.00  0.00    -0.254 A  
BRANCH  14  19
HETATM   19  N   UNL     1      -9.225   8.700  70.456  1.00  0.00    -0.165 NA 
HETATM   20  H   UNL     1      -8.388   9.170  70.110  1.00  0.00     0.000 HD 
BRANCH  19  21
HETATM   21  C   UNL     1      -9.007   7.447  71.074  1.00  0.00    -0.151 A  
HETATM   22  C   UNL     1      -9.504   5.068  71.205  1.00  0.00    -0.209 A  
HETATM   23  C   UNL     1      -9.556   6.287  70.518  1.00  0.00    -0.183 A  
HETATM   24  C   UNL     1      -8.931   5.000  72.477  1.00  0.00    -0.137 A  
HETATM   25  C   UNL     1      -8.362   6.138  73.047  1.00  0.00    -0.115 A  
HETATM   26  C   UNL     1      -8.360   7.333  72.314  1.00  0.00    -0.117 A  
HETATM   27  C   UNL     1      -7.829   6.138  74.448  1.00  0.00    -0.095 C  
ENDBRANCH  19  21
ENDBRANCH  14  19
ENDBRANCH  10  13
ENDBRANCH   8  10
ENDBRANCH   6   8
ENDBRANCH   4   6
ENDBRANCH   2   4
TORSDOF 7
ENDMDL
MODEL      297
REMARK 921   NORMALIZED FREE ENERGY PREDICTED BY IDOCK:   -3.32 KCAL/MOL
REMARK 922        TOTAL FREE ENERGY PREDICTED BY IDOCK:   -6.53 KCAL/MOL
REMARK 923 INTER-LIGAND FREE ENERGY PREDICTED BY IDOCK:   -5.64 KCAL/MOL
REMARK 924 INTRA-LIGAND FREE ENERGY PREDICTED BY IDOCK:   -0.90 KCAL/MOL
REMARK 927      BINDING AFFINITY PREDICTED BY RF-SCORE:    0.00 PKD
ROOT
HETATM    1  C   UNL     1     -10.499   3.969  64.747  1.00  0.00    -0.194 C  
HETATM    2  C   UNL     1      -9.151   4.475  65.258  1.00  0.00    -0.149 C  
HETATM    3  C   UNL     1      -8.032   4.081  64.301  1.00  0.00    -0.086 C  
ENDROOT
BRANCH   2   4
HETATM    4  N   UNL     1      -9.162   5.918  65.467  1.00  0.00    -0.360 N  
HETATM    5  H   UNL     1      -9.654   6.517  64.805  1.00  0.00     0.000 HD 
BRANCH   4   6
HETATM    6  C   UNL     1      -8.521   6.479  66.538  1.00  0.00    -0.120 C  
HETATM    7  O   UNL     1      -7.312   6.479  66.683  1.00  0.00    -0.075 OA 
BRANCH   6   8
HETATM    8  N   UNL     1      -9.388   6.977  67.499  1.00  0.00    -0.123 N  
HETATM    9  H   UNL     1     -10.225   6.434  67.711  1.00  0.00     0.000 HD 
BRANCH   8  10
HETATM   10  S   UNL     1      -9.157   8.406  68.333  1.00  0.00    -0.135 S  
HETATM   11  O   UNL     1      -7.945   8.315  69.116  1.00  0.00    -0.108 OA 
HETATM   12  O   UNL     1      -9.304   9.439  67.325  1.00  0.00    -0.129 OA 
BRANCH  10  13
HETATM   13  C   UNL     1     -10.515   8.576  69.435  1.00  0.00    -0.218 A  
HETATM   14  C   UNL     1     -10.895   9.821  69.955  1.00  0.00    -0.272 A  
HETATM   15  N   UNL     1     -12.239   7.438  70.713  1.00  0.00    -0.224 NA 
HETATM   16  C   UNL     1     -11.921   9.809  70.916  1.00  0.00    -0.413 A  
HETATM   17  C   UNL     1     -12.552   8.624  71.258  1.00  0.00    -0.235 A  
HETATM   18  C   UNL     1     -11.219   7.443  69.824  1.00  0.00    -0.091 A  
BRANCH  14  19
HETATM   19  N   UNL     1     -10.385  11.050  69.472  1.00  0.00    -0.430 NA 
HETATM   20  H   UNL     1      -9.370  11.151  69.513  1.00  0.00     0.000 HD 
BRANCH  19  21
HETATM   21  C   UNL     1     -11.086  12.158  68.941  1.00  0.00    -0.243 A  
HETATM   22  C   UNL     1     -11.643  13.556  67.029  1.00  0.00    -0.394 A  
HETATM   23  C   UNL     1     -11.109  12.375  67.559  1.00  0.00    -0.313 A  
HETATM   24  C   UNL     1     -12.130  14.553  67.876  1.00  0.00    -0.261 A  
HETATM   25  C   UNL     1     -12.134  14.354  69.256  1.00  0.00    -0.336 A  
HETATM   26  C   UNL     1     -11.661  13.136  69.766  1.00  0.00    -0.350 A  
HETATM   27  C   UNL     1     -12.551  15.434  70.210  1.00  0.00    -0.377 C  
ENDBRANCH  19  21
ENDBRANCH  14  19
ENDBRANCH  10  13
ENDBRANCH   8  10
ENDBRANCH   6   8
ENDBRANCH   4   6
ENDBRANCH   2   4
TORSDOF 7
ENDMDL
MODEL      298
REMARK 921   NORMALIZED FREE ENERGY PREDICTED BY IDOCK:   -3.29 KCAL/MOL
REMARK 922        TOTAL FREE ENERGY PREDICTED BY IDOCK:   -6.49 KCAL/MOL
REMARK 923 INTER-LIGAND FREE ENERGY PREDICTED BY IDOCK:   -5.07 KCAL/MOL
REMARK 924 INTRA-LIGAND FREE ENERGY PREDICTED BY IDOCK:   -1.42 KCAL/MOL
REMARK 927      BINDING AFFINITY PREDICTED BY RF-SCORE:    0.00 PKD
ROOT
HETATM    1  C   UNL     1      -7.048   5.166  69.909  1.00  0.00    -0.058 C  
HETATM    2  C   UNL     1      -7.779   6.240  70.714  1.00  0.00    -0.102 C  
HETATM    3  C   UNL     1      -7.117   6.437  72.072  1.00  0.00    -0.082 C  
ENDROOT
BRANCH   2   4
HETATM    4  N   UNL     1      -7.847   7.502  69.989  1.00  0.00    -0.097 N  
HETATM    5  H   UNL     1      -6.984   7.969  69.710  1.00  0.00     0.000 HD 
BRANCH   4   6
HETATM    6  C   UNL     1      -9.052   8.072  69.677  1.00  0.00    -0.152 C  
HETATM    7  O   UNL     1      -9.346   9.225  69.939  1.00  0.00    -0.171 OA 
BRANCH   6   8
HETATM    8  N   UNL     1      -9.950   7.182  69.109  1.00  0.00    -0.164 N  
HETATM    9  H   UNL     1     -10.630   6.735  69.724  1.00  0.00     0.000 HD 
BRANCH   8  10
HETATM   10  S   UNL     1      -9.997   6.792  67.485  1.00  0.00    -0.155 S  
HETATM   11  O   UNL     1      -9.414   5.484  67.288  1.00  0.00    -0.113 OA 
HETATM   12  O   UNL     1     -11.370   7.050  67.093  1.00  0.00    -0.240 OA 
BRANCH  10  13
HETATM   13  C   UNL     1      -9.000   7.974  66.650  1.00  0.00    -0.150 A  
HETATM   14  C   UNL     1      -9.426   9.293  66.450  1.00  0.00    -0.218 A  
HETATM   15  N   UNL     1      -6.936   8.383  65.437  1.00  0.00    -0.073 NA 
HETATM   16  C   UNL     1      -8.591  10.108  65.667  1.00  0.00    -0.166 A  
HETATM   17  C   UNL     1      -7.383   9.625  65.191  1.00  0.00    -0.115 A  
HETATM   18  C   UNL     1      -7.763   7.585  66.150  1.00  0.00    -0.090 A  
BRANCH  14  19
HETATM   19  N   UNL     1     -10.564   9.844  67.089  1.00  0.00    -0.244 NA 
HETATM   20  H   UNL     1     -11.245   9.167  67.434  1.00  0.00     0.000 HD 
BRANCH  19  21
HETATM   21  C   UNL     1     -10.887  11.203  67.315  1.00  0.00    -0.274 A  
HETATM   22  C   UNL     1     -11.313  13.016  68.881  1.00  0.00    -0.333 A  
HETATM   23  C   UNL     1     -10.829  11.731  68.609  1.00  0.00    -0.259 A  
HETATM   24  C   UNL     1     -11.895  13.779  67.867  1.00  0.00    -0.413 A  
HETATM   25  C   UNL     1     -11.950  13.282  66.565  1.00  0.00    -0.448 A  
HETATM   26  C   UNL     1     -11.397  12.023  66.297  1.00  0.00    -0.415 A  
HETATM   27  C   UNL     1     -12.656  14.020  65.467  1.00  0.00    -0.543 C  
ENDBRANCH  19  21
ENDBRANCH  14  19
ENDBRANCH  10  13
ENDBRANCH   8  10
ENDBRANCH   6   8
ENDBRANCH   4   6
ENDBRANCH   2   4
TORSDOF 7
ENDMDL
MODEL      299
REMARK 921   NORMALIZED FREE ENERGY PREDICTED BY IDOCK:   -3.28 KCAL/MOL
REMARK 922        TOTAL FREE ENERGY PREDICTED BY IDOCK:   -6.47 KCAL/MOL
REMARK 923 INTER-LIGAND FREE ENERGY PREDICTED BY IDOCK:   -5.69 KCAL/MOL
REMARK 924 INTRA-LIGAND FREE ENERGY PREDICTED BY IDOCK:   -0.78 KCAL/MOL
REMARK 927      BINDING AFFINITY PREDICTED BY RF-SCORE:    0.00 PKD
ROOT
HETATM    1  C   UNL     1      -8.266  13.697  68.619  1.00  0.00    -0.058 C  
HETATM    2  C   UNL     1      -8.303  12.275  68.059  1.00  0.00    -0.165 C  
HETATM    3  C   UNL     1      -7.131  12.040  67.114  1.00  0.00    -0.130 C  
ENDROOT
BRANCH   2   4
HETATM    4  N   UNL     1      -8.312  11.278  69.122  1.00  0.00    -0.376 N  
HETATM    5  H   UNL     1      -9.201  10.892  69.441  1.00  0.00     0.000 HD 
BRANCH   4   6
HETATM    6  C   UNL     1      -7.146  10.853  69.699  1.00  0.00    -0.116 C  
HETATM    7  O   UNL     1      -6.392  11.580  70.320  1.00  0.00    -0.190 OA 
BRANCH   6   8
HETATM    8  N   UNL     1      -6.854   9.524  69.434  1.00  0.00    -0.048 N  
HETATM    9  H   UNL     1      -6.076   9.325  68.806  1.00  0.00     0.000 HD 
BRANCH   8  10
HETATM   10  S   UNL     1      -7.690   8.226  70.073  1.00  0.00    -0.097 S  
HETATM   11  O   UNL     1      -6.774   7.133  70.307  1.00  0.00    -0.049 OA 
HETATM   12  O   UNL     1      -8.452   8.793  71.169  1.00  0.00    -0.155 OA 
BRANCH  10  13
HETATM   13  C   UNL     1      -8.853   7.721  68.855  1.00  0.00    -0.135 A  
HETATM   14  C   UNL     1     -10.132   7.265  69.197  1.00  0.00    -0.183 A  
HETATM   15  N   UNL     1      -9.268   7.330  66.494  1.00  0.00    -0.154 NA 
HETATM   16  C   UNL     1     -10.925   6.781  68.143  1.00  0.00    -0.277 A  
HETATM   17  C   UNL     1     -10.466   6.830  66.837  1.00  0.00    -0.280 A  
HETATM   18  C   UNL     1      -8.487   7.752  67.515  1.00  0.00    -0.120 A  
BRANCH  14  19
HETATM   19  N   UNL     1     -10.675   7.387  70.500  1.00  0.00    -0.229 NA 
HETATM   20  H   UNL     1     -10.477   6.611  71.132  1.00  0.00     0.000 HD 
BRANCH  19  21
HETATM   21  C   UNL     1     -11.454   8.434  71.046  1.00  0.00    -0.268 A  
HETATM   22  C   UNL     1     -13.328   9.141  72.426  1.00  0.00    -0.527 A  
HETATM   23  C   UNL     1     -12.431   8.152  72.006  1.00  0.00    -0.375 A  
HETATM   24  C   UNL     1     -13.283  10.419  71.865  1.00  0.00    -0.535 A  
HETATM   25  C   UNL     1     -12.307  10.730  70.918  1.00  0.00    -0.497 A  
HETATM   26  C   UNL     1     -11.373   9.748  70.562  1.00  0.00    -0.382 A  
HETATM   27  C   UNL     1     -12.283  12.054  70.214  1.00  0.00    -0.348 C  
ENDBRANCH  19  21
ENDBRANCH  14  19
ENDBRANCH  10  13
ENDBRANCH   8  10
ENDBRANCH   6   8
ENDBRANCH   4   6
ENDBRANCH   2   4
TORSDOF 7
ENDMDL
MODEL      300
REMARK 921   NORMALIZED FREE ENERGY PREDICTED BY IDOCK:   -3.26 KCAL/MOL
REMARK 922        TOTAL FREE ENERGY PREDICTED BY IDOCK:   -6.45 KCAL/MOL
REMARK 923 INTER-LIGAND FREE ENERGY PREDICTED BY IDOCK:   -5.15 KCAL/MOL
REMARK 924 INTRA-LIGAND FREE ENERGY PREDICTED BY IDOCK:   -1.30 KCAL/MOL
REMARK 927      BINDING AFFINITY PREDICTED BY RF-SCORE:    0.00 PKD
ROOT
HETATM    1  C   UNL     1     -11.261  16.272  64.718  1.00  0.00    -0.267 C  
HETATM    2  C   UNL     1     -10.661  15.123  65.529  1.00  0.00    -0.365 C  
HETATM    3  C   UNL     1      -9.924  15.657  66.752  1.00  0.00    -0.258 C  
ENDROOT
BRANCH   2   4
HETATM    4  N   UNL     1     -11.678  14.157  65.924  1.00  0.00    -0.353 N  
HETATM    5  H   UNL     1     -12.271  14.354  66.730  1.00  0.00     0.000 HD 
BRANCH   4   6
HETATM    6  C   UNL     1     -11.847  12.989  65.231  1.00  0.00    -0.376 C  
HETATM    7  O   UNL     1     -12.652  12.846  64.327  1.00  0.00    -0.604 OA 
BRANCH   6   8
HETATM    8  N   UNL     1     -11.071  11.946  65.713  1.00  0.00    -0.316 N  
HETATM    9  H   UNL     1     -10.524  11.410  65.039  1.00  0.00     0.000 HD 
BRANCH   8  10
HETATM   10  S   UNL     1     -10.971  11.505  67.321  1.00  0.00    -0.287 S  
HETATM   11  O   UNL     1     -11.849  12.345  68.105  1.00  0.00    -0.338 OA 
HETATM   12  O   UNL     1     -11.148  10.065  67.312  1.00  0.00    -0.229 OA 
BRANCH  10  13
HETATM   13  C   UNL     1      -9.317  11.810  67.829  1.00  0.00    -0.181 A  
HETATM   14  C   UNL     1      -8.791  11.260  69.006  1.00  0.00     0.038 A  
HETATM   15  N   UNL     1      -7.247  12.997  67.375  1.00  0.00    -0.145 NA 
HETATM   16  C   UNL     1      -7.495  11.673  69.363  1.00  0.00     0.154 A  
HETATM   17  C   UNL     1      -6.775  12.522  68.539  1.00  0.00    -0.078 A  
HETATM   18  C   UNL     1      -8.512  12.638  67.056  1.00  0.00    -0.150 A  
BRANCH  14  19
HETATM   19  N   UNL     1      -9.448  10.251  69.750  1.00  0.00    -0.393 NA 
HETATM   20  H   UNL     1     -10.341  10.521  70.164  1.00  0.00     0.000 HD 
BRANCH  19  21
HETATM   21  C   UNL     1      -9.039   8.920  70.000  1.00  0.00    -0.166 A  
HETATM   22  C   UNL     1      -9.032   6.578  69.341  1.00  0.00    -0.132 A  
HETATM   23  C   UNL     1      -9.266   7.926  69.043  1.00  0.00    -0.147 A  
HETATM   24  C   UNL     1      -8.599   6.202  70.614  1.00  0.00    -0.135 A  
HETATM   25  C   UNL     1      -8.349   7.175  71.581  1.00  0.00    -0.110 A  
HETATM   26  C   UNL     1      -8.520   8.525  71.243  1.00  0.00    -0.203 A  
HETATM   27  C   UNL     1      -7.982   6.814  72.990  1.00  0.00    -0.107 C  
ENDBRANCH  19  21
ENDBRANCH  14  19
ENDBRANCH  10  13
ENDBRANCH   8  10
ENDBRANCH   6   8
ENDBRANCH   4   6
ENDBRANCH   2   4
TORSDOF 7
ENDMDL
MODEL      301
REMARK 921   NORMALIZED FREE ENERGY PREDICTED BY IDOCK:   -3.26 KCAL/MOL
REMARK 922        TOTAL FREE ENERGY PREDICTED BY IDOCK:   -6.44 KCAL/MOL
REMARK 923 INTER-LIGAND FREE ENERGY PREDICTED BY IDOCK:   -4.93 KCAL/MOL
REMARK 924 INTRA-LIGAND FREE ENERGY PREDICTED BY IDOCK:   -1.50 KCAL/MOL
REMARK 927      BINDING AFFINITY PREDICTED BY RF-SCORE:    0.00 PKD
ROOT
HETATM    1  C   UNL     1      -6.856   8.229  71.033  1.00  0.00    -0.046 C  
HETATM    2  C   UNL     1      -7.176   9.664  70.615  1.00  0.00    -0.103 C  
HETATM    3  C   UNL     1      -5.939  10.547  70.737  1.00  0.00    -0.073 C  
ENDROOT
BRANCH   2   4
HETATM    4  N   UNL     1      -7.714   9.722  69.262  1.00  0.00    -0.092 N  
HETATM    5  H   UNL     1      -7.082   9.646  68.465  1.00  0.00     0.000 HD 
BRANCH   4   6
HETATM    6  C   UNL     1      -9.056   9.879  69.044  1.00  0.00    -0.164 C  
HETATM    7  O   UNL     1      -9.839   8.952  68.934  1.00  0.00    -0.168 OA 
BRANCH   6   8
HETATM    8  N   UNL     1      -9.435  11.201  68.872  1.00  0.00    -0.338 N  
HETATM    9  H   UNL     1     -10.291  11.513  69.330  1.00  0.00     0.000 HD 
BRANCH   8  10
HETATM   10  S   UNL     1      -8.586  12.319  67.965  1.00  0.00    -0.182 S  
HETATM   11  O   UNL     1      -7.636  13.003  68.814  1.00  0.00    -0.108 OA 
HETATM   12  O   UNL     1      -8.132  11.572  66.807  1.00  0.00    -0.156 OA 
BRANCH  10  13
HETATM   13  C   UNL     1      -9.755  13.495  67.384  1.00  0.00    -0.229 A  
HETATM   14  C   UNL     1      -9.413  14.837  67.175  1.00  0.00    -0.227 A  
HETATM   15  N   UNL     1     -12.065  13.913  66.759  1.00  0.00    -0.439 NA 
HETATM   16  C   UNL     1     -10.464  15.701  66.821  1.00  0.00    -0.297 A  
HETATM   17  C   UNL     1     -11.744  15.210  66.628  1.00  0.00    -0.047 A  
HETATM   18  C   UNL     1     -11.063  13.090  67.146  1.00  0.00    -0.273 A  
BRANCH  14  19
HETATM   19  N   UNL     1      -8.078  15.307  67.187  1.00  0.00    -0.201 NA 
HETATM   20  H   UNL     1      -7.359  14.592  67.071  1.00  0.00     0.000 HD 
BRANCH  19  21
HETATM   21  C   UNL     1      -7.600  16.630  67.339  1.00  0.00    -0.165 A  
HETATM   22  C   UNL     1      -7.268  18.581  68.755  1.00  0.00    -0.316 A  
HETATM   23  C   UNL     1      -7.567  17.221  68.607  1.00  0.00    -0.260 A  
HETATM   24  C   UNL     1      -7.033  19.378  67.633  1.00  0.00    -0.249 A  
HETATM   25  C   UNL     1      -7.043  18.809  66.359  1.00  0.00    -0.258 A  
HETATM   26  C   UNL     1      -7.274  17.432  66.235  1.00  0.00    -0.346 A  
HETATM   27  C   UNL     1      -6.898  19.642  65.120  1.00  0.00    -0.198 C  
ENDBRANCH  19  21
ENDBRANCH  14  19
ENDBRANCH  10  13
ENDBRANCH   8  10
ENDBRANCH   6   8
ENDBRANCH   4   6
ENDBRANCH   2   4
TORSDOF 7
ENDMDL
MODEL      302
REMARK 921   NORMALIZED FREE ENERGY PREDICTED BY IDOCK:   -3.24 KCAL/MOL
REMARK 922        TOTAL FREE ENERGY PREDICTED BY IDOCK:   -6.42 KCAL/MOL
REMARK 923 INTER-LIGAND FREE ENERGY PREDICTED BY IDOCK:   -5.09 KCAL/MOL
REMARK 924 INTRA-LIGAND FREE ENERGY PREDICTED BY IDOCK:   -1.32 KCAL/MOL
REMARK 927      BINDING AFFINITY PREDICTED BY RF-SCORE:    0.00 PKD
ROOT
HETATM    1  C   UNL     1      -9.694   3.608  72.543  1.00  0.00    -0.207 C  
HETATM    2  C   UNL     1      -9.949   5.115  72.507  1.00  0.00    -0.172 C  
HETATM    3  C   UNL     1     -11.414   5.418  72.802  1.00  0.00    -0.333 C  
ENDROOT
BRANCH   2   4
HETATM    4  N   UNL     1      -9.082   5.830  73.435  1.00  0.00    -0.133 N  
HETATM    5  H   UNL     1      -8.870   5.418  74.344  1.00  0.00     0.000 HD 
BRANCH   4   6
HETATM    6  C   UNL     1      -8.547   7.045  73.105  1.00  0.00    -0.121 C  
HETATM    7  O   UNL     1      -8.117   7.842  73.920  1.00  0.00    -0.172 OA 
BRANCH   6   8
HETATM    8  N   UNL     1      -8.619   7.328  71.750  1.00  0.00    -0.116 N  
HETATM    9  H   UNL     1      -8.265   6.627  71.099  1.00  0.00     0.000 HD 
BRANCH   8  10
HETATM   10  S   UNL     1      -9.246   8.738  71.109  1.00  0.00    -0.258 S  
HETATM   11  O   UNL     1     -10.471   9.076  71.798  1.00  0.00    -0.332 OA 
HETATM   12  O   UNL     1      -8.126   9.661  71.106  1.00  0.00    -0.259 OA 
BRANCH  10  13
HETATM   13  C   UNL     1      -9.632   8.405  69.427  1.00  0.00    -0.170 A  
HETATM   14  C   UNL     1     -10.352   9.312  68.639  1.00  0.00    -0.205 A  
HETATM   15  N   UNL     1      -9.526   6.800  67.607  1.00  0.00    -0.119 NA 
HETATM   16  C   UNL     1     -10.698   8.879  67.348  1.00  0.00    -0.225 A  
HETATM   17  C   UNL     1     -10.275   7.646  66.882  1.00  0.00    -0.294 A  
HETATM   18  C   UNL     1      -9.234   7.197  68.867  1.00  0.00    -0.137 A  
BRANCH  14  19
HETATM   19  N   UNL     1     -10.624  10.642  69.042  1.00  0.00    -0.205 NA 
HETATM   20  H   UNL     1     -11.240  10.739  69.850  1.00  0.00     0.000 HD 
BRANCH  19  21
HETATM   21  C   UNL     1     -10.161  11.855  68.481  1.00  0.00    -0.215 A  
HETATM   22  C   UNL     1      -8.300  13.249  67.765  1.00  0.00    -0.171 A  
HETATM   23  C   UNL     1      -8.809  12.004  68.153  1.00  0.00    -0.182 A  
HETATM   24  C   UNL     1      -9.129  14.372  67.732  1.00  0.00    -0.192 A  
HETATM   25  C   UNL     1     -10.484  14.246  68.037  1.00  0.00    -0.235 A  
HETATM   26  C   UNL     1     -10.992  12.979  68.355  1.00  0.00    -0.288 A  
HETATM   27  C   UNL     1     -11.391  15.438  68.115  1.00  0.00    -0.353 C  
ENDBRANCH  19  21
ENDBRANCH  14  19
ENDBRANCH  10  13
ENDBRANCH   8  10
ENDBRANCH   6   8
ENDBRANCH   4   6
ENDBRANCH   2   4
TORSDOF 7
ENDMDL
MODEL      303
REMARK 921   NORMALIZED FREE ENERGY PREDICTED BY IDOCK:   -3.24 KCAL/MOL
REMARK 922        TOTAL FREE ENERGY PREDICTED BY IDOCK:   -6.41 KCAL/MOL
REMARK 923 INTER-LIGAND FREE ENERGY PREDICTED BY IDOCK:   -5.59 KCAL/MOL
REMARK 924 INTRA-LIGAND FREE ENERGY PREDICTED BY IDOCK:   -0.82 KCAL/MOL
REMARK 927      BINDING AFFINITY PREDICTED BY RF-SCORE:    0.00 PKD
ROOT
HETATM    1  C   UNL     1      -9.594  17.590  66.478  1.00  0.00    -0.295 C  
HETATM    2  C   UNL     1      -8.437  16.699  66.025  1.00  0.00    -0.163 C  
HETATM    3  C   UNL     1      -7.129  17.481  66.018  1.00  0.00    -0.299 C  
ENDROOT
BRANCH   2   4
HETATM    4  N   UNL     1      -8.318  15.509  66.857  1.00  0.00    -0.235 N  
HETATM    5  H   UNL     1      -7.989  14.637  66.442  1.00  0.00     0.000 HD 
BRANCH   4   6
HETATM    6  C   UNL     1      -8.640  15.543  68.186  1.00  0.00    -0.152 C  
HETATM    7  O   UNL     1      -8.346  16.460  68.933  1.00  0.00    -0.218 OA 
BRANCH   6   8
HETATM    8  N   UNL     1      -9.262  14.387  68.632  1.00  0.00    -0.228 N  
HETATM    9  H   UNL     1      -8.929  13.974  69.503  1.00  0.00     0.000 HD 
BRANCH   8  10
HETATM   10  S   UNL     1     -10.519  13.623  67.840  1.00  0.00    -0.252 S  
HETATM   11  O   UNL     1     -11.433  14.615  67.319  1.00  0.00    -0.346 OA 
HETATM   12  O   UNL     1      -9.865  12.686  66.945  1.00  0.00    -0.224 OA 
BRANCH  10  13
HETATM   13  C   UNL     1     -11.370  12.665  69.043  1.00  0.00    -0.292 A  
HETATM   14  C   UNL     1     -11.540  11.282  68.902  1.00  0.00    -0.319 A  
HETATM   15  N   UNL     1     -12.641  12.682  71.113  1.00  0.00    -0.331 NA 
HETATM   16  C   UNL     1     -12.339  10.649  69.870  1.00  0.00    -0.304 A  
HETATM   17  C   UNL     1     -12.857  11.369  70.934  1.00  0.00    -0.232 A  
HETATM   18  C   UNL     1     -11.912  13.299  70.154  1.00  0.00    -0.318 A  
BRANCH  14  19
HETATM   19  N   UNL     1     -10.860  10.513  67.926  1.00  0.00    -0.260 NA 
HETATM   20  H   UNL     1     -10.918  10.866  66.971  1.00  0.00     0.000 HD 
BRANCH  19  21
HETATM   21  C   UNL     1     -10.112   9.324  68.092  1.00  0.00    -0.187 A  
HETATM   22  C   UNL     1      -9.935   6.913  67.817  1.00  0.00    -0.180 A  
HETATM   23  C   UNL     1     -10.561   8.129  67.519  1.00  0.00    -0.291 A  
HETATM   24  C   UNL     1      -8.872   6.870  68.721  1.00  0.00    -0.132 A  
HETATM   25  C   UNL     1      -8.395   8.049  69.293  1.00  0.00    -0.134 A  
HETATM   26  C   UNL     1      -8.987   9.266  68.928  1.00  0.00    -0.136 A  
HETATM   27  C   UNL     1      -7.326   8.041  70.344  1.00  0.00    -0.063 C  
ENDBRANCH  19  21
ENDBRANCH  14  19
ENDBRANCH  10  13
ENDBRANCH   8  10
ENDBRANCH   6   8
ENDBRANCH   4   6
ENDBRANCH   2   4
TORSDOF 7
ENDMDL
MODEL      304
REMARK 921   NORMALIZED FREE ENERGY PREDICTED BY IDOCK:   -3.23 KCAL/MOL
REMARK 922        TOTAL FREE ENERGY PREDICTED BY IDOCK:   -6.41 KCAL/MOL
REMARK 923 INTER-LIGAND FREE ENERGY PREDICTED BY IDOCK:   -5.65 KCAL/MOL
REMARK 924 INTRA-LIGAND FREE ENERGY PREDICTED BY IDOCK:   -0.76 KCAL/MOL
REMARK 927      BINDING AFFINITY PREDICTED BY RF-SCORE:    0.00 PKD
ROOT
HETATM    1  C   UNL     1     -11.125   6.040  69.164  1.00  0.00    -0.405 C  
HETATM    2  C   UNL     1     -10.154   5.420  68.159  1.00  0.00    -0.166 C  
HETATM    3  C   UNL     1     -10.688   5.565  66.738  1.00  0.00    -0.329 C  
ENDROOT
BRANCH   2   4
HETATM    4  N   UNL     1      -8.823   6.002  68.268  1.00  0.00    -0.112 N  
HETATM    5  H   UNL     1      -8.017   5.391  68.403  1.00  0.00     0.000 HD 
BRANCH   4   6
HETATM    6  C   UNL     1      -8.637   7.356  68.192  1.00  0.00    -0.123 C  
HETATM    7  O   UNL     1      -8.351   7.945  67.165  1.00  0.00    -0.115 OA 
BRANCH   6   8
HETATM    8  N   UNL     1      -8.721   7.992  69.420  1.00  0.00    -0.136 N  
HETATM    9  H   UNL     1      -8.268   7.547  70.218  1.00  0.00     0.000 HD 
BRANCH   8  10
HETATM   10  S   UNL     1      -9.513   9.440  69.684  1.00  0.00    -0.202 S  
HETATM   11  O   UNL     1     -10.708   9.489  68.872  1.00  0.00    -0.222 OA 
HETATM   12  O   UNL     1      -9.603   9.543  71.129  1.00  0.00    -0.213 OA 
BRANCH  10  13
HETATM   13  C   UNL     1      -8.429  10.717  69.151  1.00  0.00    -0.128 A  
HETATM   14  C   UNL     1      -8.830  11.690  68.226  1.00  0.00    -0.167 A  
HETATM   15  N   UNL     1      -6.186  11.643  69.260  1.00  0.00    -0.076 NA 
HETATM   16  C   UNL     1      -7.837  12.585  67.793  1.00  0.00    -0.151 A  
HETATM   17  C   UNL     1      -6.558  12.528  68.322  1.00  0.00    -0.073 A  
HETATM   18  C   UNL     1      -7.129  10.751  69.641  1.00  0.00    -0.136 A  
BRANCH  14  19
HETATM   19  N   UNL     1     -10.176  11.869  67.825  1.00  0.00    -0.196 NA 
HETATM   20  H   UNL     1     -10.856  11.930  68.584  1.00  0.00     0.000 HD 
BRANCH  19  21
HETATM   21  C   UNL     1     -10.710  11.976  66.520  1.00  0.00    -0.258 A  
HETATM   22  C   UNL     1     -10.766  11.195  64.216  1.00  0.00    -0.403 A  
HETATM   23  C   UNL     1     -10.395  11.014  65.554  1.00  0.00    -0.321 A  
HETATM   24  C   UNL     1     -11.426  12.359  63.818  1.00  0.00    -0.544 A  
HETATM   25  C   UNL     1     -11.766  13.326  64.765  1.00  0.00    -0.390 A  
HETATM   26  C   UNL     1     -11.451  13.095  66.111  1.00  0.00    -0.366 A  
HETATM   27  C   UNL     1     -12.383  14.635  64.371  1.00  0.00    -0.420 C  
ENDBRANCH  19  21
ENDBRANCH  14  19
ENDBRANCH  10  13
ENDBRANCH   8  10
ENDBRANCH   6   8
ENDBRANCH   4   6
ENDBRANCH   2   4
TORSDOF 7
ENDMDL
MODEL      305
REMARK 921   NORMALIZED FREE ENERGY PREDICTED BY IDOCK:   -3.23 KCAL/MOL
REMARK 922        TOTAL FREE ENERGY PREDICTED BY IDOCK:   -6.40 KCAL/MOL
REMARK 923 INTER-LIGAND FREE ENERGY PREDICTED BY IDOCK:   -5.69 KCAL/MOL
REMARK 924 INTRA-LIGAND FREE ENERGY PREDICTED BY IDOCK:   -0.71 KCAL/MOL
REMARK 927      BINDING AFFINITY PREDICTED BY RF-SCORE:    0.00 PKD
ROOT
HETATM    1  C   UNL     1     -12.267  15.121  64.082  1.00  0.00    -0.182 C  
HETATM    2  C   UNL     1     -11.704  13.749  64.455  1.00  0.00    -0.408 C  
HETATM    3  C   UNL     1     -11.981  12.737  63.349  1.00  0.00    -0.613 C  
ENDROOT
BRANCH   2   4
HETATM    4  N   UNL     1     -10.277  13.814  64.744  1.00  0.00    -0.588 N  
HETATM    5  H   UNL     1      -9.608  13.822  63.974  1.00  0.00     0.000 HD 
BRANCH   4   6
HETATM    6  C   UNL     1      -9.822  13.865  66.034  1.00  0.00    -0.289 C  
HETATM    7  O   UNL     1     -10.003  14.810  66.781  1.00  0.00    -0.241 OA 
BRANCH   6   8
HETATM    8  N   UNL     1      -9.052  12.768  66.389  1.00  0.00    -0.411 N  
HETATM    9  H   UNL     1      -8.038  12.867  66.353  1.00  0.00     0.000 HD 
BRANCH   8  10
HETATM   10  S   UNL     1      -9.672  11.293  66.872  1.00  0.00    -0.195 S  
HETATM   11  O   UNL     1      -9.104  10.928  68.150  1.00  0.00    -0.144 OA 
HETATM   12  O   UNL     1     -11.108  11.440  66.722  1.00  0.00    -0.287 OA 
BRANCH  10  13
HETATM   13  C   UNL     1      -9.156  10.110  65.680  1.00  0.00    -0.179 A  
HETATM   14  C   UNL     1      -8.684   8.844  66.050  1.00  0.00    -0.160 A  
HETATM   15  N   UNL     1      -8.765   9.645  63.328  1.00  0.00    -0.216 NA 
HETATM   16  C   UNL     1      -8.192   8.033  65.012  1.00  0.00    -0.144 A  
HETATM   17  C   UNL     1      -8.250   8.462  63.697  1.00  0.00    -0.104 A  
HETATM   18  C   UNL     1      -9.194  10.445  64.332  1.00  0.00    -0.251 A  
BRANCH  14  19
HETATM   19  N   UNL     1      -8.795   8.329  67.364  1.00  0.00    -0.130 NA 
HETATM   20  H   UNL     1      -8.665   9.009  68.114  1.00  0.00     0.000 HD 
BRANCH  19  21
HETATM   21  C   UNL     1      -9.062   7.005  67.783  1.00  0.00    -0.126 A  
HETATM   22  C   UNL     1      -9.989   4.808  67.298  1.00  0.00    -0.214 A  
HETATM   23  C   UNL     1      -9.553   6.067  66.868  1.00  0.00    -0.158 A  
HETATM   24  C   UNL     1      -9.973   4.481  68.655  1.00  0.00    -0.111 A  
HETATM   25  C   UNL     1      -9.472   5.392  69.585  1.00  0.00    -0.194 A  
HETATM   26  C   UNL     1      -8.973   6.620  69.129  1.00  0.00    -0.131 A  
HETATM   27  C   UNL     1      -9.528   5.127  71.060  1.00  0.00    -0.214 C  
ENDBRANCH  19  21
ENDBRANCH  14  19
ENDBRANCH  10  13
ENDBRANCH   8  10
ENDBRANCH   6   8
ENDBRANCH   4   6
ENDBRANCH   2   4
TORSDOF 7
ENDMDL
MODEL      306
REMARK 921   NORMALIZED FREE ENERGY PREDICTED BY IDOCK:   -3.23 KCAL/MOL
REMARK 922        TOTAL FREE ENERGY PREDICTED BY IDOCK:   -6.40 KCAL/MOL
REMARK 923 INTER-LIGAND FREE ENERGY PREDICTED BY IDOCK:   -5.06 KCAL/MOL
REMARK 924 INTRA-LIGAND FREE ENERGY PREDICTED BY IDOCK:   -1.35 KCAL/MOL
REMARK 927      BINDING AFFINITY PREDICTED BY RF-SCORE:    0.00 PKD
ROOT
HETATM    1  C   UNL     1      -7.519   9.819  64.423  1.00  0.00    -0.132 C  
HETATM    2  C   UNL     1      -8.508   9.622  65.572  1.00  0.00    -0.142 C  
HETATM    3  C   UNL     1      -9.539  10.745  65.592  1.00  0.00    -0.263 C  
ENDROOT
BRANCH   2   4
HETATM    4  N   UNL     1      -9.166   8.324  65.499  1.00  0.00    -0.411 N  
HETATM    5  H   UNL     1      -9.927   8.183  64.834  1.00  0.00     0.000 HD 
BRANCH   4   6
HETATM    6  C   UNL     1      -8.779   7.291  66.309  1.00  0.00    -0.149 C  
HETATM    7  O   UNL     1      -8.317   7.441  67.426  1.00  0.00    -0.114 OA 
BRANCH   6   8
HETATM    8  N   UNL     1      -8.878   6.049  65.702  1.00  0.00    -0.252 N  
HETATM    9  H   UNL     1      -8.187   5.810  64.992  1.00  0.00     0.000 HD 
BRANCH   8  10
HETATM   10  S   UNL     1     -10.055   4.915  66.054  1.00  0.00    -0.235 S  
HETATM   11  O   UNL     1     -11.150   5.558  66.745  1.00  0.00    -0.137 OA 
HETATM   12  O   UNL     1     -10.282   4.230  64.795  1.00  0.00    -0.196 OA 
BRANCH  10  13
HETATM   13  C   UNL     1      -9.323   3.746  67.143  1.00  0.00    -0.196 A  
HETATM   14  C   UNL     1      -8.902   4.098  68.432  1.00  0.00    -0.105 A  
HETATM   15  N   UNL     1      -8.527   1.469  67.428  1.00  0.00    -0.076 NA 
HETATM   16  C   UNL     1      -8.227   3.104  69.161  1.00  0.00    -0.077 A  
HETATM   17  C   UNL     1      -8.065   1.833  68.635  1.00  0.00    -0.048 A  
HETATM   18  C   UNL     1      -9.134   2.440  66.708  1.00  0.00    -0.098 A  
BRANCH  14  19
HETATM   19  N   UNL     1      -9.230   5.332  69.044  1.00  0.00    -0.114 NA 
HETATM   20  H   UNL     1      -8.676   6.133  68.742  1.00  0.00     0.000 HD 
BRANCH  19  21
HETATM   21  C   UNL     1     -10.220   5.608  70.016  1.00  0.00    -0.252 A  
HETATM   22  C   UNL     1     -11.967   7.077  70.860  1.00  0.00    -0.409 A  
HETATM   23  C   UNL     1     -11.101   6.679  69.833  1.00  0.00    -0.403 A  
HETATM   24  C   UNL     1     -11.937   6.432  72.098  1.00  0.00    -0.346 A  
HETATM   25  C   UNL     1     -11.080   5.351  72.300  1.00  0.00    -0.259 A  
HETATM   26  C   UNL     1     -10.271   4.920  71.238  1.00  0.00    -0.248 A  
HETATM   27  C   UNL     1     -10.939   4.693  73.640  1.00  0.00    -0.392 C  
ENDBRANCH  19  21
ENDBRANCH  14  19
ENDBRANCH  10  13
ENDBRANCH   8  10
ENDBRANCH   6   8
ENDBRANCH   4   6
ENDBRANCH   2   4
TORSDOF 7
ENDMDL
MODEL      307
REMARK 921   NORMALIZED FREE ENERGY PREDICTED BY IDOCK:   -3.22 KCAL/MOL
REMARK 922        TOTAL FREE ENERGY PREDICTED BY IDOCK:   -6.39 KCAL/MOL
REMARK 923 INTER-LIGAND FREE ENERGY PREDICTED BY IDOCK:   -5.74 KCAL/MOL
REMARK 924 INTRA-LIGAND FREE ENERGY PREDICTED BY IDOCK:   -0.65 KCAL/MOL
REMARK 927      BINDING AFFINITY PREDICTED BY RF-SCORE:    0.00 PKD
ROOT
HETATM    1  C   UNL     1      -8.422  17.487  67.084  1.00  0.00    -0.232 C  
HETATM    2  C   UNL     1      -7.143  16.801  66.605  1.00  0.00    -0.240 C  
HETATM    3  C   UNL     1      -5.946  17.734  66.750  1.00  0.00    -0.195 C  
ENDROOT
BRANCH   2   4
HETATM    4  N   UNL     1      -6.905  15.550  67.313  1.00  0.00    -0.179 N  
HETATM    5  H   UNL     1      -6.561  14.739  66.799  1.00  0.00     0.000 HD 
BRANCH   4   6
HETATM    6  C   UNL     1      -7.138  15.447  68.658  1.00  0.00    -0.116 C  
HETATM    7  O   UNL     1      -6.623  16.168  69.494  1.00  0.00    -0.187 OA 
BRANCH   6   8
HETATM    8  N   UNL     1      -7.955  14.379  68.994  1.00  0.00    -0.272 N  
HETATM    9  H   UNL     1      -8.480  14.439  69.867  1.00  0.00     0.000 HD 
BRANCH   8  10
HETATM   10  S   UNL     1      -8.140  12.999  68.069  1.00  0.00    -0.168 S  
HETATM   11  O   UNL     1      -7.202  13.030  66.969  1.00  0.00    -0.020 OA 
HETATM   12  O   UNL     1      -8.108  11.914  69.032  1.00  0.00     0.005 OA 
BRANCH  10  13
HETATM   13  C   UNL     1      -9.768  13.044  67.409  1.00  0.00    -0.213 A  
HETATM   14  C   UNL     1     -10.824  12.335  67.996  1.00  0.00    -0.220 A  
HETATM   15  N   UNL     1     -11.205  13.845  65.623  1.00  0.00    -0.303 NA 
HETATM   16  C   UNL     1     -12.050  12.358  67.308  1.00  0.00    -0.069 A  
HETATM   17  C   UNL     1     -12.194  13.108  66.153  1.00  0.00    -0.385 A  
HETATM   18  C   UNL     1     -10.013  13.784  66.259  1.00  0.00    -0.305 A  
BRANCH  14  19
HETATM   19  N   UNL     1     -10.733  11.725  69.271  1.00  0.00    -0.424 NA 
HETATM   20  H   UNL     1      -9.869  11.215  69.452  1.00  0.00     0.000 HD 
BRANCH  19  21
HETATM   21  C   UNL     1     -11.674  11.723  70.327  1.00  0.00    -0.228 A  
HETATM   22  C   UNL     1     -13.250  10.499  71.718  1.00  0.00    -0.522 A  
HETATM   23  C   UNL     1     -12.193  10.514  70.801  1.00  0.00    -0.468 A  
HETATM   24  C   UNL     1     -13.829  11.695  72.147  1.00  0.00     0.241 A  
HETATM   25  C   UNL     1     -13.320  12.914  71.702  1.00  0.00    -0.358 A  
HETATM   26  C   UNL     1     -12.215  12.912  70.840  1.00  0.00    -0.290 A  
HETATM   27  C   UNL     1     -13.972  14.219  72.054  1.00  0.00    -0.595 C  
ENDBRANCH  19  21
ENDBRANCH  14  19
ENDBRANCH  10  13
ENDBRANCH   8  10
ENDBRANCH   6   8
ENDBRANCH   4   6
ENDBRANCH   2   4
TORSDOF 7
ENDMDL
MODEL      308
REMARK 921   NORMALIZED FREE ENERGY PREDICTED BY IDOCK:   -3.21 KCAL/MOL
REMARK 922        TOTAL FREE ENERGY PREDICTED BY IDOCK:   -6.38 KCAL/MOL
REMARK 923 INTER-LIGAND FREE ENERGY PREDICTED BY IDOCK:   -4.99 KCAL/MOL
REMARK 924 INTRA-LIGAND FREE ENERGY PREDICTED BY IDOCK:   -1.39 KCAL/MOL
REMARK 927      BINDING AFFINITY PREDICTED BY RF-SCORE:    0.00 PKD
ROOT
HETATM    1  C   UNL     1     -12.152  14.816  64.835  1.00  0.00    -0.335 C  
HETATM    2  C   UNL     1     -12.655  13.786  65.846  1.00  0.00    -0.447 C  
HETATM    3  C   UNL     1     -12.193  12.385  65.460  1.00  0.00    -0.356 C  
ENDROOT
BRANCH   2   4
HETATM    4  N   UNL     1     -12.230  14.110  67.201  1.00  0.00    -0.570 N  
HETATM    5  H   UNL     1     -12.467  13.479  67.967  1.00  0.00     0.000 HD 
BRANCH   4   6
HETATM    6  C   UNL     1     -11.517  15.248  67.463  1.00  0.00    -0.265 C  
HETATM    7  O   UNL     1     -11.977  16.373  67.371  1.00  0.00     0.635 OA 
BRANCH   6   8
HETATM    8  N   UNL     1     -10.185  15.007  67.760  1.00  0.00    -0.235 N  
HETATM    9  H   UNL     1      -9.977  14.335  68.498  1.00  0.00     0.000 HD 
BRANCH   8  10
HETATM   10  S   UNL     1      -8.896  15.744  66.993  1.00  0.00    -0.236 S  
HETATM   11  O   UNL     1      -9.130  15.757  65.567  1.00  0.00    -0.235 OA 
HETATM   12  O   UNL     1      -8.708  16.986  67.719  1.00  0.00    -0.216 OA 
BRANCH  10  13
HETATM   13  C   UNL     1      -7.481  14.751  67.312  1.00  0.00    -0.141 A  
HETATM   14  C   UNL     1      -7.535  13.351  67.276  1.00  0.00    -0.046 A  
HETATM   15  N   UNL     1      -5.140  14.713  67.960  1.00  0.00    -0.159 NA 
HETATM   16  C   UNL     1      -6.368  12.671  67.663  1.00  0.00    -0.147 A  
HETATM   17  C   UNL     1      -5.220  13.373  67.990  1.00  0.00    -0.111 A  
HETATM   18  C   UNL     1      -6.278  15.368  67.633  1.00  0.00    -0.142 A  
BRANCH  14  19
HETATM   19  N   UNL     1      -8.643  12.633  66.764  1.00  0.00    -0.375 NA 
HETATM   20  H   UNL     1      -9.051  13.007  65.907  1.00  0.00     0.000 HD 
BRANCH  19  21
HETATM   21  C   UNL     1      -9.261  11.468  67.275  1.00  0.00    -0.167 A  
HETATM   22  C   UNL     1      -9.801   9.108  67.025  1.00  0.00    -0.267 A  
HETATM   23  C   UNL     1      -9.062  10.235  66.644  1.00  0.00    -0.163 A  
HETATM   24  C   UNL     1     -10.776   9.207  68.019  1.00  0.00    -0.205 A  
HETATM   25  C   UNL     1     -10.983  10.421  68.674  1.00  0.00    -0.288 A  
HETATM   26  C   UNL     1     -10.185  11.520  68.330  1.00  0.00    -0.211 A  
HETATM   27  C   UNL     1     -12.086  10.601  69.674  1.00  0.00    -0.312 C  
ENDBRANCH  19  21
ENDBRANCH  14  19
ENDBRANCH  10  13
ENDBRANCH   8  10
ENDBRANCH   6   8
ENDBRANCH   4   6
ENDBRANCH   2   4
TORSDOF 7
ENDMDL
MODEL      309
REMARK 921   NORMALIZED FREE ENERGY PREDICTED BY IDOCK:   -3.21 KCAL/MOL
REMARK 922        TOTAL FREE ENERGY PREDICTED BY IDOCK:   -6.38 KCAL/MOL
REMARK 923 INTER-LIGAND FREE ENERGY PREDICTED BY IDOCK:   -5.72 KCAL/MOL
REMARK 924 INTRA-LIGAND FREE ENERGY PREDICTED BY IDOCK:   -0.66 KCAL/MOL
REMARK 927      BINDING AFFINITY PREDICTED BY RF-SCORE:    0.00 PKD
ROOT
HETATM    1  C   UNL     1     -11.302   7.369  70.258  1.00  0.00    -0.244 C  
HETATM    2  C   UNL     1     -11.701   8.842  70.342  1.00  0.00    -0.035 C  
HETATM    3  C   UNL     1     -11.244   9.448  71.664  1.00  0.00    -0.431 C  
ENDROOT
BRANCH   2   4
HETATM    4  N   UNL     1     -11.173   9.607  69.219  1.00  0.00    -0.432 N  
HETATM    5  H   UNL     1     -11.610  10.493  68.965  1.00  0.00     0.000 HD 
BRANCH   4   6
HETATM    6  C   UNL     1     -10.101   9.154  68.501  1.00  0.00    -0.191 C  
HETATM    7  O   UNL     1      -9.044   8.810  69.001  1.00  0.00    -0.140 OA 
BRANCH   6   8
HETATM    8  N   UNL     1     -10.296   9.205  67.129  1.00  0.00    -0.260 N  
HETATM    9  H   UNL     1     -10.523   8.334  66.649  1.00  0.00     0.000 HD 
BRANCH   8  10
HETATM   10  S   UNL     1     -10.186  10.595  66.208  1.00  0.00    -0.235 S  
HETATM   11  O   UNL     1     -10.084  10.239  64.811  1.00  0.00    -0.344 OA 
HETATM   12  O   UNL     1     -11.281  11.424  66.677  1.00  0.00    -0.303 OA 
BRANCH  10  13
HETATM   13  C   UNL     1      -8.699  11.403  66.683  1.00  0.00    -0.178 A  
HETATM   14  C   UNL     1      -8.692  12.723  67.151  1.00  0.00    -0.202 A  
HETATM   15  N   UNL     1      -6.280  11.258  66.842  1.00  0.00    -0.109 NA 
HETATM   16  C   UNL     1      -7.429  13.294  67.386  1.00  0.00    -0.134 A  
HETATM   17  C   UNL     1      -6.276  12.545  67.224  1.00  0.00    -0.122 A  
HETATM   18  C   UNL     1      -7.493  10.723  66.570  1.00  0.00    -0.139 A  
BRANCH  14  19
HETATM   19  N   UNL     1      -9.869  13.429  67.497  1.00  0.00    -0.223 NA 
HETATM   20  H   UNL     1     -10.738  12.899  67.420  1.00  0.00     0.000 HD 
BRANCH  19  21
HETATM   21  C   UNL     1     -10.009  14.767  67.935  1.00  0.00    -0.213 A  
HETATM   22  C   UNL     1     -10.691  16.339  69.662  1.00  0.00    -0.338 A  
HETATM   23  C   UNL     1     -10.375  15.036  69.258  1.00  0.00    -0.249 A  
HETATM   24  C   UNL     1     -10.679  17.387  68.740  1.00  0.00    -0.197 A  
HETATM   25  C   UNL     1     -10.302  17.147  67.419  1.00  0.00    -0.333 A  
HETATM   26  C   UNL     1      -9.920  15.851  67.048  1.00  0.00    -0.248 A  
HETATM   27  C   UNL     1     -10.373  18.218  66.370  1.00  0.00    -0.418 C  
ENDBRANCH  19  21
ENDBRANCH  14  19
ENDBRANCH  10  13
ENDBRANCH   8  10
ENDBRANCH   6   8
ENDBRANCH   4   6
ENDBRANCH   2   4
TORSDOF 7
ENDMDL
MODEL      310
REMARK 921   NORMALIZED FREE ENERGY PREDICTED BY IDOCK:   -3.18 KCAL/MOL
REMARK 922        TOTAL FREE ENERGY PREDICTED BY IDOCK:   -6.34 KCAL/MOL
REMARK 923 INTER-LIGAND FREE ENERGY PREDICTED BY IDOCK:   -5.02 KCAL/MOL
REMARK 924 INTRA-LIGAND FREE ENERGY PREDICTED BY IDOCK:   -1.32 KCAL/MOL
REMARK 927      BINDING AFFINITY PREDICTED BY RF-SCORE:    0.00 PKD
ROOT
HETATM    1  C   UNL     1     -13.238   9.623  72.194  1.00  0.00    -0.535 C  
HETATM    2  C   UNL     1     -12.764  10.807  71.351  1.00  0.00    -0.439 C  
HETATM    3  C   UNL     1     -13.094  12.125  72.043  1.00  0.00    -0.462 C  
ENDROOT
BRANCH   2   4
HETATM    4  N   UNL     1     -11.338  10.724  71.061  1.00  0.00    -0.197 N  
HETATM    5  H   UNL     1     -10.663  10.879  71.809  1.00  0.00     0.000 HD 
BRANCH   4   6
HETATM    6  C   UNL     1     -10.892  10.442  69.798  1.00  0.00    -0.292 C  
HETATM    7  O   UNL     1     -11.434  10.839  68.782  1.00  0.00    -0.269 OA 
BRANCH   6   8
HETATM    8  N   UNL     1      -9.807   9.580  69.778  1.00  0.00    -0.201 N  
HETATM    9  H   UNL     1      -8.888   9.979  69.587  1.00  0.00     0.000 HD 
BRANCH   8  10
HETATM   10  S   UNL     1      -9.900   7.933  70.046  1.00  0.00    -0.183 S  
HETATM   11  O   UNL     1      -8.849   7.534  70.955  1.00  0.00    -0.142 OA 
HETATM   12  O   UNL     1     -11.292   7.702  70.385  1.00  0.00    -0.272 OA 
BRANCH  10  13
HETATM   13  C   UNL     1      -9.619   7.150  68.498  1.00  0.00    -0.139 A  
HETATM   14  C   UNL     1      -9.750   5.765  68.334  1.00  0.00    -0.133 A  
HETATM   15  N   UNL     1      -8.926   7.428  66.186  1.00  0.00    -0.164 NA 
HETATM   16  C   UNL     1      -9.384   5.247  67.080  1.00  0.00    -0.123 A  
HETATM   17  C   UNL     1      -8.987   6.093  66.057  1.00  0.00    -0.145 A  
HETATM   18  C   UNL     1      -9.232   7.922  67.408  1.00  0.00    -0.140 A  
BRANCH  14  19
HETATM   19  N   UNL     1     -10.332   4.922  69.311  1.00  0.00    -0.141 NA 
HETATM   20  H   UNL     1     -11.344   5.002  69.414  1.00  0.00     0.000 HD 
BRANCH  19  21
HETATM   21  C   UNL     1      -9.705   3.984  70.165  1.00  0.00    -0.195 A  
HETATM   22  C   UNL     1      -8.319   2.003  70.433  1.00  0.00    -0.069 A  
HETATM   23  C   UNL     1      -8.810   3.047  69.639  1.00  0.00    -0.147 A  
HETATM   24  C   UNL     1      -8.743   1.861  71.755  1.00  0.00    -0.091 A  
HETATM   25  C   UNL     1      -9.622   2.793  72.308  1.00  0.00    -0.198 A  
HETATM   26  C   UNL     1     -10.048   3.871  71.522  1.00  0.00    -0.148 A  
HETATM   27  C   UNL     1     -10.184   2.626  73.688  1.00  0.00    -0.194 C  
ENDBRANCH  19  21
ENDBRANCH  14  19
ENDBRANCH  10  13
ENDBRANCH   8  10
ENDBRANCH   6   8
ENDBRANCH   4   6
ENDBRANCH   2   4
TORSDOF 7
ENDMDL
MODEL      311
REMARK 921   NORMALIZED FREE ENERGY PREDICTED BY IDOCK:   -3.17 KCAL/MOL
REMARK 922        TOTAL FREE ENERGY PREDICTED BY IDOCK:   -6.32 KCAL/MOL
REMARK 923 INTER-LIGAND FREE ENERGY PREDICTED BY IDOCK:   -6.25 KCAL/MOL
REMARK 924 INTRA-LIGAND FREE ENERGY PREDICTED BY IDOCK:   -0.06 KCAL/MOL
REMARK 927      BINDING AFFINITY PREDICTED BY RF-SCORE:    0.00 PKD
ROOT
HETATM    1  C   UNL     1     -10.455   6.830  66.939  1.00  0.00    -0.350 C  
HETATM    2  C   UNL     1     -10.866   5.723  67.910  1.00  0.00    -0.165 C  
HETATM    3  C   UNL     1      -9.659   4.882  68.307  1.00  0.00    -0.196 C  
ENDROOT
BRANCH   2   4
HETATM    4  N   UNL     1     -11.526   6.263  69.092  1.00  0.00    -0.548 N  
HETATM    5  H   UNL     1     -12.489   5.996  69.296  1.00  0.00     0.000 HD 
BRANCH   4   6
HETATM    6  C   UNL     1     -10.872   7.124  69.932  1.00  0.00    -0.254 C  
HETATM    7  O   UNL     1     -10.047   6.773  70.757  1.00  0.00    -0.190 OA 
BRANCH   6   8
HETATM    8  N   UNL     1     -11.302   8.437  69.817  1.00  0.00    -0.445 N  
HETATM    9  H   UNL     1     -12.181   8.608  69.329  1.00  0.00     0.000 HD 
BRANCH   8  10
HETATM   10  S   UNL     1     -10.480   9.758  70.425  1.00  0.00    -0.293 S  
HETATM   11  O   UNL     1     -11.296  10.942  70.276  1.00  0.00    -0.299 OA 
HETATM   12  O   UNL     1     -10.035   9.333  71.739  1.00  0.00    -0.273 OA 
BRANCH  10  13
HETATM   13  C   UNL     1      -9.037   9.955  69.440  1.00  0.00    -0.206 A  
HETATM   14  C   UNL     1      -9.102  10.386  68.109  1.00  0.00    -0.142 A  
HETATM   15  N   UNL     1      -6.625   9.703  69.314  1.00  0.00    -0.047 NA 
HETATM   16  C   UNL     1      -7.892  10.390  67.394  1.00  0.00    -0.103 A  
HETATM   17  C   UNL     1      -6.704  10.050  68.019  1.00  0.00    -0.064 A  
HETATM   18  C   UNL     1      -7.796   9.653  69.988  1.00  0.00    -0.165 A  
BRANCH  14  19
HETATM   19  N   UNL     1     -10.279  10.912  67.522  1.00  0.00    -0.184 NA 
HETATM   20  H   UNL     1     -11.074  11.017  68.152  1.00  0.00     0.000 HD 
BRANCH  19  21
HETATM   21  C   UNL     1     -10.504  11.313  66.184  1.00  0.00    -0.254 A  
HETATM   22  C   UNL     1     -12.041  12.104  64.472  1.00  0.00    -0.416 A  
HETATM   23  C   UNL     1     -11.735  11.866  65.817  1.00  0.00    -0.210 A  
HETATM   24  C   UNL     1     -11.132  11.757  63.470  1.00  0.00    -0.503 A  
HETATM   25  C   UNL     1      -9.891  11.220  63.811  1.00  0.00    -0.361 A  
HETATM   26  C   UNL     1      -9.573  11.055  65.166  1.00  0.00    -0.281 A  
HETATM   27  C   UNL     1      -8.925  10.738  62.769  1.00  0.00    -0.305 C  
ENDBRANCH  19  21
ENDBRANCH  14  19
ENDBRANCH  10  13
ENDBRANCH   8  10
ENDBRANCH   6   8
ENDBRANCH   4   6
ENDBRANCH   2   4
TORSDOF 7
ENDMDL
MODEL      312
REMARK 921   NORMALIZED FREE ENERGY PREDICTED BY IDOCK:   -3.14 KCAL/MOL
REMARK 922        TOTAL FREE ENERGY PREDICTED BY IDOCK:   -6.28 KCAL/MOL
REMARK 923 INTER-LIGAND FREE ENERGY PREDICTED BY IDOCK:   -5.35 KCAL/MOL
REMARK 924 INTRA-LIGAND FREE ENERGY PREDICTED BY IDOCK:   -0.94 KCAL/MOL
REMARK 927      BINDING AFFINITY PREDICTED BY RF-SCORE:    0.00 PKD
ROOT
HETATM    1  C   UNL     1      -7.549  14.139  68.864  1.00  0.00    -0.098 C  
HETATM    2  C   UNL     1      -7.657  12.786  68.162  1.00  0.00    -0.134 C  
HETATM    3  C   UNL     1      -6.357  12.449  67.442  1.00  0.00    -0.157 C  
ENDROOT
BRANCH   2   4
HETATM    4  N   UNL     1      -8.016  11.724  69.094  1.00  0.00    -0.351 N  
HETATM    5  H   UNL     1      -8.997  11.466  69.208  1.00  0.00     0.000 HD 
BRANCH   4   6
HETATM    6  C   UNL     1      -7.058  11.067  69.816  1.00  0.00    -0.047 C  
HETATM    7  O   UNL     1      -6.196  11.629  70.469  1.00  0.00    -0.281 OA 
BRANCH   6   8
HETATM    8  N   UNL     1      -7.103   9.690  69.667  1.00  0.00    -0.066 N  
HETATM    9  H   UNL     1      -6.285   9.228  69.271  1.00  0.00     0.000 HD 
BRANCH   8  10
HETATM   10  S   UNL     1      -8.406   8.734  70.092  1.00  0.00    -0.143 S  
HETATM   11  O   UNL     1      -7.948   7.630  70.905  1.00  0.00    -0.092 OA 
HETATM   12  O   UNL     1      -9.386   9.671  70.611  1.00  0.00    -0.239 OA 
BRANCH  10  13
HETATM   13  C   UNL     1      -9.068   8.084  68.600  1.00  0.00    -0.140 A  
HETATM   14  C   UNL     1     -10.266   8.559  68.052  1.00  0.00    -0.213 A  
HETATM   15  N   UNL     1      -8.838   6.428  66.837  1.00  0.00    -0.117 NA 
HETATM   16  C   UNL     1     -10.749   7.878  66.921  1.00  0.00    -0.219 A  
HETATM   17  C   UNL     1     -10.021   6.843  66.358  1.00  0.00     0.000 A  
HETATM   18  C   UNL     1      -8.397   7.052  67.954  1.00  0.00    -0.118 A  
BRANCH  14  19
HETATM   19  N   UNL     1     -10.915   9.732  68.509  1.00  0.00    -0.416 NA 
HETATM   20  H   UNL     1     -11.330   9.670  69.440  1.00  0.00     0.000 HD 
BRANCH  19  21
HETATM   21  C   UNL     1     -11.069  10.977  67.856  1.00  0.00    -0.288 A  
HETATM   22  C   UNL     1     -11.989  13.229  67.843  1.00  0.00    -0.349 A  
HETATM   23  C   UNL     1     -11.668  12.049  68.525  1.00  0.00    -0.387 A  
HETATM   24  C   UNL     1     -11.748  13.340  66.472  1.00  0.00    -0.423 A  
HETATM   25  C   UNL     1     -11.137  12.291  65.785  1.00  0.00    -0.362 A  
HETATM   26  C   UNL     1     -10.757  11.145  66.498  1.00  0.00    -0.314 A  
HETATM   27  C   UNL     1     -10.951  12.322  64.298  1.00  0.00    -0.392 C  
ENDBRANCH  19  21
ENDBRANCH  14  19
ENDBRANCH  10  13
ENDBRANCH   8  10
ENDBRANCH   6   8
ENDBRANCH   4   6
ENDBRANCH   2   4
TORSDOF 7
ENDMDL
MODEL      313
REMARK 921   NORMALIZED FREE ENERGY PREDICTED BY IDOCK:   -3.12 KCAL/MOL
REMARK 922        TOTAL FREE ENERGY PREDICTED BY IDOCK:   -6.25 KCAL/MOL
REMARK 923 INTER-LIGAND FREE ENERGY PREDICTED BY IDOCK:   -5.10 KCAL/MOL
REMARK 924 INTRA-LIGAND FREE ENERGY PREDICTED BY IDOCK:   -1.16 KCAL/MOL
REMARK 927      BINDING AFFINITY PREDICTED BY RF-SCORE:    0.00 PKD
ROOT
HETATM    1  C   UNL     1     -11.929  11.383  69.675  1.00  0.00    -0.416 C  
HETATM    2  C   UNL     1     -11.470  11.058  68.253  1.00  0.00    -0.304 C  
HETATM    3  C   UNL     1     -10.949  12.311  67.558  1.00  0.00    -0.298 C  
ENDROOT
BRANCH   2   4
HETATM    4  N   UNL     1     -10.459  10.009  68.241  1.00  0.00    -0.200 N  
HETATM    5  H   UNL     1      -9.786   9.951  69.005  1.00  0.00     0.000 HD 
BRANCH   4   6
HETATM    6  C   UNL     1     -10.400   9.100  67.220  1.00  0.00    -0.270 C  
HETATM    7  O   UNL     1      -9.978   9.356  66.106  1.00  0.00    -0.274 OA 
BRANCH   6   8
HETATM    8  N   UNL     1     -10.951   7.870  67.545  1.00  0.00    -0.522 N  
HETATM    9  H   UNL     1     -11.596   7.447  66.877  1.00  0.00     0.000 HD 
BRANCH   8  10
HETATM   10  S   UNL     1     -10.632   7.033  68.955  1.00  0.00    -0.208 S  
HETATM   11  O   UNL     1     -10.532   7.965  70.055  1.00  0.00    -0.220 OA 
HETATM   12  O   UNL     1     -11.624   5.974  68.977  1.00  0.00    -0.139 OA 
BRANCH  10  13
HETATM   13  C   UNL     1      -9.068   6.259  68.744  1.00  0.00    -0.127 A  
HETATM   14  C   UNL     1      -8.708   5.109  69.460  1.00  0.00    -0.099 A  
HETATM   15  N   UNL     1      -6.897   6.348  67.659  1.00  0.00    -0.073 NA 
HETATM   16  C   UNL     1      -7.389   4.655  69.288  1.00  0.00    -0.052 A  
HETATM   17  C   UNL     1      -6.537   5.288  68.400  1.00  0.00    -0.049 A  
HETATM   18  C   UNL     1      -8.151   6.814  67.859  1.00  0.00    -0.114 A  
BRANCH  14  19
HETATM   19  N   UNL     1      -9.630   4.352  70.222  1.00  0.00    -0.176 NA 
HETATM   20  H   UNL     1     -10.221   3.713  69.690  1.00  0.00     0.000 HD 
BRANCH  19  21
HETATM   21  C   UNL     1      -9.846   4.358  71.620  1.00  0.00    -0.185 A  
HETATM   22  C   UNL     1     -10.791   3.292  73.593  1.00  0.00    -0.322 A  
HETATM   23  C   UNL     1     -10.406   3.240  72.247  1.00  0.00    -0.106 A  
HETATM   24  C   UNL     1     -10.653   4.474  74.321  1.00  0.00    -0.316 A  
HETATM   25  C   UNL     1     -10.081   5.598  73.724  1.00  0.00    -0.220 A  
HETATM   26  C   UNL     1      -9.637   5.507  72.398  1.00  0.00    -0.170 A  
HETATM   27  C   UNL     1     -10.006   6.917  74.433  1.00  0.00    -0.237 C  
ENDBRANCH  19  21
ENDBRANCH  14  19
ENDBRANCH  10  13
ENDBRANCH   8  10
ENDBRANCH   6   8
ENDBRANCH   4   6
ENDBRANCH   2   4
TORSDOF 7
ENDMDL
MODEL      314
REMARK 921   NORMALIZED FREE ENERGY PREDICTED BY IDOCK:   -3.10 KCAL/MOL
REMARK 922        TOTAL FREE ENERGY PREDICTED BY IDOCK:   -6.22 KCAL/MOL
REMARK 923 INTER-LIGAND FREE ENERGY PREDICTED BY IDOCK:   -5.24 KCAL/MOL
REMARK 924 INTRA-LIGAND FREE ENERGY PREDICTED BY IDOCK:   -0.98 KCAL/MOL
REMARK 927      BINDING AFFINITY PREDICTED BY RF-SCORE:    0.00 PKD
ROOT
HETATM    1  C   UNL     1      -8.249   9.916  68.298  1.00  0.00    -0.109 C  
HETATM    2  C   UNL     1      -8.051   9.067  69.554  1.00  0.00    -0.105 C  
HETATM    3  C   UNL     1      -6.567   8.894  69.857  1.00  0.00    -0.042 C  
ENDROOT
BRANCH   2   4
HETATM    4  N   UNL     1      -8.746   9.635  70.702  1.00  0.00    -0.269 N  
HETATM    5  H   UNL     1      -8.716  10.643  70.860  1.00  0.00     0.000 HD 
BRANCH   4   6
HETATM    6  C   UNL     1      -9.438   8.837  71.572  1.00  0.00    -0.271 C  
HETATM    7  O   UNL     1      -9.081   8.608  72.715  1.00  0.00    -0.327 OA 
BRANCH   6   8
HETATM    8  N   UNL     1     -10.550   8.236  71.002  1.00  0.00    -0.201 N  
HETATM    9  H   UNL     1     -10.693   8.357  70.000  1.00  0.00     0.000 HD 
BRANCH   8  10
HETATM   10  S   UNL     1     -11.670   7.327  71.845  1.00  0.00    -0.299 S  
HETATM   11  O   UNL     1     -11.967   7.974  73.102  1.00  0.00    -0.189 OA 
HETATM   12  O   UNL     1     -12.726   7.075  70.881  1.00  0.00    -0.334 OA 
BRANCH  10  13
HETATM   13  C   UNL     1     -10.914   5.777  72.185  1.00  0.00    -0.257 A  
HETATM   14  C   UNL     1     -10.049   5.159  71.273  1.00  0.00    -0.210 A  
HETATM   15  N   UNL     1     -10.732   3.911  73.729  1.00  0.00    -0.208 NA 
HETATM   16  C   UNL     1      -9.603   3.870  71.611  1.00  0.00    -0.232 A  
HETATM   17  C   UNL     1      -9.959   3.296  72.819  1.00  0.00    -0.148 A  
HETATM   18  C   UNL     1     -11.200   5.132  73.382  1.00  0.00    -0.290 A  
BRANCH  14  19
HETATM   19  N   UNL     1      -9.534   5.815  70.128  1.00  0.00    -0.156 NA 
HETATM   20  H   UNL     1      -8.969   6.644  70.315  1.00  0.00     0.000 HD 
BRANCH  19  21
HETATM   21  C   UNL     1      -9.693   5.481  68.763  1.00  0.00    -0.143 A  
HETATM   22  C   UNL     1     -10.874   5.797  66.660  1.00  0.00    -0.290 A  
HETATM   23  C   UNL     1     -10.569   6.218  67.959  1.00  0.00    -0.326 A  
HETATM   24  C   UNL     1     -10.334   4.611  66.157  1.00  0.00    -0.310 A  
HETATM   25  C   UNL     1      -9.445   3.867  66.932  1.00  0.00    -0.225 A  
HETATM   26  C   UNL     1      -9.095   4.341  68.204  1.00  0.00    -0.168 A  
HETATM   27  C   UNL     1      -8.921   2.538  66.476  1.00  0.00    -0.133 C  
ENDBRANCH  19  21
ENDBRANCH  14  19
ENDBRANCH  10  13
ENDBRANCH   8  10
ENDBRANCH   6   8
ENDBRANCH   4   6
ENDBRANCH   2   4
TORSDOF 7
ENDMDL
MODEL      315
REMARK 921   NORMALIZED FREE ENERGY PREDICTED BY IDOCK:   -3.08 KCAL/MOL
REMARK 922        TOTAL FREE ENERGY PREDICTED BY IDOCK:   -6.19 KCAL/MOL
REMARK 923 INTER-LIGAND FREE ENERGY PREDICTED BY IDOCK:   -5.71 KCAL/MOL
REMARK 924 INTRA-LIGAND FREE ENERGY PREDICTED BY IDOCK:   -0.48 KCAL/MOL
REMARK 927      BINDING AFFINITY PREDICTED BY RF-SCORE:    0.00 PKD
ROOT
HETATM    1  C   UNL     1      -8.316   3.458  62.839  1.00  0.00    -0.077 C  
HETATM    2  C   UNL     1      -9.282   4.567  63.255  1.00  0.00    -0.087 C  
HETATM    3  C   UNL     1     -10.509   3.980  63.944  1.00  0.00    -0.166 C  
ENDROOT
BRANCH   2   4
HETATM    4  N   UNL     1      -8.634   5.550  64.114  1.00  0.00    -0.318 N  
HETATM    5  H   UNL     1      -8.050   6.275  63.697  1.00  0.00     0.000 HD 
BRANCH   4   6
HETATM    6  C   UNL     1      -8.798   5.515  65.472  1.00  0.00    -0.144 C  
HETATM    7  O   UNL     1      -8.535   4.547  66.163  1.00  0.00    -0.113 OA 
BRANCH   6   8
HETATM    8  N   UNL     1      -9.379   6.664  65.986  1.00  0.00    -0.368 N  
HETATM    9  H   UNL     1     -10.374   6.636  66.204  1.00  0.00     0.000 HD 
BRANCH   8  10
HETATM   10  S   UNL     1      -8.559   8.092  66.273  1.00  0.00    -0.151 S  
HETATM   11  O   UNL     1      -9.008   8.660  67.524  1.00  0.00    -0.133 OA 
HETATM   12  O   UNL     1      -7.162   7.749  66.081  1.00  0.00    -0.071 OA 
BRANCH  10  13
HETATM   13  C   UNL     1      -8.993   9.196  64.977  1.00  0.00    -0.171 A  
HETATM   14  C   UNL     1      -9.930  10.222  65.161  1.00  0.00    -0.325 A  
HETATM   15  N   UNL     1      -8.710   9.780  62.637  1.00  0.00    -0.203 NA 
HETATM   16  C   UNL     1     -10.278  10.962  64.018  1.00  0.00    -0.422 A  
HETATM   17  C   UNL     1      -9.659  10.715  62.804  1.00  0.00    -0.301 A  
HETATM   18  C   UNL     1      -8.410   9.036  63.726  1.00  0.00    -0.176 A  
BRANCH  14  19
HETATM   19  N   UNL     1     -10.424  10.600  66.433  1.00  0.00    -0.235 NA 
HETATM   20  H   UNL     1     -10.701   9.831  67.043  1.00  0.00     0.000 HD 
BRANCH  19  21
HETATM   21  C   UNL     1     -10.587  11.896  66.976  1.00  0.00    -0.227 A  
HETATM   22  C   UNL     1     -11.885  13.446  68.330  1.00  0.00    -0.401 A  
HETATM   23  C   UNL     1     -11.593  12.140  67.916  1.00  0.00    -0.413 A  
HETATM   24  C   UNL     1     -11.196  14.530  67.783  1.00  0.00    -0.312 A  
HETATM   25  C   UNL     1     -10.177  14.312  66.856  1.00  0.00    -0.266 A  
HETATM   26  C   UNL     1      -9.850  12.995  66.506  1.00  0.00    -0.263 A  
HETATM   27  C   UNL     1      -9.481  15.447  66.166  1.00  0.00    -0.371 C  
ENDBRANCH  19  21
ENDBRANCH  14  19
ENDBRANCH  10  13
ENDBRANCH   8  10
ENDBRANCH   6   8
ENDBRANCH   4   6
ENDBRANCH   2   4
TORSDOF 7
ENDMDL
MODEL      316
REMARK 921   NORMALIZED FREE ENERGY PREDICTED BY IDOCK:   -3.07 KCAL/MOL
REMARK 922        TOTAL FREE ENERGY PREDICTED BY IDOCK:   -6.18 KCAL/MOL
REMARK 923 INTER-LIGAND FREE ENERGY PREDICTED BY IDOCK:   -5.24 KCAL/MOL
REMARK 924 INTRA-LIGAND FREE ENERGY PREDICTED BY IDOCK:   -0.94 KCAL/MOL
REMARK 927      BINDING AFFINITY PREDICTED BY RF-SCORE:    0.00 PKD
ROOT
HETATM    1  C   UNL     1      -9.082   2.862  71.124  1.00  0.00    -0.182 C  
HETATM    2  C   UNL     1      -9.041   4.357  70.808  1.00  0.00    -0.124 C  
HETATM    3  C   UNL     1      -9.115   5.178  72.091  1.00  0.00    -0.150 C  
ENDROOT
BRANCH   2   4
HETATM    4  N   UNL     1      -7.855   4.713  70.040  1.00  0.00    -0.060 N  
HETATM    5  H   UNL     1      -7.011   4.148  70.128  1.00  0.00     0.000 HD 
BRANCH   4   6
HETATM    6  C   UNL     1      -7.857   5.795  69.202  1.00  0.00    -0.090 C  
HETATM    7  O   UNL     1      -7.043   6.699  69.258  1.00  0.00    -0.078 OA 
BRANCH   6   8
HETATM    8  N   UNL     1      -8.935   5.812  68.329  1.00  0.00    -0.115 N  
HETATM    9  H   UNL     1      -9.263   4.919  67.962  1.00  0.00     0.000 HD 
BRANCH   8  10
HETATM   10  S   UNL     1      -9.732   7.196  67.837  1.00  0.00    -0.141 S  
HETATM   11  O   UNL     1      -8.770   8.154  67.341  1.00  0.00    -0.123 OA 
HETATM   12  O   UNL     1     -10.796   6.712  66.978  1.00  0.00    -0.337 OA 
BRANCH  10  13
HETATM   13  C   UNL     1     -10.501   7.874  69.264  1.00  0.00    -0.216 A  
HETATM   14  C   UNL     1     -10.237   9.180  69.697  1.00  0.00    -0.203 A  
HETATM   15  N   UNL     1     -11.981   7.474  71.148  1.00  0.00    -0.304 NA 
HETATM   16  C   UNL     1     -10.823   9.564  70.916  1.00  0.00    -0.407 A  
HETATM   17  C   UNL     1     -11.669   8.701  71.593  1.00  0.00    -0.313 A  
HETATM   18  C   UNL     1     -11.378   7.087  70.000  1.00  0.00    -0.249 A  
BRANCH  14  19
HETATM   19  N   UNL     1      -9.529  10.126  68.917  1.00  0.00    -0.172 NA 
HETATM   20  H   UNL     1      -8.518   9.991  68.874  1.00  0.00     0.000 HD 
BRANCH  19  21
HETATM   21  C   UNL     1     -10.027  11.233  68.191  1.00  0.00    -0.181 A  
HETATM   22  C   UNL     1     -11.594  12.125  66.557  1.00  0.00    -0.425 A  
HETATM   23  C   UNL     1     -11.186  11.100  67.419  1.00  0.00    -0.363 A  
HETATM   24  C   UNL     1     -10.828  13.285  66.428  1.00  0.00    -0.296 A  
HETATM   25  C   UNL     1      -9.677  13.449  67.199  1.00  0.00    -0.237 A  
HETATM   26  C   UNL     1      -9.323  12.444  68.109  1.00  0.00    -0.209 A  
HETATM   27  C   UNL     1      -8.769  14.630  67.021  1.00  0.00    -0.258 C  
ENDBRANCH  19  21
ENDBRANCH  14  19
ENDBRANCH  10  13
ENDBRANCH   8  10
ENDBRANCH   6   8
ENDBRANCH   4   6
ENDBRANCH   2   4
TORSDOF 7
ENDMDL
MODEL      317
REMARK 921   NORMALIZED FREE ENERGY PREDICTED BY IDOCK:   -3.06 KCAL/MOL
REMARK 922        TOTAL FREE ENERGY PREDICTED BY IDOCK:   -6.17 KCAL/MOL
REMARK 923 INTER-LIGAND FREE ENERGY PREDICTED BY IDOCK:   -6.04 KCAL/MOL
REMARK 924 INTRA-LIGAND FREE ENERGY PREDICTED BY IDOCK:   -0.13 KCAL/MOL
REMARK 927      BINDING AFFINITY PREDICTED BY RF-SCORE:    0.00 PKD
ROOT
HETATM    1  C   UNL     1      -8.465  17.360  67.039  1.00  0.00    -0.245 C  
HETATM    2  C   UNL     1      -7.066  16.859  66.680  1.00  0.00    -0.254 C  
HETATM    3  C   UNL     1      -6.063  18.007  66.705  1.00  0.00    -0.201 C  
ENDROOT
BRANCH   2   4
HETATM    4  N   UNL     1      -6.636  15.785  67.566  1.00  0.00    -0.171 N  
HETATM    5  H   UNL     1      -6.050  15.035  67.199  1.00  0.00     0.000 HD 
BRANCH   4   6
HETATM    6  C   UNL     1      -7.008  15.766  68.883  1.00  0.00    -0.135 C  
HETATM    7  O   UNL     1      -6.844  16.700  69.648  1.00  0.00    -0.210 OA 
BRANCH   6   8
HETATM    8  N   UNL     1      -7.515  14.544  69.295  1.00  0.00    -0.249 N  
HETATM    9  H   UNL     1      -8.034  14.516  70.172  1.00  0.00     0.000 HD 
BRANCH   8  10
HETATM   10  S   UNL     1      -7.335  13.112  68.452  1.00  0.00    -0.123 S  
HETATM   11  O   UNL     1      -6.453  13.325  67.326  1.00  0.00    -0.256 OA 
HETATM   12  O   UNL     1      -7.002  12.134  69.471  1.00  0.00    -0.027 OA 
BRANCH  10  13
HETATM   13  C   UNL     1      -8.924  12.681  67.836  1.00  0.00    -0.189 A  
HETATM   14  C   UNL     1      -9.553  11.480  68.188  1.00  0.00    -0.187 A  
HETATM   15  N   UNL     1     -10.758  13.294  66.368  1.00  0.00    -0.283 NA 
HETATM   16  C   UNL     1     -10.767  11.199  67.539  1.00  0.00    -0.280 A  
HETATM   17  C   UNL     1     -11.322  12.110  66.657  1.00  0.00    -0.350 A  
HETATM   18  C   UNL     1      -9.566  13.544  66.956  1.00  0.00    -0.248 A  
BRANCH  14  19
HETATM   19  N   UNL     1      -9.086  10.636  69.225  1.00  0.00    -0.355 NA 
HETATM   20  H   UNL     1      -8.072  10.571  69.314  1.00  0.00     0.000 HD 
BRANCH  19  21
HETATM   21  C   UNL     1      -9.830   9.870  70.153  1.00  0.00    -0.219 A  
HETATM   22  C   UNL     1     -10.229   7.741  71.260  1.00  0.00    -0.218 A  
HETATM   23  C   UNL     1      -9.416   8.576  70.485  1.00  0.00    -0.193 A  
HETATM   24  C   UNL     1     -11.486   8.176  71.685  1.00  0.00    -0.323 A  
HETATM   25  C   UNL     1     -11.915   9.468  71.381  1.00  0.00    -0.464 A  
HETATM   26  C   UNL     1     -11.059  10.315  70.665  1.00  0.00    -0.358 A  
HETATM   27  C   UNL     1     -13.295   9.943  71.726  1.00  0.00    -0.501 C  
ENDBRANCH  19  21
ENDBRANCH  14  19
ENDBRANCH  10  13
ENDBRANCH   8  10
ENDBRANCH   6   8
ENDBRANCH   4   6
ENDBRANCH   2   4
TORSDOF 7
ENDMDL
MODEL      318
REMARK 921   NORMALIZED FREE ENERGY PREDICTED BY IDOCK:   -3.05 KCAL/MOL
REMARK 922        TOTAL FREE ENERGY PREDICTED BY IDOCK:   -6.16 KCAL/MOL
REMARK 923 INTER-LIGAND FREE ENERGY PREDICTED BY IDOCK:   -5.74 KCAL/MOL
REMARK 924 INTRA-LIGAND FREE ENERGY PREDICTED BY IDOCK:   -0.42 KCAL/MOL
REMARK 927      BINDING AFFINITY PREDICTED BY RF-SCORE:    0.00 PKD
ROOT
HETATM    1  C   UNL     1     -12.065  15.403  64.209  1.00  0.00    -0.178 C  
HETATM    2  C   UNL     1     -12.141  14.060  64.937  1.00  0.00    -0.420 C  
HETATM    3  C   UNL     1     -11.349  12.997  64.185  1.00  0.00    -0.442 C  
ENDROOT
BRANCH   2   4
HETATM    4  N   UNL     1     -11.676  14.167  66.314  1.00  0.00    -0.374 N  
HETATM    5  H   UNL     1     -11.992  13.488  67.006  1.00  0.00     0.000 HD 
BRANCH   4   6
HETATM    6  C   UNL     1     -10.821  15.167  66.692  1.00  0.00    -0.318 C  
HETATM    7  O   UNL     1     -11.139  16.341  66.767  1.00  0.00    -0.114 OA 
BRANCH   6   8
HETATM    8  N   UNL     1      -9.522  14.730  66.901  1.00  0.00    -0.230 N  
HETATM    9  H   UNL     1      -8.766  15.266  66.475  1.00  0.00     0.000 HD 
BRANCH   8  10
HETATM   10  S   UNL     1      -9.109  13.385  67.802  1.00  0.00    -0.213 S  
HETATM   11  O   UNL     1     -10.132  13.137  68.792  1.00  0.00    -0.178 OA 
HETATM   12  O   UNL     1      -8.785  12.374  66.812  1.00  0.00    -0.200 OA 
BRANCH  10  13
HETATM   13  C   UNL     1      -7.613  13.773  68.638  1.00  0.00    -0.125 A  
HETATM   14  C   UNL     1      -7.283  15.088  68.992  1.00  0.00    -0.142 A  
HETATM   15  N   UNL     1      -5.511  12.934  69.519  1.00  0.00    -0.079 NA 
HETATM   16  C   UNL     1      -6.008  15.283  69.550  1.00  0.00    -0.116 A  
HETATM   17  C   UNL     1      -5.173  14.204  69.792  1.00  0.00    -0.092 A  
HETATM   18  C   UNL     1      -6.718  12.752  68.937  1.00  0.00    -0.097 A  
BRANCH  14  19
HETATM   19  N   UNL     1      -8.202  16.163  68.921  1.00  0.00    -0.217 NA 
HETATM   20  H   UNL     1      -9.169  15.928  69.143  1.00  0.00     0.000 HD 
BRANCH  19  21
HETATM   21  C   UNL     1      -7.965  17.516  68.586  1.00  0.00    -0.268 A  
HETATM   22  C   UNL     1      -6.604  19.519  68.821  1.00  0.00    -0.330 A  
HETATM   23  C   UNL     1      -6.779  18.140  68.987  1.00  0.00    -0.259 A  
HETATM   24  C   UNL     1      -7.627  20.301  68.282  1.00  0.00    -0.141 A  
HETATM   25  C   UNL     1      -8.813  19.701  67.858  1.00  0.00    -0.379 A  
HETATM   26  C   UNL     1      -8.943  18.309  67.966  1.00  0.00    -0.301 A  
HETATM   27  C   UNL     1      -9.977  20.509  67.369  1.00  0.00    -0.525 C  
ENDBRANCH  19  21
ENDBRANCH  14  19
ENDBRANCH  10  13
ENDBRANCH   8  10
ENDBRANCH   6   8
ENDBRANCH   4   6
ENDBRANCH   2   4
TORSDOF 7
ENDMDL
MODEL      319
REMARK 921   NORMALIZED FREE ENERGY PREDICTED BY IDOCK:   -2.98 KCAL/MOL
REMARK 922        TOTAL FREE ENERGY PREDICTED BY IDOCK:   -6.05 KCAL/MOL
REMARK 923 INTER-LIGAND FREE ENERGY PREDICTED BY IDOCK:   -5.54 KCAL/MOL
REMARK 924 INTRA-LIGAND FREE ENERGY PREDICTED BY IDOCK:   -0.51 KCAL/MOL
REMARK 927      BINDING AFFINITY PREDICTED BY RF-SCORE:    0.00 PKD
ROOT
HETATM    1  C   UNL     1     -11.717  15.101  64.240  1.00  0.00    -0.234 C  
HETATM    2  C   UNL     1     -12.364  13.975  65.046  1.00  0.00    -0.441 C  
HETATM    3  C   UNL     1     -12.286  12.657  64.285  1.00  0.00    -0.517 C  
ENDROOT
BRANCH   2   4
HETATM    4  N   UNL     1     -11.759  13.841  66.365  1.00  0.00    -0.359 N  
HETATM    5  H   UNL     1     -11.494  14.679  66.884  1.00  0.00     0.000 HD 
BRANCH   4   6
HETATM    6  C   UNL     1     -11.539  12.609  66.918  1.00  0.00    -0.373 C  
HETATM    7  O   UNL     1     -12.410  11.932  67.437  1.00  0.00    -0.297 OA 
BRANCH   6   8
HETATM    8  N   UNL     1     -10.205  12.232  66.912  1.00  0.00    -0.212 N  
HETATM    9  H   UNL     1      -9.663  12.420  66.069  1.00  0.00     0.000 HD 
BRANCH   8  10
HETATM   10  S   UNL     1      -9.424  11.493  68.190  1.00  0.00    -0.189 S  
HETATM   11  O   UNL     1      -8.041  11.910  68.215  1.00  0.00    -0.141 OA 
HETATM   12  O   UNL     1     -10.287  11.741  69.331  1.00  0.00     0.022 OA 
BRANCH  10  13
HETATM   13  C   UNL     1      -9.474   9.763  67.884  1.00  0.00    -0.130 A  
HETATM   14  C   UNL     1      -9.022   8.830  68.827  1.00  0.00    -0.138 A  
HETATM   15  N   UNL     1      -9.982   8.005  66.286  1.00  0.00    -0.135 NA 
HETATM   16  C   UNL     1      -9.006   7.486  68.417  1.00  0.00    -0.128 A  
HETATM   17  C   UNL     1      -9.483   7.125  67.168  1.00  0.00    -0.147 A  
HETATM   18  C   UNL     1      -9.953   9.304  66.662  1.00  0.00    -0.264 A  
BRANCH  14  19
HETATM   19  N   UNL     1      -8.712   9.172  70.166  1.00  0.00    -0.162 NA 
HETATM   20  H   UNL     1      -8.071   9.958  70.281  1.00  0.00     0.000 HD 
BRANCH  19  21
HETATM   21  C   UNL     1      -9.165   8.575  71.365  1.00  0.00    -0.210 A  
HETATM   22  C   UNL     1      -8.726   7.913  73.665  1.00  0.00    -0.329 A  
HETATM   23  C   UNL     1      -8.382   8.645  72.522  1.00  0.00    -0.080 A  
HETATM   24  C   UNL     1      -9.841   7.073  73.656  1.00  0.00    -0.318 A  
HETATM   25  C   UNL     1     -10.648   6.999  72.520  1.00  0.00    -0.255 A  
HETATM   26  C   UNL     1     -10.329   7.792  71.410  1.00  0.00    -0.226 A  
HETATM   27  C   UNL     1     -11.794   6.036  72.427  1.00  0.00    -0.283 C  
ENDBRANCH  19  21
ENDBRANCH  14  19
ENDBRANCH  10  13
ENDBRANCH   8  10
ENDBRANCH   6   8
ENDBRANCH   4   6
ENDBRANCH   2   4
TORSDOF 7
ENDMDL
MODEL      320
REMARK 921   NORMALIZED FREE ENERGY PREDICTED BY IDOCK:   -2.96 KCAL/MOL
REMARK 922        TOTAL FREE ENERGY PREDICTED BY IDOCK:   -6.02 KCAL/MOL
REMARK 923 INTER-LIGAND FREE ENERGY PREDICTED BY IDOCK:   -5.68 KCAL/MOL
REMARK 924 INTRA-LIGAND FREE ENERGY PREDICTED BY IDOCK:   -0.34 KCAL/MOL
REMARK 927      BINDING AFFINITY PREDICTED BY RF-SCORE:    0.00 PKD
ROOT
HETATM    1  C   UNL     1      -5.287  11.653  67.003  1.00  0.00    -0.116 C  
HETATM    2  C   UNL     1      -6.753  11.433  66.628  1.00  0.00    -0.112 C  
HETATM    3  C   UNL     1      -7.319  10.224  67.364  1.00  0.00    -0.093 C  
ENDROOT
BRANCH   2   4
HETATM    4  N   UNL     1      -7.559  12.617  66.893  1.00  0.00    -0.386 N  
HETATM    5  H   UNL     1      -7.769  13.263  66.132  1.00  0.00     0.000 HD 
BRANCH   4   6
HETATM    6  C   UNL     1      -8.040  12.876  68.148  1.00  0.00    -0.158 C  
HETATM    7  O   UNL     1      -8.536  12.031  68.873  1.00  0.00     0.004 OA 
BRANCH   6   8
HETATM    8  N   UNL     1      -7.990  14.218  68.491  1.00  0.00    -0.141 N  
HETATM    9  H   UNL     1      -8.865  14.675  68.749  1.00  0.00     0.000 HD 
BRANCH   8  10
HETATM   10  S   UNL     1      -6.596  15.140  68.510  1.00  0.00    -0.105 S  
HETATM   11  O   UNL     1      -5.921  14.962  69.776  1.00  0.00    -0.107 OA 
HETATM   12  O   UNL     1      -5.927  14.805  67.267  1.00  0.00    -0.305 OA 
BRANCH  10  13
HETATM   13  C   UNL     1      -7.096  16.820  68.381  1.00  0.00    -0.173 A  
HETATM   14  C   UNL     1      -7.885  17.278  67.318  1.00  0.00    -0.189 A  
HETATM   15  N   UNL     1      -6.944  19.053  69.322  1.00  0.00    -0.298 NA 
HETATM   16  C   UNL     1      -8.119  18.662  67.265  1.00  0.00    -0.249 A  
HETATM   17  C   UNL     1      -7.642  19.495  68.264  1.00  0.00    -0.311 A  
HETATM   18  C   UNL     1      -6.678  17.727  69.347  1.00  0.00    -0.171 A  
BRANCH  14  19
HETATM   19  N   UNL     1      -8.529  16.411  66.402  1.00  0.00    -0.302 NA 
HETATM   20  H   UNL     1      -8.024  16.235  65.534  1.00  0.00     0.000 HD 
BRANCH  19  21
HETATM   21  C   UNL     1      -9.777  15.755  66.524  1.00  0.00    -0.265 A  
HETATM   22  C   UNL     1     -11.656  15.084  67.916  1.00  0.00    -0.350 A  
HETATM   23  C   UNL     1     -10.512  15.864  67.709  1.00  0.00    -0.287 A  
HETATM   24  C   UNL     1     -12.062  14.157  66.954  1.00  0.00    -0.466 A  
HETATM   25  C   UNL     1     -11.355  14.041  65.757  1.00  0.00    -0.312 A  
HETATM   26  C   UNL     1     -10.254  14.880  65.537  1.00  0.00    -0.401 A  
HETATM   27  C   UNL     1     -11.691  12.991  64.740  1.00  0.00    -0.389 C  
ENDBRANCH  19  21
ENDBRANCH  14  19
ENDBRANCH  10  13
ENDBRANCH   8  10
ENDBRANCH   6   8
ENDBRANCH   4   6
ENDBRANCH   2   4
TORSDOF 7
ENDMDL
MODEL      321
REMARK 921   NORMALIZED FREE ENERGY PREDICTED BY IDOCK:   -2.96 KCAL/MOL
REMARK 922        TOTAL FREE ENERGY PREDICTED BY IDOCK:   -6.02 KCAL/MOL
REMARK 923 INTER-LIGAND FREE ENERGY PREDICTED BY IDOCK:   -4.51 KCAL/MOL
REMARK 924 INTRA-LIGAND FREE ENERGY PREDICTED BY IDOCK:   -1.51 KCAL/MOL
REMARK 927      BINDING AFFINITY PREDICTED BY RF-SCORE:    0.00 PKD
ROOT
HETATM    1  C   UNL     1      -6.961   4.383  68.216  1.00  0.00    -0.056 C  
HETATM    2  C   UNL     1      -6.973   5.596  69.146  1.00  0.00    -0.063 C  
HETATM    3  C   UNL     1      -5.993   5.400  70.298  1.00  0.00    -0.021 C  
ENDROOT
BRANCH   2   4
HETATM    4  N   UNL     1      -6.677   6.829  68.427  1.00  0.00    -0.062 N  
HETATM    5  H   UNL     1      -5.815   6.901  67.887  1.00  0.00     0.000 HD 
BRANCH   4   6
HETATM    6  C   UNL     1      -7.539   7.891  68.466  1.00  0.00    -0.105 C  
HETATM    7  O   UNL     1      -7.182   9.054  68.517  1.00  0.00    -0.072 OA 
BRANCH   6   8
HETATM    8  N   UNL     1      -8.872   7.515  68.529  1.00  0.00    -0.127 N  
HETATM    9  H   UNL     1      -9.306   7.458  69.450  1.00  0.00     0.000 HD 
BRANCH   8  10
HETATM   10  S   UNL     1      -9.817   7.150  67.200  1.00  0.00    -0.198 S  
HETATM   11  O   UNL     1     -10.143   5.742  67.214  1.00  0.00    -0.141 OA 
HETATM   12  O   UNL     1     -10.871   8.148  67.224  1.00  0.00    -0.248 OA 
BRANCH  10  13
HETATM   13  C   UNL     1      -8.841   7.478  65.777  1.00  0.00    -0.090 A  
HETATM   14  C   UNL     1      -8.631   8.782  65.307  1.00  0.00    -0.187 A  
HETATM   15  N   UNL     1      -7.563   6.536  63.939  1.00  0.00    -0.097 NA 
HETATM   16  C   UNL     1      -7.930   8.903  64.095  1.00  0.00    -0.148 A  
HETATM   17  C   UNL     1      -7.425   7.782  63.458  1.00  0.00    -0.115 A  
HETATM   18  C   UNL     1      -8.278   6.415  65.081  1.00  0.00    -0.134 A  
BRANCH  14  19
HETATM   19  N   UNL     1      -8.981   9.937  66.047  1.00  0.00    -0.144 NA 
HETATM   20  H   UNL     1      -8.715   9.925  67.032  1.00  0.00     0.000 HD 
BRANCH  19  21
HETATM   21  C   UNL     1      -9.647  11.106  65.612  1.00  0.00    -0.224 A  
HETATM   22  C   UNL     1     -10.251  13.432  65.994  1.00  0.00    -0.301 A  
HETATM   23  C   UNL     1      -9.468  12.312  66.298  1.00  0.00    -0.234 A  
HETATM   24  C   UNL     1     -11.250  13.352  65.021  1.00  0.00    -0.332 A  
HETATM   25  C   UNL     1     -11.437  12.166  64.311  1.00  0.00    -0.437 A  
HETATM   26  C   UNL     1     -10.597  11.077  64.579  1.00  0.00    -0.383 A  
HETATM   27  C   UNL     1     -12.561  12.001  63.331  1.00  0.00    -0.592 C  
ENDBRANCH  19  21
ENDBRANCH  14  19
ENDBRANCH  10  13
ENDBRANCH   8  10
ENDBRANCH   6   8
ENDBRANCH   4   6
ENDBRANCH   2   4
TORSDOF 7
ENDMDL
MODEL      322
REMARK 921   NORMALIZED FREE ENERGY PREDICTED BY IDOCK:   -2.94 KCAL/MOL
REMARK 922        TOTAL FREE ENERGY PREDICTED BY IDOCK:   -6.00 KCAL/MOL
REMARK 923 INTER-LIGAND FREE ENERGY PREDICTED BY IDOCK:   -5.77 KCAL/MOL
REMARK 924 INTRA-LIGAND FREE ENERGY PREDICTED BY IDOCK:   -0.23 KCAL/MOL
REMARK 927      BINDING AFFINITY PREDICTED BY RF-SCORE:    0.00 PKD
ROOT
HETATM    1  C   UNL     1      -5.155   7.698  72.132  1.00  0.00    -0.035 C  
HETATM    2  C   UNL     1      -5.983   8.869  71.603  1.00  0.00    -0.063 C  
HETATM    3  C   UNL     1      -5.138  10.136  71.533  1.00  0.00    -0.081 C  
ENDROOT
BRANCH   2   4
HETATM    4  N   UNL     1      -6.567   8.571  70.301  1.00  0.00    -0.038 N  
HETATM    5  H   UNL     1      -6.061   8.826  69.453  1.00  0.00     0.000 HD 
BRANCH   4   6
HETATM    6  C   UNL     1      -7.784   7.953  70.201  1.00  0.00    -0.088 C  
HETATM    7  O   UNL     1      -7.943   6.834  69.744  1.00  0.00    -0.119 OA 
BRANCH   6   8
HETATM    8  N   UNL     1      -8.844   8.758  70.589  1.00  0.00    -0.164 N  
HETATM    9  H   UNL     1      -8.839   9.123  71.541  1.00  0.00     0.000 HD 
BRANCH   8  10
HETATM   10  S   UNL     1     -10.128   9.173  69.603  1.00  0.00    -0.208 S  
HETATM   11  O   UNL     1      -9.873  10.460  68.997  1.00  0.00    -0.192 OA 
HETATM   12  O   UNL     1     -10.340   7.999  68.776  1.00  0.00    -0.207 OA 
BRANCH  10  13
HETATM   13  C   UNL     1     -11.538   9.321  70.642  1.00  0.00    -0.252 A  
HETATM   14  C   UNL     1     -12.277  10.509  70.722  1.00  0.00    -0.369 A  
HETATM   15  N   UNL     1     -12.944   8.252  72.309  1.00  0.00    -0.292 NA 
HETATM   16  C   UNL     1     -13.309  10.538  71.675  1.00  0.00    -0.423 A  
HETATM   17  C   UNL     1     -13.604   9.415  72.430  1.00  0.00    -0.429 A  
HETATM   18  C   UNL     1     -11.920   8.238  71.426  1.00  0.00    -0.299 A  
BRANCH  14  19
HETATM   19  N   UNL     1     -12.102  11.591  69.826  1.00  0.00    -0.315 NA 
HETATM   20  H   UNL     1     -11.951  11.333  68.851  1.00  0.00     0.000 HD 
BRANCH  19  21
HETATM   21  C   UNL     1     -12.109  12.980  70.095  1.00  0.00    -0.307 A  
HETATM   22  C   UNL     1     -10.925  15.105  70.134  1.00  0.00    -0.277 A  
HETATM   23  C   UNL     1     -11.017  13.770  69.722  1.00  0.00     0.067 A  
HETATM   24  C   UNL     1     -11.909  15.659  70.956  1.00  0.00    -0.442 A  
HETATM   25  C   UNL     1     -13.017  14.897  71.327  1.00  0.00    -0.431 A  
HETATM   26  C   UNL     1     -13.127  13.585  70.847  1.00  0.00    -0.145 A  
HETATM   27  C   UNL     1     -14.045  15.414  72.289  1.00  0.00    -0.660 C  
ENDBRANCH  19  21
ENDBRANCH  14  19
ENDBRANCH  10  13
ENDBRANCH   8  10
ENDBRANCH   6   8
ENDBRANCH   4   6
ENDBRANCH   2   4
TORSDOF 7
ENDMDL
MODEL      323
REMARK 921   NORMALIZED FREE ENERGY PREDICTED BY IDOCK:   -2.93 KCAL/MOL
REMARK 922        TOTAL FREE ENERGY PREDICTED BY IDOCK:   -5.98 KCAL/MOL
REMARK 923 INTER-LIGAND FREE ENERGY PREDICTED BY IDOCK:   -4.29 KCAL/MOL
REMARK 924 INTRA-LIGAND FREE ENERGY PREDICTED BY IDOCK:   -1.69 KCAL/MOL
REMARK 927      BINDING AFFINITY PREDICTED BY RF-SCORE:    0.00 PKD
ROOT
HETATM    1  C   UNL     1     -10.573  13.261  66.759  1.00  0.00    -0.276 C  
HETATM    2  C   UNL     1     -10.616  12.846  68.229  1.00  0.00    -0.246 C  
HETATM    3  C   UNL     1     -11.833  13.450  68.922  1.00  0.00    -0.373 C  
ENDROOT
BRANCH   2   4
HETATM    4  N   UNL     1     -10.609  11.396  68.379  1.00  0.00    -0.193 N  
HETATM    5  H   UNL     1     -11.473  10.872  68.236  1.00  0.00     0.000 HD 
BRANCH   4   6
HETATM    6  C   UNL     1      -9.462  10.728  68.709  1.00  0.00    -0.182 C  
HETATM    7  O   UNL     1      -8.516  10.587  67.953  1.00  0.00    -0.117 OA 
BRANCH   6   8
HETATM    8  N   UNL     1      -9.507  10.144  69.965  1.00  0.00    -0.401 N  
HETATM    9  H   UNL     1      -8.793  10.414  70.641  1.00  0.00     0.000 HD 
BRANCH   8  10
HETATM   10  S   UNL     1     -10.652   9.027  70.449  1.00  0.00    -0.233 S  
HETATM   11  O   UNL     1     -11.708   9.702  71.169  1.00  0.00    -0.312 OA 
HETATM   12  O   UNL     1     -10.949   8.272  69.246  1.00  0.00    -0.110 OA 
BRANCH  10  13
HETATM   13  C   UNL     1      -9.848   7.922  71.555  1.00  0.00    -0.165 A  
HETATM   14  C   UNL     1      -8.691   7.221  71.191  1.00  0.00    -0.135 A  
HETATM   15  N   UNL     1      -9.897   6.848  73.733  1.00  0.00    -0.247 NA 
HETATM   16  C   UNL     1      -8.212   6.282  72.120  1.00  0.00    -0.109 A  
HETATM   17  C   UNL     1      -8.829   6.130  73.350  1.00  0.00    -0.125 A  
HETATM   18  C   UNL     1     -10.387   7.718  72.820  1.00  0.00    -0.313 A  
BRANCH  14  19
HETATM   19  N   UNL     1      -7.950   7.506  70.018  1.00  0.00    -0.110 NA 
HETATM   20  H   UNL     1      -7.582   8.455  69.951  1.00  0.00     0.000 HD 
BRANCH  19  21
HETATM   21  C   UNL     1      -7.651   6.659  68.926  1.00  0.00    -0.101 A  
HETATM   22  C   UNL     1      -6.138   6.020  67.131  1.00  0.00    -0.022 A  
HETATM   23  C   UNL     1      -6.393   6.718  68.317  1.00  0.00    -0.031 A  
HETATM   24  C   UNL     1      -7.149   5.279  66.517  1.00  0.00    -0.069 A  
HETATM   25  C   UNL     1      -8.407   5.190  67.112  1.00  0.00    -0.107 A  
HETATM   26  C   UNL     1      -8.624   5.837  68.336  1.00  0.00    -0.112 A  
HETATM   27  C   UNL     1      -9.552   4.492  66.440  1.00  0.00    -0.197 C  
ENDBRANCH  19  21
ENDBRANCH  14  19
ENDBRANCH  10  13
ENDBRANCH   8  10
ENDBRANCH   6   8
ENDBRANCH   4   6
ENDBRANCH   2   4
TORSDOF 7
ENDMDL
MODEL      324
REMARK 921   NORMALIZED FREE ENERGY PREDICTED BY IDOCK:   -2.92 KCAL/MOL
REMARK 922        TOTAL FREE ENERGY PREDICTED BY IDOCK:   -5.97 KCAL/MOL
REMARK 923 INTER-LIGAND FREE ENERGY PREDICTED BY IDOCK:   -5.35 KCAL/MOL
REMARK 924 INTRA-LIGAND FREE ENERGY PREDICTED BY IDOCK:   -0.62 KCAL/MOL
REMARK 927      BINDING AFFINITY PREDICTED BY RF-SCORE:    0.00 PKD
ROOT
HETATM    1  C   UNL     1      -5.969   7.623  71.717  1.00  0.00    -0.035 C  
HETATM    2  C   UNL     1      -6.631   8.951  71.349  1.00  0.00    -0.081 C  
HETATM    3  C   UNL     1      -5.616  10.088  71.397  1.00  0.00    -0.036 C  
ENDROOT
BRANCH   2   4
HETATM    4  N   UNL     1      -7.269   8.890  70.041  1.00  0.00    -0.051 N  
HETATM    5  H   UNL     1      -6.694   8.932  69.199  1.00  0.00     0.000 HD 
BRANCH   4   6
HETATM    6  C   UNL     1      -8.628   8.777  69.925  1.00  0.00    -0.133 C  
HETATM    7  O   UNL     1      -9.197   7.759  69.573  1.00  0.00    -0.150 OA 
BRANCH   6   8
HETATM    8  N   UNL     1      -9.301   9.966  70.162  1.00  0.00    -0.368 N  
HETATM    9  H   UNL     1      -9.251  10.360  71.101  1.00  0.00     0.000 HD 
BRANCH   8  10
HETATM   10  S   UNL     1     -10.189  10.796  69.015  1.00  0.00    -0.206 S  
HETATM   11  O   UNL     1      -9.316  11.685  68.283  1.00  0.00    -0.181 OA 
HETATM   12  O   UNL     1     -10.935   9.763  68.321  1.00  0.00    -0.229 OA 
BRANCH  10  13
HETATM   13  C   UNL     1     -11.363  11.769  69.889  1.00  0.00    -0.121 A  
HETATM   14  C   UNL     1     -11.622  13.102  69.544  1.00  0.00    -0.283 A  
HETATM   15  N   UNL     1     -12.914  11.877  71.754  1.00  0.00    -0.399 NA 
HETATM   16  C   UNL     1     -12.494  13.808  70.390  1.00  0.00    -0.384 A  
HETATM   17  C   UNL     1     -13.105  13.173  71.459  1.00  0.00    -0.315 A  
HETATM   18  C   UNL     1     -12.038  11.211  70.968  1.00  0.00    -0.275 A  
BRANCH  14  19
HETATM   19  N   UNL     1     -11.150  13.699  68.350  1.00  0.00    -0.252 NA 
HETATM   20  H   UNL     1     -11.498  13.286  67.484  1.00  0.00     0.000 HD 
BRANCH  19  21
HETATM   21  C   UNL     1     -10.261  14.788  68.189  1.00  0.00    -0.228 A  
HETATM   22  C   UNL     1      -8.277  15.990  68.922  1.00  0.00    -0.223 A  
HETATM   23  C   UNL     1      -9.078  14.842  68.934  1.00  0.00    -0.191 A  
HETATM   24  C   UNL     1      -8.666  17.115  68.193  1.00  0.00    -0.232 A  
HETATM   25  C   UNL     1      -9.832  17.080  67.428  1.00  0.00    -0.262 A  
HETATM   26  C   UNL     1     -10.585  15.899  67.395  1.00  0.00    -0.315 A  
HETATM   27  C   UNL     1     -10.344  18.294  66.712  1.00  0.00    -0.403 C  
ENDBRANCH  19  21
ENDBRANCH  14  19
ENDBRANCH  10  13
ENDBRANCH   8  10
ENDBRANCH   6   8
ENDBRANCH   4   6
ENDBRANCH   2   4
TORSDOF 7
ENDMDL
MODEL      325
REMARK 921   NORMALIZED FREE ENERGY PREDICTED BY IDOCK:   -2.91 KCAL/MOL
REMARK 922        TOTAL FREE ENERGY PREDICTED BY IDOCK:   -5.96 KCAL/MOL
REMARK 923 INTER-LIGAND FREE ENERGY PREDICTED BY IDOCK:   -4.75 KCAL/MOL
REMARK 924 INTRA-LIGAND FREE ENERGY PREDICTED BY IDOCK:   -1.21 KCAL/MOL
REMARK 927      BINDING AFFINITY PREDICTED BY RF-SCORE:    0.00 PKD
ROOT
HETATM    1  C   UNL     1      -6.052   7.739  71.525  1.00  0.00    -0.035 C  
HETATM    2  C   UNL     1      -6.642   8.915  70.747  1.00  0.00    -0.056 C  
HETATM    3  C   UNL     1      -5.907  10.207  71.088  1.00  0.00    -0.025 C  
ENDROOT
BRANCH   2   4
HETATM    4  N   UNL     1      -6.618   8.676  69.310  1.00  0.00    -0.049 N  
HETATM    5  H   UNL     1      -5.767   8.870  68.782  1.00  0.00     0.000 HD 
BRANCH   4   6
HETATM    6  C   UNL     1      -7.721   8.196  68.658  1.00  0.00    -0.112 C  
HETATM    7  O   UNL     1      -7.939   7.012  68.473  1.00  0.00    -0.119 OA 
BRANCH   6   8
HETATM    8  N   UNL     1      -8.535   9.194  68.144  1.00  0.00    -0.124 N  
HETATM    9  H   UNL     1      -9.535   9.005  68.079  1.00  0.00     0.000 HD 
BRANCH   8  10
HETATM   10  S   UNL     1      -7.989  10.686  67.624  1.00  0.00    -0.107 S  
HETATM   11  O   UNL     1      -8.216  11.668  68.660  1.00  0.00    -0.151 OA 
HETATM   12  O   UNL     1      -6.647  10.428  67.137  1.00  0.00    -0.070 OA 
BRANCH  10  13
HETATM   13  C   UNL     1      -8.960  11.122  66.226  1.00  0.00    -0.193 A  
HETATM   14  C   UNL     1      -9.513  12.401  66.079  1.00  0.00    -0.166 A  
HETATM   15  N   UNL     1      -9.991  10.364  64.161  1.00  0.00    -0.316 NA 
HETATM   16  C   UNL     1     -10.366  12.590  64.978  1.00  0.00    -0.323 A  
HETATM   17  C   UNL     1     -10.573  11.570  64.064  1.00  0.00    -0.379 A  
HETATM   18  C   UNL     1      -9.209  10.167  65.247  1.00  0.00    -0.209 A  
BRANCH  14  19
HETATM   19  N   UNL     1      -9.158  13.498  66.902  1.00  0.00    -0.263 NA 
HETATM   20  H   UNL     1      -8.188  13.807  66.826  1.00  0.00     0.000 HD 
BRANCH  19  21
HETATM   21  C   UNL     1      -9.959  14.224  67.813  1.00  0.00    -0.227 A  
HETATM   22  C   UNL     1     -10.353  16.259  69.087  1.00  0.00    -0.272 A  
HETATM   23  C   UNL     1      -9.689  15.574  68.062  1.00  0.00    -0.207 A  
HETATM   24  C   UNL     1     -11.272  15.595  69.900  1.00  0.00    -0.335 A  
HETATM   25  C   UNL     1     -11.572  14.254  69.662  1.00  0.00    -0.351 A  
HETATM   26  C   UNL     1     -10.951  13.602  68.587  1.00  0.00    -0.290 A  
HETATM   27  C   UNL     1     -12.473  13.472  70.570  1.00  0.00    -0.373 C  
ENDBRANCH  19  21
ENDBRANCH  14  19
ENDBRANCH  10  13
ENDBRANCH   8  10
ENDBRANCH   6   8
ENDBRANCH   4   6
ENDBRANCH   2   4
TORSDOF 7
ENDMDL
MODEL      326
REMARK 921   NORMALIZED FREE ENERGY PREDICTED BY IDOCK:   -2.91 KCAL/MOL
REMARK 922        TOTAL FREE ENERGY PREDICTED BY IDOCK:   -5.95 KCAL/MOL
REMARK 923 INTER-LIGAND FREE ENERGY PREDICTED BY IDOCK:   -4.92 KCAL/MOL
REMARK 924 INTRA-LIGAND FREE ENERGY PREDICTED BY IDOCK:   -1.03 KCAL/MOL
REMARK 927      BINDING AFFINITY PREDICTED BY RF-SCORE:    0.00 PKD
ROOT
HETATM    1  C   UNL     1     -12.271  14.796  64.368  1.00  0.00    -0.447 C  
HETATM    2  C   UNL     1     -12.411  13.381  64.930  1.00  0.00    -0.396 C  
HETATM    3  C   UNL     1     -12.239  12.345  63.825  1.00  0.00    -0.626 C  
ENDROOT
BRANCH   2   4
HETATM    4  N   UNL     1     -11.467  13.136  66.013  1.00  0.00    -0.323 N  
HETATM    5  H   UNL     1     -10.706  13.796  66.175  1.00  0.00     0.000 HD 
BRANCH   4   6
HETATM    6  C   UNL     1     -11.587  12.035  66.816  1.00  0.00    -0.321 C  
HETATM    7  O   UNL     1     -12.269  12.001  67.826  1.00  0.00    -0.474 OA 
BRANCH   6   8
HETATM    8  N   UNL     1     -10.784  10.976  66.421  1.00  0.00    -0.252 N  
HETATM    9  H   UNL     1     -10.764  10.739  65.430  1.00  0.00     0.000 HD 
BRANCH   8  10
HETATM   10  S   UNL     1      -9.847  10.060  67.458  1.00  0.00    -0.183 S  
HETATM   11  O   UNL     1      -9.443  10.872  68.584  1.00  0.00    -0.177 OA 
HETATM   12  O   UNL     1     -10.618   8.849  67.666  1.00  0.00    -0.258 OA 
BRANCH  10  13
HETATM   13  C   UNL     1      -8.406   9.597  66.566  1.00  0.00    -0.120 A  
HETATM   14  C   UNL     1      -7.385   8.837  67.151  1.00  0.00    -0.080 A  
HETATM   15  N   UNL     1      -7.172   9.778  64.481  1.00  0.00    -0.123 NA 
HETATM   16  C   UNL     1      -6.234   8.633  66.371  1.00  0.00    -0.060 A  
HETATM   17  C   UNL     1      -6.169   9.108  65.072  1.00  0.00    -0.065 A  
HETATM   18  C   UNL     1      -8.261  10.016  65.248  1.00  0.00    -0.148 A  
BRANCH  14  19
HETATM   19  N   UNL     1      -7.521   8.192  68.404  1.00  0.00    -0.097 NA 
HETATM   20  H   UNL     1      -7.401   8.791  69.222  1.00  0.00     0.000 HD 
BRANCH  19  21
HETATM   21  C   UNL     1      -7.800   6.833  68.680  1.00  0.00    -0.118 A  
HETATM   22  C   UNL     1      -7.240   4.785  69.867  1.00  0.00    -0.054 A  
HETATM   23  C   UNL     1      -7.107   6.168  69.697  1.00  0.00    -0.073 A  
HETATM   24  C   UNL     1      -8.042   4.041  69.000  1.00  0.00    -0.075 A  
HETATM   25  C   UNL     1      -8.757   4.682  67.990  1.00  0.00    -0.112 A  
HETATM   26  C   UNL     1      -8.668   6.077  67.878  1.00  0.00    -0.112 A  
HETATM   27  C   UNL     1      -9.549   3.916  66.973  1.00  0.00    -0.227 C  
ENDBRANCH  19  21
ENDBRANCH  14  19
ENDBRANCH  10  13
ENDBRANCH   8  10
ENDBRANCH   6   8
ENDBRANCH   4   6
ENDBRANCH   2   4
TORSDOF 7
ENDMDL
MODEL      327
REMARK 921   NORMALIZED FREE ENERGY PREDICTED BY IDOCK:   -2.86 KCAL/MOL
REMARK 922        TOTAL FREE ENERGY PREDICTED BY IDOCK:   -5.88 KCAL/MOL
REMARK 923 INTER-LIGAND FREE ENERGY PREDICTED BY IDOCK:   -4.29 KCAL/MOL
REMARK 924 INTRA-LIGAND FREE ENERGY PREDICTED BY IDOCK:   -1.59 KCAL/MOL
REMARK 927      BINDING AFFINITY PREDICTED BY RF-SCORE:    0.00 PKD
ROOT
HETATM    1  C   UNL     1     -10.108  12.273  65.432  1.00  0.00    -0.292 C  
HETATM    2  C   UNL     1     -10.520  11.827  66.835  1.00  0.00    -0.223 C  
HETATM    3  C   UNL     1     -11.743  12.605  67.308  1.00  0.00    -0.435 C  
ENDROOT
BRANCH   2   4
HETATM    4  N   UNL     1     -10.773  10.392  66.890  1.00  0.00    -0.236 N  
HETATM    5  H   UNL     1     -11.734  10.051  66.894  1.00  0.00     0.000 HD 
BRANCH   4   6
HETATM    6  C   UNL     1      -9.739   9.497  66.938  1.00  0.00    -0.182 C  
HETATM    7  O   UNL     1      -9.237   8.986  65.952  1.00  0.00    -0.198 OA 
BRANCH   6   8
HETATM    8  N   UNL     1      -9.367   9.153  68.228  1.00  0.00    -0.135 N  
HETATM    9  H   UNL     1      -8.380   9.228  68.474  1.00  0.00     0.000 HD 
BRANCH   8  10
HETATM   10  S   UNL     1     -10.425   8.626  69.409  1.00  0.00    -0.202 S  
HETATM   11  O   UNL     1     -11.284   9.718  69.808  1.00  0.00    -0.238 OA 
HETATM   12  O   UNL     1     -10.992   7.406  68.865  1.00  0.00    -0.110 OA 
BRANCH  10  13
HETATM   13  C   UNL     1      -9.448   8.157  70.793  1.00  0.00    -0.162 A  
HETATM   14  C   UNL     1      -8.466   7.163  70.703  1.00  0.00    -0.138 A  
HETATM   15  N   UNL     1      -9.030   8.453  73.167  1.00  0.00    -0.291 NA 
HETATM   16  C   UNL     1      -7.835   6.797  71.905  1.00  0.00    -0.097 A  
HETATM   17  C   UNL     1      -8.139   7.452  73.087  1.00  0.00    -0.109 A  
HETATM   18  C   UNL     1      -9.671   8.772  72.020  1.00  0.00    -0.300 A  
BRANCH  14  19
HETATM   19  N   UNL     1      -8.019   6.625  69.472  1.00  0.00    -0.115 NA 
HETATM   20  H   UNL     1      -7.421   7.236  68.916  1.00  0.00     0.000 HD 
BRANCH  19  21
HETATM   21  C   UNL     1      -8.288   5.357  68.904  1.00  0.00    -0.100 A  
HETATM   22  C   UNL     1      -9.393   3.194  69.052  1.00  0.00    -0.230 A  
HETATM   23  C   UNL     1      -9.240   4.516  69.490  1.00  0.00    -0.192 A  
HETATM   24  C   UNL     1      -8.570   2.684  68.046  1.00  0.00    -0.116 A  
HETATM   25  C   UNL     1      -7.625   3.508  67.435  1.00  0.00    -0.074 A  
HETATM   26  C   UNL     1      -7.535   4.848  67.836  1.00  0.00    -0.078 A  
HETATM   27  C   UNL     1      -6.652   2.979  66.423  1.00  0.00    -0.036 C  
ENDBRANCH  19  21
ENDBRANCH  14  19
ENDBRANCH  10  13
ENDBRANCH   8  10
ENDBRANCH   6   8
ENDBRANCH   4   6
ENDBRANCH   2   4
TORSDOF 7
ENDMDL
MODEL      328
REMARK 921   NORMALIZED FREE ENERGY PREDICTED BY IDOCK:   -2.78 KCAL/MOL
REMARK 922        TOTAL FREE ENERGY PREDICTED BY IDOCK:   -5.78 KCAL/MOL
REMARK 923 INTER-LIGAND FREE ENERGY PREDICTED BY IDOCK:   -4.69 KCAL/MOL
REMARK 924 INTRA-LIGAND FREE ENERGY PREDICTED BY IDOCK:   -1.08 KCAL/MOL
REMARK 927      BINDING AFFINITY PREDICTED BY RF-SCORE:    0.00 PKD
ROOT
HETATM    1  C   UNL     1      -7.603  11.031  68.280  1.00  0.00    -0.106 C  
HETATM    2  C   UNL     1      -7.495   9.603  67.746  1.00  0.00    -0.087 C  
HETATM    3  C   UNL     1      -6.834   8.693  68.775  1.00  0.00    -0.062 C  
ENDROOT
BRANCH   2   4
HETATM    4  N   UNL     1      -8.796   9.075  67.356  1.00  0.00    -0.119 N  
HETATM    5  H   UNL     1      -9.637   9.618  67.550  1.00  0.00     0.000 HD 
BRANCH   4   6
HETATM    6  C   UNL     1      -8.906   7.861  66.735  1.00  0.00    -0.138 C  
HETATM    7  O   UNL     1      -8.567   7.654  65.583  1.00  0.00    -0.148 OA 
BRANCH   6   8
HETATM    8  N   UNL     1      -9.526   6.897  67.515  1.00  0.00    -0.127 N  
HETATM    9  H   UNL     1     -10.116   7.216  68.283  1.00  0.00     0.000 HD 
BRANCH   8  10
HETATM   10  S   UNL     1      -9.373   5.249  67.284  1.00  0.00    -0.123 S  
HETATM   11  O   UNL     1     -10.515   4.759  66.546  1.00  0.00    -0.268 OA 
HETATM   12  O   UNL     1      -8.031   5.084  66.755  1.00  0.00    -0.102 OA 
BRANCH  10  13
HETATM   13  C   UNL     1      -9.385   4.509  68.878  1.00  0.00    -0.147 A  
HETATM   14  C   UNL     1     -10.223   4.970  69.901  1.00  0.00    -0.270 A  
HETATM   15  N   UNL     1      -8.394   2.844  70.343  1.00  0.00    -0.048 NA 
HETATM   16  C   UNL     1     -10.055   4.372  71.162  1.00  0.00    -0.196 A  
HETATM   17  C   UNL     1      -9.151   3.338  71.336  1.00  0.00    -0.105 A  
HETATM   18  C   UNL     1      -8.522   3.452  69.141  1.00  0.00    -0.062 A  
BRANCH  14  19
HETATM   19  N   UNL     1     -11.274   5.893  69.684  1.00  0.00    -0.360 NA 
HETATM   20  H   UNL     1     -11.941   5.637  68.956  1.00  0.00     0.000 HD 
BRANCH  19  21
HETATM   21  C   UNL     1     -11.529   7.122  70.337  1.00  0.00    -0.278 A  
HETATM   22  C   UNL     1     -10.679   9.158  71.363  1.00  0.00    -0.414 A  
HETATM   23  C   UNL     1     -10.484   8.023  70.567  1.00  0.00    -0.217 A  
HETATM   24  C   UNL     1     -11.914   9.389  71.971  1.00  0.00    -0.345 A  
HETATM   25  C   UNL     1     -12.977   8.516  71.744  1.00  0.00    -0.380 A  
HETATM   26  C   UNL     1     -12.785   7.424  70.887  1.00  0.00    -0.162 A  
HETATM   27  C   UNL     1     -14.290   8.666  72.454  1.00  0.00    -0.429 C  
ENDBRANCH  19  21
ENDBRANCH  14  19
ENDBRANCH  10  13
ENDBRANCH   8  10
ENDBRANCH   6   8
ENDBRANCH   4   6
ENDBRANCH   2   4
TORSDOF 7
ENDMDL
MODEL      329
REMARK 921   NORMALIZED FREE ENERGY PREDICTED BY IDOCK:   -2.78 KCAL/MOL
REMARK 922        TOTAL FREE ENERGY PREDICTED BY IDOCK:   -5.78 KCAL/MOL
REMARK 923 INTER-LIGAND FREE ENERGY PREDICTED BY IDOCK:   -4.90 KCAL/MOL
REMARK 924 INTRA-LIGAND FREE ENERGY PREDICTED BY IDOCK:   -0.88 KCAL/MOL
REMARK 927      BINDING AFFINITY PREDICTED BY RF-SCORE:    0.00 PKD
ROOT
HETATM    1  C   UNL     1      -8.394   4.591  62.856  1.00  0.00    -0.096 C  
HETATM    2  C   UNL     1      -9.676   4.326  63.645  1.00  0.00    -0.062 C  
HETATM    3  C   UNL     1      -9.820   2.839  63.951  1.00  0.00    -0.149 C  
ENDROOT
BRANCH   2   4
HETATM    4  N   UNL     1      -9.722   5.108  64.874  1.00  0.00    -0.344 N  
HETATM    5  H   UNL     1     -10.194   6.013  64.876  1.00  0.00     0.000 HD 
BRANCH   4   6
HETATM    6  C   UNL     1      -9.143   4.647  66.025  1.00  0.00    -0.131 C  
HETATM    7  O   UNL     1      -7.966   4.345  66.120  1.00  0.00    -0.098 OA 
BRANCH   6   8
HETATM    8  N   UNL     1     -10.046   4.468  67.062  1.00  0.00    -0.178 N  
HETATM    9  H   UNL     1     -10.665   3.660  67.019  1.00  0.00     0.000 HD 
BRANCH   8  10
HETATM   10  S   UNL     1     -10.188   5.487  68.379  1.00  0.00    -0.169 S  
HETATM   11  O   UNL     1     -11.375   6.299  68.232  1.00  0.00    -0.289 OA 
HETATM   12  O   UNL     1     -10.033   4.615  69.527  1.00  0.00    -0.213 OA 
BRANCH  10  13
HETATM   13  C   UNL     1      -8.787   6.548  68.354  1.00  0.00    -0.123 A  
HETATM   14  C   UNL     1      -8.775   7.742  67.622  1.00  0.00    -0.126 A  
HETATM   15  N   UNL     1      -6.489   6.880  69.068  1.00  0.00    -0.035 NA 
HETATM   16  C   UNL     1      -7.556   8.441  67.589  1.00  0.00    -0.098 A  
HETATM   17  C   UNL     1      -6.464   7.987  68.308  1.00  0.00    -0.055 A  
HETATM   18  C   UNL     1      -7.647   6.182  69.061  1.00  0.00    -0.091 A  
BRANCH  14  19
HETATM   19  N   UNL     1      -9.936   8.306  67.041  1.00  0.00    -0.227 NA 
HETATM   20  H   UNL     1     -10.586   7.639  66.623  1.00  0.00     0.000 HD 
BRANCH  19  21
HETATM   21  C   UNL     1     -10.322   9.664  66.959  1.00  0.00    -0.248 A  
HETATM   22  C   UNL     1     -11.473  11.572  67.938  1.00  0.00    -0.372 A  
HETATM   23  C   UNL     1     -10.926  10.288  68.056  1.00  0.00    -0.345 A  
HETATM   24  C   UNL     1     -11.454  12.236  66.710  1.00  0.00    -0.421 A  
HETATM   25  C   UNL     1     -10.843  11.643  65.606  1.00  0.00    -0.330 A  
HETATM   26  C   UNL     1     -10.237  10.388  65.760  1.00  0.00    -0.305 A  
HETATM   27  C   UNL     1     -10.888  12.272  64.245  1.00  0.00    -0.392 C  
ENDBRANCH  19  21
ENDBRANCH  14  19
ENDBRANCH  10  13
ENDBRANCH   8  10
ENDBRANCH   6   8
ENDBRANCH   4   6
ENDBRANCH   2   4
TORSDOF 7
ENDMDL
MODEL      330
REMARK 921   NORMALIZED FREE ENERGY PREDICTED BY IDOCK:   -2.75 KCAL/MOL
REMARK 922        TOTAL FREE ENERGY PREDICTED BY IDOCK:   -5.73 KCAL/MOL
REMARK 923 INTER-LIGAND FREE ENERGY PREDICTED BY IDOCK:   -4.06 KCAL/MOL
REMARK 924 INTRA-LIGAND FREE ENERGY PREDICTED BY IDOCK:   -1.67 KCAL/MOL
REMARK 927      BINDING AFFINITY PREDICTED BY RF-SCORE:    0.00 PKD
ROOT
HETATM    1  C   UNL     1      -6.557   2.568  66.405  1.00  0.00    -0.035 C  
HETATM    2  C   UNL     1      -7.316   2.733  65.088  1.00  0.00    -0.067 C  
HETATM    3  C   UNL     1      -8.803   2.463  65.289  1.00  0.00    -0.122 C  
ENDROOT
BRANCH   2   4
HETATM    4  N   UNL     1      -7.109   4.054  64.510  1.00  0.00    -0.053 N  
HETATM    5  H   UNL     1      -6.197   4.503  64.595  1.00  0.00     0.000 HD 
BRANCH   4   6
HETATM    6  C   UNL     1      -8.120   4.702  63.853  1.00  0.00    -0.101 C  
HETATM    7  O   UNL     1      -8.532   4.379  62.753  1.00  0.00    -0.085 OA 
BRANCH   6   8
HETATM    8  N   UNL     1      -8.580   5.825  64.523  1.00  0.00    -0.327 N  
HETATM    9  H   UNL     1      -9.557   6.086  64.397  1.00  0.00     0.000 HD 
BRANCH   8  10
HETATM   10  S   UNL     1      -7.643   6.780  65.524  1.00  0.00    -0.094 S  
HETATM   11  O   UNL     1      -7.412   6.088  66.772  1.00  0.00    -0.084 OA 
HETATM   12  O   UNL     1      -6.525   7.185  64.691  1.00  0.00    -0.036 OA 
BRANCH  10  13
HETATM   13  C   UNL     1      -8.576   8.231  65.861  1.00  0.00    -0.150 A  
HETATM   14  C   UNL     1      -9.881   8.171  66.366  1.00  0.00    -0.190 A  
HETATM   15  N   UNL     1      -8.654  10.656  65.754  1.00  0.00    -0.176 NA 
HETATM   16  C   UNL     1     -10.562   9.395  66.482  1.00  0.00    -0.125 A  
HETATM   17  C   UNL     1      -9.927  10.586  66.173  1.00  0.00    -0.229 A  
HETATM   18  C   UNL     1      -8.014   9.475  65.597  1.00  0.00    -0.108 A  
BRANCH  14  19
HETATM   19  N   UNL     1     -10.467   6.980  66.858  1.00  0.00    -0.384 NA 
HETATM   20  H   UNL     1     -10.965   6.417  66.168  1.00  0.00     0.000 HD 
BRANCH  19  21
HETATM   21  C   UNL     1     -10.456   6.460  68.174  1.00  0.00    -0.218 A  
HETATM   22  C   UNL     1     -10.440   6.854  70.575  1.00  0.00    -0.234 A  
HETATM   23  C   UNL     1     -10.623   7.318  69.267  1.00  0.00    -0.230 A  
HETATM   24  C   UNL     1     -10.052   5.534  70.808  1.00  0.00    -0.277 A  
HETATM   25  C   UNL     1      -9.896   4.654  69.737  1.00  0.00    -0.296 A  
HETATM   26  C   UNL     1     -10.153   5.116  68.439  1.00  0.00    -0.205 A  
HETATM   27  C   UNL     1      -9.383   3.258  69.929  1.00  0.00    -0.234 C  
ENDBRANCH  19  21
ENDBRANCH  14  19
ENDBRANCH  10  13
ENDBRANCH   8  10
ENDBRANCH   6   8
ENDBRANCH   4   6
ENDBRANCH   2   4
TORSDOF 7
ENDMDL
MODEL      331
REMARK 921   NORMALIZED FREE ENERGY PREDICTED BY IDOCK:   -2.53 KCAL/MOL
REMARK 922        TOTAL FREE ENERGY PREDICTED BY IDOCK:   -5.42 KCAL/MOL
REMARK 923 INTER-LIGAND FREE ENERGY PREDICTED BY IDOCK:   -4.99 KCAL/MOL
REMARK 924 INTRA-LIGAND FREE ENERGY PREDICTED BY IDOCK:   -0.43 KCAL/MOL
REMARK 927      BINDING AFFINITY PREDICTED BY RF-SCORE:    0.00 PKD
ROOT
HETATM    1  C   UNL     1     -13.323   9.750  70.968  1.00  0.00    -0.301 C  
HETATM    2  C   UNL     1     -11.987  10.432  71.266  1.00  0.00    -0.330 C  
HETATM    3  C   UNL     1     -10.824   9.517  70.903  1.00  0.00    -0.407 C  
ENDROOT
BRANCH   2   4
HETATM    4  N   UNL     1     -11.870  11.709  70.573  1.00  0.00    -0.488 N  
HETATM    5  H   UNL     1     -12.182  12.563  71.036  1.00  0.00     0.000 HD 
BRANCH   4   6
HETATM    6  C   UNL     1     -11.348  11.779  69.310  1.00  0.00    -0.286 C  
HETATM    7  O   UNL     1     -11.377  10.860  68.511  1.00  0.00    -0.255 OA 
BRANCH   6   8
HETATM    8  N   UNL     1     -10.697  12.975  69.049  1.00  0.00    -0.413 N  
HETATM    9  H   UNL     1     -10.648  13.663  69.800  1.00  0.00     0.000 HD 
BRANCH   8  10
HETATM   10  S   UNL     1      -9.987  13.368  67.588  1.00  0.00    -0.234 S  
HETATM   11  O   UNL     1     -10.412  12.424  66.578  1.00  0.00    -0.227 OA 
HETATM   12  O   UNL     1     -10.254  14.785  67.428  1.00  0.00    -0.235 OA 
BRANCH  10  13
HETATM   13  C   UNL     1      -8.251  13.200  67.805  1.00  0.00    -0.168 A  
HETATM   14  C   UNL     1      -7.681  12.032  68.329  1.00  0.00    -0.127 A  
HETATM   15  N   UNL     1      -6.080  14.277  67.652  1.00  0.00    -0.324 NA 
HETATM   16  C   UNL     1      -6.295  12.066  68.563  1.00  0.00    -0.055 A  
HETATM   17  C   UNL     1      -5.550  13.181  68.218  1.00  0.00    -0.085 A  
HETATM   18  C   UNL     1      -7.420  14.262  67.471  1.00  0.00    -0.182 A  
BRANCH  14  19
HETATM   19  N   UNL     1      -8.405  10.829  68.508  1.00  0.00    -0.131 NA 
HETATM   20  H   UNL     1      -9.301  10.922  68.986  1.00  0.00     0.000 HD 
BRANCH  19  21
HETATM   21  C   UNL     1      -8.058   9.515  68.115  1.00  0.00    -0.102 A  
HETATM   22  C   UNL     1      -7.434   7.958  66.352  1.00  0.00    -0.087 A  
HETATM   23  C   UNL     1      -7.611   9.268  66.812  1.00  0.00    -0.090 A  
HETATM   24  C   UNL     1      -7.736   6.873  67.178  1.00  0.00    -0.108 A  
HETATM   25  C   UNL     1      -8.167   7.092  68.486  1.00  0.00    -0.125 A  
HETATM   26  C   UNL     1      -8.271   8.410  68.953  1.00  0.00    -0.115 A  
HETATM   27  C   UNL     1      -8.601   5.965  69.375  1.00  0.00    -0.113 C  
ENDBRANCH  19  21
ENDBRANCH  14  19
ENDBRANCH  10  13
ENDBRANCH   8  10
ENDBRANCH   6   8
ENDBRANCH   4   6
ENDBRANCH   2   4
TORSDOF 7
ENDMDL
MODEL      332
REMARK 921   NORMALIZED FREE ENERGY PREDICTED BY IDOCK:   -2.21 KCAL/MOL
REMARK 922        TOTAL FREE ENERGY PREDICTED BY IDOCK:   -4.97 KCAL/MOL
REMARK 923 INTER-LIGAND FREE ENERGY PREDICTED BY IDOCK:   -4.00 KCAL/MOL
REMARK 924 INTRA-LIGAND FREE ENERGY PREDICTED BY IDOCK:   -0.98 KCAL/MOL
REMARK 927      BINDING AFFINITY PREDICTED BY RF-SCORE:    0.00 PKD
ROOT
HETATM    1  C   UNL     1     -10.573  13.168  66.851  1.00  0.00    -0.265 C  
HETATM    2  C   UNL     1     -10.545  12.615  68.276  1.00  0.00    -0.237 C  
HETATM    3  C   UNL     1     -11.900  12.797  68.950  1.00  0.00    -0.351 C  
ENDROOT
BRANCH   2   4
HETATM    4  N   UNL     1     -10.145  11.213  68.301  1.00  0.00    -0.178 N  
HETATM    5  H   UNL     1     -10.856  10.487  68.218  1.00  0.00     0.000 HD 
BRANCH   4   6
HETATM    6  C   UNL     1      -8.830  10.859  68.435  1.00  0.00    -0.147 C  
HETATM    7  O   UNL     1      -8.019  10.902  67.527  1.00  0.00    -0.112 OA 
BRANCH   6   8
HETATM    8  N   UNL     1      -8.520  10.357  69.690  1.00  0.00    -0.353 N  
HETATM    9  H   UNL     1      -7.853  10.878  70.258  1.00  0.00     0.000 HD 
BRANCH   8  10
HETATM   10  S   UNL     1      -9.165   8.957  70.335  1.00  0.00    -0.212 S  
HETATM   11  O   UNL     1     -10.356   9.280  71.088  1.00  0.00    -0.282 OA 
HETATM   12  O   UNL     1      -9.233   8.041  69.212  1.00  0.00    -0.151 OA 
BRANCH  10  13
HETATM   13  C   UNL     1      -7.967   8.311  71.446  1.00  0.00    -0.119 A  
HETATM   14  C   UNL     1      -7.820   6.934  71.657  1.00  0.00    -0.100 A  
HETATM   15  N   UNL     1      -6.245   8.816  73.083  1.00  0.00    -0.235 NA 
HETATM   16  C   UNL     1      -6.908   6.549  72.655  1.00  0.00    -0.065 A  
HETATM   17  C   UNL     1      -6.159   7.499  73.328  1.00  0.00    -0.059 A  
HETATM   18  C   UNL     1      -7.157   9.189  72.155  1.00  0.00     0.340 A  
BRANCH  14  19
HETATM   19  N   UNL     1      -8.443   5.955  70.844  1.00  0.00    -0.125 NA 
HETATM   20  H   UNL     1      -8.638   6.241  69.885  1.00  0.00     0.000 HD 
BRANCH  19  21
HETATM   21  C   UNL     1      -8.832   4.637  71.179  1.00  0.00    -0.118 A  
HETATM   22  C   UNL     1      -9.219   2.335  70.491  1.00  0.00    -0.192 A  
HETATM   23  C   UNL     1      -8.679   3.604  70.248  1.00  0.00    -0.125 A  
HETATM   24  C   UNL     1      -9.951   2.091  71.655  1.00  0.00    -0.192 A  
HETATM   25  C   UNL     1     -10.103   3.099  72.606  1.00  0.00    -0.230 A  
HETATM   26  C   UNL     1      -9.496   4.342  72.379  1.00  0.00    -0.175 A  
HETATM   27  C   UNL     1     -10.965   2.916  73.820  1.00  0.00    -0.313 C  
ENDBRANCH  19  21
ENDBRANCH  14  19
ENDBRANCH  10  13
ENDBRANCH   8  10
ENDBRANCH   6   8
ENDBRANCH   4   6
ENDBRANCH   2   4
TORSDOF 7
ENDMDL
MODEL      333
REMARK 921   NORMALIZED FREE ENERGY PREDICTED BY IDOCK:   -1.99 KCAL/MOL
REMARK 922        TOTAL FREE ENERGY PREDICTED BY IDOCK:   -4.66 KCAL/MOL
REMARK 923 INTER-LIGAND FREE ENERGY PREDICTED BY IDOCK:   -3.77 KCAL/MOL
REMARK 924 INTRA-LIGAND FREE ENERGY PREDICTED BY IDOCK:   -0.88 KCAL/MOL
REMARK 927      BINDING AFFINITY PREDICTED BY RF-SCORE:    0.00 PKD
ROOT
HETATM    1  C   UNL     1      -7.857  13.933  67.534  1.00  0.00    -0.193 C  
HETATM    2  C   UNL     1      -9.133  13.475  68.239  1.00  0.00    -0.189 C  
HETATM    3  C   UNL     1      -9.870  14.665  68.842  1.00  0.00    -0.211 C  
ENDROOT
BRANCH   2   4
HETATM    4  N   UNL     1     -10.008  12.733  67.340  1.00  0.00    -0.210 N  
HETATM    5  H   UNL     1     -11.011  12.702  67.526  1.00  0.00     0.000 HD 
BRANCH   4   6
HETATM    6  C   UNL     1      -9.504  12.077  66.250  1.00  0.00    -0.229 C  
HETATM    7  O   UNL     1      -9.884  12.266  65.108  1.00  0.00    -0.241 OA 
BRANCH   6   8
HETATM    8  N   UNL     1      -8.573  11.103  66.576  1.00  0.00    -0.165 N  
HETATM    9  H   UNL     1      -7.625  11.408  66.796  1.00  0.00     0.000 HD 
BRANCH   8  10
HETATM   10  S   UNL     1      -8.896   9.465  66.632  1.00  0.00    -0.137 S  
HETATM   11  O   UNL     1      -8.233   8.884  67.778  1.00  0.00    -0.109 OA 
HETATM   12  O   UNL     1     -10.338   9.378  66.496  1.00  0.00    -0.251 OA 
BRANCH  10  13
HETATM   13  C   UNL     1      -8.206   8.760  65.178  1.00  0.00    -0.148 A  
HETATM   14  C   UNL     1      -8.278   7.386  64.916  1.00  0.00    -0.077 A  
HETATM   15  N   UNL     1      -6.925   9.151  63.152  1.00  0.00    -0.089 NA 
HETATM   16  C   UNL     1      -7.587   6.930  63.779  1.00  0.00    -0.105 A  
HETATM   17  C   UNL     1      -6.939   7.825  62.944  1.00  0.00    -0.080 A  
HETATM   18  C   UNL     1      -7.550   9.584  64.271  1.00  0.00    -0.122 A  
BRANCH  14  19
HETATM   19  N   UNL     1      -9.092   6.497  65.659  1.00  0.00    -0.367 NA 
HETATM   20  H   UNL     1      -9.919   6.913  66.087  1.00  0.00     0.000 HD 
BRANCH  19  21
HETATM   21  C   UNL     1      -8.918   5.113  65.891  1.00  0.00    -0.145 A  
HETATM   22  C   UNL     1      -7.678   3.314  66.963  1.00  0.00    -0.079 A  
HETATM   23  C   UNL     1      -7.992   4.673  66.844  1.00  0.00    -0.102 A  
HETATM   24  C   UNL     1      -8.258   2.378  66.106  1.00  0.00    -0.088 A  
HETATM   25  C   UNL     1      -9.196   2.788  65.159  1.00  0.00    -0.139 A  
HETATM   26  C   UNL     1      -9.553   4.142  65.101  1.00  0.00    -0.185 A  
HETATM   27  C   UNL     1      -9.769   1.837  64.150  1.00  0.00    -0.114 C  
ENDBRANCH  19  21
ENDBRANCH  14  19
ENDBRANCH  10  13
ENDBRANCH   8  10
ENDBRANCH   6   8
ENDBRANCH   4   6
ENDBRANCH   2   4
TORSDOF 7
ENDMDL
MODEL      334
REMARK 921   NORMALIZED FREE ENERGY PREDICTED BY IDOCK:   -1.98 KCAL/MOL
REMARK 922        TOTAL FREE ENERGY PREDICTED BY IDOCK:   -4.64 KCAL/MOL
REMARK 923 INTER-LIGAND FREE ENERGY PREDICTED BY IDOCK:   -3.85 KCAL/MOL
REMARK 924 INTRA-LIGAND FREE ENERGY PREDICTED BY IDOCK:   -0.79 KCAL/MOL
REMARK 927      BINDING AFFINITY PREDICTED BY RF-SCORE:    0.00 PKD
ROOT
HETATM    1  C   UNL     1      -7.990  13.564  67.353  1.00  0.00    -0.165 C  
HETATM    2  C   UNL     1      -9.474  13.209  67.435  1.00  0.00    -0.214 C  
HETATM    3  C   UNL     1     -10.316  14.254  66.711  1.00  0.00    -0.274 C  
ENDROOT
BRANCH   2   4
HETATM    4  N   UNL     1      -9.740  11.879  66.902  1.00  0.00    -0.198 N  
HETATM    5  H   UNL     1     -10.681  11.642  66.589  1.00  0.00     0.000 HD 
BRANCH   4   6
HETATM    6  C   UNL     1      -8.745  10.943  66.817  1.00  0.00    -0.147 C  
HETATM    7  O   UNL     1      -8.248  10.574  65.767  1.00  0.00    -0.152 OA 
BRANCH   6   8
HETATM    8  N   UNL     1      -8.410  10.383  68.040  1.00  0.00    -0.117 N  
HETATM    9  H   UNL     1      -8.225  11.016  68.817  1.00  0.00     0.000 HD 
BRANCH   8  10
HETATM   10  S   UNL     1      -8.288   8.742  68.328  1.00  0.00    -0.126 S  
HETATM   11  O   UNL     1      -8.582   8.017  67.112  1.00  0.00    -0.122 OA 
HETATM   12  O   UNL     1      -7.003   8.586  68.983  1.00  0.00    -0.061 OA 
BRANCH  10  13
HETATM   13  C   UNL     1      -9.517   8.342  69.519  1.00  0.00    -0.166 A  
HETATM   14  C   UNL     1      -9.608   7.066  70.090  1.00  0.00    -0.164 A  
HETATM   15  N   UNL     1     -11.468   9.107  70.747  1.00  0.00    -0.275 NA 
HETATM   16  C   UNL     1     -10.704   6.839  70.940  1.00  0.00    -0.269 A  
HETATM   17  C   UNL     1     -11.589   7.862  71.236  1.00  0.00    -0.276 A  
HETATM   18  C   UNL     1     -10.441   9.312  69.891  1.00  0.00    -0.227 A  
BRANCH  14  19
HETATM   19  N   UNL     1      -8.605   6.078  69.940  1.00  0.00    -0.129 NA 
HETATM   20  H   UNL     1      -7.749   6.237  70.470  1.00  0.00     0.000 HD 
BRANCH  19  21
HETATM   21  C   UNL     1      -8.626   4.900  69.156  1.00  0.00    -0.080 A  
HETATM   22  C   UNL     1      -8.958   2.494  69.010  1.00  0.00    -0.170 A  
HETATM   23  C   UNL     1      -9.095   3.702  69.705  1.00  0.00    -0.197 A  
HETATM   24  C   UNL     1      -8.319   2.463  67.769  1.00  0.00    -0.081 A  
HETATM   25  C   UNL     1      -7.858   3.646  67.192  1.00  0.00    -0.080 A  
HETATM   26  C   UNL     1      -8.066   4.855  67.870  1.00  0.00    -0.093 A  
HETATM   27  C   UNL     1      -7.076   3.649  65.913  1.00  0.00    -0.063 C  
ENDBRANCH  19  21
ENDBRANCH  14  19
ENDBRANCH  10  13
ENDBRANCH   8  10
ENDBRANCH   6   8
ENDBRANCH   4   6
ENDBRANCH   2   4
TORSDOF 7
ENDMDL
MODEL      335
REMARK 921   NORMALIZED FREE ENERGY PREDICTED BY IDOCK:   -1.57 KCAL/MOL
REMARK 922        TOTAL FREE ENERGY PREDICTED BY IDOCK:   -4.07 KCAL/MOL
REMARK 923 INTER-LIGAND FREE ENERGY PREDICTED BY IDOCK:   -3.83 KCAL/MOL
REMARK 924 INTRA-LIGAND FREE ENERGY PREDICTED BY IDOCK:   -0.24 KCAL/MOL
REMARK 927      BINDING AFFINITY PREDICTED BY RF-SCORE:    0.00 PKD
ROOT
HETATM    1  C   UNL     1      -5.129  16.125  68.890  1.00  0.00    -0.100 C  
HETATM    2  C   UNL     1      -6.632  15.935  69.097  1.00  0.00    -0.158 C  
HETATM    3  C   UNL     1      -7.241  17.164  69.763  1.00  0.00     0.501 C  
ENDROOT
BRANCH   2   4
HETATM    4  N   UNL     1      -7.314  15.640  67.844  1.00  0.00    -0.127 N  
HETATM    5  H   UNL     1      -6.869  15.886  66.960  1.00  0.00     0.000 HD 
BRANCH   4   6
HETATM    6  C   UNL     1      -8.543  15.038  67.836  1.00  0.00    -0.155 C  
HETATM    7  O   UNL     1      -9.544  15.529  68.328  1.00  0.00    -0.198 OA 
BRANCH   6   8
HETATM    8  N   UNL     1      -8.528  13.764  67.290  1.00  0.00    -0.200 N  
HETATM    9  H   UNL     1      -9.060  13.608  66.434  1.00  0.00     0.000 HD 
BRANCH   8  10
HETATM   10  S   UNL     1      -7.698  12.466  67.936  1.00  0.00    -0.150 S  
HETATM   11  O   UNL     1      -6.609  12.106  67.057  1.00  0.00    -0.147 OA 
HETATM   12  O   UNL     1      -7.437  12.854  69.310  1.00  0.00     0.115 OA 
BRANCH  10  13
HETATM   13  C   UNL     1      -8.827  11.120  67.997  1.00  0.00    -0.142 A  
HETATM   14  C   UNL     1     -10.214  11.314  67.939  1.00  0.00    -0.181 A  
HETATM   15  N   UNL     1      -9.103   8.720  68.250  1.00  0.00    -0.141 NA 
HETATM   16  C   UNL     1     -11.012  10.170  68.115  1.00  0.00    -0.313 A  
HETATM   17  C   UNL     1     -10.430   8.922  68.263  1.00  0.00    -0.195 A  
HETATM   18  C   UNL     1      -8.335   9.827  68.129  1.00  0.00    -0.110 A  
BRANCH  14  19
HETATM   19  N   UNL     1     -10.809  12.554  67.601  1.00  0.00    -0.219 NA 
HETATM   20  H   UNL     1     -10.942  13.203  68.377  1.00  0.00     0.000 HD 
BRANCH  19  21
HETATM   21  C   UNL     1     -11.245  13.017  66.338  1.00  0.00    -0.300 A  
HETATM   22  C   UNL     1     -12.355  14.727  65.009  1.00  0.00    -0.209 A  
HETATM   23  C   UNL     1     -11.756  14.312  66.205  1.00  0.00    -0.404 A  
HETATM   24  C   UNL     1     -12.482  13.839  63.939  1.00  0.00    -0.260 A  
HETATM   25  C   UNL     1     -11.965  12.548  64.040  1.00  0.00    -0.536 A  
HETATM   26  C   UNL     1     -11.306  12.172  65.219  1.00  0.00    -0.386 A  
HETATM   27  C   UNL     1     -12.167  11.529  62.958  1.00  0.00     0.183 C  
ENDBRANCH  19  21
ENDBRANCH  14  19
ENDBRANCH  10  13
ENDBRANCH   8  10
ENDBRANCH   6   8
ENDBRANCH   4   6
ENDBRANCH   2   4
TORSDOF 7
ENDMDL
MODEL      336
REMARK 921   NORMALIZED FREE ENERGY PREDICTED BY IDOCK:   -1.14 KCAL/MOL
REMARK 922        TOTAL FREE ENERGY PREDICTED BY IDOCK:   -3.46 KCAL/MOL
REMARK 923 INTER-LIGAND FREE ENERGY PREDICTED BY IDOCK:   -3.95 KCAL/MOL
REMARK 924 INTRA-LIGAND FREE ENERGY PREDICTED BY IDOCK:    0.48 KCAL/MOL
REMARK 927      BINDING AFFINITY PREDICTED BY RF-SCORE:    0.00 PKD
ROOT
HETATM    1  C   UNL     1      -6.694  16.349  67.338  1.00  0.00    -0.201 C  
HETATM    2  C   UNL     1      -6.587  16.037  68.831  1.00  0.00    -0.130 C  
HETATM    3  C   UNL     1      -6.579  17.324  69.649  1.00  0.00    -0.109 C  
ENDROOT
BRANCH   2   4
HETATM    4  N   UNL     1      -7.660  15.155  69.274  1.00  0.00    -0.187 N  
HETATM    5  H   UNL     1      -7.431  14.231  69.639  1.00  0.00     0.000 HD 
BRANCH   4   6
HETATM    6  C   UNL     1      -8.968  15.550  69.207  1.00  0.00    -0.267 C  
HETATM    7  O   UNL     1      -9.414  16.526  69.783  1.00  0.00     0.076 OA 
BRANCH   6   8
HETATM    8  N   UNL     1      -9.770  14.678  68.486  1.00  0.00    -0.220 N  
HETATM    9  H   UNL     1     -10.665  14.409  68.893  1.00  0.00     0.000 HD 
BRANCH   8  10
HETATM   10  S   UNL     1      -9.369  14.038  66.995  1.00  0.00    -0.259 S  
HETATM   11  O   UNL     1      -8.252  14.770  66.443  1.00  0.00     0.127 OA 
HETATM   12  O   UNL     1      -9.267  12.610  67.233  1.00  0.00    -0.182 OA 
BRANCH  10  13
HETATM   13  C   UNL     1     -10.760  14.280  65.948  1.00  0.00    -0.303 A  
HETATM   14  C   UNL     1     -10.964  15.479  65.253  1.00  0.00    -0.380 A  
HETATM   15  N   UNL     1     -12.839  13.354  65.100  1.00  0.00    -0.716 NA 
HETATM   16  C   UNL     1     -12.171  15.592  64.543  1.00  0.00    -0.059 A  
HETATM   17  C   UNL     1     -13.060  14.531  64.494  1.00  0.00     0.751 A  
HETATM   18  C   UNL     1     -11.699  13.263  65.823  1.00  0.00    -0.359 A  
BRANCH  14  19
HETATM   19  N   UNL     1      -9.978  16.490  65.148  1.00  0.00    -0.358 NA 
HETATM   20  H   UNL     1      -9.232  16.307  64.476  1.00  0.00     0.000 HD 
BRANCH  19  21
HETATM   21  C   UNL     1      -9.882  17.717  65.844  1.00  0.00    -0.063 A  
HETATM   22  C   UNL     1     -10.985  19.634  66.858  1.00  0.00    -0.389 A  
HETATM   23  C   UNL     1     -11.038  18.340  66.326  1.00  0.00     0.486 A  
HETATM   24  C   UNL     1      -9.780  20.338  66.883  1.00  0.00    -0.584 A  
HETATM   25  C   UNL     1      -8.610  19.733  66.424  1.00  0.00    -0.398 A  
HETATM   26  C   UNL     1      -8.668  18.412  65.961  1.00  0.00     0.004 A  
HETATM   27  C   UNL     1      -7.314  20.483  66.336  1.00  0.00    -0.226 C  
ENDBRANCH  19  21
ENDBRANCH  14  19
ENDBRANCH  10  13
ENDBRANCH   8  10
ENDBRANCH   6   8
ENDBRANCH   4   6
ENDBRANCH   2   4
TORSDOF 7
ENDMDL
MODEL      337
REMARK 921   NORMALIZED FREE ENERGY PREDICTED BY IDOCK:   -0.49 KCAL/MOL
REMARK 922        TOTAL FREE ENERGY PREDICTED BY IDOCK:   -2.54 KCAL/MOL
REMARK 923 INTER-LIGAND FREE ENERGY PREDICTED BY IDOCK:   -2.41 KCAL/MOL
REMARK 924 INTRA-LIGAND FREE ENERGY PREDICTED BY IDOCK:   -0.13 KCAL/MOL
REMARK 927      BINDING AFFINITY PREDICTED BY RF-SCORE:    0.00 PKD
ROOT
HETATM    1  C   UNL     1      -9.048   8.176  67.774  1.00  0.00    -0.140 C  
HETATM    2  C   UNL     1      -7.692   7.898  68.424  1.00  0.00    -0.114 C  
HETATM    3  C   UNL     1      -6.563   8.107  67.421  1.00  0.00    -0.058 C  
ENDROOT
BRANCH   2   4
HETATM    4  N   UNL     1      -7.485   8.722  69.608  1.00  0.00    -0.069 N  
HETATM    5  H   UNL     1      -7.274   9.714  69.499  1.00  0.00     0.000 HD 
BRANCH   4   6
HETATM    6  C   UNL     1      -7.569   8.184  70.863  1.00  0.00    -0.076 C  
HETATM    7  O   UNL     1      -6.603   7.825  71.515  1.00  0.00    -0.044 OA 
BRANCH   6   8
HETATM    8  N   UNL     1      -8.872   8.001  71.298  1.00  0.00    -0.133 N  
HETATM    9  H   UNL     1      -9.624   8.183  70.633  1.00  0.00     0.000 HD 
BRANCH   8  10
HETATM   10  S   UNL     1      -9.297   7.502  72.835  1.00  0.00    -0.203 S  
HETATM   11  O   UNL     1      -8.130   7.531  73.689  1.00  0.00    -0.116 OA 
HETATM   12  O   UNL     1     -10.466   8.297  73.161  1.00  0.00    -0.187 OA 
BRANCH  10  13
HETATM   13  C   UNL     1      -9.839   5.836  72.697  1.00  0.00    -0.164 A  
HETATM   14  C   UNL     1      -9.619   5.079  71.538  1.00  0.00    -0.158 A  
HETATM   15  N   UNL     1     -11.049   4.008  73.744  1.00  0.00    -0.238 NA 
HETATM   16  C   UNL     1     -10.203   3.801  71.506  1.00  0.00    -0.022 A  
HETATM   17  C   UNL     1     -10.893   3.315  72.604  1.00  0.00     0.118 A  
HETATM   18  C   UNL     1     -10.527   5.257  73.756  1.00  0.00    -0.266 A  
BRANCH  14  19
HETATM   19  N   UNL     1      -8.759   5.497  70.493  1.00  0.00    -0.133 NA 
HETATM   20  H   UNL     1      -8.591   6.501  70.437  1.00  0.00     0.000 HD 
BRANCH  19  21
HETATM   21  C   UNL     1      -8.102   4.714  69.514  1.00  0.00    -0.065 A  
HETATM   22  C   UNL     1      -8.129   3.651  67.326  1.00  0.00    -0.090 A  
HETATM   23  C   UNL     1      -8.669   4.560  68.245  1.00  0.00    -0.113 A  
HETATM   24  C   UNL     1      -7.035   2.858  67.677  1.00  0.00    -0.049 A  
HETATM   25  C   UNL     1      -6.441   3.006  68.930  1.00  0.00    -0.029 A  
HETATM   26  C   UNL     1      -6.950   3.970  69.811  1.00  0.00    -0.042 A  
HETATM   27  C   UNL     1      -5.332   2.107  69.389  1.00  0.00    -0.012 C  
ENDBRANCH  19  21
ENDBRANCH  14  19
ENDBRANCH  10  13
ENDBRANCH   8  10
ENDBRANCH   6   8
ENDBRANCH   4   6
ENDBRANCH   2   4
TORSDOF 7
ENDMDL
MODEL      338
REMARK 921   NORMALIZED FREE ENERGY PREDICTED BY IDOCK:   -0.15 KCAL/MOL
REMARK 922        TOTAL FREE ENERGY PREDICTED BY IDOCK:   -2.06 KCAL/MOL
REMARK 923 INTER-LIGAND FREE ENERGY PREDICTED BY IDOCK:   -1.18 KCAL/MOL
REMARK 924 INTRA-LIGAND FREE ENERGY PREDICTED BY IDOCK:   -0.88 KCAL/MOL
REMARK 927      BINDING AFFINITY PREDICTED BY RF-SCORE:    0.00 PKD
ROOT
HETATM    1  C   UNL     1      -5.495  15.828  68.390  1.00  0.00    -0.108 C  
HETATM    2  C   UNL     1      -6.767  16.439  67.803  1.00  0.00    -0.136 C  
HETATM    3  C   UNL     1      -6.506  17.860  67.317  1.00  0.00    -0.183 C  
ENDROOT
BRANCH   2   4
HETATM    4  N   UNL     1      -7.309  15.621  66.726  1.00  0.00    -0.157 N  
HETATM    5  H   UNL     1      -6.683  15.257  66.008  1.00  0.00     0.000 HD 
BRANCH   4   6
HETATM    6  C   UNL     1      -8.646  15.334  66.663  1.00  0.00    -0.270 C  
HETATM    7  O   UNL     1      -9.515  16.177  66.526  1.00  0.00    -0.230 OA 
BRANCH   6   8
HETATM    8  N   UNL     1      -8.930  13.992  66.859  1.00  0.00    -0.292 N  
HETATM    9  H   UNL     1      -9.297  13.464  66.068  1.00  0.00     0.000 HD 
BRANCH   8  10
HETATM   10  S   UNL     1      -8.713  13.179  68.303  1.00  0.00    -0.133 S  
HETATM   11  O   UNL     1      -7.408  12.557  68.313  1.00  0.00    -0.098 OA 
HETATM   12  O   UNL     1      -9.072  14.150  69.320  1.00  0.00     0.137 OA 
BRANCH  10  13
HETATM   13  C   UNL     1      -9.930  11.912  68.360  1.00  0.00    -0.203 A  
HETATM   14  C   UNL     1     -10.922  11.793  67.378  1.00  0.00    -0.262 A  
HETATM   15  N   UNL     1     -10.844  10.040  69.610  1.00  0.00    -0.244 NA 
HETATM   16  C   UNL     1     -11.904  10.813  67.599  1.00  0.00     0.365 A  
HETATM   17  C   UNL     1     -11.830   9.977  68.701  1.00  0.00     0.513 A  
HETATM   18  C   UNL     1      -9.925  11.015  69.422  1.00  0.00     0.011 A  
BRANCH  14  19
HETATM   19  N   UNL     1     -10.896  12.515  66.160  1.00  0.00    -0.266 NA 
HETATM   20  H   UNL     1     -11.026  13.523  66.245  1.00  0.00     0.000 HD 
BRANCH  19  21
HETATM   21  C   UNL     1     -10.714  12.033  64.843  1.00  0.00    -0.301 A  
HETATM   22  C   UNL     1     -11.626  11.622  62.625  1.00  0.00     0.970 A  
HETATM   23  C   UNL     1     -11.706  12.241  63.878  1.00  0.00    -0.536 A  
HETATM   24  C   UNL     1     -10.571  10.757  62.330  1.00  0.00     1.070 A  
HETATM   25  C   UNL     1      -9.561  10.546  63.269  1.00  0.00    -0.373 A  
HETATM   26  C   UNL     1      -9.619  11.229  64.491  1.00  0.00    -0.260 A  
HETATM   27  C   UNL     1      -8.464   9.550  63.038  1.00  0.00    -0.198 C  
ENDBRANCH  19  21
ENDBRANCH  14  19
ENDBRANCH  10  13
ENDBRANCH   8  10
ENDBRANCH   6   8
ENDBRANCH   4   6
ENDBRANCH   2   4
TORSDOF 7
ENDMDL
MODEL      339
REMARK 921   NORMALIZED FREE ENERGY PREDICTED BY IDOCK:    1.97 KCAL/MOL
REMARK 922        TOTAL FREE ENERGY PREDICTED BY IDOCK:    0.93 KCAL/MOL
REMARK 923 INTER-LIGAND FREE ENERGY PREDICTED BY IDOCK:   -1.30 KCAL/MOL
REMARK 924 INTRA-LIGAND FREE ENERGY PREDICTED BY IDOCK:    2.23 KCAL/MOL
REMARK 927      BINDING AFFINITY PREDICTED BY RF-SCORE:    0.00 PKD
ROOT
HETATM    1  C   UNL     1      -9.128   6.900  66.576  1.00  0.00    -0.179 C  
HETATM    2  C   UNL     1      -7.725   6.675  67.140  1.00  0.00    -0.100 C  
HETATM    3  C   UNL     1      -6.667   6.991  66.088  1.00  0.00    -0.053 C  
ENDROOT
BRANCH   2   4
HETATM    4  N   UNL     1      -7.498   7.460  68.346  1.00  0.00    -0.103 N  
HETATM    5  H   UNL     1      -7.377   8.470  68.274  1.00  0.00     0.000 HD 
BRANCH   4   6
HETATM    6  C   UNL     1      -7.443   6.861  69.576  1.00  0.00    -0.096 C  
HETATM    7  O   UNL     1      -6.405   6.580  70.149  1.00  0.00    -0.037 OA 
BRANCH   6   8
HETATM    8  N   UNL     1      -8.690   6.518  70.077  1.00  0.00    -0.139 N  
HETATM    9  H   UNL     1      -9.511   6.807  69.545  1.00  0.00     0.000 HD 
BRANCH   8  10
HETATM   10  S   UNL     1      -8.939   5.666  71.492  1.00  0.00    -0.140 S  
HETATM   11  O   UNL     1      -7.698   5.582  72.228  1.00  0.00    -0.099 OA 
HETATM   12  O   UNL     1     -10.105   6.291  72.088  1.00  0.00    -0.181 OA 
BRANCH  10  13
HETATM   13  C   UNL     1      -9.418   4.040  71.027  1.00  0.00    -0.163 A  
HETATM   14  C   UNL     1      -9.363   3.603  69.697  1.00  0.00    -0.173 A  
HETATM   15  N   UNL     1     -10.344   1.917  71.759  1.00  0.00    -0.039 NA 
HETATM   16  C   UNL     1      -9.883   2.324  69.438  1.00  0.00     0.282 A  
HETATM   17  C   UNL     1     -10.352   1.532  70.473  1.00  0.00     0.698 A  
HETATM   18  C   UNL     1      -9.888   3.167  72.002  1.00  0.00    -0.171 A  
BRANCH  14  19
HETATM   19  N   UNL     1      -8.714   4.331  68.670  1.00  0.00    -0.093 NA 
HETATM   20  H   UNL     1      -8.562   5.321  68.862  1.00  0.00     0.000 HD 
BRANCH  19  21
HETATM   21  C   UNL     1      -8.249   3.876  67.414  1.00  0.00    -0.094 A  
HETATM   22  C   UNL     1      -8.664   3.485  65.049  1.00  0.00    -0.116 A  
HETATM   23  C   UNL     1      -9.020   4.080  66.265  1.00  0.00    -0.127 A  
HETATM   24  C   UNL     1      -7.549   2.648  64.973  1.00  0.00    -0.072 A  
HETATM   25  C   UNL     1      -6.754   2.442  66.100  1.00  0.00    -0.039 A  
HETATM   26  C   UNL     1      -7.084   3.103  67.291  1.00  0.00    -0.057 A  
HETATM   27  C   UNL     1      -5.608   1.474  66.093  1.00  0.00    -0.013 C  
ENDBRANCH  19  21
ENDBRANCH  14  19
ENDBRANCH  10  13
ENDBRANCH   8  10
ENDBRANCH   6   8
ENDBRANCH   4   6
ENDBRANCH   2   4
TORSDOF 7
ENDMDL
MODEL      340
REMARK 921   NORMALIZED FREE ENERGY PREDICTED BY IDOCK:    8.49 KCAL/MOL
REMARK 922        TOTAL FREE ENERGY PREDICTED BY IDOCK:   10.11 KCAL/MOL
REMARK 923 INTER-LIGAND FREE ENERGY PREDICTED BY IDOCK:   -3.42 KCAL/MOL
REMARK 924 INTRA-LIGAND FREE ENERGY PREDICTED BY IDOCK:   13.53 KCAL/MOL
REMARK 927      BINDING AFFINITY PREDICTED BY RF-SCORE:    0.00 PKD
ROOT
HETATM    1  C   UNL     1     -13.070  11.894  63.369  1.00  0.00    -0.092 C  
HETATM    2  C   UNL     1     -11.616  11.613  63.748  1.00  0.00    -0.332 C  
HETATM    3  C   UNL     1     -11.064  10.448  62.934  1.00  0.00     2.136 C  
ENDROOT
BRANCH   2   4
HETATM    4  N   UNL     1     -10.779  12.794  63.584  1.00  0.00    -0.509 N  
HETATM    5  H   UNL     1     -10.188  12.880  62.757  1.00  0.00     0.000 HD 
BRANCH   4   6
HETATM    6  C   UNL     1     -10.775  13.790  64.523  1.00  0.00    -0.390 C  
HETATM    7  O   UNL     1     -10.840  14.977  64.254  1.00  0.00    -0.069 OA 
BRANCH   6   8
HETATM    8  N   UNL     1     -10.601  13.325  65.817  1.00  0.00    -0.279 N  
HETATM    9  H   UNL     1      -9.871  13.758  66.383  1.00  0.00     0.000 HD 
BRANCH   8  10
HETATM   10  S   UNL     1     -11.505  12.105  66.515  1.00  0.00    -0.353 S  
HETATM   11  O   UNL     1     -12.127  12.599  67.722  1.00  0.00    -0.362 OA 
HETATM   12  O   UNL     1     -12.317  11.592  65.427  1.00  0.00    -0.041 OA 
BRANCH  10  13
HETATM   13  C   UNL     1     -10.381  10.828  66.954  1.00  0.00    -0.241 A  
HETATM   14  C   UNL     1      -9.402  11.011  67.940  1.00  0.00    -0.158 A  
HETATM   15  N   UNL     1      -9.598   8.575  66.495  1.00  0.00    -0.216 NA 
HETATM   16  C   UNL     1      -8.490   9.956  68.117  1.00  0.00    -0.114 A  
HETATM   17  C   UNL     1      -8.621   8.783  67.392  1.00  0.00    -0.126 A  
HETATM   18  C   UNL     1     -10.447   9.609  66.291  1.00  0.00    -0.079 A  
BRANCH  14  19
HETATM   19  N   UNL     1      -9.379  12.126  68.811  1.00  0.00    -0.399 NA 
HETATM   20  H   UNL     1      -8.789  12.027  69.637  1.00  0.00     0.000 HD 
BRANCH  19  21
HETATM   21  C   UNL     1     -10.061  13.360  68.696  1.00  0.00    -0.157 A  
HETATM   22  C   UNL     1     -12.104  14.652  68.980  1.00  0.00    -0.270 A  
HETATM   23  C   UNL     1     -11.344  13.504  69.236  1.00  0.00    -0.317 A  
HETATM   24  C   UNL     1     -11.605  15.658  68.151  1.00  0.00    -0.290 A  
HETATM   25  C   UNL     1     -10.322  15.547  67.615  1.00  0.00    -0.269 A  
HETATM   26  C   UNL     1      -9.548  14.424  67.939  1.00  0.00    -0.219 A  
HETATM   27  C   UNL     1      -9.783  16.550  66.639  1.00  0.00    -0.275 C  
ENDBRANCH  19  21
ENDBRANCH  14  19
ENDBRANCH  10  13
ENDBRANCH   8  10
ENDBRANCH   6   8
ENDBRANCH   4   6
ENDBRANCH   2   4
TORSDOF 7
ENDMDL
