MODEL        1
REMARK 921   NORMALIZED FREE ENERGY PREDICTED BY IDOCK:   -7.07 KCAL/MOL
REMARK 922        TOTAL FREE ENERGY PREDICTED BY IDOCK:  -12.03 KCAL/MOL
REMARK 923 INTER-LIGAND FREE ENERGY PREDICTED BY IDOCK:   -9.97 KCAL/MOL
REMARK 924 INTRA-LIGAND FREE ENERGY PREDICTED BY IDOCK:   -2.06 KCAL/MOL
REMARK 927      BINDING AFFINITY PREDICTED BY RF-SCORE:    0.00 PKD
ROOT
HETATM    1  C   UNL     1      -5.230  20.844  69.744  1.00  0.00    -0.375 C  
HETATM    2  N   UNL     1      -5.687  19.705  68.945  1.00  0.00    -0.216 NA 
HETATM    3  C   UNL     1      -5.942  18.562  69.825  1.00  0.00    -0.245 C  
ENDROOT
BRANCH   2   4
HETATM    4  C   UNL     1      -6.879  20.075  68.141  1.00  0.00    -0.294 C  
BRANCH   4   5
HETATM    5  C   UNL     1      -8.159  19.340  68.586  1.00  0.00    -0.370 C  
BRANCH   5   6
HETATM    6  O   UNL     1      -8.809  18.656  67.504  1.00  0.00    -0.267 OA 
BRANCH   6   7
HETATM    7  C   UNL     1      -9.479  17.509  67.875  1.00  0.00    -0.277 A  
HETATM    8  C   UNL     1     -10.860  17.314  67.752  1.00  0.00    -0.261 A  
HETATM    9  C   UNL     1     -11.474  16.179  68.287  1.00  0.00    -0.259 A  
HETATM   10  C   UNL     1     -10.724  15.215  68.963  1.00  0.00    -0.239 A  
HETATM   11  C   UNL     1      -9.327  15.348  68.989  1.00  0.00    -0.232 A  
HETATM   12  C   UNL     1      -8.711  16.489  68.446  1.00  0.00    -0.218 A  
BRANCH  10  13
HETATM   13  C   UNL     1     -11.424  14.203  69.817  1.00  0.00    -0.309 C  
HETATM   14 CL   UNL     1     -13.391  10.168  72.042  1.00  0.00    -0.533 Cl 
HETATM   15  C   UNL     1     -11.524  12.897  69.443  1.00  0.00    -0.323 C  
HETATM   16  C   UNL     1     -12.744  11.769  71.558  1.00  0.00    -0.295 C  
HETATM   17  C   UNL     1     -12.159  11.690  70.154  1.00  0.00    -0.414 C  
BRANCH  13  18
HETATM   18  C   UNL     1     -12.122  14.725  71.032  1.00  0.00    -0.391 A  
HETATM   19  C   UNL     1     -13.516  14.903  70.998  1.00  0.00    -0.428 A  
HETATM   20  C   UNL     1     -14.206  15.411  72.103  1.00  0.00    -0.660 A  
HETATM   21  C   UNL     1     -12.124  15.577  73.308  1.00  0.00    -0.600 A  
HETATM   22  C   UNL     1     -13.510  15.731  73.266  1.00  0.00    -0.580 A  
HETATM   23  C   UNL     1     -11.428  15.102  72.189  1.00  0.00    -0.430 A  
ENDBRANCH  13  18
BRANCH  15  24
HETATM   24  C   UNL     1     -11.042  12.424  68.109  1.00  0.00    -0.288 A  
HETATM   25  C   UNL     1     -11.769  12.688  66.942  1.00  0.00    -0.453 A  
HETATM   26  C   UNL     1      -9.915  11.913  65.589  1.00  0.00    -0.269 A  
HETATM   27  C   UNL     1      -9.191  11.626  66.745  1.00  0.00    -0.190 A  
HETATM   28  C   UNL     1     -11.202  12.437  65.687  1.00  0.00    -0.360 A  
HETATM   29  C   UNL     1      -9.753  11.879  67.999  1.00  0.00    -0.191 A  
ENDBRANCH  15  24
ENDBRANCH  10  13
ENDBRANCH   6   7
ENDBRANCH   5   6
ENDBRANCH   4   5
ENDBRANCH   2   4
TORSDOF 7
ENDMDL
MODEL        2
REMARK 921   NORMALIZED FREE ENERGY PREDICTED BY IDOCK:   -6.91 KCAL/MOL
REMARK 922        TOTAL FREE ENERGY PREDICTED BY IDOCK:  -11.81 KCAL/MOL
REMARK 923 INTER-LIGAND FREE ENERGY PREDICTED BY IDOCK:  -10.00 KCAL/MOL
REMARK 924 INTRA-LIGAND FREE ENERGY PREDICTED BY IDOCK:   -1.81 KCAL/MOL
REMARK 927      BINDING AFFINITY PREDICTED BY RF-SCORE:    0.00 PKD
ROOT
HETATM    1  C   UNL     1     -10.172  20.185  66.503  1.00  0.00    -0.433 C  
HETATM    2  N   UNL     1      -9.330  20.127  67.699  1.00  0.00    -0.364 NA 
HETATM    3  C   UNL     1     -10.150  19.757  68.856  1.00  0.00    -0.384 C  
ENDROOT
BRANCH   2   4
HETATM    4  C   UNL     1      -8.192  19.197  67.493  1.00  0.00    -0.281 C  
BRANCH   4   5
HETATM    5  C   UNL     1      -8.137  18.619  66.065  1.00  0.00    -0.093 C  
BRANCH   5   6
HETATM    6  O   UNL     1      -8.247  17.189  66.040  1.00  0.00    -0.480 OA 
BRANCH   6   7
HETATM    7  C   UNL     1      -8.976  16.654  67.083  1.00  0.00    -0.210 A  
HETATM    8  C   UNL     1      -8.425  16.157  68.270  1.00  0.00    -0.180 A  
HETATM    9  C   UNL     1      -9.224  15.500  69.210  1.00  0.00    -0.268 A  
HETATM   10  C   UNL     1     -10.590  15.321  68.984  1.00  0.00    -0.245 A  
HETATM   11  C   UNL     1     -11.166  15.919  67.852  1.00  0.00    -0.297 A  
HETATM   12  C   UNL     1     -10.361  16.582  66.909  1.00  0.00    -0.300 A  
BRANCH  10  13
HETATM   13  C   UNL     1     -11.349  14.333  69.813  1.00  0.00    -0.279 C  
HETATM   14 CL   UNL     1     -13.475  10.359  72.002  1.00  0.00    -0.445 Cl 
HETATM   15  C   UNL     1     -11.428  13.018  69.467  1.00  0.00    -0.289 C  
HETATM   16  C   UNL     1     -12.792  11.946  71.523  1.00  0.00    -0.316 C  
HETATM   17  C   UNL     1     -12.113  11.831  70.163  1.00  0.00    -0.398 C  
BRANCH  13  18
HETATM   18  C   UNL     1     -12.126  14.886  70.965  1.00  0.00    -0.380 A  
HETATM   19  C   UNL     1     -11.450  15.209  72.155  1.00  0.00    -0.430 A  
HETATM   20  C   UNL     1     -12.139  15.705  73.265  1.00  0.00    -0.600 A  
HETATM   21  C   UNL     1     -14.203  15.569  72.025  1.00  0.00    -0.606 A  
HETATM   22  C   UNL     1     -13.516  15.903  73.192  1.00  0.00    -0.650 A  
HETATM   23  C   UNL     1     -13.518  15.038  70.925  1.00  0.00    -0.402 A  
ENDBRANCH  13  18
BRANCH  15  24
HETATM   24  C   UNL     1     -10.859  12.510  68.180  1.00  0.00    -0.248 A  
HETATM   25  C   UNL     1      -9.599  11.901  68.138  1.00  0.00    -0.195 A  
HETATM   26  C   UNL     1     -10.003  11.184  65.859  1.00  0.00    -0.285 A  
HETATM   27  C   UNL     1     -11.249  11.806  65.884  1.00  0.00    -0.345 A  
HETATM   28  C   UNL     1      -9.176  11.237  66.981  1.00  0.00    -0.173 A  
HETATM   29  C   UNL     1     -11.675  12.467  67.039  1.00  0.00    -0.423 A  
ENDBRANCH  15  24
ENDBRANCH  10  13
ENDBRANCH   6   7
ENDBRANCH   5   6
ENDBRANCH   4   5
ENDBRANCH   2   4
TORSDOF 7
ENDMDL
MODEL        3
REMARK 921   NORMALIZED FREE ENERGY PREDICTED BY IDOCK:   -6.65 KCAL/MOL
REMARK 922        TOTAL FREE ENERGY PREDICTED BY IDOCK:  -11.44 KCAL/MOL
REMARK 923 INTER-LIGAND FREE ENERGY PREDICTED BY IDOCK:  -10.82 KCAL/MOL
REMARK 924 INTRA-LIGAND FREE ENERGY PREDICTED BY IDOCK:   -0.61 KCAL/MOL
REMARK 927      BINDING AFFINITY PREDICTED BY RF-SCORE:    0.00 PKD
ROOT
HETATM    1  C   UNL     1     -11.362   5.721  72.508  1.00  0.00    -0.307 C  
HETATM    2  N   UNL     1     -11.579   6.650  71.397  1.00  0.00    -0.298 NA 
HETATM    3  C   UNL     1     -11.158   6.018  70.143  1.00  0.00    -0.361 C  
ENDROOT
BRANCH   2   4
HETATM    4  C   UNL     1     -12.994   7.097  71.358  1.00  0.00    -0.368 C  
BRANCH   4   5
HETATM    5  C   UNL     1     -13.230   8.419  72.114  1.00  0.00    -0.318 C  
BRANCH   5   6
HETATM    6  O   UNL     1     -12.071   9.266  72.125  1.00  0.00    -0.354 OA 
BRANCH   6   7
HETATM    7  C   UNL     1     -12.090  10.271  71.180  1.00  0.00    -0.395 A  
HETATM    8  C   UNL     1     -11.343  10.269  69.996  1.00  0.00    -0.370 A  
HETATM    9  C   UNL     1     -11.311  11.393  69.167  1.00  0.00    -0.353 A  
HETATM   10  C   UNL     1     -12.019  12.548  69.505  1.00  0.00    -0.329 A  
HETATM   11  C   UNL     1     -12.859  12.515  70.629  1.00  0.00    -0.013 A  
HETATM   12  C   UNL     1     -12.893  11.380  71.459  1.00  0.00    -0.508 A  
BRANCH  10  13
HETATM   13  C   UNL     1     -11.703  13.835  68.808  1.00  0.00    -0.391 C  
HETATM   14 CL   UNL     1     -10.696  18.529  67.376  1.00  0.00    -0.457 Cl 
HETATM   15  C   UNL     1     -11.769  15.033  69.453  1.00  0.00    -0.351 C  
HETATM   16  C   UNL     1     -10.909  16.761  67.579  1.00  0.00    -0.216 C  
HETATM   17  C   UNL     1     -11.468  16.460  68.965  1.00  0.00    -0.205 C  
BRANCH  13  18
HETATM   18  C   UNL     1     -11.443  13.751  67.338  1.00  0.00    -0.372 A  
HETATM   19  C   UNL     1     -12.525  13.840  66.445  1.00  0.00    -0.404 A  
HETATM   20  C   UNL     1     -12.331  13.741  65.064  1.00  0.00    -0.456 A  
HETATM   21  C   UNL     1      -9.964  13.463  65.432  1.00  0.00    -0.211 A  
HETATM   22  C   UNL     1     -11.045  13.571  64.557  1.00  0.00    -0.394 A  
HETATM   23  C   UNL     1     -10.163  13.525  66.817  1.00  0.00    -0.264 A  
ENDBRANCH  13  18
BRANCH  15  24
HETATM   24  C   UNL     1     -12.271  15.142  70.858  1.00  0.00    -0.398 A  
HETATM   25  C   UNL     1     -11.384  15.219  71.938  1.00  0.00    -0.447 A  
HETATM   26  C   UNL     1     -13.214  15.778  73.424  1.00  0.00    -0.653 A  
HETATM   27  C   UNL     1     -14.108  15.682  72.359  1.00  0.00    -0.575 A  
HETATM   28  C   UNL     1     -11.857  15.541  73.216  1.00  0.00    -0.519 A  
HETATM   29  C   UNL     1     -13.639  15.364  71.083  1.00  0.00    -0.536 A  
ENDBRANCH  15  24
ENDBRANCH  10  13
ENDBRANCH   6   7
ENDBRANCH   5   6
ENDBRANCH   4   5
ENDBRANCH   2   4
TORSDOF 7
ENDMDL
MODEL        4
REMARK 921   NORMALIZED FREE ENERGY PREDICTED BY IDOCK:   -6.59 KCAL/MOL
REMARK 922        TOTAL FREE ENERGY PREDICTED BY IDOCK:  -11.36 KCAL/MOL
REMARK 923 INTER-LIGAND FREE ENERGY PREDICTED BY IDOCK:   -9.77 KCAL/MOL
REMARK 924 INTRA-LIGAND FREE ENERGY PREDICTED BY IDOCK:   -1.58 KCAL/MOL
REMARK 927      BINDING AFFINITY PREDICTED BY RF-SCORE:    0.00 PKD
ROOT
HETATM    1  C   UNL     1      -8.239  20.222  67.363  1.00  0.00    -0.338 C  
HETATM    2  N   UNL     1      -9.673  20.154  67.652  1.00  0.00    -0.397 NA 
HETATM    3  C   UNL     1     -10.411  19.932  66.406  1.00  0.00    -0.475 C  
ENDROOT
BRANCH   2   4
HETATM    4  C   UNL     1      -9.952  19.108  68.668  1.00  0.00    -0.419 C  
BRANCH   4   5
HETATM    5  C   UNL     1      -9.736  17.677  68.137  1.00  0.00    -0.310 C  
BRANCH   5   6
HETATM    6  O   UNL     1     -10.936  16.890  68.160  1.00  0.00    -0.365 OA 
BRANCH   6   7
HETATM    7  C   UNL     1     -10.731  15.544  68.378  1.00  0.00    -0.263 A  
HETATM    8  C   UNL     1      -9.575  14.842  68.014  1.00  0.00    -0.209 A  
HETATM    9  C   UNL     1      -9.511  13.452  68.141  1.00  0.00    -0.218 A  
HETATM   10  C   UNL     1     -10.603  12.730  68.628  1.00  0.00    -0.256 A  
HETATM   11  C   UNL     1     -11.718  13.438  69.101  1.00  0.00    -0.375 A  
HETATM   12  C   UNL     1     -11.778  14.837  68.976  1.00  0.00    -0.343 A  
BRANCH  10  13
HETATM   13  C   UNL     1     -10.649  11.246  68.433  1.00  0.00    -0.226 C  
HETATM   14 CL   UNL     1     -10.698   6.499  66.831  1.00  0.00    -0.395 Cl 
HETATM   15  C   UNL     1     -10.737  10.689  67.193  1.00  0.00    -0.327 C  
HETATM   16  C   UNL     1     -10.598   8.054  67.718  1.00  0.00    -0.170 C  
HETATM   17  C   UNL     1     -10.769   9.218  66.748  1.00  0.00    -0.120 C  
BRANCH  13  18
HETATM   18  C   UNL     1     -10.728  10.413  69.672  1.00  0.00    -0.304 A  
HETATM   19  C   UNL     1      -9.558   9.815  70.172  1.00  0.00    -0.287 A  
HETATM   20  C   UNL     1      -9.590   9.008  71.313  1.00  0.00    -0.361 A  
HETATM   21  C   UNL     1     -11.967   9.375  71.487  1.00  0.00    -0.456 A  
HETATM   22  C   UNL     1     -10.795   8.803  71.981  1.00  0.00    -0.428 A  
HETATM   23  C   UNL     1     -11.942  10.154  70.323  1.00  0.00    -0.315 A  
ENDBRANCH  13  18
BRANCH  15  24
HETATM   24  C   UNL     1     -10.908  11.528  65.967  1.00  0.00    -0.330 A  
HETATM   25  C   UNL     1      -9.978  11.479  64.922  1.00  0.00    -0.303 A  
HETATM   26  C   UNL     1     -11.468  12.767  63.511  1.00  0.00    -0.521 A  
HETATM   27  C   UNL     1     -12.391  12.840  64.552  1.00  0.00    -0.515 A  
HETATM   28  C   UNL     1     -10.262  12.094  63.697  1.00  0.00    -0.459 A  
HETATM   29  C   UNL     1     -12.112  12.224  65.775  1.00  0.00    -0.287 A  
ENDBRANCH  15  24
ENDBRANCH  10  13
ENDBRANCH   6   7
ENDBRANCH   5   6
ENDBRANCH   4   5
ENDBRANCH   2   4
TORSDOF 7
ENDMDL
MODEL        5
REMARK 921   NORMALIZED FREE ENERGY PREDICTED BY IDOCK:   -6.57 KCAL/MOL
REMARK 922        TOTAL FREE ENERGY PREDICTED BY IDOCK:  -11.32 KCAL/MOL
REMARK 923 INTER-LIGAND FREE ENERGY PREDICTED BY IDOCK:   -9.72 KCAL/MOL
REMARK 924 INTRA-LIGAND FREE ENERGY PREDICTED BY IDOCK:   -1.60 KCAL/MOL
REMARK 927      BINDING AFFINITY PREDICTED BY RF-SCORE:    0.00 PKD
ROOT
HETATM    1  C   UNL     1      -8.340  20.132  67.096  1.00  0.00    -0.337 C  
HETATM    2  N   UNL     1      -9.797  20.060  67.219  1.00  0.00    -0.399 NA 
HETATM    3  C   UNL     1     -10.376  19.649  65.937  1.00  0.00    -0.488 C  
ENDROOT
BRANCH   2   4
HETATM    4  C   UNL     1     -10.185  19.154  68.330  1.00  0.00    -0.401 C  
BRANCH   4   5
HETATM    5  C   UNL     1     -10.047  17.663  67.967  1.00  0.00    -0.343 C  
BRANCH   5   6
HETATM    6  O   UNL     1     -11.178  16.884  68.384  1.00  0.00    -0.299 OA 
BRANCH   6   7
HETATM    7  C   UNL     1     -10.911  15.543  68.570  1.00  0.00    -0.288 A  
HETATM    8  C   UNL     1      -9.716  14.909  68.212  1.00  0.00    -0.215 A  
HETATM    9  C   UNL     1      -9.586  13.521  68.302  1.00  0.00    -0.218 A  
HETATM   10  C   UNL     1     -10.649  12.733  68.747  1.00  0.00    -0.216 A  
HETATM   11  C   UNL     1     -11.807  13.373  69.216  1.00  0.00    -0.385 A  
HETATM   12  C   UNL     1     -11.934  14.770  69.127  1.00  0.00    -0.317 A  
BRANCH  10  13
HETATM   13  C   UNL     1     -10.618  11.255  68.511  1.00  0.00    -0.227 C  
HETATM   14 CL   UNL     1     -10.423   6.558  66.778  1.00  0.00    -0.308 Cl 
HETATM   15  C   UNL     1     -10.680  10.729  67.256  1.00  0.00    -0.325 C  
HETATM   16  C   UNL     1     -10.403   8.091  67.707  1.00  0.00    -0.231 C  
HETATM   17  C   UNL     1     -10.636   9.271  66.770  1.00  0.00    -0.207 C  
BRANCH  13  18
HETATM   18  C   UNL     1     -10.652  10.385  69.726  1.00  0.00    -0.302 A  
HETATM   19  C   UNL     1     -11.879  10.163  70.376  1.00  0.00    -0.373 A  
HETATM   20  C   UNL     1     -11.952   9.377  71.530  1.00  0.00    -0.456 A  
HETATM   21  C   UNL     1      -9.571   9.013  71.416  1.00  0.00    -0.356 A  
HETATM   22  C   UNL     1     -10.799   8.786  72.039  1.00  0.00    -0.428 A  
HETATM   23  C   UNL     1      -9.491   9.830  70.281  1.00  0.00    -0.250 A  
ENDBRANCH  13  18
BRANCH  15  24
HETATM   24  C   UNL     1     -10.897  11.591  66.053  1.00  0.00    -0.330 A  
HETATM   25  C   UNL     1      -9.976  11.606  64.999  1.00  0.00    -0.297 A  
HETATM   26  C   UNL     1     -11.531  12.869  63.636  1.00  0.00    -0.506 A  
HETATM   27  C   UNL     1     -12.446  12.878  64.687  1.00  0.00    -0.499 A  
HETATM   28  C   UNL     1     -10.297  12.241  63.793  1.00  0.00    -0.464 A  
HETATM   29  C   UNL     1     -12.130  12.243  65.890  1.00  0.00    -0.261 A  
ENDBRANCH  15  24
ENDBRANCH  10  13
ENDBRANCH   6   7
ENDBRANCH   5   6
ENDBRANCH   4   5
ENDBRANCH   2   4
TORSDOF 7
ENDMDL
MODEL        6
REMARK 921   NORMALIZED FREE ENERGY PREDICTED BY IDOCK:   -6.52 KCAL/MOL
REMARK 922        TOTAL FREE ENERGY PREDICTED BY IDOCK:  -11.26 KCAL/MOL
REMARK 923 INTER-LIGAND FREE ENERGY PREDICTED BY IDOCK:   -9.34 KCAL/MOL
REMARK 924 INTRA-LIGAND FREE ENERGY PREDICTED BY IDOCK:   -1.92 KCAL/MOL
REMARK 927      BINDING AFFINITY PREDICTED BY RF-SCORE:    0.00 PKD
ROOT
HETATM    1  C   UNL     1     -10.383  19.832  68.346  1.00  0.00    -0.391 C  
HETATM    2  N   UNL     1      -9.085  19.642  67.695  1.00  0.00    -0.320 NA 
HETATM    3  C   UNL     1      -8.209  18.862  68.571  1.00  0.00    -0.353 C  
ENDROOT
BRANCH   2   4
HETATM    4  C   UNL     1      -9.257  19.013  66.361  1.00  0.00    -0.334 C  
BRANCH   4   5
HETATM    5  C   UNL     1      -8.731  17.565  66.306  1.00  0.00    -0.192 C  
BRANCH   5   6
HETATM    6  O   UNL     1      -9.723  16.632  65.853  1.00  0.00    -0.424 OA 
BRANCH   6   7
HETATM    7  C   UNL     1     -10.191  15.777  66.829  1.00  0.00    -0.282 A  
HETATM    8  C   UNL     1      -9.490  15.431  67.991  1.00  0.00    -0.201 A  
HETATM    9  C   UNL     1      -9.976  14.445  68.854  1.00  0.00    -0.183 A  
HETATM   10  C   UNL     1     -11.170  13.778  68.573  1.00  0.00    -0.304 A  
HETATM   11  C   UNL     1     -11.933  14.201  67.473  1.00  0.00    -0.419 A  
HETATM   12  C   UNL     1     -11.443  15.196  66.609  1.00  0.00    -0.185 A  
BRANCH  10  13
HETATM   13  C   UNL     1     -11.493  12.510  69.301  1.00  0.00    -0.353 C  
HETATM   14 CL   UNL     1     -13.163   8.841  72.277  1.00  0.00    -0.438 Cl 
HETATM   15  C   UNL     1     -12.220  12.512  70.454  1.00  0.00    -0.368 C  
HETATM   16  C   UNL     1     -12.478   9.889  70.993  1.00  0.00    -0.346 C  
HETATM   17  C   UNL     1     -12.694  11.356  71.349  1.00  0.00    -0.489 C  
BRANCH  13  18
HETATM   18  C   UNL     1     -10.867  11.259  68.774  1.00  0.00    -0.252 A  
HETATM   19  C   UNL     1      -9.723  10.745  69.410  1.00  0.00    -0.088 A  
HETATM   20  C   UNL     1      -9.090   9.593  68.935  1.00  0.00    -0.144 A  
HETATM   21  C   UNL     1     -10.729   9.436  67.174  1.00  0.00    -0.234 A  
HETATM   22  C   UNL     1      -9.607   8.927  67.826  1.00  0.00    -0.176 A  
HETATM   23  C   UNL     1     -11.342  10.611  67.627  1.00  0.00    -0.284 A  
ENDBRANCH  13  18
BRANCH  15  24
HETATM   24  C   UNL     1     -12.636  13.787  71.117  1.00  0.00    -0.452 A  
HETATM   25  C   UNL     1     -13.988  14.123  71.253  1.00  0.00    -0.196 A  
HETATM   26  C   UNL     1     -13.404  15.948  72.735  1.00  0.00    -0.593 A  
HETATM   27  C   UNL     1     -12.054  15.635  72.589  1.00  0.00    -0.565 A  
HETATM   28  C   UNL     1     -14.369  15.198  72.063  1.00  0.00    -0.682 A  
HETATM   29  C   UNL     1     -11.672  14.560  71.783  1.00  0.00    -0.092 A  
ENDBRANCH  15  24
ENDBRANCH  10  13
ENDBRANCH   6   7
ENDBRANCH   5   6
ENDBRANCH   4   5
ENDBRANCH   2   4
TORSDOF 7
ENDMDL
MODEL        7
REMARK 921   NORMALIZED FREE ENERGY PREDICTED BY IDOCK:   -6.43 KCAL/MOL
REMARK 922        TOTAL FREE ENERGY PREDICTED BY IDOCK:  -11.13 KCAL/MOL
REMARK 923 INTER-LIGAND FREE ENERGY PREDICTED BY IDOCK:  -10.35 KCAL/MOL
REMARK 924 INTRA-LIGAND FREE ENERGY PREDICTED BY IDOCK:   -0.77 KCAL/MOL
REMARK 927      BINDING AFFINITY PREDICTED BY RF-SCORE:    0.00 PKD
ROOT
HETATM    1  C   UNL     1     -10.135   6.318  74.304  1.00  0.00    -0.335 C  
HETATM    2  N   UNL     1     -10.126   7.481  73.414  1.00  0.00    -0.325 NA 
HETATM    3  C   UNL     1      -8.771   8.035  73.348  1.00  0.00    -0.259 C  
ENDROOT
BRANCH   2   4
HETATM    4  C   UNL     1     -10.655   7.118  72.075  1.00  0.00    -0.210 C  
BRANCH   4   5
HETATM    5  C   UNL     1     -11.947   7.876  71.712  1.00  0.00    -0.298 C  
BRANCH   5   6
HETATM    6  O   UNL     1     -11.957   9.223  72.206  1.00  0.00    -0.299 OA 
BRANCH   6   7
HETATM    7  C   UNL     1     -11.945  10.191  71.224  1.00  0.00    -0.382 A  
HETATM    8  C   UNL     1     -11.038  10.237  70.158  1.00  0.00    -0.385 A  
HETATM    9  C   UNL     1     -11.005  11.333  69.292  1.00  0.00    -0.297 A  
HETATM   10  C   UNL     1     -11.873  12.411  69.474  1.00  0.00    -0.368 A  
HETATM   11  C   UNL     1     -12.859  12.319  70.468  1.00  0.00     0.086 A  
HETATM   12  C   UNL     1     -12.893  11.213  71.336  1.00  0.00    -0.544 A  
BRANCH  10  13
HETATM   13  C   UNL     1     -11.597  13.704  68.770  1.00  0.00    -0.359 C  
HETATM   14 CL   UNL     1     -10.744  18.422  67.314  1.00  0.00    -0.424 Cl 
HETATM   15  C   UNL     1     -11.711  14.903  69.407  1.00  0.00    -0.349 C  
HETATM   16  C   UNL     1     -10.897  16.648  67.527  1.00  0.00    -0.221 C  
HETATM   17  C   UNL     1     -11.456  16.336  68.910  1.00  0.00    -0.282 C  
BRANCH  13  18
HETATM   18  C   UNL     1     -11.322  13.620  67.303  1.00  0.00    -0.346 A  
HETATM   19  C   UNL     1     -12.399  13.475  66.412  1.00  0.00    -0.413 A  
HETATM   20  C   UNL     1     -12.186  13.366  65.034  1.00  0.00    -0.463 A  
HETATM   21  C   UNL     1      -9.810  13.547  65.402  1.00  0.00    -0.141 A  
HETATM   22  C   UNL     1     -10.890  13.422  64.528  1.00  0.00    -0.419 A  
HETATM   23  C   UNL     1     -10.021  13.619  66.785  1.00  0.00    -0.270 A  
ENDBRANCH  13  18
BRANCH  15  24
HETATM   24  C   UNL     1     -12.227  15.003  70.806  1.00  0.00    -0.386 A  
HETATM   25  C   UNL     1     -11.354  15.143  71.891  1.00  0.00    -0.381 A  
HETATM   26  C   UNL     1     -13.221  15.623  73.357  1.00  0.00    -0.628 A  
HETATM   27  C   UNL     1     -14.102  15.465  72.289  1.00  0.00    -0.660 A  
HETATM   28  C   UNL     1     -11.852  15.456  73.161  1.00  0.00    -0.525 A  
HETATM   29  C   UNL     1     -13.607  15.156  71.019  1.00  0.00    -0.473 A  
ENDBRANCH  15  24
ENDBRANCH  10  13
ENDBRANCH   6   7
ENDBRANCH   5   6
ENDBRANCH   4   5
ENDBRANCH   2   4
TORSDOF 7
ENDMDL
MODEL        8
REMARK 921   NORMALIZED FREE ENERGY PREDICTED BY IDOCK:   -6.33 KCAL/MOL
REMARK 922        TOTAL FREE ENERGY PREDICTED BY IDOCK:  -10.98 KCAL/MOL
REMARK 923 INTER-LIGAND FREE ENERGY PREDICTED BY IDOCK:   -9.05 KCAL/MOL
REMARK 924 INTRA-LIGAND FREE ENERGY PREDICTED BY IDOCK:   -1.93 KCAL/MOL
REMARK 927      BINDING AFFINITY PREDICTED BY RF-SCORE:    0.00 PKD
ROOT
HETATM    1  C   UNL     1      -9.981  20.246  67.193  1.00  0.00    -0.453 C  
HETATM    2  N   UNL     1     -10.516  18.905  67.439  1.00  0.00    -0.425 NA 
HETATM    3  C   UNL     1     -10.244  18.051  66.280  1.00  0.00    -0.381 C  
ENDROOT
BRANCH   2   4
HETATM    4  C   UNL     1      -9.962  18.344  68.697  1.00  0.00    -0.387 C  
BRANCH   4   5
HETATM    5  C   UNL     1      -8.682  17.514  68.474  1.00  0.00    -0.282 C  
BRANCH   5   6
HETATM    6  O   UNL     1      -8.555  16.430  69.406  1.00  0.00    -0.174 OA 
BRANCH   6   7
HETATM    7  C   UNL     1      -9.029  15.220  68.943  1.00  0.00    -0.209 A  
HETATM    8  C   UNL     1     -10.315  14.721  69.184  1.00  0.00    -0.237 A  
HETATM    9  C   UNL     1     -10.663  13.423  68.802  1.00  0.00    -0.257 A  
HETATM   10  C   UNL     1      -9.732  12.591  68.175  1.00  0.00    -0.222 A  
HETATM   11  C   UNL     1      -8.482  13.126  67.828  1.00  0.00    -0.185 A  
HETATM   12  C   UNL     1      -8.136  14.434  68.211  1.00  0.00    -0.139 A  
BRANCH  10  13
HETATM   13  C   UNL     1     -10.000  11.121  68.089  1.00  0.00    -0.189 C  
HETATM   14 CL   UNL     1     -10.968   6.367  66.836  1.00  0.00    -0.450 Cl 
HETATM   15  C   UNL     1     -10.415  10.536  66.930  1.00  0.00    -0.303 C  
HETATM   16  C   UNL     1     -10.494   7.927  67.583  1.00  0.00    -0.234 C  
HETATM   17  C   UNL     1     -10.720   9.066  66.596  1.00  0.00    -0.043 C  
BRANCH  13  18
HETATM   18  C   UNL     1      -9.920  10.352  69.368  1.00  0.00    -0.240 A  
HETATM   19  C   UNL     1     -11.078  10.201  70.151  1.00  0.00    -0.378 A  
HETATM   20  C   UNL     1     -11.043   9.512  71.367  1.00  0.00    -0.438 A  
HETATM   21  C   UNL     1      -8.687   9.105  71.050  1.00  0.00    -0.251 A  
HETATM   22  C   UNL     1      -9.848   8.947  71.807  1.00  0.00    -0.386 A  
HETATM   23  C   UNL     1      -8.714   9.827  69.850  1.00  0.00    -0.238 A  
ENDBRANCH  13  18
BRANCH  15  24
HETATM   24  C   UNL     1     -10.735  11.344  65.714  1.00  0.00    -0.309 A  
HETATM   25  C   UNL     1     -10.035  11.156  64.516  1.00  0.00    -0.350 A  
HETATM   26  C   UNL     1     -11.633  12.548  63.343  1.00  0.00    -0.547 A  
HETATM   27  C   UNL     1     -12.325  12.759  64.534  1.00  0.00    -0.515 A  
HETATM   28  C   UNL     1     -10.487  11.755  63.335  1.00  0.00    -0.485 A  
HETATM   29  C   UNL     1     -11.878  12.160  65.714  1.00  0.00    -0.342 A  
ENDBRANCH  15  24
ENDBRANCH  10  13
ENDBRANCH   6   7
ENDBRANCH   5   6
ENDBRANCH   4   5
ENDBRANCH   2   4
TORSDOF 7
ENDMDL
MODEL        9
REMARK 921   NORMALIZED FREE ENERGY PREDICTED BY IDOCK:   -6.16 KCAL/MOL
REMARK 922        TOTAL FREE ENERGY PREDICTED BY IDOCK:  -10.75 KCAL/MOL
REMARK 923 INTER-LIGAND FREE ENERGY PREDICTED BY IDOCK:   -9.17 KCAL/MOL
REMARK 924 INTRA-LIGAND FREE ENERGY PREDICTED BY IDOCK:   -1.58 KCAL/MOL
REMARK 927      BINDING AFFINITY PREDICTED BY RF-SCORE:    0.00 PKD
ROOT
HETATM    1  C   UNL     1     -12.495  15.930  73.970  1.00  0.00    -0.638 C  
HETATM    2  N   UNL     1     -12.125  15.147  72.790  1.00  0.00    -0.380 NA 
HETATM    3  C   UNL     1     -13.096  14.067  72.596  1.00  0.00    -0.459 C  
ENDROOT
BRANCH   2   4
HETATM    4  C   UNL     1     -12.008  16.023  71.597  1.00  0.00    -0.499 C  
BRANCH   4   5
HETATM    5  C   UNL     1     -12.632  15.403  70.331  1.00  0.00    -0.389 C  
BRANCH   5   6
HETATM    6  O   UNL     1     -11.900  15.722  69.138  1.00  0.00    -0.381 OA 
BRANCH   6   7
HETATM    7  C   UNL     1     -11.451  14.625  68.433  1.00  0.00    -0.311 A  
HETATM    8  C   UNL     1     -12.148  14.007  67.388  1.00  0.00    -0.384 A  
HETATM    9  C   UNL     1     -11.687  12.813  66.827  1.00  0.00    -0.459 A  
HETATM   10  C   UNL     1     -10.522  12.206  67.300  1.00  0.00    -0.238 A  
HETATM   11  C   UNL     1      -9.759  12.881  68.266  1.00  0.00    -0.217 A  
HETATM   12  C   UNL     1     -10.224  14.084  68.827  1.00  0.00    -0.200 A  
BRANCH  10  13
HETATM   13  C   UNL     1     -10.236  10.782  66.940  1.00  0.00    -0.274 C  
HETATM   14 CL   UNL     1      -9.811   5.806  66.530  1.00  0.00    -0.185 Cl 
HETATM   15  C   UNL     1     -10.546   9.755  67.780  1.00  0.00    -0.320 C  
HETATM   16  C   UNL     1      -9.876   7.587  66.334  1.00  0.00    -0.082 C  
HETATM   17  C   UNL     1     -10.377   8.235  67.619  1.00  0.00    -0.313 C  
BRANCH  13  18
HETATM   18  C   UNL     1      -9.475  10.554  65.673  1.00  0.00    -0.259 A  
HETATM   19  C   UNL     1      -8.081  10.377  65.734  1.00  0.00    -0.155 A  
HETATM   20  C   UNL     1      -7.327  10.187  64.573  1.00  0.00    -0.121 A  
HETATM   21  C   UNL     1      -9.340  10.345  63.256  1.00  0.00    -0.335 A  
HETATM   22  C   UNL     1      -7.961  10.152  63.334  1.00  0.00    -0.160 A  
HETATM   23  C   UNL     1     -10.092  10.573  64.416  1.00  0.00    -0.395 A  
ENDBRANCH  13  18
BRANCH  15  24
HETATM   24  C   UNL     1     -11.081   9.999  69.154  1.00  0.00    -0.232 A  
HETATM   25  C   UNL     1     -12.271  10.710  69.351  1.00  0.00    -0.173 A  
HETATM   26  C   UNL     1     -12.288  10.071  71.688  1.00  0.00    -0.486 A  
HETATM   27  C   UNL     1     -11.092   9.379  71.508  1.00  0.00    -0.446 A  
HETATM   28  C   UNL     1     -12.873  10.740  70.614  1.00  0.00    -0.377 A  
HETATM   29  C   UNL     1     -10.491   9.344  70.247  1.00  0.00    -0.298 A  
ENDBRANCH  15  24
ENDBRANCH  10  13
ENDBRANCH   6   7
ENDBRANCH   5   6
ENDBRANCH   4   5
ENDBRANCH   2   4
TORSDOF 7
ENDMDL
MODEL       10
REMARK 921   NORMALIZED FREE ENERGY PREDICTED BY IDOCK:   -6.11 KCAL/MOL
REMARK 922        TOTAL FREE ENERGY PREDICTED BY IDOCK:  -10.68 KCAL/MOL
REMARK 923 INTER-LIGAND FREE ENERGY PREDICTED BY IDOCK:   -9.14 KCAL/MOL
REMARK 924 INTRA-LIGAND FREE ENERGY PREDICTED BY IDOCK:   -1.54 KCAL/MOL
REMARK 927      BINDING AFFINITY PREDICTED BY RF-SCORE:    0.00 PKD
ROOT
HETATM    1  C   UNL     1     -10.257  19.851  68.330  1.00  0.00    -0.433 C  
HETATM    2  N   UNL     1     -10.805  18.959  67.307  1.00  0.00    -0.443 NA 
HETATM    3  C   UNL     1     -10.362  19.404  65.983  1.00  0.00    -0.497 C  
ENDROOT
BRANCH   2   4
HETATM    4  C   UNL     1     -10.427  17.550  67.585  1.00  0.00    -0.370 C  
BRANCH   4   5
HETATM    5  C   UNL     1     -10.481  17.197  69.084  1.00  0.00    -0.296 C  
BRANCH   5   6
HETATM    6  O   UNL     1      -9.515  16.202  69.454  1.00  0.00    -0.250 OA 
BRANCH   6   7
HETATM    7  C   UNL     1      -9.819  14.925  69.030  1.00  0.00    -0.220 A  
HETATM    8  C   UNL     1     -11.044  14.282  69.245  1.00  0.00    -0.297 A  
HETATM    9  C   UNL     1     -11.216  12.936  68.910  1.00  0.00    -0.327 A  
HETATM   10  C   UNL     1     -10.166  12.201  68.357  1.00  0.00    -0.212 A  
HETATM   11  C   UNL     1      -8.975  12.870  68.033  1.00  0.00    -0.196 A  
HETATM   12  C   UNL     1      -8.807  14.225  68.368  1.00  0.00    -0.187 A  
BRANCH  10  13
HETATM   13  C   UNL     1     -10.250  10.706  68.328  1.00  0.00    -0.187 C  
HETATM   14 CL   UNL     1     -10.451   5.815  67.261  1.00  0.00    -0.288 Cl 
HETATM   15  C   UNL     1     -10.388  10.019  67.159  1.00  0.00    -0.300 C  
HETATM   16  C   UNL     1     -10.290   7.455  67.967  1.00  0.00    -0.199 C  
HETATM   17  C   UNL     1     -10.465   8.509  66.881  1.00  0.00    -0.345 C  
BRANCH  13  18
HETATM   18  C   UNL     1     -10.309  10.016  69.653  1.00  0.00    -0.274 A  
HETATM   19  C   UNL     1      -9.118   9.549  70.236  1.00  0.00    -0.296 A  
HETATM   20  C   UNL     1      -9.130   8.876  71.461  1.00  0.00    -0.299 A  
HETATM   21  C   UNL     1     -11.527   9.118  71.554  1.00  0.00    -0.437 A  
HETATM   22  C   UNL     1     -10.335   8.678  72.130  1.00  0.00    -0.403 A  
HETATM   23  C   UNL     1     -11.520   9.760  70.310  1.00  0.00    -0.317 A  
ENDBRANCH  13  18
BRANCH  15  24
HETATM   24  C   UNL     1     -10.578  10.722  65.854  1.00  0.00    -0.216 A  
HETATM   25  C   UNL     1     -11.535  11.733  65.710  1.00  0.00    -0.258 A  
HETATM   26  C   UNL     1     -10.622  12.315  63.543  1.00  0.00    -0.488 A  
HETATM   27  C   UNL     1      -9.678  11.297  63.667  1.00  0.00    -0.351 A  
HETATM   28  C   UNL     1     -11.552  12.529  64.558  1.00  0.00    -0.406 A  
HETATM   29  C   UNL     1      -9.657  10.504  64.817  1.00  0.00    -0.342 A  
ENDBRANCH  15  24
ENDBRANCH  10  13
ENDBRANCH   6   7
ENDBRANCH   5   6
ENDBRANCH   4   5
ENDBRANCH   2   4
TORSDOF 7
ENDMDL
MODEL       11
REMARK 921   NORMALIZED FREE ENERGY PREDICTED BY IDOCK:   -5.96 KCAL/MOL
REMARK 922        TOTAL FREE ENERGY PREDICTED BY IDOCK:  -10.47 KCAL/MOL
REMARK 923 INTER-LIGAND FREE ENERGY PREDICTED BY IDOCK:   -8.75 KCAL/MOL
REMARK 924 INTRA-LIGAND FREE ENERGY PREDICTED BY IDOCK:   -1.72 KCAL/MOL
REMARK 927      BINDING AFFINITY PREDICTED BY RF-SCORE:    0.00 PKD
ROOT
HETATM    1  C   UNL     1      -6.902  19.955  65.369  1.00  0.00    -0.299 C  
HETATM    2  N   UNL     1      -7.234  19.419  66.690  1.00  0.00    -0.213 NA 
HETATM    3  C   UNL     1      -7.370  20.522  67.645  1.00  0.00    -0.298 C  
ENDROOT
BRANCH   2   4
HETATM    4  C   UNL     1      -8.456  18.578  66.621  1.00  0.00    -0.278 C  
BRANCH   4   5
HETATM    5  C   UNL     1      -9.646  19.179  67.395  1.00  0.00    -0.311 C  
BRANCH   5   6
HETATM    6  O   UNL     1      -9.827  18.578  68.686  1.00  0.00    -0.355 OA 
BRANCH   6   7
HETATM    7  C   UNL     1     -10.161  17.240  68.651  1.00  0.00    -0.341 A  
HETATM    8  C   UNL     1     -11.389  16.733  68.211  1.00  0.00    -0.051 A  
HETATM    9  C   UNL     1     -11.695  15.377  68.347  1.00  0.00    -0.332 A  
HETATM   10  C   UNL     1     -10.783  14.496  68.932  1.00  0.00    -0.259 A  
HETATM   11  C   UNL     1      -9.508  14.976  69.268  1.00  0.00    -0.171 A  
HETATM   12  C   UNL     1      -9.202  16.341  69.127  1.00  0.00    -0.235 A  
BRANCH  10  13
HETATM   13  C   UNL     1     -11.250  13.146  69.381  1.00  0.00    -0.210 C  
HETATM   14 CL   UNL     1     -13.417   9.138  71.465  1.00  0.00    -0.413 Cl 
HETATM   15  C   UNL     1     -12.089  12.996  70.444  1.00  0.00    -0.391 C  
HETATM   16  C   UNL     1     -12.547  10.345  70.464  1.00  0.00    -0.302 C  
HETATM   17  C   UNL     1     -12.716  11.737  71.063  1.00  0.00    -0.372 C  
BRANCH  13  18
HETATM   18  C   UNL     1     -10.643  11.967  68.691  1.00  0.00    -0.259 A  
HETATM   19  C   UNL     1     -11.231  11.491  67.505  1.00  0.00    -0.360 A  
HETATM   20  C   UNL     1     -10.713  10.375  66.840  1.00  0.00    -0.272 A  
HETATM   21  C   UNL     1      -9.002  10.183  68.529  1.00  0.00    -0.127 A  
HETATM   22  C   UNL     1      -9.585   9.733  67.344  1.00  0.00    -0.187 A  
HETATM   23  C   UNL     1      -9.543  11.277  69.215  1.00  0.00     0.144 A  
ENDBRANCH  13  18
BRANCH  15  24
HETATM   24  C   UNL     1     -12.499  14.159  71.290  1.00  0.00    -0.446 A  
HETATM   25  C   UNL     1     -13.835  14.572  71.353  1.00  0.00    -0.441 A  
HETATM   26  C   UNL     1     -13.311  16.047  73.202  1.00  0.00    -0.624 A  
HETATM   27  C   UNL     1     -11.975  15.659  73.134  1.00  0.00    -0.584 A  
HETATM   28  C   UNL     1     -14.238  15.511  72.310  1.00  0.00    -0.617 A  
HETATM   29  C   UNL     1     -11.570  14.719  72.182  1.00  0.00    -0.142 A  
ENDBRANCH  15  24
ENDBRANCH  10  13
ENDBRANCH   6   7
ENDBRANCH   5   6
ENDBRANCH   4   5
ENDBRANCH   2   4
TORSDOF 7
ENDMDL
MODEL       12
REMARK 921   NORMALIZED FREE ENERGY PREDICTED BY IDOCK:   -5.94 KCAL/MOL
REMARK 922        TOTAL FREE ENERGY PREDICTED BY IDOCK:  -10.43 KCAL/MOL
REMARK 923 INTER-LIGAND FREE ENERGY PREDICTED BY IDOCK:   -8.35 KCAL/MOL
REMARK 924 INTRA-LIGAND FREE ENERGY PREDICTED BY IDOCK:   -2.08 KCAL/MOL
REMARK 927      BINDING AFFINITY PREDICTED BY RF-SCORE:    0.00 PKD
ROOT
HETATM    1  C   UNL     1     -13.337  13.114  72.522  1.00  0.00    -0.421 C  
HETATM    2  N   UNL     1     -13.566  14.519  72.862  1.00  0.00    -0.590 NA 
HETATM    3  C   UNL     1     -12.534  14.969  73.801  1.00  0.00    -0.533 C  
ENDROOT
BRANCH   2   4
HETATM    4  C   UNL     1     -13.614  15.353  71.634  1.00  0.00    -0.509 C  
BRANCH   4   5
HETATM    5  C   UNL     1     -12.216  15.732  71.107  1.00  0.00    -0.423 C  
BRANCH   5   6
HETATM    6  O   UNL     1     -12.119  15.641  69.678  1.00  0.00    -0.364 OA 
BRANCH   6   7
HETATM    7  C   UNL     1     -11.469  14.514  69.221  1.00  0.00    -0.288 A  
HETATM    8  C   UNL     1     -10.109  14.452  68.894  1.00  0.00    -0.202 A  
HETATM    9  C   UNL     1      -9.565  13.310  68.300  1.00  0.00    -0.221 A  
HETATM   10  C   UNL     1     -10.369  12.206  68.012  1.00  0.00    -0.213 A  
HETATM   11  C   UNL     1     -11.705  12.218  68.442  1.00  0.00    -0.390 A  
HETATM   12  C   UNL     1     -12.249  13.367  69.043  1.00  0.00    -0.187 A  
BRANCH  10  13
HETATM   13  C   UNL     1      -9.862  11.151  67.078  1.00  0.00    -0.212 C  
HETATM   14 CL   UNL     1      -8.381   8.274  63.253  1.00  0.00    -0.097 Cl 
HETATM   15  C   UNL     1     -10.006  11.261  65.728  1.00  0.00    -0.281 C  
HETATM   16  C   UNL     1      -8.708   9.088  64.817  1.00  0.00    -0.153 C  
HETATM   17  C   UNL     1      -9.549  10.338  64.586  1.00  0.00    -0.374 C  
BRANCH  13  18
HETATM   18  C   UNL     1      -9.313   9.911  67.708  1.00  0.00    -0.154 A  
HETATM   19  C   UNL     1     -10.134   8.775  67.813  1.00  0.00    -0.261 A  
HETATM   20  C   UNL     1      -9.670   7.602  68.417  1.00  0.00    -0.164 A  
HETATM   21  C   UNL     1      -7.547   8.671  68.826  1.00  0.00    -0.096 A  
HETATM   22  C   UNL     1      -8.367   7.546  68.907  1.00  0.00    -0.129 A  
HETATM   23  C   UNL     1      -8.024   9.858  68.254  1.00  0.00    -0.100 A  
ENDBRANCH  13  18
BRANCH  15  24
HETATM   24  C   UNL     1     -10.777  12.384  65.110  1.00  0.00    -0.327 A  
HETATM   25  C   UNL     1     -12.145  12.259  64.841  1.00  0.00    -0.422 A  
HETATM   26  C   UNL     1     -12.284  14.630  64.362  1.00  0.00    -0.473 A  
HETATM   27  C   UNL     1     -10.919  14.761  64.606  1.00  0.00    -0.332 A  
HETATM   28  C   UNL     1     -12.895  13.382  64.473  1.00  0.00    -0.075 A  
HETATM   29  C   UNL     1     -10.168  13.642  64.978  1.00  0.00    -0.356 A  
ENDBRANCH  15  24
ENDBRANCH  10  13
ENDBRANCH   6   7
ENDBRANCH   5   6
ENDBRANCH   4   5
ENDBRANCH   2   4
TORSDOF 7
ENDMDL
MODEL       13
REMARK 921   NORMALIZED FREE ENERGY PREDICTED BY IDOCK:   -5.93 KCAL/MOL
REMARK 922        TOTAL FREE ENERGY PREDICTED BY IDOCK:  -10.42 KCAL/MOL
REMARK 923 INTER-LIGAND FREE ENERGY PREDICTED BY IDOCK:   -8.52 KCAL/MOL
REMARK 924 INTRA-LIGAND FREE ENERGY PREDICTED BY IDOCK:   -1.90 KCAL/MOL
REMARK 927      BINDING AFFINITY PREDICTED BY RF-SCORE:    0.00 PKD
ROOT
HETATM    1  C   UNL     1     -11.384   6.030  69.632  1.00  0.00    -0.257 C  
HETATM    2  N   UNL     1     -10.042   5.697  70.113  1.00  0.00    -0.208 NA 
HETATM    3  C   UNL     1     -10.145   4.931  71.358  1.00  0.00    -0.198 C  
ENDROOT
BRANCH   2   4
HETATM    4  C   UNL     1      -9.275   4.974  69.066  1.00  0.00    -0.114 C  
BRANCH   4   5
HETATM    5  C   UNL     1      -9.498   5.547  67.653  1.00  0.00    -0.118 C  
BRANCH   5   6
HETATM    6  O   UNL     1      -8.512   6.525  67.289  1.00  0.00    -0.112 OA 
BRANCH   6   7
HETATM    7  C   UNL     1      -8.958   7.829  67.334  1.00  0.00    -0.123 A  
HETATM    8  C   UNL     1      -8.167   8.933  67.674  1.00  0.00    -0.110 A  
HETATM    9  C   UNL     1      -8.735  10.199  67.836  1.00  0.00    -0.122 A  
HETATM   10  C   UNL     1     -10.108  10.391  67.667  1.00  0.00    -0.223 A  
HETATM   11  C   UNL     1     -10.885   9.313  67.214  1.00  0.00    -0.140 A  
HETATM   12  C   UNL     1     -10.310   8.041  67.048  1.00  0.00    -0.414 A  
BRANCH  10  13
HETATM   13  C   UNL     1     -10.743  11.648  68.175  1.00  0.00    -0.248 C  
HETATM   14 CL   UNL     1     -12.920  15.371  70.725  1.00  0.00    -0.512 Cl 
HETATM   15  C   UNL     1     -11.325  11.710  69.405  1.00  0.00    -0.342 C  
HETATM   16  C   UNL     1     -12.045  14.296  69.589  1.00  0.00    -0.346 C  
HETATM   17  C   UNL     1     -12.003  12.876  70.142  1.00  0.00    -0.373 C  
BRANCH  13  18
HETATM   18  C   UNL     1     -10.823  12.790  67.213  1.00  0.00    -0.277 A  
HETATM   19  C   UNL     1     -12.021  13.014  66.513  1.00  0.00    -0.457 A  
HETATM   20  C   UNL     1     -12.132  14.054  65.586  1.00  0.00    -0.432 A  
HETATM   21  C   UNL     1      -9.847  14.678  66.035  1.00  0.00    -0.347 A  
HETATM   22  C   UNL     1     -11.049  14.899  65.361  1.00  0.00    -0.366 A  
HETATM   23  C   UNL     1      -9.723  13.613  66.937  1.00  0.00    -0.262 A  
ENDBRANCH  13  18
BRANCH  15  24
HETATM   24  C   UNL     1     -11.465  10.497  70.268  1.00  0.00    -0.416 A  
HETATM   25  C   UNL     1     -10.340   9.828  70.763  1.00  0.00    -0.298 A  
HETATM   26  C   UNL     1     -11.747   8.504  72.224  1.00  0.00    -0.443 A  
HETATM   27  C   UNL     1     -12.876   9.149  71.723  1.00  0.00    -0.448 A  
HETATM   28  C   UNL     1     -10.483   8.837  71.741  1.00  0.00    -0.417 A  
HETATM   29  C   UNL     1     -12.736  10.140  70.749  1.00  0.00    -0.397 A  
ENDBRANCH  15  24
ENDBRANCH  10  13
ENDBRANCH   6   7
ENDBRANCH   5   6
ENDBRANCH   4   5
ENDBRANCH   2   4
TORSDOF 7
ENDMDL
MODEL       14
REMARK 921   NORMALIZED FREE ENERGY PREDICTED BY IDOCK:   -5.90 KCAL/MOL
REMARK 922        TOTAL FREE ENERGY PREDICTED BY IDOCK:  -10.37 KCAL/MOL
REMARK 923 INTER-LIGAND FREE ENERGY PREDICTED BY IDOCK:   -8.65 KCAL/MOL
REMARK 924 INTRA-LIGAND FREE ENERGY PREDICTED BY IDOCK:   -1.72 KCAL/MOL
REMARK 927      BINDING AFFINITY PREDICTED BY RF-SCORE:    0.00 PKD
ROOT
HETATM    1  C   UNL     1      -8.348  19.657  66.830  1.00  0.00    -0.308 C  
HETATM    2  N   UNL     1      -9.529  18.945  67.322  1.00  0.00    -0.297 NA 
HETATM    3  C   UNL     1     -10.220  19.772  68.315  1.00  0.00    -0.447 C  
ENDROOT
BRANCH   2   4
HETATM    4  C   UNL     1     -10.414  18.559  66.193  1.00  0.00    -0.413 C  
BRANCH   4   5
HETATM    5  C   UNL     1     -10.524  17.033  66.008  1.00  0.00    -0.274 C  
BRANCH   5   6
HETATM    6  O   UNL     1      -9.319  16.343  66.371  1.00  0.00    -0.252 OA 
BRANCH   6   7
HETATM    7  C   UNL     1      -9.521  15.100  66.934  1.00  0.00    -0.238 A  
HETATM    8  C   UNL     1      -8.502  14.250  67.381  1.00  0.00    -0.216 A  
HETATM    9  C   UNL     1      -8.788  12.949  67.804  1.00  0.00    -0.188 A  
HETATM   10  C   UNL     1     -10.098  12.466  67.785  1.00  0.00    -0.203 A  
HETATM   11  C   UNL     1     -11.135  13.350  67.449  1.00  0.00    -0.297 A  
HETATM   12  C   UNL     1     -10.844  14.659  67.027  1.00  0.00    -0.304 A  
BRANCH  10  13
HETATM   13  C   UNL     1     -10.340  10.993  67.904  1.00  0.00    -0.213 C  
HETATM   14 CL   UNL     1     -10.731   6.022  67.414  1.00  0.00    -0.350 Cl 
HETATM   15  C   UNL     1     -10.152  10.150  66.850  1.00  0.00    -0.279 C  
HETATM   16  C   UNL     1     -10.631   7.735  67.935  1.00  0.00    -0.156 C  
HETATM   17  C   UNL     1     -10.305   8.623  66.741  1.00  0.00    -0.336 C  
BRANCH  13  18
HETATM   18  C   UNL     1     -10.924  10.515  69.194  1.00  0.00    -0.286 A  
HETATM   19  C   UNL     1     -12.282  10.761  69.464  1.00  0.00    -0.292 A  
HETATM   20  C   UNL     1     -12.863  10.355  70.669  1.00  0.00    -0.393 A  
HETATM   21  C   UNL     1     -10.744   9.441  71.366  1.00  0.00    -0.407 A  
HETATM   22  C   UNL     1     -12.097   9.677  71.613  1.00  0.00    -0.481 A  
HETATM   23  C   UNL     1     -10.152   9.881  70.176  1.00  0.00    -0.309 A  
ENDBRANCH  13  18
BRANCH  15  24
HETATM   24  C   UNL     1      -9.806  10.660  65.488  1.00  0.00    -0.316 A  
HETATM   25  C   UNL     1      -8.549  10.416  64.922  1.00  0.00    -0.190 A  
HETATM   26  C   UNL     1      -9.331  11.244  62.784  1.00  0.00    -0.362 A  
HETATM   27  C   UNL     1     -10.579  11.511  63.343  1.00  0.00    -0.460 A  
HETATM   28  C   UNL     1      -8.316  10.704  63.573  1.00  0.00    -0.053 A  
HETATM   29  C   UNL     1     -10.815  11.221  64.689  1.00  0.00    -0.335 A  
ENDBRANCH  15  24
ENDBRANCH  10  13
ENDBRANCH   6   7
ENDBRANCH   5   6
ENDBRANCH   4   5
ENDBRANCH   2   4
TORSDOF 7
ENDMDL
MODEL       15
REMARK 921   NORMALIZED FREE ENERGY PREDICTED BY IDOCK:   -5.90 KCAL/MOL
REMARK 922        TOTAL FREE ENERGY PREDICTED BY IDOCK:  -10.37 KCAL/MOL
REMARK 923 INTER-LIGAND FREE ENERGY PREDICTED BY IDOCK:   -9.26 KCAL/MOL
REMARK 924 INTRA-LIGAND FREE ENERGY PREDICTED BY IDOCK:   -1.11 KCAL/MOL
REMARK 927      BINDING AFFINITY PREDICTED BY RF-SCORE:    0.00 PKD
ROOT
HETATM    1  C   UNL     1     -14.007  15.659  72.706  1.00  0.00    -0.482 C  
HETATM    2  N   UNL     1     -13.001  14.605  72.852  1.00  0.00    -0.471 NA 
HETATM    3  C   UNL     1     -13.542  13.340  72.349  1.00  0.00    -0.594 C  
ENDROOT
BRANCH   2   4
HETATM    4  C   UNL     1     -11.738  14.990  72.171  1.00  0.00    -0.349 C  
BRANCH   4   5
HETATM    5  C   UNL     1     -11.878  16.267  71.318  1.00  0.00    -0.299 C  
BRANCH   5   6
HETATM    6  O   UNL     1     -10.988  16.282  70.193  1.00  0.00    -0.344 OA 
BRANCH   6   7
HETATM    7  C   UNL     1     -10.905  15.084  69.514  1.00  0.00    -0.262 A  
HETATM    8  C   UNL     1     -11.980  14.215  69.293  1.00  0.00    -0.382 A  
HETATM    9  C   UNL     1     -11.778  12.955  68.723  1.00  0.00    -0.363 A  
HETATM   10  C   UNL     1     -10.496  12.532  68.367  1.00  0.00    -0.250 A  
HETATM   11  C   UNL     1      -9.434  13.443  68.479  1.00  0.00    -0.121 A  
HETATM   12  C   UNL     1      -9.641  14.711  69.049  1.00  0.00    -0.145 A  
BRANCH  10  13
HETATM   13  C   UNL     1     -10.251  11.081  68.090  1.00  0.00    -0.201 C  
HETATM   14 CL   UNL     1      -9.438   6.504  66.223  1.00  0.00    -0.164 Cl 
HETATM   15  C   UNL     1     -10.309  10.574  66.827  1.00  0.00    -0.301 C  
HETATM   16  C   UNL     1      -9.597   8.005  67.190  1.00  0.00    -0.175 C  
HETATM   17  C   UNL     1     -10.070   9.149  66.301  1.00  0.00    -0.319 C  
BRANCH  13  18
HETATM   18  C   UNL     1     -10.072  10.196  69.281  1.00  0.00    -0.237 A  
HETATM   19  C   UNL     1     -11.208   9.719  69.957  1.00  0.00    -0.297 A  
HETATM   20  C   UNL     1     -11.087   8.910  71.091  1.00  0.00    -0.354 A  
HETATM   21  C   UNL     1      -8.686   9.032  70.902  1.00  0.00    -0.280 A  
HETATM   22  C   UNL     1      -9.823   8.550  71.552  1.00  0.00    -0.309 A  
HETATM   23  C   UNL     1      -8.807   9.873  69.789  1.00  0.00    -0.229 A  
ENDBRANCH  13  18
BRANCH  15  24
HETATM   24  C   UNL     1     -10.734  11.412  65.663  1.00  0.00    -0.301 A  
HETATM   25  C   UNL     1      -9.962  11.473  64.497  1.00  0.00    -0.306 A  
HETATM   26  C   UNL     1     -11.755  12.630  63.350  1.00  0.00    -0.571 A  
HETATM   27  C   UNL     1     -12.523  12.593  64.512  1.00  0.00    -0.525 A  
HETATM   28  C   UNL     1     -10.476  12.078  63.344  1.00  0.00    -0.474 A  
HETATM   29  C   UNL     1     -12.014  11.988  65.664  1.00  0.00    -0.151 A  
ENDBRANCH  15  24
ENDBRANCH  10  13
ENDBRANCH   6   7
ENDBRANCH   5   6
ENDBRANCH   4   5
ENDBRANCH   2   4
TORSDOF 7
ENDMDL
MODEL       16
REMARK 921   NORMALIZED FREE ENERGY PREDICTED BY IDOCK:   -5.85 KCAL/MOL
REMARK 922        TOTAL FREE ENERGY PREDICTED BY IDOCK:  -10.30 KCAL/MOL
REMARK 923 INTER-LIGAND FREE ENERGY PREDICTED BY IDOCK:   -8.56 KCAL/MOL
REMARK 924 INTRA-LIGAND FREE ENERGY PREDICTED BY IDOCK:   -1.74 KCAL/MOL
REMARK 927      BINDING AFFINITY PREDICTED BY RF-SCORE:    0.00 PKD
ROOT
HETATM    1  C   UNL     1     -10.155   5.234  68.609  1.00  0.00    -0.168 C  
HETATM    2  N   UNL     1      -9.600   4.733  67.350  1.00  0.00    -0.149 NA 
HETATM    3  C   UNL     1     -10.596   4.879  66.285  1.00  0.00    -0.255 C  
ENDROOT
BRANCH   2   4
HETATM    4  C   UNL     1      -8.325   5.422  67.030  1.00  0.00    -0.107 C  
BRANCH   4   5
HETATM    5  C   UNL     1      -8.452   6.409  65.854  1.00  0.00    -0.147 C  
BRANCH   5   6
HETATM    6  O   UNL     1      -7.877   7.692  66.142  1.00  0.00    -0.090 OA 
BRANCH   6   7
HETATM    7  C   UNL     1      -8.686   8.526  66.885  1.00  0.00    -0.128 A  
HETATM    8  C   UNL     1     -10.066   8.673  66.701  1.00  0.00    -0.364 A  
HETATM    9  C   UNL     1     -10.783   9.647  67.400  1.00  0.00    -0.308 A  
HETATM   10  C   UNL     1     -10.137  10.502  68.296  1.00  0.00    -0.180 A  
HETATM   11  C   UNL     1      -8.778  10.283  68.570  1.00  0.00    -0.130 A  
HETATM   12  C   UNL     1      -8.060   9.299  67.867  1.00  0.00    -0.104 A  
BRANCH  10  13
HETATM   13  C   UNL     1     -10.835  11.741  68.764  1.00  0.00    -0.268 C  
HETATM   14 CL   UNL     1     -13.345  15.366  71.143  1.00  0.00    -0.563 Cl 
HETATM   15  C   UNL     1     -11.587  11.753  69.900  1.00  0.00    -0.351 C  
HETATM   16  C   UNL     1     -12.318  14.335  70.096  1.00  0.00    -0.353 C  
HETATM   17  C   UNL     1     -12.360  12.892  70.585  1.00  0.00    -0.385 C  
BRANCH  13  18
HETATM   18  C   UNL     1     -10.773  12.925  67.854  1.00  0.00    -0.235 A  
HETATM   19  C   UNL     1     -11.783  13.104  66.893  1.00  0.00    -0.441 A  
HETATM   20  C   UNL     1     -11.752  14.182  66.004  1.00  0.00    -0.389 A  
HETATM   21  C   UNL     1      -9.697  14.936  67.016  1.00  0.00    -0.240 A  
HETATM   22  C   UNL     1     -10.717  15.111  66.080  1.00  0.00    -0.333 A  
HETATM   23  C   UNL     1      -9.709  13.835  67.882  1.00  0.00    -0.229 A  
ENDBRANCH  13  18
BRANCH  15  24
HETATM   24  C   UNL     1     -11.852  10.504  70.679  1.00  0.00    -0.458 A  
HETATM   25  C   UNL     1     -10.802   9.697  71.130  1.00  0.00    -0.404 A  
HETATM   26  C   UNL     1     -12.345   8.421  72.494  1.00  0.00    -0.358 A  
HETATM   27  C   UNL     1     -13.401   9.205  72.034  1.00  0.00    -0.507 A  
HETATM   28  C   UNL     1     -11.050   8.662  72.039  1.00  0.00    -0.437 A  
HETATM   29  C   UNL     1     -13.156  10.242  71.130  1.00  0.00    -0.481 A  
ENDBRANCH  15  24
ENDBRANCH  10  13
ENDBRANCH   6   7
ENDBRANCH   5   6
ENDBRANCH   4   5
ENDBRANCH   2   4
TORSDOF 7
ENDMDL
MODEL       17
REMARK 921   NORMALIZED FREE ENERGY PREDICTED BY IDOCK:   -5.80 KCAL/MOL
REMARK 922        TOTAL FREE ENERGY PREDICTED BY IDOCK:  -10.24 KCAL/MOL
REMARK 923 INTER-LIGAND FREE ENERGY PREDICTED BY IDOCK:   -8.27 KCAL/MOL
REMARK 924 INTRA-LIGAND FREE ENERGY PREDICTED BY IDOCK:   -1.96 KCAL/MOL
REMARK 927      BINDING AFFINITY PREDICTED BY RF-SCORE:    0.00 PKD
ROOT
HETATM    1  C   UNL     1     -10.636   5.500  70.873  1.00  0.00    -0.239 C  
HETATM    2  N   UNL     1      -9.997   5.289  72.173  1.00  0.00    -0.178 NA 
HETATM    3  C   UNL     1      -8.564   5.576  72.066  1.00  0.00    -0.131 C  
ENDROOT
BRANCH   2   4
HETATM    4  C   UNL     1     -10.661   6.106  73.220  1.00  0.00    -0.260 C  
BRANCH   4   5
HETATM    5  C   UNL     1     -10.357   7.612  73.093  1.00  0.00    -0.352 C  
BRANCH   5   6
HETATM    6  O   UNL     1     -11.494   8.373  72.660  1.00  0.00    -0.380 OA 
BRANCH   6   7
HETATM    7  C   UNL     1     -11.271   9.145  71.538  1.00  0.00    -0.360 A  
HETATM    8  C   UNL     1     -12.263   9.842  70.839  1.00  0.00    -0.420 A  
HETATM    9  C   UNL     1     -11.973  10.480  69.630  1.00  0.00    -0.279 A  
HETATM   10  C   UNL     1     -10.687  10.430  69.089  1.00  0.00    -0.266 A  
HETATM   11  C   UNL     1      -9.665   9.832  69.842  1.00  0.00    -0.273 A  
HETATM   12  C   UNL     1      -9.959   9.195  71.060  1.00  0.00    -0.367 A  
BRANCH  10  13
HETATM   13  C   UNL     1     -10.477  10.809  67.655  1.00  0.00    -0.252 C  
HETATM   14 CL   UNL     1      -9.742  11.105  62.708  1.00  0.00    -0.317 Cl 
HETATM   15  C   UNL     1     -10.138   9.884  66.714  1.00  0.00    -0.292 C  
HETATM   16  C   UNL     1     -10.124  11.331  64.445  1.00  0.00    -0.303 C  
HETATM   17  C   UNL     1      -9.902  10.026  65.201  1.00  0.00    -0.388 C  
BRANCH  13  18
HETATM   18  C   UNL     1     -10.526  12.268  67.336  1.00  0.00    -0.228 A  
HETATM   19  C   UNL     1     -11.758  12.852  66.991  1.00  0.00    -0.447 A  
HETATM   20  C   UNL     1     -11.846  14.208  66.661  1.00  0.00    -0.447 A  
HETATM   21  C   UNL     1      -9.471  14.433  67.014  1.00  0.00    -0.255 A  
HETATM   22  C   UNL     1     -10.703  15.003  66.691  1.00  0.00    -0.312 A  
HETATM   23  C   UNL     1      -9.376  13.067  67.309  1.00  0.00    -0.220 A  
ENDBRANCH  13  18
BRANCH  15  24
HETATM   24  C   UNL     1      -9.845   8.464  67.078  1.00  0.00    -0.296 A  
HETATM   25  C   UNL     1     -10.869   7.514  67.165  1.00  0.00    -0.298 A  
HETATM   26  C   UNL     1      -9.230   5.737  67.332  1.00  0.00    -0.109 A  
HETATM   27  C   UNL     1      -8.203   6.677  67.268  1.00  0.00    -0.121 A  
HETATM   28  C   UNL     1     -10.559   6.154  67.287  1.00  0.00    -0.362 A  
HETATM   29  C   UNL     1      -8.509   8.034  67.142  1.00  0.00    -0.124 A  
ENDBRANCH  15  24
ENDBRANCH  10  13
ENDBRANCH   6   7
ENDBRANCH   5   6
ENDBRANCH   4   5
ENDBRANCH   2   4
TORSDOF 7
ENDMDL
MODEL       18
REMARK 921   NORMALIZED FREE ENERGY PREDICTED BY IDOCK:   -5.79 KCAL/MOL
REMARK 922        TOTAL FREE ENERGY PREDICTED BY IDOCK:  -10.22 KCAL/MOL
REMARK 923 INTER-LIGAND FREE ENERGY PREDICTED BY IDOCK:   -8.15 KCAL/MOL
REMARK 924 INTRA-LIGAND FREE ENERGY PREDICTED BY IDOCK:   -2.07 KCAL/MOL
REMARK 927      BINDING AFFINITY PREDICTED BY RF-SCORE:    0.00 PKD
ROOT
HETATM    1  C   UNL     1      -9.607   4.824  72.087  1.00  0.00    -0.153 C  
HETATM    2  N   UNL     1     -10.702   4.956  73.050  1.00  0.00    -0.224 NA 
HETATM    3  C   UNL     1     -11.017   3.641  73.614  1.00  0.00    -0.243 C  
ENDROOT
BRANCH   2   4
HETATM    4  C   UNL     1     -10.361   5.953  74.097  1.00  0.00    -0.284 C  
BRANCH   4   5
HETATM    5  C   UNL     1     -10.134   7.368  73.531  1.00  0.00    -0.339 C  
BRANCH   5   6
HETATM    6  O   UNL     1     -11.344   7.975  73.054  1.00  0.00    -0.386 OA 
BRANCH   6   7
HETATM    7  C   UNL     1     -11.184   8.763  71.933  1.00  0.00    -0.368 A  
HETATM    8  C   UNL     1     -12.231   9.359  71.220  1.00  0.00    -0.425 A  
HETATM    9  C   UNL     1     -11.991  10.019  70.012  1.00  0.00    -0.146 A  
HETATM   10  C   UNL     1     -10.700  10.094  69.486  1.00  0.00    -0.277 A  
HETATM   11  C   UNL     1      -9.633   9.600  70.253  1.00  0.00    -0.307 A  
HETATM   12  C   UNL     1      -9.878   8.939  71.470  1.00  0.00    -0.384 A  
BRANCH  10  13
HETATM   13  C   UNL     1     -10.511  10.488  68.054  1.00  0.00    -0.232 C  
HETATM   14 CL   UNL     1      -9.837  10.839  63.102  1.00  0.00    -0.376 Cl 
HETATM   15  C   UNL     1     -10.171   9.577  67.100  1.00  0.00    -0.305 C  
HETATM   16  C   UNL     1     -10.202  11.044  64.845  1.00  0.00    -0.311 C  
HETATM   17  C   UNL     1      -9.954   9.735  65.586  1.00  0.00    -0.352 C  
BRANCH  13  18
HETATM   18  C   UNL     1     -10.583  11.950  67.749  1.00  0.00    -0.233 A  
HETATM   19  C   UNL     1      -9.421  12.733  67.870  1.00  0.00    -0.208 A  
HETATM   20  C   UNL     1      -9.448  14.108  67.620  1.00  0.00    -0.213 A  
HETATM   21  C   UNL     1     -11.802  13.955  67.119  1.00  0.00    -0.445 A  
HETATM   22  C   UNL     1     -10.637  14.716  67.225  1.00  0.00    -0.284 A  
HETATM   23  C   UNL     1     -11.783  12.584  67.405  1.00  0.00    -0.432 A  
ENDBRANCH  13  18
BRANCH  15  24
HETATM   24  C   UNL     1      -9.856   8.157  67.448  1.00  0.00    -0.242 A  
HETATM   25  C   UNL     1      -8.550   7.762  67.758  1.00  0.00    -0.121 A  
HETATM   26  C   UNL     1      -9.361   5.607  68.513  1.00  0.00    -0.139 A  
HETATM   27  C   UNL     1     -10.663   5.983  68.186  1.00  0.00    -0.353 A  
HETATM   28  C   UNL     1      -8.306   6.491  68.293  1.00  0.00    -0.117 A  
HETATM   29  C   UNL     1     -10.909   7.252  67.656  1.00  0.00    -0.251 A  
ENDBRANCH  15  24
ENDBRANCH  10  13
ENDBRANCH   6   7
ENDBRANCH   5   6
ENDBRANCH   4   5
ENDBRANCH   2   4
TORSDOF 7
ENDMDL
MODEL       19
REMARK 921   NORMALIZED FREE ENERGY PREDICTED BY IDOCK:   -5.77 KCAL/MOL
REMARK 922        TOTAL FREE ENERGY PREDICTED BY IDOCK:  -10.19 KCAL/MOL
REMARK 923 INTER-LIGAND FREE ENERGY PREDICTED BY IDOCK:   -9.70 KCAL/MOL
REMARK 924 INTRA-LIGAND FREE ENERGY PREDICTED BY IDOCK:   -0.49 KCAL/MOL
REMARK 927      BINDING AFFINITY PREDICTED BY RF-SCORE:    0.00 PKD
ROOT
HETATM    1  C   UNL     1      -9.954   4.525  71.434  1.00  0.00    -0.189 C  
HETATM    2  N   UNL     1     -10.757   5.408  72.282  1.00  0.00    -0.225 NA 
HETATM    3  C   UNL     1     -11.402   4.619  73.335  1.00  0.00    -0.305 C  
ENDROOT
BRANCH   2   4
HETATM    4  C   UNL     1      -9.923   6.507  72.829  1.00  0.00    -0.172 C  
BRANCH   4   5
HETATM    5  C   UNL     1     -10.742   7.762  73.192  1.00  0.00    -0.351 C  
BRANCH   5   6
HETATM    6  O   UNL     1     -11.921   7.906  72.386  1.00  0.00    -0.333 OA 
BRANCH   6   7
HETATM    7  C   UNL     1     -11.972   9.073  71.652  1.00  0.00    -0.356 A  
HETATM    8  C   UNL     1     -11.001   9.480  70.731  1.00  0.00    -0.389 A  
HETATM    9  C   UNL     1     -11.059  10.745  70.140  1.00  0.00    -0.298 A  
HETATM   10  C   UNL     1     -12.086  11.635  70.461  1.00  0.00    -0.458 A  
HETATM   11  C   UNL     1     -13.124  11.188  71.294  1.00  0.00    -0.353 A  
HETATM   12  C   UNL     1     -13.065   9.913  71.884  1.00  0.00    -0.559 A  
BRANCH  10  13
HETATM   13  C   UNL     1     -11.947  13.081  70.098  1.00  0.00    -0.374 C  
HETATM   14 CL   UNL     1     -11.156  17.574  68.028  1.00  0.00    -0.128 Cl 
HETATM   15  C   UNL     1     -11.313  13.475  68.959  1.00  0.00    -0.336 C  
HETATM   16  C   UNL     1     -11.651  16.144  68.990  1.00  0.00    -0.298 C  
HETATM   17  C   UNL     1     -11.075  14.876  68.371  1.00  0.00    -0.282 C  
BRANCH  13  18
HETATM   18  C   UNL     1     -12.421  14.071  71.113  1.00  0.00    -0.447 A  
HETATM   19  C   UNL     1     -13.792  14.374  71.187  1.00  0.00    -0.249 A  
HETATM   20  C   UNL     1     -14.275  15.313  72.103  1.00  0.00    -0.667 A  
HETATM   21  C   UNL     1     -12.028  15.670  72.900  1.00  0.00    -0.588 A  
HETATM   22  C   UNL     1     -13.393  15.947  72.974  1.00  0.00    -0.663 A  
HETATM   23  C   UNL     1     -11.538  14.757  71.957  1.00  0.00    -0.178 A  
ENDBRANCH  13  18
BRANCH  15  24
HETATM   24  C   UNL     1     -10.621  12.495  68.067  1.00  0.00    -0.237 A  
HETATM   25  C   UNL     1     -11.306  11.852  67.030  1.00  0.00    -0.392 A  
HETATM   26  C   UNL     1      -9.215  11.005  66.148  1.00  0.00    -0.209 A  
HETATM   27  C   UNL     1      -8.525  11.623  67.188  1.00  0.00    -0.162 A  
HETATM   28  C   UNL     1     -10.602  11.113  66.072  1.00  0.00    -0.298 A  
HETATM   29  C   UNL     1      -9.225  12.364  68.144  1.00  0.00    -0.205 A  
ENDBRANCH  15  24
ENDBRANCH  10  13
ENDBRANCH   6   7
ENDBRANCH   5   6
ENDBRANCH   4   5
ENDBRANCH   2   4
TORSDOF 7
ENDMDL
MODEL       20
REMARK 921   NORMALIZED FREE ENERGY PREDICTED BY IDOCK:   -5.75 KCAL/MOL
REMARK 922        TOTAL FREE ENERGY PREDICTED BY IDOCK:  -10.17 KCAL/MOL
REMARK 923 INTER-LIGAND FREE ENERGY PREDICTED BY IDOCK:   -8.26 KCAL/MOL
REMARK 924 INTRA-LIGAND FREE ENERGY PREDICTED BY IDOCK:   -1.91 KCAL/MOL
REMARK 927      BINDING AFFINITY PREDICTED BY RF-SCORE:    0.00 PKD
ROOT
HETATM    1  C   UNL     1      -9.280  10.100  63.646  1.00  0.00    -0.282 C  
HETATM    2  N   UNL     1      -8.011   9.416  63.391  1.00  0.00    -0.135 NA 
HETATM    3  C   UNL     1      -6.947  10.052  64.171  1.00  0.00    -0.124 C  
ENDROOT
BRANCH   2   4
HETATM    4  C   UNL     1      -8.133   7.964  63.680  1.00  0.00    -0.074 C  
BRANCH   4   5
HETATM    5  C   UNL     1      -7.409   7.545  64.974  1.00  0.00    -0.078 C  
BRANCH   5   6
HETATM    6  O   UNL     1      -8.302   6.998  65.956  1.00  0.00    -0.121 OA 
BRANCH   6   7
HETATM    7  C   UNL     1      -8.984   7.942  66.696  1.00  0.00    -0.151 A  
HETATM    8  C   UNL     1     -10.376   8.079  66.727  1.00  0.00    -0.360 A  
HETATM    9  C   UNL     1     -10.976   9.154  67.389  1.00  0.00     0.009 A  
HETATM   10  C   UNL     1     -10.197  10.120  68.030  1.00  0.00    -0.205 A  
HETATM   11  C   UNL     1      -8.809   9.924  68.100  1.00  0.00    -0.118 A  
HETATM   12  C   UNL     1      -8.209   8.840  67.437  1.00  0.00    -0.109 A  
BRANCH  10  13
HETATM   13  C   UNL     1     -10.820  11.423  68.424  1.00  0.00    -0.248 C  
HETATM   14 CL   UNL     1     -13.033  15.349  70.613  1.00  0.00    -0.478 Cl 
HETATM   15  C   UNL     1     -11.485  11.571  69.604  1.00  0.00    -0.373 C  
HETATM   16  C   UNL     1     -12.120  14.185  69.600  1.00  0.00    -0.349 C  
HETATM   17  C   UNL     1     -12.169  12.798  70.229  1.00  0.00    -0.351 C  
BRANCH  13  18
HETATM   18  C   UNL     1     -10.791  12.513  67.401  1.00  0.00    -0.272 A  
HETATM   19  C   UNL     1     -11.868  12.643  66.508  1.00  0.00    -0.463 A  
HETATM   20  C   UNL     1     -11.871  13.631  65.519  1.00  0.00    -0.382 A  
HETATM   21  C   UNL     1      -9.716  14.389  66.292  1.00  0.00    -0.330 A  
HETATM   22  C   UNL     1     -10.801  14.518  65.424  1.00  0.00    -0.362 A  
HETATM   23  C   UNL     1      -9.696  13.376  67.259  1.00  0.00    -0.232 A  
ENDBRANCH  13  18
BRANCH  15  24
HETATM   24  C   UNL     1     -11.729  10.412  70.518  1.00  0.00    -0.434 A  
HETATM   25  C   UNL     1     -10.671   9.625  70.985  1.00  0.00    -0.393 A  
HETATM   26  C   UNL     1     -12.155   8.532  72.557  1.00  0.00    -0.395 A  
HETATM   27  C   UNL     1     -13.220   9.295  72.084  1.00  0.00    -0.535 A  
HETATM   28  C   UNL     1     -10.885   8.690  72.005  1.00  0.00    -0.430 A  
HETATM   29  C   UNL     1     -13.008  10.231  71.068  1.00  0.00    -0.488 A  
ENDBRANCH  15  24
ENDBRANCH  10  13
ENDBRANCH   6   7
ENDBRANCH   5   6
ENDBRANCH   4   5
ENDBRANCH   2   4
TORSDOF 7
ENDMDL
MODEL       21
REMARK 921   NORMALIZED FREE ENERGY PREDICTED BY IDOCK:   -5.73 KCAL/MOL
REMARK 922        TOTAL FREE ENERGY PREDICTED BY IDOCK:  -10.14 KCAL/MOL
REMARK 923 INTER-LIGAND FREE ENERGY PREDICTED BY IDOCK:   -8.13 KCAL/MOL
REMARK 924 INTRA-LIGAND FREE ENERGY PREDICTED BY IDOCK:   -2.00 KCAL/MOL
REMARK 927      BINDING AFFINITY PREDICTED BY RF-SCORE:    0.00 PKD
ROOT
HETATM    1  C   UNL     1     -14.137   8.620  72.165  1.00  0.00    -0.441 C  
HETATM    2  N   UNL     1     -12.879   9.369  72.205  1.00  0.00    -0.390 NA 
HETATM    3  C   UNL     1     -11.787   8.516  71.728  1.00  0.00    -0.331 C  
ENDROOT
BRANCH   2   4
HETATM    4  C   UNL     1     -12.995  10.628  71.426  1.00  0.00    -0.443 C  
BRANCH   4   5
HETATM    5  C   UNL     1     -11.917  10.761  70.332  1.00  0.00    -0.357 C  
BRANCH   5   6
HETATM    6  O   UNL     1     -12.452  11.211  69.079  1.00  0.00    -0.439 OA 
BRANCH   6   7
HETATM    7  C   UNL     1     -11.878  12.369  68.596  1.00  0.00    -0.302 A  
HETATM    8  C   UNL     1     -11.697  12.666  67.240  1.00  0.00    -0.435 A  
HETATM    9  C   UNL     1     -10.976  13.795  66.844  1.00  0.00    -0.296 A  
HETATM   10  C   UNL     1     -10.413  14.650  67.793  1.00  0.00    -0.246 A  
HETATM   11  C   UNL     1     -10.689  14.421  69.150  1.00  0.00    -0.254 A  
HETATM   12  C   UNL     1     -11.419  13.286  69.546  1.00  0.00    -0.299 A  
BRANCH  10  13
HETATM   13  C   UNL     1      -9.371  15.638  67.368  1.00  0.00    -0.214 C  
HETATM   14 CL   UNL     1      -5.292  18.157  65.913  1.00  0.00    -0.208 Cl 
HETATM   15  C   UNL     1      -8.056  15.294  67.275  1.00  0.00    -0.229 C  
HETATM   16  C   UNL     1      -6.926  17.537  66.311  1.00  0.00    -0.297 C  
HETATM   17  C   UNL     1      -6.828  16.111  66.840  1.00  0.00    -0.148 C  
BRANCH  13  18
HETATM   18  C   UNL     1      -9.825  17.049  67.181  1.00  0.00    -0.269 A  
HETATM   19  C   UNL     1      -9.825  17.920  68.285  1.00  0.00    -0.348 A  
HETATM   20  C   UNL     1     -10.267  19.241  68.161  1.00  0.00    -0.515 A  
HETATM   21  C   UNL     1     -10.719  18.856  65.825  1.00  0.00    -0.310 A  
HETATM   22  C   UNL     1     -10.696  19.715  66.924  1.00  0.00    -0.570 A  
HETATM   23  C   UNL     1     -10.312  17.522  65.956  1.00  0.00    -0.309 A  
ENDBRANCH  13  18
BRANCH  15  24
HETATM   24  C   UNL     1      -7.564  13.947  67.701  1.00  0.00    -0.188 A  
HETATM   25  C   UNL     1      -7.013  13.748  68.972  1.00  0.00    -0.104 A  
HETATM   26  C   UNL     1      -7.054  11.349  68.633  1.00  0.00    -0.095 A  
HETATM   27  C   UNL     1      -7.582  11.538  67.358  1.00  0.00    -0.135 A  
HETATM   28  C   UNL     1      -6.764  12.451  69.436  1.00  0.00    -0.032 A  
HETATM   29  C   UNL     1      -7.835  12.831  66.893  1.00  0.00     0.073 A  
ENDBRANCH  15  24
ENDBRANCH  10  13
ENDBRANCH   6   7
ENDBRANCH   5   6
ENDBRANCH   4   5
ENDBRANCH   2   4
TORSDOF 7
ENDMDL
MODEL       22
REMARK 921   NORMALIZED FREE ENERGY PREDICTED BY IDOCK:   -5.63 KCAL/MOL
REMARK 922        TOTAL FREE ENERGY PREDICTED BY IDOCK:  -10.00 KCAL/MOL
REMARK 923 INTER-LIGAND FREE ENERGY PREDICTED BY IDOCK:   -7.85 KCAL/MOL
REMARK 924 INTRA-LIGAND FREE ENERGY PREDICTED BY IDOCK:   -2.15 KCAL/MOL
REMARK 927      BINDING AFFINITY PREDICTED BY RF-SCORE:    0.00 PKD
ROOT
HETATM    1  C   UNL     1     -10.413  12.351  63.688  1.00  0.00    -0.426 C  
HETATM    2  N   UNL     1     -11.711  12.934  63.343  1.00  0.00    -0.515 NA 
HETATM    3  C   UNL     1     -12.754  11.913  63.467  1.00  0.00    -0.405 C  
ENDROOT
BRANCH   2   4
HETATM    4  C   UNL     1     -11.988  14.129  64.180  1.00  0.00    -0.393 C  
BRANCH   4   5
HETATM    5  C   UNL     1     -12.792  13.799  65.453  1.00  0.00    -0.410 C  
BRANCH   5   6
HETATM    6  O   UNL     1     -12.115  14.196  66.655  1.00  0.00    -0.429 OA 
BRANCH   6   7
HETATM    7  C   UNL     1     -11.796  13.154  67.501  1.00  0.00    -0.360 A  
HETATM    8  C   UNL     1     -11.645  13.268  68.888  1.00  0.00    -0.357 A  
HETATM    9  C   UNL     1     -11.179  12.193  69.649  1.00  0.00    -0.137 A  
HETATM   10  C   UNL     1     -10.847  10.980  69.041  1.00  0.00    -0.274 A  
HETATM   11  C   UNL     1     -11.106  10.824  67.671  1.00  0.00    -0.384 A  
HETATM   12  C   UNL     1     -11.579  11.906  66.908  1.00  0.00    -0.358 A  
BRANCH  10  13
HETATM   13  C   UNL     1     -10.036   9.976  69.799  1.00  0.00    -0.276 C  
HETATM   14 CL   UNL     1      -6.556   7.159  72.049  1.00  0.00    -0.055 Cl 
HETATM   15  C   UNL     1      -8.675   9.955  69.729  1.00  0.00    -0.229 C  
HETATM   16  C   UNL     1      -8.024   8.010  71.470  1.00  0.00    -0.105 C  
HETATM   17  C   UNL     1      -7.643   9.054  70.426  1.00  0.00    -0.100 C  
BRANCH  13  18
HETATM   18  C   UNL     1     -10.798   8.916  70.528  1.00  0.00    -0.276 A  
HETATM   19  C   UNL     1     -11.020   7.678  69.900  1.00  0.00    -0.208 A  
HETATM   20  C   UNL     1     -11.750   6.668  70.534  1.00  0.00    -0.453 A  
HETATM   21  C   UNL     1     -12.053   8.107  72.445  1.00  0.00    -0.406 A  
HETATM   22  C   UNL     1     -12.250   6.877  71.817  1.00  0.00    -0.396 A  
HETATM   23  C   UNL     1     -11.354   9.132  71.795  1.00  0.00    -0.451 A  
ENDBRANCH  13  18
BRANCH  15  24
HETATM   24  C   UNL     1      -7.923  10.858  68.804  1.00  0.00    -0.139 A  
HETATM   25  C   UNL     1      -7.374  12.063  69.258  1.00  0.00     0.126 A  
HETATM   26  C   UNL     1      -6.160  12.315  67.178  1.00  0.00    -0.119 A  
HETATM   27  C   UNL     1      -6.718  11.128  66.707  1.00  0.00    -0.135 A  
HETATM   28  C   UNL     1      -6.492  12.785  68.447  1.00  0.00    -0.080 A  
HETATM   29  C   UNL     1      -7.596  10.403  67.517  1.00  0.00    -0.094 A  
ENDBRANCH  15  24
ENDBRANCH  10  13
ENDBRANCH   6   7
ENDBRANCH   5   6
ENDBRANCH   4   5
ENDBRANCH   2   4
TORSDOF 7
ENDMDL
MODEL       23
REMARK 921   NORMALIZED FREE ENERGY PREDICTED BY IDOCK:   -5.59 KCAL/MOL
REMARK 922        TOTAL FREE ENERGY PREDICTED BY IDOCK:   -9.95 KCAL/MOL
REMARK 923 INTER-LIGAND FREE ENERGY PREDICTED BY IDOCK:   -8.33 KCAL/MOL
REMARK 924 INTRA-LIGAND FREE ENERGY PREDICTED BY IDOCK:   -1.62 KCAL/MOL
REMARK 927      BINDING AFFINITY PREDICTED BY RF-SCORE:    0.00 PKD
ROOT
HETATM    1  C   UNL     1      -9.374   2.730  68.395  1.00  0.00    -0.192 C  
HETATM    2  N   UNL     1      -8.911   3.311  67.134  1.00  0.00    -0.126 NA 
HETATM    3  C   UNL     1      -8.638   2.239  66.173  1.00  0.00    -0.112 C  
ENDROOT
BRANCH   2   4
HETATM    4  C   UNL     1      -9.896   4.295  66.618  1.00  0.00    -0.214 C  
BRANCH   4   5
HETATM    5  C   UNL     1      -9.260   5.653  66.260  1.00  0.00    -0.156 C  
BRANCH   5   6
HETATM    6  O   UNL     1      -8.794   6.368  67.414  1.00  0.00    -0.107 OA 
BRANCH   6   7
HETATM    7  C   UNL     1      -9.181   7.692  67.460  1.00  0.00    -0.132 A  
HETATM    8  C   UNL     1      -8.370   8.746  67.897  1.00  0.00    -0.118 A  
HETATM    9  C   UNL     1      -8.890  10.034  68.049  1.00  0.00    -0.125 A  
HETATM   10  C   UNL     1     -10.233  10.297  67.773  1.00  0.00    -0.225 A  
HETATM   11  C   UNL     1     -11.019   9.271  67.226  1.00  0.00     0.011 A  
HETATM   12  C   UNL     1     -10.492   7.977  67.070  1.00  0.00    -0.410 A  
BRANCH  10  13
HETATM   13  C   UNL     1     -10.849  11.571  68.264  1.00  0.00    -0.257 C  
HETATM   14 CL   UNL     1     -12.990  15.353  70.757  1.00  0.00    -0.512 Cl 
HETATM   15  C   UNL     1     -11.454  11.651  69.482  1.00  0.00    -0.371 C  
HETATM   16  C   UNL     1     -12.117  14.253  69.642  1.00  0.00    -0.346 C  
HETATM   17  C   UNL     1     -12.119  12.836  70.202  1.00  0.00    -0.370 C  
BRANCH  13  18
HETATM   18  C   UNL     1     -10.884  12.711  67.297  1.00  0.00    -0.277 A  
HETATM   19  C   UNL     1      -9.769  13.561  67.200  1.00  0.00    -0.244 A  
HETATM   20  C   UNL     1      -9.768  14.654  66.328  1.00  0.00    -0.329 A  
HETATM   21  C   UNL     1     -12.000  14.074  65.624  1.00  0.00    -0.408 A  
HETATM   22  C   UNL     1     -10.879  14.899  65.525  1.00  0.00    -0.365 A  
HETATM   23  C   UNL     1     -12.015  13.001  66.524  1.00  0.00    -0.457 A  
ENDBRANCH  13  18
BRANCH  15  24
HETATM   24  C   UNL     1     -11.639  10.445  70.347  1.00  0.00    -0.423 A  
HETATM   25  C   UNL     1     -10.539   9.764  70.882  1.00  0.00    -0.344 A  
HETATM   26  C   UNL     1     -12.011   8.467  72.303  1.00  0.00    -0.454 A  
HETATM   27  C   UNL     1     -13.114   9.124  71.761  1.00  0.00    -0.456 A  
HETATM   28  C   UNL     1     -10.728   8.781  71.861  1.00  0.00    -0.429 A  
HETATM   29  C   UNL     1     -12.929  10.108  70.787  1.00  0.00    -0.380 A  
ENDBRANCH  15  24
ENDBRANCH  10  13
ENDBRANCH   6   7
ENDBRANCH   5   6
ENDBRANCH   4   5
ENDBRANCH   2   4
TORSDOF 7
ENDMDL
MODEL       24
REMARK 921   NORMALIZED FREE ENERGY PREDICTED BY IDOCK:   -5.54 KCAL/MOL
REMARK 922        TOTAL FREE ENERGY PREDICTED BY IDOCK:   -9.87 KCAL/MOL
REMARK 923 INTER-LIGAND FREE ENERGY PREDICTED BY IDOCK:   -8.22 KCAL/MOL
REMARK 924 INTRA-LIGAND FREE ENERGY PREDICTED BY IDOCK:   -1.65 KCAL/MOL
REMARK 927      BINDING AFFINITY PREDICTED BY RF-SCORE:    0.00 PKD
ROOT
HETATM    1  C   UNL     1      -8.246   3.209  65.633  1.00  0.00    -0.091 C  
HETATM    2  N   UNL     1      -8.831   4.145  64.671  1.00  0.00    -0.130 NA 
HETATM    3  C   UNL     1     -10.252   3.836  64.491  1.00  0.00    -0.204 C  
ENDROOT
BRANCH   2   4
HETATM    4  C   UNL     1      -8.608   5.548  65.104  1.00  0.00    -0.141 C  
BRANCH   4   5
HETATM    5  C   UNL     1      -9.369   5.908  66.395  1.00  0.00    -0.157 C  
BRANCH   5   6
HETATM    6  O   UNL     1      -8.603   6.745  67.275  1.00  0.00    -0.119 OA 
BRANCH   6   7
HETATM    7  C   UNL     1      -9.050   8.047  67.358  1.00  0.00    -0.134 A  
HETATM    8  C   UNL     1      -8.262   9.139  67.739  1.00  0.00    -0.109 A  
HETATM    9  C   UNL     1      -8.832  10.400  67.937  1.00  0.00    -0.125 A  
HETATM   10  C   UNL     1     -10.204  10.596  67.764  1.00  0.00    -0.212 A  
HETATM   11  C   UNL     1     -10.977   9.534  67.270  1.00  0.00    -0.062 A  
HETATM   12  C   UNL     1     -10.400   8.268  67.069  1.00  0.00    -0.393 A  
BRANCH  10  13
HETATM   13  C   UNL     1     -10.843  11.837  68.307  1.00  0.00    -0.259 C  
HETATM   14 CL   UNL     1     -13.054  15.470  70.954  1.00  0.00    -0.538 Cl 
HETATM   15  C   UNL     1     -11.449  11.854  69.527  1.00  0.00    -0.357 C  
HETATM   16  C   UNL     1     -12.161  14.435  69.795  1.00  0.00    -0.321 C  
HETATM   17  C   UNL     1     -12.136  12.995  70.296  1.00  0.00    -0.388 C  
BRANCH  13  18
HETATM   18  C   UNL     1     -10.901  13.014  67.388  1.00  0.00    -0.269 A  
HETATM   19  C   UNL     1     -12.005  13.160  66.529  1.00  0.00    -0.459 A  
HETATM   20  C   UNL     1     -12.087  14.232  65.636  1.00  0.00    -0.399 A  
HETATM   21  C   UNL     1      -9.963  15.044  66.436  1.00  0.00    -0.295 A  
HETATM   22  C   UNL     1     -11.073  15.185  65.604  1.00  0.00    -0.334 A  
HETATM   23  C   UNL     1      -9.862  13.950  67.306  1.00  0.00    -0.244 A  
ENDBRANCH  13  18
BRANCH  15  24
HETATM   24  C   UNL     1     -11.609  10.611  70.342  1.00  0.00    -0.441 A  
HETATM   25  C   UNL     1     -10.496   9.915  70.826  1.00  0.00    -0.253 A  
HETATM   26  C   UNL     1     -11.933   8.546  72.216  1.00  0.00    -0.454 A  
HETATM   27  C   UNL     1     -13.050   9.218  71.724  1.00  0.00    -0.472 A  
HETATM   28  C   UNL     1     -10.660   8.889  71.764  1.00  0.00    -0.432 A  
HETATM   29  C   UNL     1     -12.889  10.245  70.790  1.00  0.00    -0.427 A  
ENDBRANCH  15  24
ENDBRANCH  10  13
ENDBRANCH   6   7
ENDBRANCH   5   6
ENDBRANCH   4   5
ENDBRANCH   2   4
TORSDOF 7
ENDMDL
MODEL       25
REMARK 921   NORMALIZED FREE ENERGY PREDICTED BY IDOCK:   -5.46 KCAL/MOL
REMARK 922        TOTAL FREE ENERGY PREDICTED BY IDOCK:   -9.76 KCAL/MOL
REMARK 923 INTER-LIGAND FREE ENERGY PREDICTED BY IDOCK:   -7.51 KCAL/MOL
REMARK 924 INTRA-LIGAND FREE ENERGY PREDICTED BY IDOCK:   -2.25 KCAL/MOL
REMARK 927      BINDING AFFINITY PREDICTED BY RF-SCORE:    0.00 PKD
ROOT
HETATM    1  C   UNL     1     -11.533   6.029  72.263  1.00  0.00    -0.312 C  
HETATM    2  N   UNL     1     -10.529   5.318  71.470  1.00  0.00    -0.223 NA 
HETATM    3  C   UNL     1     -10.713   5.635  70.051  1.00  0.00    -0.320 C  
ENDROOT
BRANCH   2   4
HETATM    4  C   UNL     1      -9.161   5.641  71.947  1.00  0.00    -0.138 C  
BRANCH   4   5
HETATM    5  C   UNL     1      -8.407   6.606  71.011  1.00  0.00    -0.125 C  
BRANCH   5   6
HETATM    6  O   UNL     1      -8.252   7.917  71.574  1.00  0.00    -0.099 OA 
BRANCH   6   7
HETATM    7  C   UNL     1      -8.775   8.935  70.804  1.00  0.00    -0.206 A  
HETATM    8  C   UNL     1     -10.128   9.291  70.763  1.00  0.00    -0.358 A  
HETATM    9  C   UNL     1     -10.592  10.238  69.846  1.00  0.00    -0.324 A  
HETATM   10  C   UNL     1      -9.716  10.845  68.944  1.00  0.00    -0.198 A  
HETATM   11  C   UNL     1      -8.343  10.577  69.059  1.00  0.00    -0.154 A  
HETATM   12  C   UNL     1      -7.878   9.627  69.986  1.00  0.00    -0.173 A  
BRANCH  10  13
HETATM   13  C   UNL     1     -10.269  11.578  67.762  1.00  0.00    -0.200 C  
HETATM   14 CL   UNL     1     -12.142  13.142  63.386  1.00  0.00    -0.613 Cl 
HETATM   15  C   UNL     1     -10.427  10.970  66.553  1.00  0.00    -0.309 C  
HETATM   16  C   UNL     1     -11.601  12.888  65.076  1.00  0.00    -0.332 C  
HETATM   17  C   UNL     1     -10.992  11.499  65.224  1.00  0.00    -0.291 C  
BRANCH  13  18
HETATM   18  C   UNL     1     -10.513  13.043  67.939  1.00  0.00    -0.234 A  
HETATM   19  C   UNL     1     -11.745  13.473  68.461  1.00  0.00    -0.392 A  
HETATM   20  C   UNL     1     -12.026  14.833  68.620  1.00  0.00    -0.292 A  
HETATM   21  C   UNL     1      -9.847  15.371  67.737  1.00  0.00    -0.220 A  
HETATM   22  C   UNL     1     -11.067  15.782  68.275  1.00  0.00    -0.342 A  
HETATM   23  C   UNL     1      -9.580  14.009  67.544  1.00  0.00    -0.228 A  
ENDBRANCH  13  18
BRANCH  15  24
HETATM   24  C   UNL     1      -9.951   9.574  66.309  1.00  0.00    -0.344 A  
HETATM   25  C   UNL     1      -8.719   9.327  65.692  1.00  0.00    -0.193 A  
HETATM   26  C   UNL     1      -8.887   6.977  66.254  1.00  0.00    -0.164 A  
HETATM   27  C   UNL     1     -10.125   7.207  66.851  1.00  0.00    -0.308 A  
HETATM   28  C   UNL     1      -8.189   8.032  65.670  1.00  0.00    -0.135 A  
HETATM   29  C   UNL     1     -10.655   8.500  66.878  1.00  0.00    -0.279 A  
ENDBRANCH  15  24
ENDBRANCH  10  13
ENDBRANCH   6   7
ENDBRANCH   5   6
ENDBRANCH   4   5
ENDBRANCH   2   4
TORSDOF 7
ENDMDL
MODEL       26
REMARK 921   NORMALIZED FREE ENERGY PREDICTED BY IDOCK:   -5.45 KCAL/MOL
REMARK 922        TOTAL FREE ENERGY PREDICTED BY IDOCK:   -9.74 KCAL/MOL
REMARK 923 INTER-LIGAND FREE ENERGY PREDICTED BY IDOCK:   -7.82 KCAL/MOL
REMARK 924 INTRA-LIGAND FREE ENERGY PREDICTED BY IDOCK:   -1.92 KCAL/MOL
REMARK 927      BINDING AFFINITY PREDICTED BY RF-SCORE:    0.00 PKD
ROOT
HETATM    1  C   UNL     1     -12.355  14.372  64.467  1.00  0.00    -0.418 C  
HETATM    2  N   UNL     1     -12.692  12.980  64.771  1.00  0.00    -0.707 NA 
HETATM    3  C   UNL     1     -12.547  12.167  63.561  1.00  0.00    -0.506 C  
ENDROOT
BRANCH   2   4
HETATM    4  C   UNL     1     -11.862  12.474  65.894  1.00  0.00    -0.430 C  
BRANCH   4   5
HETATM    5  C   UNL     1     -10.714  11.557  65.429  1.00  0.00    -0.278 C  
BRANCH   5   6
HETATM    6  O   UNL     1      -9.590  11.578  66.322  1.00  0.00    -0.205 OA 
BRANCH   6   7
HETATM    7  C   UNL     1      -9.588  10.569  67.262  1.00  0.00    -0.163 A  
HETATM    8  C   UNL     1     -10.187   9.315  67.090  1.00  0.00    -0.324 A  
HETATM    9  C   UNL     1     -10.264   8.406  68.148  1.00  0.00    -0.253 A  
HETATM   10  C   UNL     1      -9.749   8.730  69.404  1.00  0.00    -0.172 A  
HETATM   11  C   UNL     1      -9.046   9.936  69.551  1.00  0.00    -0.237 A  
HETATM   12  C   UNL     1      -8.967  10.848  68.483  1.00  0.00    -0.157 A  
BRANCH  10  13
HETATM   13  C   UNL     1     -10.140   7.909  70.594  1.00  0.00    -0.197 C  
HETATM   14 CL   UNL     1     -10.522   4.838  74.534  1.00  0.00    -0.324 Cl 
HETATM   15  C   UNL     1      -9.325   6.937  71.092  1.00  0.00    -0.162 C  
HETATM   16  C   UNL     1     -10.670   6.094  73.263  1.00  0.00    -0.260 C  
HETATM   17  C   UNL     1      -9.494   6.000  72.299  1.00  0.00    -0.159 C  
BRANCH  13  18
HETATM   18  C   UNL     1     -11.522   8.118  71.124  1.00  0.00    -0.304 A  
HETATM   19  C   UNL     1     -12.495   7.126  70.910  1.00  0.00    -0.302 A  
HETATM   20  C   UNL     1     -13.806   7.291  71.365  1.00  0.00    -0.416 A  
HETATM   21  C   UNL     1     -13.207   9.447  72.263  1.00  0.00    -0.528 A  
HETATM   22  C   UNL     1     -14.157   8.446  72.060  1.00  0.00    -0.495 A  
HETATM   23  C   UNL     1     -11.902   9.298  71.775  1.00  0.00    -0.454 A  
ENDBRANCH  13  18
BRANCH  15  24
HETATM   24  C   UNL     1      -8.049   6.558  70.411  1.00  0.00    -0.117 A  
HETATM   25  C   UNL     1      -8.041   5.659  69.338  1.00  0.00    -0.100 A  
HETATM   26  C   UNL     1      -5.724   6.198  68.880  1.00  0.00    -0.019 A  
HETATM   27  C   UNL     1      -5.715   7.079  69.959  1.00  0.00    -0.023 A  
HETATM   28  C   UNL     1      -6.881   5.484  68.574  1.00  0.00    -0.059 A  
HETATM   29  C   UNL     1      -6.872   7.258  70.721  1.00  0.00    -0.052 A  
ENDBRANCH  15  24
ENDBRANCH  10  13
ENDBRANCH   6   7
ENDBRANCH   5   6
ENDBRANCH   4   5
ENDBRANCH   2   4
TORSDOF 7
ENDMDL
MODEL       27
REMARK 921   NORMALIZED FREE ENERGY PREDICTED BY IDOCK:   -5.40 KCAL/MOL
REMARK 922        TOTAL FREE ENERGY PREDICTED BY IDOCK:   -9.68 KCAL/MOL
REMARK 923 INTER-LIGAND FREE ENERGY PREDICTED BY IDOCK:   -7.57 KCAL/MOL
REMARK 924 INTRA-LIGAND FREE ENERGY PREDICTED BY IDOCK:   -2.11 KCAL/MOL
REMARK 927      BINDING AFFINITY PREDICTED BY RF-SCORE:    0.00 PKD
ROOT
HETATM    1  C   UNL     1      -8.529  16.451  66.312  1.00  0.00    -0.337 C  
HETATM    2  N   UNL     1      -9.838  15.827  66.512  1.00  0.00    -0.255 NA 
HETATM    3  C   UNL     1     -10.608  16.607  67.484  1.00  0.00    -0.311 C  
ENDROOT
BRANCH   2   4
HETATM    4  C   UNL     1     -10.549  15.677  65.217  1.00  0.00    -0.426 C  
BRANCH   4   5
HETATM    5  C   UNL     1     -10.692  14.208  64.773  1.00  0.00    -0.419 C  
BRANCH   5   6
HETATM    6  O   UNL     1     -11.881  13.588  65.284  1.00  0.00    -0.327 OA 
BRANCH   6   7
HETATM    7  C   UNL     1     -11.663  12.701  66.318  1.00  0.00    -0.402 A  
HETATM    8  C   UNL     1     -11.900  12.977  67.670  1.00  0.00    -0.401 A  
HETATM    9  C   UNL     1     -11.513  12.074  68.664  1.00  0.00    -0.350 A  
HETATM   10  C   UNL     1     -10.876  10.877  68.331  1.00  0.00    -0.266 A  
HETATM   11  C   UNL     1     -10.741  10.544  66.974  1.00  0.00    -0.310 A  
HETATM   12  C   UNL     1     -11.134  11.453  65.976  1.00  0.00    -0.235 A  
BRANCH  10  13
HETATM   13  C   UNL     1     -10.169  10.099  69.396  1.00  0.00    -0.246 C  
HETATM   14 CL   UNL     1      -7.021   8.029  72.699  1.00  0.00    -0.091 Cl 
HETATM   15  C   UNL     1      -8.817  10.163  69.551  1.00  0.00    -0.198 C  
HETATM   16  C   UNL     1      -8.399   8.644  71.731  1.00  0.00    -0.139 C  
HETATM   17  C   UNL     1      -7.885   9.491  70.573  1.00  0.00    -0.182 C  
BRANCH  13  18
HETATM   18  C   UNL     1     -11.003   9.147  70.193  1.00  0.00    -0.267 A  
HETATM   19  C   UNL     1     -11.681   9.619  71.331  1.00  0.00    -0.478 A  
HETATM   20  C   UNL     1     -12.451   8.759  72.119  1.00  0.00    -0.460 A  
HETATM   21  C   UNL     1     -11.887   6.931  70.651  1.00  0.00    -0.418 A  
HETATM   22  C   UNL     1     -12.570   7.417  71.766  1.00  0.00    -0.367 A  
HETATM   23  C   UNL     1     -11.086   7.784  69.881  1.00  0.00    -0.142 A  
ENDBRANCH  13  18
BRANCH  15  24
HETATM   24  C   UNL     1      -7.953  10.923  68.596  1.00  0.00    -0.140 A  
HETATM   25  C   UNL     1      -7.671  12.279  68.797  1.00  0.00    -0.016 A  
HETATM   26  C   UNL     1      -5.995  12.209  67.049  1.00  0.00    -0.095 A  
HETATM   27  C   UNL     1      -6.283  10.864  66.826  1.00  0.00    -0.093 A  
HETATM   28  C   UNL     1      -6.691  12.917  68.027  1.00  0.00    -0.109 A  
HETATM   29  C   UNL     1      -7.258  10.224  67.595  1.00  0.00    -0.087 A  
ENDBRANCH  15  24
ENDBRANCH  10  13
ENDBRANCH   6   7
ENDBRANCH   5   6
ENDBRANCH   4   5
ENDBRANCH   2   4
TORSDOF 7
ENDMDL
MODEL       28
REMARK 921   NORMALIZED FREE ENERGY PREDICTED BY IDOCK:   -5.39 KCAL/MOL
REMARK 922        TOTAL FREE ENERGY PREDICTED BY IDOCK:   -9.67 KCAL/MOL
REMARK 923 INTER-LIGAND FREE ENERGY PREDICTED BY IDOCK:   -7.79 KCAL/MOL
REMARK 924 INTRA-LIGAND FREE ENERGY PREDICTED BY IDOCK:   -1.88 KCAL/MOL
REMARK 927      BINDING AFFINITY PREDICTED BY RF-SCORE:    0.00 PKD
ROOT
HETATM    1  C   UNL     1     -10.557  13.328  64.521  1.00  0.00    -0.419 C  
HETATM    2  N   UNL     1     -11.268  12.048  64.487  1.00  0.00    -0.321 NA 
HETATM    3  C   UNL     1     -12.188  12.032  63.347  1.00  0.00    -0.519 C  
ENDROOT
BRANCH   2   4
HETATM    4  C   UNL     1     -10.307  10.917  64.454  1.00  0.00    -0.361 C  
BRANCH   4   5
HETATM    5  C   UNL     1      -9.980  10.363  65.855  1.00  0.00    -0.255 C  
BRANCH   5   6
HETATM    6  O   UNL     1      -9.745   8.947  65.851  1.00  0.00    -0.255 OA 
BRANCH   6   7
HETATM    7  C   UNL     1      -9.967   8.328  67.063  1.00  0.00    -0.255 A  
HETATM    8  C   UNL     1      -9.311   8.651  68.257  1.00  0.00    -0.143 A  
HETATM    9  C   UNL     1      -9.490   7.876  69.406  1.00  0.00    -0.156 A  
HETATM   10  C   UNL     1     -10.325   6.757  69.387  1.00  0.00    -0.221 A  
HETATM   11  C   UNL     1     -11.073   6.497  68.228  1.00  0.00    -0.332 A  
HETATM   12  C   UNL     1     -10.893   7.282  67.075  1.00  0.00    -0.350 A  
BRANCH  10  13
HETATM   13  C   UNL     1     -10.238   5.755  70.496  1.00  0.00    -0.284 C  
HETATM   14 CL   UNL     1     -10.746   2.857  74.552  1.00  0.00    -0.167 Cl 
HETATM   15  C   UNL     1     -11.018   5.851  71.609  1.00  0.00    -0.327 C  
HETATM   16  C   UNL     1     -10.369   3.626  72.976  1.00  0.00    -0.164 C  
HETATM   17  C   UNL     1     -11.126   4.943  72.846  1.00  0.00    -0.329 C  
BRANCH  13  18
HETATM   18  C   UNL     1      -9.161   4.724  70.381  1.00  0.00    -0.195 A  
HETATM   19  C   UNL     1      -9.419   3.543  69.665  1.00  0.00    -0.235 A  
HETATM   20  C   UNL     1      -8.450   2.541  69.553  1.00  0.00    -0.097 A  
HETATM   21  C   UNL     1      -6.938   3.878  70.872  1.00  0.00    -0.033 A  
HETATM   22  C   UNL     1      -7.201   2.718  70.142  1.00  0.00    -0.037 A  
HETATM   23  C   UNL     1      -7.920   4.865  71.015  1.00  0.00    -0.091 A  
ENDBRANCH  13  18
BRANCH  15  24
HETATM   24  C   UNL     1     -11.920   7.021  71.838  1.00  0.00    -0.355 A  
HETATM   25  C   UNL     1     -11.411   8.255  72.259  1.00  0.00    -0.446 A  
HETATM   26  C   UNL     1     -13.554   9.303  71.840  1.00  0.00    -0.494 A  
HETATM   27  C   UNL     1     -14.077   8.076  71.439  1.00  0.00    -0.413 A  
HETATM   28  C   UNL     1     -12.226   9.392  72.256  1.00  0.00    -0.246 A  
HETATM   29  C   UNL     1     -13.263   6.940  71.439  1.00  0.00    -0.287 A  
ENDBRANCH  15  24
ENDBRANCH  10  13
ENDBRANCH   6   7
ENDBRANCH   5   6
ENDBRANCH   4   5
ENDBRANCH   2   4
TORSDOF 7
ENDMDL
MODEL       29
REMARK 921   NORMALIZED FREE ENERGY PREDICTED BY IDOCK:   -5.39 KCAL/MOL
REMARK 922        TOTAL FREE ENERGY PREDICTED BY IDOCK:   -9.66 KCAL/MOL
REMARK 923 INTER-LIGAND FREE ENERGY PREDICTED BY IDOCK:   -7.37 KCAL/MOL
REMARK 924 INTRA-LIGAND FREE ENERGY PREDICTED BY IDOCK:   -2.29 KCAL/MOL
REMARK 927      BINDING AFFINITY PREDICTED BY RF-SCORE:    0.00 PKD
ROOT
HETATM    1  C   UNL     1     -10.547  12.421  63.544  1.00  0.00    -0.413 C  
HETATM    2  N   UNL     1     -11.895  12.975  63.398  1.00  0.00    -0.524 NA 
HETATM    3  C   UNL     1     -12.883  11.911  63.589  1.00  0.00    -0.305 C  
ENDROOT
BRANCH   2   4
HETATM    4  C   UNL     1     -12.098  14.109  64.335  1.00  0.00    -0.463 C  
BRANCH   4   5
HETATM    5  C   UNL     1     -12.358  13.655  65.784  1.00  0.00    -0.482 C  
BRANCH   5   6
HETATM    6  O   UNL     1     -11.242  13.903  66.652  1.00  0.00    -0.308 OA 
BRANCH   6   7
HETATM    7  C   UNL     1     -10.878  12.828  67.436  1.00  0.00    -0.240 A  
HETATM    8  C   UNL     1      -9.685  12.735  68.161  1.00  0.00    -0.223 A  
HETATM    9  C   UNL     1      -9.331  11.550  68.811  1.00  0.00    -0.088 A  
HETATM   10  C   UNL     1     -10.159  10.428  68.747  1.00  0.00    -0.198 A  
HETATM   11  C   UNL     1     -11.409  10.551  68.119  1.00  0.00    -0.324 A  
HETATM   12  C   UNL     1     -11.764  11.747  67.470  1.00  0.00    -0.312 A  
BRANCH  10  13
HETATM   13  C   UNL     1      -9.616   9.089  69.142  1.00  0.00    -0.161 C  
HETATM   14 CL   UNL     1      -7.193   4.740  69.704  1.00  0.00    -0.054 Cl 
HETATM   15  C   UNL     1      -8.730   8.417  68.356  1.00  0.00    -0.136 C  
HETATM   16  C   UNL     1      -8.154   6.248  69.841  1.00  0.00    -0.120 C  
HETATM   17  C   UNL     1      -8.023   7.066  68.562  1.00  0.00    -0.123 C  
BRANCH  13  18
HETATM   18  C   UNL     1     -10.197   8.471  70.373  1.00  0.00    -0.215 A  
HETATM   19  C   UNL     1     -11.271   7.573  70.247  1.00  0.00    -0.253 A  
HETATM   20  C   UNL     1     -11.861   6.991  71.373  1.00  0.00    -0.359 A  
HETATM   21  C   UNL     1     -10.317   8.191  72.784  1.00  0.00    -0.384 A  
HETATM   22  C   UNL     1     -11.370   7.287  72.642  1.00  0.00    -0.333 A  
HETATM   23  C   UNL     1      -9.749   8.802  71.659  1.00  0.00    -0.366 A  
ENDBRANCH  13  18
BRANCH  15  24
HETATM   24  C   UNL     1      -8.338   8.922  67.005  1.00  0.00    -0.106 A  
HETATM   25  C   UNL     1      -9.210   8.822  65.915  1.00  0.00    -0.282 A  
HETATM   26  C   UNL     1      -7.763  10.255  64.603  1.00  0.00    -0.114 A  
HETATM   27  C   UNL     1      -6.877  10.343  65.675  1.00  0.00    -0.133 A  
HETATM   28  C   UNL     1      -8.923   9.492  64.720  1.00  0.00    -0.263 A  
HETATM   29  C   UNL     1      -7.163   9.679  66.870  1.00  0.00    -0.090 A  
ENDBRANCH  15  24
ENDBRANCH  10  13
ENDBRANCH   6   7
ENDBRANCH   5   6
ENDBRANCH   4   5
ENDBRANCH   2   4
TORSDOF 7
ENDMDL
MODEL       30
REMARK 921   NORMALIZED FREE ENERGY PREDICTED BY IDOCK:   -5.38 KCAL/MOL
REMARK 922        TOTAL FREE ENERGY PREDICTED BY IDOCK:   -9.64 KCAL/MOL
REMARK 923 INTER-LIGAND FREE ENERGY PREDICTED BY IDOCK:   -7.81 KCAL/MOL
REMARK 924 INTRA-LIGAND FREE ENERGY PREDICTED BY IDOCK:   -1.83 KCAL/MOL
REMARK 927      BINDING AFFINITY PREDICTED BY RF-SCORE:    0.00 PKD
ROOT
HETATM    1  C   UNL     1      -9.975   4.739  70.730  1.00  0.00    -0.221 C  
HETATM    2  N   UNL     1      -9.164   3.919  69.828  1.00  0.00    -0.126 NA 
HETATM    3  C   UNL     1      -9.276   2.510  70.215  1.00  0.00    -0.129 C  
ENDROOT
BRANCH   2   4
HETATM    4  C   UNL     1      -9.559   4.150  68.415  1.00  0.00    -0.125 C  
BRANCH   4   5
HETATM    5  C   UNL     1     -10.075   5.580  68.160  1.00  0.00    -0.172 C  
BRANCH   5   6
HETATM    6  O   UNL     1      -9.015   6.523  67.949  1.00  0.00    -0.118 OA 
BRANCH   6   7
HETATM    7  C   UNL     1      -9.381   7.842  68.122  1.00  0.00    -0.145 A  
HETATM    8  C   UNL     1      -8.659   8.781  68.868  1.00  0.00    -0.136 A  
HETATM    9  C   UNL     1      -9.177  10.055  69.111  1.00  0.00    -0.196 A  
HETATM   10  C   UNL     1     -10.432  10.419  68.619  1.00  0.00    -0.216 A  
HETATM   11  C   UNL     1     -11.108   9.524  67.776  1.00  0.00    -0.034 A  
HETATM   12  C   UNL     1     -10.582   8.243  67.530  1.00  0.00    -0.291 A  
BRANCH  10  13
HETATM   13  C   UNL     1     -11.114  11.634  69.169  1.00  0.00    -0.302 C  
HETATM   14 CL   UNL     1     -13.575  15.126  71.786  1.00  0.00    -0.497 Cl 
HETATM   15  C   UNL     1     -11.865  11.581  70.305  1.00  0.00    -0.431 C  
HETATM   16  C   UNL     1     -12.563  14.153  70.671  1.00  0.00    -0.351 C  
HETATM   17  C   UNL     1     -12.623  12.682  71.065  1.00  0.00    -0.354 C  
BRANCH  13  18
HETATM   18  C   UNL     1     -11.038  12.875  68.338  1.00  0.00    -0.293 A  
HETATM   19  C   UNL     1     -12.033  13.115  67.375  1.00  0.00    -0.379 A  
HETATM   20  C   UNL     1     -11.989  14.249  66.558  1.00  0.00    -0.448 A  
HETATM   21  C   UNL     1      -9.951  14.935  67.649  1.00  0.00    -0.226 A  
HETATM   22  C   UNL     1     -10.955  15.170  66.710  1.00  0.00    -0.321 A  
HETATM   23  C   UNL     1      -9.975  13.780  68.442  1.00  0.00    -0.229 A  
ENDBRANCH  13  18
BRANCH  15  24
HETATM   24  C   UNL     1     -12.145  10.287  71.001  1.00  0.00    -0.487 A  
HETATM   25  C   UNL     1     -13.410   9.692  70.939  1.00  0.00    -0.186 A  
HETATM   26  C   UNL     1     -12.528   7.669  71.938  1.00  0.00    -0.338 A  
HETATM   27  C   UNL     1     -11.269   8.260  72.024  1.00  0.00    -0.389 A  
HETATM   28  C   UNL     1     -13.598   8.385  71.403  1.00  0.00    -0.263 A  
HETATM   29  C   UNL     1     -11.079   9.563  71.558  1.00  0.00    -0.406 A  
ENDBRANCH  15  24
ENDBRANCH  10  13
ENDBRANCH   6   7
ENDBRANCH   5   6
ENDBRANCH   4   5
ENDBRANCH   2   4
TORSDOF 7
ENDMDL
MODEL       31
REMARK 921   NORMALIZED FREE ENERGY PREDICTED BY IDOCK:   -5.35 KCAL/MOL
REMARK 922        TOTAL FREE ENERGY PREDICTED BY IDOCK:   -9.60 KCAL/MOL
REMARK 923 INTER-LIGAND FREE ENERGY PREDICTED BY IDOCK:   -7.58 KCAL/MOL
REMARK 924 INTRA-LIGAND FREE ENERGY PREDICTED BY IDOCK:   -2.02 KCAL/MOL
REMARK 927      BINDING AFFINITY PREDICTED BY RF-SCORE:    0.00 PKD
ROOT
HETATM    1  C   UNL     1     -11.149   5.304  72.615  1.00  0.00    -0.260 C  
HETATM    2  N   UNL     1     -10.716   5.232  74.012  1.00  0.00    -0.278 NA 
HETATM    3  C   UNL     1      -9.802   4.100  74.183  1.00  0.00    -0.128 C  
ENDROOT
BRANCH   2   4
HETATM    4  C   UNL     1     -10.107   6.518  74.437  1.00  0.00    -0.348 C  
BRANCH   4   5
HETATM    5  C   UNL     1      -9.004   7.009  73.478  1.00  0.00    -0.149 C  
BRANCH   5   6
HETATM    6  O   UNL     1      -9.071   8.422  73.233  1.00  0.00    -0.229 OA 
BRANCH   6   7
HETATM    7  C   UNL     1      -9.333   8.762  71.922  1.00  0.00    -0.273 A  
HETATM    8  C   UNL     1      -8.356   8.996  70.947  1.00  0.00    -0.238 A  
HETATM    9  C   UNL     1      -8.705   9.478  69.683  1.00  0.00    -0.189 A  
HETATM   10  C   UNL     1     -10.039   9.744  69.366  1.00  0.00    -0.221 A  
HETATM   11  C   UNL     1     -11.031   9.402  70.298  1.00  0.00    -0.305 A  
HETATM   12  C   UNL     1     -10.676   8.913  71.568  1.00  0.00    -0.398 A  
BRANCH  10  13
HETATM   13  C   UNL     1     -10.358  10.572  68.160  1.00  0.00    -0.201 C  
HETATM   14 CL   UNL     1     -11.465  12.480  63.662  1.00  0.00    -0.523 Cl 
HETATM   15  C   UNL     1     -10.400  10.030  66.911  1.00  0.00    -0.297 C  
HETATM   16  C   UNL     1     -11.186  12.108  65.393  1.00  0.00    -0.333 C  
HETATM   17  C   UNL     1     -10.727  10.663  65.548  1.00  0.00    -0.105 C  
BRANCH  13  18
HETATM   18  C   UNL     1     -10.495  12.045  68.380  1.00  0.00    -0.231 A  
HETATM   19  C   UNL     1     -11.744  12.567  68.759  1.00  0.00    -0.371 A  
HETATM   20  C   UNL     1     -11.924  13.940  68.950  1.00  0.00    -0.393 A  
HETATM   21  C   UNL     1      -9.608  14.307  68.389  1.00  0.00    -0.221 A  
HETATM   22  C   UNL     1     -10.849  14.808  68.783  1.00  0.00    -0.259 A  
HETATM   23  C   UNL     1      -9.436  12.935  68.161  1.00  0.00    -0.218 A  
ENDBRANCH  13  18
BRANCH  15  24
HETATM   24  C   UNL     1     -10.018   8.607  66.659  1.00  0.00    -0.357 A  
HETATM   25  C   UNL     1      -8.741   8.271  66.195  1.00  0.00    -0.174 A  
HETATM   26  C   UNL     1      -9.186   5.927  66.610  1.00  0.00    -0.147 A  
HETATM   27  C   UNL     1     -10.467   6.247  67.053  1.00  0.00    -0.341 A  
HETATM   28  C   UNL     1      -8.327   6.935  66.176  1.00  0.00    -0.130 A  
HETATM   29  C   UNL     1     -10.882   7.581  67.077  1.00  0.00    -0.264 A  
ENDBRANCH  15  24
ENDBRANCH  10  13
ENDBRANCH   6   7
ENDBRANCH   5   6
ENDBRANCH   4   5
ENDBRANCH   2   4
TORSDOF 7
ENDMDL
MODEL       32
REMARK 921   NORMALIZED FREE ENERGY PREDICTED BY IDOCK:   -5.35 KCAL/MOL
REMARK 922        TOTAL FREE ENERGY PREDICTED BY IDOCK:   -9.60 KCAL/MOL
REMARK 923 INTER-LIGAND FREE ENERGY PREDICTED BY IDOCK:   -7.43 KCAL/MOL
REMARK 924 INTRA-LIGAND FREE ENERGY PREDICTED BY IDOCK:   -2.17 KCAL/MOL
REMARK 927      BINDING AFFINITY PREDICTED BY RF-SCORE:    0.00 PKD
ROOT
HETATM    1  C   UNL     1     -11.395  15.378  64.246  1.00  0.00    -0.126 C  
HETATM    2  N   UNL     1     -11.575  14.006  64.725  1.00  0.00    -0.363 NA 
HETATM    3  C   UNL     1     -12.886  13.880  65.367  1.00  0.00    -0.427 C  
ENDROOT
BRANCH   2   4
HETATM    4  C   UNL     1     -11.393  13.036  63.615  1.00  0.00    -0.339 C  
BRANCH   4   5
HETATM    5  C   UNL     1     -10.744  11.715  64.070  1.00  0.00    -0.384 C  
BRANCH   5   6
HETATM    6  O   UNL     1      -9.730  11.909  65.067  1.00  0.00    -0.232 OA 
BRANCH   6   7
HETATM    7  C   UNL     1     -10.040  11.385  66.305  1.00  0.00    -0.224 A  
HETATM    8  C   UNL     1     -10.127  12.128  67.489  1.00  0.00    -0.204 A  
HETATM    9  C   UNL     1     -10.302  11.494  68.722  1.00  0.00    -0.213 A  
HETATM   10  C   UNL     1     -10.387  10.103  68.802  1.00  0.00    -0.211 A  
HETATM   11  C   UNL     1     -10.416   9.363  67.609  1.00  0.00    -0.328 A  
HETATM   12  C   UNL     1     -10.244  10.004  66.370  1.00  0.00    -0.290 A  
BRANCH  10  13
HETATM   13  C   UNL     1     -10.225   9.431  70.130  1.00  0.00    -0.271 C  
HETATM   14 CL   UNL     1      -8.728   7.375  74.447  1.00  0.00    -0.249 Cl 
HETATM   15  C   UNL     1      -8.996   9.119  70.628  1.00  0.00    -0.292 C  
HETATM   16  C   UNL     1      -9.581   8.123  73.059  1.00  0.00    -0.266 C  
HETATM   17  C   UNL     1      -8.584   8.466  71.958  1.00  0.00    -0.254 C  
BRANCH  13  18
HETATM   18  C   UNL     1     -11.481   9.001  70.818  1.00  0.00    -0.331 A  
HETATM   19  C   UNL     1     -12.162   9.920  71.637  1.00  0.00    -0.482 A  
HETATM   20  C   UNL     1     -13.325   9.553  72.319  1.00  0.00    -0.526 A  
HETATM   21  C   UNL     1     -13.160   7.338  71.381  1.00  0.00    -0.412 A  
HETATM   22  C   UNL     1     -13.835   8.265  72.175  1.00  0.00    -0.351 A  
HETATM   23  C   UNL     1     -11.974   7.694  70.726  1.00  0.00    -0.192 A  
ENDBRANCH  13  18
BRANCH  15  24
HETATM   24  C   UNL     1      -7.749   9.324  69.829  1.00  0.00    -0.096 A  
HETATM   25  C   UNL     1      -7.301   8.352  68.926  1.00  0.00    -0.090 A  
HETATM   26  C   UNL     1      -5.670   9.906  68.035  1.00  0.00    -0.039 A  
HETATM   27  C   UNL     1      -6.094  10.873  68.944  1.00  0.00    -0.040 A  
HETATM   28  C   UNL     1      -6.267   8.647  68.030  1.00  0.00    -0.052 A  
HETATM   29  C   UNL     1      -7.129  10.583  69.837  1.00  0.00    -0.148 A  
ENDBRANCH  15  24
ENDBRANCH  10  13
ENDBRANCH   6   7
ENDBRANCH   5   6
ENDBRANCH   4   5
ENDBRANCH   2   4
TORSDOF 7
ENDMDL
MODEL       33
REMARK 921   NORMALIZED FREE ENERGY PREDICTED BY IDOCK:   -5.28 KCAL/MOL
REMARK 922        TOTAL FREE ENERGY PREDICTED BY IDOCK:   -9.50 KCAL/MOL
REMARK 923 INTER-LIGAND FREE ENERGY PREDICTED BY IDOCK:   -8.45 KCAL/MOL
REMARK 924 INTRA-LIGAND FREE ENERGY PREDICTED BY IDOCK:   -1.05 KCAL/MOL
REMARK 927      BINDING AFFINITY PREDICTED BY RF-SCORE:    0.00 PKD
ROOT
HETATM    1  C   UNL     1     -13.853  15.250  71.481  1.00  0.00    -0.525 C  
HETATM    2  N   UNL     1     -12.563  15.936  71.389  1.00  0.00    -0.445 NA 
HETATM    3  C   UNL     1     -11.720  15.544  72.522  1.00  0.00    -0.468 C  
ENDROOT
BRANCH   2   4
HETATM    4  C   UNL     1     -11.916  15.659  70.081  1.00  0.00    -0.367 C  
BRANCH   4   5
HETATM    5  C   UNL     1     -10.907  16.748  69.666  1.00  0.00    -0.204 C  
BRANCH   5   6
HETATM    6  O   UNL     1     -10.205  16.421  68.457  1.00  0.00    -0.235 OA 
BRANCH   6   7
HETATM    7  C   UNL     1     -10.211  15.079  68.138  1.00  0.00    -0.221 A  
HETATM    8  C   UNL     1     -11.261  14.416  67.491  1.00  0.00    -0.329 A  
HETATM    9  C   UNL     1     -11.246  13.027  67.339  1.00  0.00    -0.325 A  
HETATM   10  C   UNL     1     -10.184  12.268  67.834  1.00  0.00    -0.202 A  
HETATM   11  C   UNL     1      -9.077  12.937  68.379  1.00  0.00    -0.126 A  
HETATM   12  C   UNL     1      -9.094  14.335  68.528  1.00  0.00    -0.191 A  
BRANCH  10  13
HETATM   13  C   UNL     1     -10.342  10.785  67.973  1.00  0.00    -0.211 C  
HETATM   14 CL   UNL     1     -10.452   5.794  67.552  1.00  0.00    -0.277 Cl 
HETATM   15  C   UNL     1     -10.108   9.940  66.931  1.00  0.00    -0.285 C  
HETATM   16  C   UNL     1     -10.448   7.517  68.049  1.00  0.00    -0.197 C  
HETATM   17  C   UNL     1     -10.174   8.406  66.842  1.00  0.00    -0.383 C  
BRANCH  13  18
HETATM   18  C   UNL     1     -10.897  10.293  69.271  1.00  0.00    -0.275 A  
HETATM   19  C   UNL     1     -12.279  10.391  69.506  1.00  0.00    -0.068 A  
HETATM   20  C   UNL     1     -12.838   9.966  70.715  1.00  0.00    -0.290 A  
HETATM   21  C   UNL     1     -10.643   9.331  71.488  1.00  0.00    -0.405 A  
HETATM   22  C   UNL     1     -12.020   9.418  71.700  1.00  0.00    -0.465 A  
HETATM   23  C   UNL     1     -10.079   9.791  70.291  1.00  0.00    -0.323 A  
ENDBRANCH  13  18
BRANCH  15  24
HETATM   24  C   UNL     1      -9.793  10.451  65.561  1.00  0.00    -0.332 A  
HETATM   25  C   UNL     1      -8.539  10.233  64.979  1.00  0.00    -0.190 A  
HETATM   26  C   UNL     1      -9.370  11.030  62.847  1.00  0.00    -0.380 A  
HETATM   27  C   UNL     1     -10.616  11.270  63.422  1.00  0.00    -0.393 A  
HETATM   28  C   UNL     1      -8.332  10.519  63.625  1.00  0.00    -0.108 A  
HETATM   29  C   UNL     1     -10.826  10.983  64.773  1.00  0.00    -0.234 A  
ENDBRANCH  15  24
ENDBRANCH  10  13
ENDBRANCH   6   7
ENDBRANCH   5   6
ENDBRANCH   4   5
ENDBRANCH   2   4
TORSDOF 7
ENDMDL
MODEL       34
REMARK 921   NORMALIZED FREE ENERGY PREDICTED BY IDOCK:   -5.27 KCAL/MOL
REMARK 922        TOTAL FREE ENERGY PREDICTED BY IDOCK:   -9.49 KCAL/MOL
REMARK 923 INTER-LIGAND FREE ENERGY PREDICTED BY IDOCK:   -7.97 KCAL/MOL
REMARK 924 INTRA-LIGAND FREE ENERGY PREDICTED BY IDOCK:   -1.51 KCAL/MOL
REMARK 927      BINDING AFFINITY PREDICTED BY RF-SCORE:    0.00 PKD
ROOT
HETATM    1  C   UNL     1      -6.312  18.179  65.500  1.00  0.00    -0.214 C  
HETATM    2  N   UNL     1      -6.626  19.078  66.612  1.00  0.00    -0.189 NA 
HETATM    3  C   UNL     1      -5.408  19.774  67.035  1.00  0.00    -0.163 C  
ENDROOT
BRANCH   2   4
HETATM    4  C   UNL     1      -7.712  20.018  66.234  1.00  0.00    -0.300 C  
BRANCH   4   5
HETATM    5  C   UNL     1      -9.068  19.317  66.020  1.00  0.00    -0.125 C  
BRANCH   5   6
HETATM    6  O   UNL     1      -9.938  19.434  67.155  1.00  0.00    -0.324 OA 
BRANCH   6   7
HETATM    7  C   UNL     1     -10.361  18.229  67.676  1.00  0.00    -0.396 A  
HETATM    8  C   UNL     1     -10.141  17.807  68.993  1.00  0.00    -0.294 A  
HETATM    9  C   UNL     1     -10.475  16.511  69.396  1.00  0.00    -0.320 A  
HETATM   10  C   UNL     1     -11.031  15.605  68.490  1.00  0.00    -0.303 A  
HETATM   11  C   UNL     1     -11.360  16.059  67.203  1.00  0.00     0.103 A  
HETATM   12  C   UNL     1     -11.026  17.364  66.802  1.00  0.00     0.175 A  
BRANCH  10  13
HETATM   13  C   UNL     1     -11.059  14.147  68.832  1.00  0.00    -0.288 C  
HETATM   14 CL   UNL     1     -11.823   9.537  70.637  1.00  0.00    -0.317 Cl 
HETATM   15  C   UNL     1     -11.726  13.681  69.924  1.00  0.00    -0.346 C  
HETATM   16  C   UNL     1     -11.418  11.017  69.709  1.00  0.00    -0.311 C  
HETATM   17  C   UNL     1     -11.918  12.250  70.453  1.00  0.00    -0.349 C  
BRANCH  13  18
HETATM   18  C   UNL     1     -10.208  13.250  67.992  1.00  0.00    -0.240 A  
HETATM   19  C   UNL     1      -8.839  13.132  68.285  1.00  0.00    -0.175 A  
HETATM   20  C   UNL     1      -8.001  12.324  67.510  1.00  0.00    -0.166 A  
HETATM   21  C   UNL     1      -9.883  11.727  66.126  1.00  0.00    -0.254 A  
HETATM   22  C   UNL     1      -8.530  11.605  66.441  1.00  0.00    -0.114 A  
HETATM   23  C   UNL     1     -10.715  12.565  66.880  1.00  0.00    -0.268 A  
ENDBRANCH  13  18
BRANCH  15  24
HETATM   24  C   UNL     1     -12.371  14.607  70.905  1.00  0.00    -0.406 A  
HETATM   25  C   UNL     1     -13.740  14.891  70.839  1.00  0.00    -0.266 A  
HETATM   26  C   UNL     1     -13.634  15.989  72.996  1.00  0.00    -0.530 A  
HETATM   27  C   UNL     1     -12.267  15.730  73.062  1.00  0.00    -0.593 A  
HETATM   28  C   UNL     1     -14.368  15.576  71.885  1.00  0.00    -0.580 A  
HETATM   29  C   UNL     1     -11.638  15.043  72.020  1.00  0.00    -0.419 A  
ENDBRANCH  15  24
ENDBRANCH  10  13
ENDBRANCH   6   7
ENDBRANCH   5   6
ENDBRANCH   4   5
ENDBRANCH   2   4
TORSDOF 7
ENDMDL
MODEL       35
REMARK 921   NORMALIZED FREE ENERGY PREDICTED BY IDOCK:   -5.22 KCAL/MOL
REMARK 922        TOTAL FREE ENERGY PREDICTED BY IDOCK:   -9.42 KCAL/MOL
REMARK 923 INTER-LIGAND FREE ENERGY PREDICTED BY IDOCK:   -7.31 KCAL/MOL
REMARK 924 INTRA-LIGAND FREE ENERGY PREDICTED BY IDOCK:   -2.10 KCAL/MOL
REMARK 927      BINDING AFFINITY PREDICTED BY RF-SCORE:    0.00 PKD
ROOT
HETATM    1  C   UNL     1     -10.518   5.460  70.926  1.00  0.00    -0.237 C  
HETATM    2  N   UNL     1     -10.465   6.670  70.103  1.00  0.00    -0.202 NA 
HETATM    3  C   UNL     1      -9.106   7.217  70.126  1.00  0.00    -0.152 C  
ENDROOT
BRANCH   2   4
HETATM    4  C   UNL     1     -10.937   6.386  68.724  1.00  0.00    -0.334 C  
BRANCH   4   5
HETATM    5  C   UNL     1     -10.069   7.056  67.641  1.00  0.00    -0.172 C  
BRANCH   5   6
HETATM    6  O   UNL     1     -10.743   8.138  66.982  1.00  0.00    -0.321 OA 
BRANCH   6   7
HETATM    7  C   UNL     1     -10.213   9.385  67.244  1.00  0.00    -0.246 A  
HETATM    8  C   UNL     1     -10.788  10.334  68.096  1.00  0.00    -0.312 A  
HETATM    9  C   UNL     1     -10.261  11.625  68.191  1.00  0.00    -0.206 A  
HETATM   10  C   UNL     1      -9.151  11.999  67.431  1.00  0.00    -0.178 A  
HETATM   11  C   UNL     1      -8.503  11.018  66.663  1.00  0.00    -0.153 A  
HETATM   12  C   UNL     1      -9.033   9.719  66.574  1.00  0.00    -0.172 A  
BRANCH  10  13
HETATM   13  C   UNL     1      -8.818  13.451  67.279  1.00  0.00    -0.220 C  
HETATM   14 CL   UNL     1      -8.507  18.335  66.205  1.00  0.00    -0.256 Cl 
HETATM   15  C   UNL     1      -9.468  14.244  66.381  1.00  0.00    -0.297 C  
HETATM   16  C   UNL     1      -8.409  16.670  66.863  1.00  0.00    -0.210 C  
HETATM   17  C   UNL     1      -9.324  15.743  66.071  1.00  0.00    -0.384 C  
BRANCH  13  18
HETATM   18  C   UNL     1      -7.650  13.953  68.065  1.00  0.00    -0.144 A  
HETATM   19  C   UNL     1      -6.349  13.695  67.600  1.00  0.00    -0.149 A  
HETATM   20  C   UNL     1      -5.228  14.124  68.316  1.00  0.00    -0.112 A  
HETATM   21  C   UNL     1      -6.680  15.083  69.985  1.00  0.00    -0.147 A  
HETATM   22  C   UNL     1      -5.395  14.836  69.501  1.00  0.00    -0.091 A  
HETATM   23  C   UNL     1      -7.803  14.621  69.287  1.00  0.00    -0.071 A  
ENDBRANCH  13  18
BRANCH  15  24
HETATM   24  C   UNL     1     -10.466  13.685  65.419  1.00  0.00    -0.333 A  
HETATM   25  C   UNL     1     -10.057  13.007  64.264  1.00  0.00    -0.216 A  
HETATM   26  C   UNL     1     -12.332  12.277  63.865  1.00  0.00    -0.606 A  
HETATM   27  C   UNL     1     -12.754  12.966  65.000  1.00  0.00    -0.474 A  
HETATM   28  C   UNL     1     -10.989  12.302  63.494  1.00  0.00    -0.521 A  
HETATM   29  C   UNL     1     -11.825  13.668  65.773  1.00  0.00    -0.397 A  
ENDBRANCH  15  24
ENDBRANCH  10  13
ENDBRANCH   6   7
ENDBRANCH   5   6
ENDBRANCH   4   5
ENDBRANCH   2   4
TORSDOF 7
ENDMDL
MODEL       36
REMARK 921   NORMALIZED FREE ENERGY PREDICTED BY IDOCK:   -5.21 KCAL/MOL
REMARK 922        TOTAL FREE ENERGY PREDICTED BY IDOCK:   -9.41 KCAL/MOL
REMARK 923 INTER-LIGAND FREE ENERGY PREDICTED BY IDOCK:   -7.99 KCAL/MOL
REMARK 924 INTRA-LIGAND FREE ENERGY PREDICTED BY IDOCK:   -1.42 KCAL/MOL
REMARK 927      BINDING AFFINITY PREDICTED BY RF-SCORE:    0.00 PKD
ROOT
HETATM    1  C   UNL     1     -10.338  20.575  67.718  1.00  0.00    -0.084 C  
HETATM    2  N   UNL     1     -10.568  19.181  67.333  1.00  0.00    -0.461 NA 
HETATM    3  C   UNL     1     -10.567  19.071  65.872  1.00  0.00    -0.393 C  
ENDROOT
BRANCH   2   4
HETATM    4  C   UNL     1      -9.563  18.291  67.968  1.00  0.00    -0.304 C  
BRANCH   4   5
HETATM    5  C   UNL     1      -9.565  16.866  67.381  1.00  0.00    -0.241 C  
BRANCH   5   6
HETATM    6  O   UNL     1     -10.787  16.159  67.642  1.00  0.00    -0.318 OA 
BRANCH   6   7
HETATM    7  C   UNL     1     -10.646  14.790  67.735  1.00  0.00    -0.257 A  
HETATM    8  C   UNL     1      -9.504  14.135  68.210  1.00  0.00    -0.211 A  
HETATM    9  C   UNL     1      -9.392  12.744  68.133  1.00  0.00    -0.214 A  
HETATM   10  C   UNL     1     -10.416  11.977  67.574  1.00  0.00    -0.234 A  
HETATM   11  C   UNL     1     -11.609  12.617  67.204  1.00  0.00    -0.434 A  
HETATM   12  C   UNL     1     -11.720  14.016  67.286  1.00  0.00    -0.420 A  
BRANCH  10  13
HETATM   13  C   UNL     1     -10.143  10.557  67.186  1.00  0.00    -0.253 C  
HETATM   14 CL   UNL     1      -9.760   5.587  66.680  1.00  0.00    -0.161 Cl 
HETATM   15  C   UNL     1     -10.459   9.517  68.007  1.00  0.00    -0.279 C  
HETATM   16  C   UNL     1      -9.811   7.372  66.517  1.00  0.00    -0.139 C  
HETATM   17  C   UNL     1     -10.304   7.999  67.816  1.00  0.00    -0.294 C  
BRANCH  13  18
HETATM   18  C   UNL     1      -9.387  10.347  65.913  1.00  0.00    -0.224 A  
HETATM   19  C   UNL     1      -8.009  10.076  65.972  1.00  0.00    -0.118 A  
HETATM   20  C   UNL     1      -7.258   9.898  64.806  1.00  0.00    -0.136 A  
HETATM   21  C   UNL     1      -9.245  10.259  63.489  1.00  0.00    -0.321 A  
HETATM   22  C   UNL     1      -7.882   9.971  63.563  1.00  0.00    -0.156 A  
HETATM   23  C   UNL     1      -9.991  10.473  64.655  1.00  0.00    -0.415 A  
ENDBRANCH  13  18
BRANCH  15  24
HETATM   24  C   UNL     1     -10.988   9.739  69.387  1.00  0.00    -0.241 A  
HETATM   25  C   UNL     1     -12.183  10.437  69.599  1.00  0.00    -0.118 A  
HETATM   26  C   UNL     1     -12.181   9.768  71.928  1.00  0.00    -0.378 A  
HETATM   27  C   UNL     1     -10.981   9.089  71.732  1.00  0.00    -0.443 A  
HETATM   28  C   UNL     1     -12.778  10.447  70.866  1.00  0.00    -0.477 A  
HETATM   29  C   UNL     1     -10.387   9.075  70.468  1.00  0.00    -0.266 A  
ENDBRANCH  15  24
ENDBRANCH  10  13
ENDBRANCH   6   7
ENDBRANCH   5   6
ENDBRANCH   4   5
ENDBRANCH   2   4
TORSDOF 7
ENDMDL
MODEL       37
REMARK 921   NORMALIZED FREE ENERGY PREDICTED BY IDOCK:   -5.17 KCAL/MOL
REMARK 922        TOTAL FREE ENERGY PREDICTED BY IDOCK:   -9.35 KCAL/MOL
REMARK 923 INTER-LIGAND FREE ENERGY PREDICTED BY IDOCK:   -7.28 KCAL/MOL
REMARK 924 INTRA-LIGAND FREE ENERGY PREDICTED BY IDOCK:   -2.07 KCAL/MOL
REMARK 927      BINDING AFFINITY PREDICTED BY RF-SCORE:    0.00 PKD
ROOT
HETATM    1  C   UNL     1     -14.410  15.145  71.954  1.00  0.00    -0.596 C  
HETATM    2  N   UNL     1     -13.147  15.595  71.364  1.00  0.00    -0.500 NA 
HETATM    3  C   UNL     1     -12.224  15.991  72.431  1.00  0.00    -0.514 C  
ENDROOT
BRANCH   2   4
HETATM    4  C   UNL     1     -12.577  14.543  70.485  1.00  0.00    -0.351 C  
BRANCH   4   5
HETATM    5  C   UNL     1     -11.417  15.054  69.609  1.00  0.00    -0.294 C  
BRANCH   5   6
HETATM    6  O   UNL     1     -11.452  14.523  68.276  1.00  0.00    -0.280 OA 
BRANCH   6   7
HETATM    7  C   UNL     1     -10.983  13.231  68.164  1.00  0.00    -0.255 A  
HETATM    8  C   UNL     1     -11.774  12.117  67.857  1.00  0.00    -0.403 A  
HETATM    9  C   UNL     1     -11.244  10.825  67.907  1.00  0.00    -0.386 A  
HETATM   10  C   UNL     1      -9.912  10.616  68.271  1.00  0.00    -0.173 A  
HETATM   11  C   UNL     1      -9.086  11.734  68.467  1.00  0.00    -0.144 A  
HETATM   12  C   UNL     1      -9.622  13.032  68.412  1.00  0.00    -0.178 A  
BRANCH  10  13
HETATM   13  C   UNL     1      -9.463   9.240  68.654  1.00  0.00    -0.148 C  
HETATM   14 CL   UNL     1      -7.377   4.711  69.147  1.00  0.00    -0.052 Cl 
HETATM   15  C   UNL     1      -8.670   8.492  67.836  1.00  0.00    -0.138 C  
HETATM   16  C   UNL     1      -8.206   6.292  69.313  1.00  0.00    -0.114 C  
HETATM   17  C   UNL     1      -8.067   7.090  68.022  1.00  0.00    -0.119 C  
BRANCH  13  18
HETATM   18  C   UNL     1     -10.035   8.678  69.916  1.00  0.00    -0.189 A  
HETATM   19  C   UNL     1     -11.127   7.796  69.840  1.00  0.00    -0.142 A  
HETATM   20  C   UNL     1     -11.709   7.267  70.995  1.00  0.00    -0.340 A  
HETATM   21  C   UNL     1     -10.120   8.488  72.337  1.00  0.00    -0.365 A  
HETATM   22  C   UNL     1     -11.192   7.599  72.245  1.00  0.00    -0.343 A  
HETATM   23  C   UNL     1      -9.560   9.047  71.181  1.00  0.00    -0.356 A  
ENDBRANCH  13  18
BRANCH  15  24
HETATM   24  C   UNL     1      -8.301   8.956  66.463  1.00  0.00    -0.115 A  
HETATM   25  C   UNL     1      -9.239   8.958  65.424  1.00  0.00    -0.202 A  
HETATM   26  C   UNL     1      -7.717  10.227  64.029  1.00  0.00    -0.100 A  
HETATM   27  C   UNL     1      -6.768  10.212  65.050  1.00  0.00    -0.127 A  
HETATM   28  C   UNL     1      -8.947   9.597  64.213  1.00  0.00    -0.269 A  
HETATM   29  C   UNL     1      -7.059   9.579  66.261  1.00  0.00    -0.092 A  
ENDBRANCH  15  24
ENDBRANCH  10  13
ENDBRANCH   6   7
ENDBRANCH   5   6
ENDBRANCH   4   5
ENDBRANCH   2   4
TORSDOF 7
ENDMDL
MODEL       38
REMARK 921   NORMALIZED FREE ENERGY PREDICTED BY IDOCK:   -5.15 KCAL/MOL
REMARK 922        TOTAL FREE ENERGY PREDICTED BY IDOCK:   -9.32 KCAL/MOL
REMARK 923 INTER-LIGAND FREE ENERGY PREDICTED BY IDOCK:   -8.86 KCAL/MOL
REMARK 924 INTRA-LIGAND FREE ENERGY PREDICTED BY IDOCK:   -0.46 KCAL/MOL
REMARK 927      BINDING AFFINITY PREDICTED BY RF-SCORE:    0.00 PKD
ROOT
HETATM    1  C   UNL     1      -7.736   9.697  64.488  1.00  0.00    -0.131 C  
HETATM    2  N   UNL     1      -7.971   9.936  63.063  1.00  0.00    -0.135 NA 
HETATM    3  C   UNL     1      -8.143   8.654  62.375  1.00  0.00    -0.167 C  
ENDROOT
BRANCH   2   4
HETATM    4  C   UNL     1      -9.131  10.842  62.868  1.00  0.00    -0.297 C  
BRANCH   4   5
HETATM    5  C   UNL     1     -10.178  10.730  63.994  1.00  0.00    -0.322 C  
BRANCH   5   6
HETATM    6  O   UNL     1     -11.106  11.825  63.999  1.00  0.00    -0.339 OA 
BRANCH   6   7
HETATM    7  C   UNL     1     -11.090  12.581  65.152  1.00  0.00    -0.299 A  
HETATM    8  C   UNL     1      -9.989  12.710  66.008  1.00  0.00    -0.267 A  
HETATM    9  C   UNL     1     -10.106  13.378  67.230  1.00  0.00    -0.238 A  
HETATM   10  C   UNL     1     -11.327  13.928  67.627  1.00  0.00    -0.335 A  
HETATM   11  C   UNL     1     -12.400  13.902  66.723  1.00  0.00    -0.370 A  
HETATM   12  C   UNL     1     -12.279  13.233  65.493  1.00  0.00    -0.506 A  
BRANCH  10  13
HETATM   13  C   UNL     1     -11.524  14.324  69.058  1.00  0.00    -0.318 C  
HETATM   14 CL   UNL     1     -11.925  16.542  73.532  1.00  0.00    -0.491 Cl 
HETATM   15  C   UNL     1     -11.150  15.550  69.519  1.00  0.00    -0.286 C  
HETATM   16  C   UNL     1     -11.990  15.500  72.074  1.00  0.00    -0.434 C  
HETATM   17  C   UNL     1     -11.276  16.184  70.914  1.00  0.00    -0.329 C  
BRANCH  13  18
HETATM   18  C   UNL     1     -12.027  13.261  69.981  1.00  0.00    -0.399 A  
HETATM   19  C   UNL     1     -11.463  11.975  69.917  1.00  0.00    -0.239 A  
HETATM   20  C   UNL     1     -11.921  10.944  70.743  1.00  0.00    -0.449 A  
HETATM   21  C   UNL     1     -13.520  12.459  71.722  1.00  0.00    -0.261 A  
HETATM   22  C   UNL     1     -12.938  11.193  71.660  1.00  0.00    -0.548 A  
HETATM   23  C   UNL     1     -13.088  13.483  70.869  1.00  0.00    -0.145 A  
ENDBRANCH  13  18
BRANCH  15  24
HETATM   24  C   UNL     1     -10.418  16.525  68.652  1.00  0.00    -0.304 A  
HETATM   25  C   UNL     1     -11.109  17.403  67.809  1.00  0.00     0.000 A  
HETATM   26  C   UNL     1      -9.062  18.623  67.373  1.00  0.00    -0.290 A  
HETATM   27  C   UNL     1      -8.361  17.742  68.193  1.00  0.00    -0.264 A  
HETATM   28  C   UNL     1     -10.431  18.451  67.176  1.00  0.00    -0.434 A  
HETATM   29  C   UNL     1      -9.036  16.697  68.830  1.00  0.00    -0.256 A  
ENDBRANCH  15  24
ENDBRANCH  10  13
ENDBRANCH   6   7
ENDBRANCH   5   6
ENDBRANCH   4   5
ENDBRANCH   2   4
TORSDOF 7
ENDMDL
MODEL       39
REMARK 921   NORMALIZED FREE ENERGY PREDICTED BY IDOCK:   -5.10 KCAL/MOL
REMARK 922        TOTAL FREE ENERGY PREDICTED BY IDOCK:   -9.26 KCAL/MOL
REMARK 923 INTER-LIGAND FREE ENERGY PREDICTED BY IDOCK:   -8.79 KCAL/MOL
REMARK 924 INTRA-LIGAND FREE ENERGY PREDICTED BY IDOCK:   -0.47 KCAL/MOL
REMARK 927      BINDING AFFINITY PREDICTED BY RF-SCORE:    0.00 PKD
ROOT
HETATM    1  C   UNL     1     -10.449  19.737  66.523  1.00  0.00    -0.500 C  
HETATM    2  N   UNL     1      -9.257  19.917  67.354  1.00  0.00    -0.335 NA 
HETATM    3  C   UNL     1      -9.474  19.291  68.661  1.00  0.00    -0.405 C  
ENDROOT
BRANCH   2   4
HETATM    4  C   UNL     1      -8.054  19.384  66.665  1.00  0.00    -0.295 C  
BRANCH   4   5
HETATM    5  C   UNL     1      -7.911  17.855  66.799  1.00  0.00    -0.232 C  
BRANCH   5   6
HETATM    6  O   UNL     1      -8.729  17.138  65.863  1.00  0.00    -0.526 OA 
BRANCH   6   7
HETATM    7  C   UNL     1      -9.055  15.856  66.255  1.00  0.00    -0.344 A  
HETATM    8  C   UNL     1      -8.341  15.101  67.193  1.00  0.00    -0.247 A  
HETATM    9  C   UNL     1      -8.656  13.759  67.423  1.00  0.00    -0.208 A  
HETATM   10  C   UNL     1      -9.688  13.139  66.716  1.00  0.00    -0.246 A  
HETATM   11  C   UNL     1     -10.480  13.921  65.861  1.00  0.00    -0.309 A  
HETATM   12  C   UNL     1     -10.163  15.272  65.635  1.00  0.00    -0.398 A  
BRANCH  10  13
HETATM   13  C   UNL     1      -9.785  11.645  66.715  1.00  0.00    -0.220 C  
HETATM   14 CL   UNL     1     -10.759   6.783  67.434  1.00  0.00    -0.364 Cl 
HETATM   15  C   UNL     1     -10.462  10.971  67.687  1.00  0.00    -0.239 C  
HETATM   16  C   UNL     1     -10.291   8.416  66.861  1.00  0.00    -0.307 C  
HETATM   17  C   UNL     1     -10.719   9.467  67.878  1.00  0.00    -0.285 C  
BRANCH  13  18
HETATM   18  C   UNL     1      -8.991  10.926  65.672  1.00  0.00    -0.209 A  
HETATM   19  C   UNL     1      -7.643  10.620  65.928  1.00  0.00    -0.138 A  
HETATM   20  C   UNL     1      -6.856   9.972  64.972  1.00  0.00    -0.132 A  
HETATM   21  C   UNL     1      -8.747   9.915  63.477  1.00  0.00    -0.223 A  
HETATM   22  C   UNL     1      -7.415   9.601  63.751  1.00  0.00    -0.122 A  
HETATM   23  C   UNL     1      -9.525  10.597  64.420  1.00  0.00    -0.317 A  
ENDBRANCH  13  18
BRANCH  15  24
HETATM   24  C   UNL     1     -11.048  11.676  68.868  1.00  0.00    -0.287 A  
HETATM   25  C   UNL     1     -11.395  13.030  68.803  1.00  0.00    -0.332 A  
HETATM   26  C   UNL     1     -12.534  12.859  70.934  1.00  0.00    -0.383 A  
HETATM   27  C   UNL     1     -12.175  11.515  71.019  1.00  0.00    -0.368 A  
HETATM   28  C   UNL     1     -12.140  13.616  69.833  1.00  0.00    -0.406 A  
HETATM   29  C   UNL     1     -11.434  10.927  69.991  1.00  0.00    -0.411 A  
ENDBRANCH  15  24
ENDBRANCH  10  13
ENDBRANCH   6   7
ENDBRANCH   5   6
ENDBRANCH   4   5
ENDBRANCH   2   4
TORSDOF 7
ENDMDL
MODEL       40
REMARK 921   NORMALIZED FREE ENERGY PREDICTED BY IDOCK:   -5.09 KCAL/MOL
REMARK 922        TOTAL FREE ENERGY PREDICTED BY IDOCK:   -9.24 KCAL/MOL
REMARK 923 INTER-LIGAND FREE ENERGY PREDICTED BY IDOCK:   -7.30 KCAL/MOL
REMARK 924 INTRA-LIGAND FREE ENERGY PREDICTED BY IDOCK:   -1.95 KCAL/MOL
REMARK 927      BINDING AFFINITY PREDICTED BY RF-SCORE:    0.00 PKD
ROOT
HETATM    1  C   UNL     1     -12.712  15.078  73.341  1.00  0.00    -0.530 C  
HETATM    2  N   UNL     1     -12.412  14.418  72.069  1.00  0.00    -0.317 NA 
HETATM    3  C   UNL     1     -13.200  13.188  71.958  1.00  0.00    -0.446 C  
ENDROOT
BRANCH   2   4
HETATM    4  C   UNL     1     -12.646  15.344  70.931  1.00  0.00    -0.438 C  
BRANCH   4   5
HETATM    5  C   UNL     1     -11.459  15.405  69.950  1.00  0.00    -0.312 C  
BRANCH   5   6
HETATM    6  O   UNL     1     -11.749  14.781  68.690  1.00  0.00    -0.308 OA 
BRANCH   6   7
HETATM    7  C   UNL     1     -11.147  13.553  68.509  1.00  0.00    -0.272 A  
HETATM    8  C   UNL     1      -9.764  13.338  68.479  1.00  0.00    -0.146 A  
HETATM    9  C   UNL     1      -9.240  12.086  68.145  1.00  0.00    -0.195 A  
HETATM   10  C   UNL     1     -10.087  11.022  67.828  1.00  0.00    -0.201 A  
HETATM   11  C   UNL     1     -11.472  11.201  67.969  1.00  0.00    -0.366 A  
HETATM   12  C   UNL     1     -11.995  12.461  68.309  1.00  0.00    -0.270 A  
BRANCH  10  13
HETATM   13  C   UNL     1      -9.524   9.813  67.147  1.00  0.00    -0.189 C  
HETATM   14 CL   UNL     1      -7.962   5.290  65.663  1.00  0.00    -0.103 Cl 
HETATM   15  C   UNL     1      -9.421   8.614  67.786  1.00  0.00    -0.165 C  
HETATM   16  C   UNL     1      -8.497   6.991  65.850  1.00  0.00    -0.147 C  
HETATM   17  C   UNL     1      -8.913   7.249  67.293  1.00  0.00    -0.126 C  
BRANCH  13  18
HETATM   18  C   UNL     1      -8.961  10.020  65.778  1.00  0.00    -0.187 A  
HETATM   19  C   UNL     1      -9.837  10.266  64.706  1.00  0.00    -0.403 A  
HETATM   20  C   UNL     1      -9.355  10.441  63.405  1.00  0.00    -0.334 A  
HETATM   21  C   UNL     1      -7.105  10.130  64.213  1.00  0.00    -0.102 A  
HETATM   22  C   UNL     1      -7.985  10.391  63.163  1.00  0.00    -0.125 A  
HETATM   23  C   UNL     1      -7.589   9.918  65.510  1.00  0.00    -0.125 A  
ENDBRANCH  13  18
BRANCH  15  24
HETATM   24  C   UNL     1      -9.755   8.467  69.236  1.00  0.00    -0.177 A  
HETATM   25  C   UNL     1      -8.921   8.995  70.228  1.00  0.00    -0.221 A  
HETATM   26  C   UNL     1     -10.612   8.561  71.908  1.00  0.00    -0.392 A  
HETATM   27  C   UNL     1     -11.442   8.013  70.931  1.00  0.00    -0.291 A  
HETATM   28  C   UNL     1      -9.352   9.045  71.558  1.00  0.00    -0.294 A  
HETATM   29  C   UNL     1     -11.015   7.966  69.602  1.00  0.00    -0.114 A  
ENDBRANCH  15  24
ENDBRANCH  10  13
ENDBRANCH   6   7
ENDBRANCH   5   6
ENDBRANCH   4   5
ENDBRANCH   2   4
TORSDOF 7
ENDMDL
MODEL       41
REMARK 921   NORMALIZED FREE ENERGY PREDICTED BY IDOCK:   -5.09 KCAL/MOL
REMARK 922        TOTAL FREE ENERGY PREDICTED BY IDOCK:   -9.23 KCAL/MOL
REMARK 923 INTER-LIGAND FREE ENERGY PREDICTED BY IDOCK:   -6.99 KCAL/MOL
REMARK 924 INTRA-LIGAND FREE ENERGY PREDICTED BY IDOCK:   -2.25 KCAL/MOL
REMARK 927      BINDING AFFINITY PREDICTED BY RF-SCORE:    0.00 PKD
ROOT
HETATM    1  C   UNL     1      -8.830  11.440  62.698  1.00  0.00    -0.107 C  
HETATM    2  N   UNL     1      -8.204  10.157  62.374  1.00  0.00    -0.138 NA 
HETATM    3  C   UNL     1      -6.747  10.316  62.348  1.00  0.00    -0.129 C  
ENDROOT
BRANCH   2   4
HETATM    4  C   UNL     1      -8.640   9.106  63.328  1.00  0.00    -0.175 C  
BRANCH   4   5
HETATM    5  C   UNL     1      -7.468   8.466  64.097  1.00  0.00    -0.114 C  
BRANCH   5   6
HETATM    6  O   UNL     1      -7.860   7.300  64.836  1.00  0.00    -0.113 OA 
BRANCH   6   7
HETATM    7  C   UNL     1      -8.524   7.567  66.015  1.00  0.00    -0.148 A  
HETATM    8  C   UNL     1      -9.853   7.215  66.282  1.00  0.00    -0.021 A  
HETATM    9  C   UNL     1     -10.490   7.654  67.445  1.00  0.00    -0.367 A  
HETATM   10  C   UNL     1      -9.817   8.459  68.366  1.00  0.00    -0.192 A  
HETATM   11  C   UNL     1      -8.453   8.718  68.160  1.00  0.00    -0.130 A  
HETATM   12  C   UNL     1      -7.813   8.272  66.991  1.00  0.00    -0.096 A  
BRANCH  10  13
HETATM   13  C   UNL     1     -10.600   9.195  69.409  1.00  0.00    -0.232 C  
HETATM   14 CL   UNL     1     -13.350  12.326  72.191  1.00  0.00    -0.587 Cl 
HETATM   15  C   UNL     1     -11.031  10.472  69.211  1.00  0.00    -0.291 C  
HETATM   16  C   UNL     1     -12.457  10.965  71.439  1.00  0.00    -0.355 C  
HETATM   17  C   UNL     1     -11.861  11.407  70.108  1.00  0.00    -0.440 C  
BRANCH  13  18
HETATM   18  C   UNL     1     -10.767   8.508  70.726  1.00  0.00    -0.254 A  
HETATM   19  C   UNL     1      -9.782   8.675  71.716  1.00  0.00    -0.361 A  
HETATM   20  C   UNL     1      -9.886   8.030  72.952  1.00  0.00    -0.357 A  
HETATM   21  C   UNL     1     -11.965   7.035  72.244  1.00  0.00    -0.250 A  
HETATM   22  C   UNL     1     -10.989   7.225  73.223  1.00  0.00    -0.355 A  
HETATM   23  C   UNL     1     -11.843   7.651  70.991  1.00  0.00    -0.306 A  
ENDBRANCH  13  18
BRANCH  15  24
HETATM   24  C   UNL     1     -10.651  11.249  67.992  1.00  0.00    -0.230 A  
HETATM   25  C   UNL     1     -11.455  11.237  66.846  1.00  0.00    -0.123 A  
HETATM   26  C   UNL     1     -10.152  13.041  65.889  1.00  0.00    -0.291 A  
HETATM   27  C   UNL     1      -9.332  13.047  67.016  1.00  0.00    -0.236 A  
HETATM   28  C   UNL     1     -11.207  12.134  65.801  1.00  0.00    -0.384 A  
HETATM   29  C   UNL     1      -9.580  12.155  68.062  1.00  0.00    -0.204 A  
ENDBRANCH  15  24
ENDBRANCH  10  13
ENDBRANCH   6   7
ENDBRANCH   5   6
ENDBRANCH   4   5
ENDBRANCH   2   4
TORSDOF 7
ENDMDL
MODEL       42
REMARK 921   NORMALIZED FREE ENERGY PREDICTED BY IDOCK:   -5.08 KCAL/MOL
REMARK 922        TOTAL FREE ENERGY PREDICTED BY IDOCK:   -9.22 KCAL/MOL
REMARK 923 INTER-LIGAND FREE ENERGY PREDICTED BY IDOCK:   -7.32 KCAL/MOL
REMARK 924 INTRA-LIGAND FREE ENERGY PREDICTED BY IDOCK:   -1.90 KCAL/MOL
REMARK 927      BINDING AFFINITY PREDICTED BY RF-SCORE:    0.00 PKD
ROOT
HETATM    1  C   UNL     1     -12.264  14.340  64.324  1.00  0.00    -0.423 C  
HETATM    2  N   UNL     1     -12.552  12.945  64.664  1.00  0.00    -0.657 NA 
HETATM    3  C   UNL     1     -12.521  12.129  63.447  1.00  0.00    -0.512 C  
ENDROOT
BRANCH   2   4
HETATM    4  C   UNL     1     -11.607  12.453  65.698  1.00  0.00    -0.392 C  
BRANCH   4   5
HETATM    5  C   UNL     1     -10.410  11.685  65.105  1.00  0.00    -0.279 C  
BRANCH   5   6
HETATM    6  O   UNL     1      -9.379  11.433  66.071  1.00  0.00    -0.207 OA 
BRANCH   6   7
HETATM    7  C   UNL     1      -9.425  10.179  66.643  1.00  0.00    -0.170 A  
HETATM    8  C   UNL     1     -10.474   9.266  66.481  1.00  0.00    -0.204 A  
HETATM    9  C   UNL     1     -10.508   8.076  67.214  1.00  0.00    -0.384 A  
HETATM   10  C   UNL     1      -9.497   7.774  68.129  1.00  0.00    -0.152 A  
HETATM   11  C   UNL     1      -8.387   8.630  68.209  1.00  0.00    -0.127 A  
HETATM   12  C   UNL     1      -8.354   9.824  67.468  1.00  0.00    -0.114 A  
BRANCH  10  13
HETATM   13  C   UNL     1      -9.719   6.691  69.139  1.00  0.00    -0.148 C  
HETATM   14 CL   UNL     1      -9.975   2.505  71.879  1.00  0.00    -0.234 Cl 
HETATM   15  C   UNL     1      -9.435   5.387  68.864  1.00  0.00    -0.174 C  
HETATM   16  C   UNL     1      -9.948   4.166  71.206  1.00  0.00    -0.146 C  
HETATM   17  C   UNL     1      -9.549   4.125  69.735  1.00  0.00    -0.281 C  
BRANCH  13  18
HETATM   18  C   UNL     1     -10.390   7.095  70.412  1.00  0.00    -0.216 A  
HETATM   19  C   UNL     1     -11.775   6.894  70.550  1.00  0.00    -0.401 A  
HETATM   20  C   UNL     1     -12.448   7.280  71.713  1.00  0.00    -0.378 A  
HETATM   21  C   UNL     1     -10.367   8.076  72.635  1.00  0.00    -0.398 A  
HETATM   22  C   UNL     1     -11.738   7.854  72.764  1.00  0.00    -0.338 A  
HETATM   23  C   UNL     1      -9.699   7.724  71.455  1.00  0.00    -0.195 A  
ENDBRANCH  13  18
BRANCH  15  24
HETATM   24  C   UNL     1      -8.996   4.949  67.503  1.00  0.00    -0.114 A  
HETATM   25  C   UNL     1      -7.638   4.836  67.183  1.00  0.00    -0.087 A  
HETATM   26  C   UNL     1      -8.202   3.719  65.109  1.00  0.00    -0.097 A  
HETATM   27  C   UNL     1      -9.557   3.847  65.408  1.00  0.00    -0.185 A  
HETATM   28  C   UNL     1      -7.245   4.218  65.990  1.00  0.00    -0.072 A  
HETATM   29  C   UNL     1      -9.952   4.459  66.599  1.00  0.00    -0.234 A  
ENDBRANCH  15  24
ENDBRANCH  10  13
ENDBRANCH   6   7
ENDBRANCH   5   6
ENDBRANCH   4   5
ENDBRANCH   2   4
TORSDOF 7
ENDMDL
MODEL       43
REMARK 921   NORMALIZED FREE ENERGY PREDICTED BY IDOCK:   -5.00 KCAL/MOL
REMARK 922        TOTAL FREE ENERGY PREDICTED BY IDOCK:   -9.11 KCAL/MOL
REMARK 923 INTER-LIGAND FREE ENERGY PREDICTED BY IDOCK:   -7.42 KCAL/MOL
REMARK 924 INTRA-LIGAND FREE ENERGY PREDICTED BY IDOCK:   -1.69 KCAL/MOL
REMARK 927      BINDING AFFINITY PREDICTED BY RF-SCORE:    0.00 PKD
ROOT
HETATM    1  C   UNL     1      -8.520   4.896  72.312  1.00  0.00    -0.123 C  
HETATM    2  N   UNL     1      -8.134   6.020  71.456  1.00  0.00    -0.113 NA 
HETATM    3  C   UNL     1      -7.012   6.737  72.069  1.00  0.00    -0.074 C  
ENDROOT
BRANCH   2   4
HETATM    4  C   UNL     1      -7.822   5.549  70.083  1.00  0.00    -0.089 C  
BRANCH   4   5
HETATM    5  C   UNL     1      -9.051   5.543  69.154  1.00  0.00    -0.108 C  
BRANCH   5   6
HETATM    6  O   UNL     1      -8.778   6.123  67.870  1.00  0.00    -0.114 OA 
BRANCH   6   7
HETATM    7  C   UNL     1      -9.167   7.440  67.744  1.00  0.00    -0.131 A  
HETATM    8  C   UNL     1      -8.328   8.544  67.937  1.00  0.00    -0.126 A  
HETATM    9  C   UNL     1      -8.840   9.844  67.933  1.00  0.00    -0.129 A  
HETATM   10  C   UNL     1     -10.204  10.071  67.741  1.00  0.00    -0.235 A  
HETATM   11  C   UNL     1     -11.030   8.978  67.432  1.00  0.00     0.040 A  
HETATM   12  C   UNL     1     -10.510   7.672  67.433  1.00  0.00    -0.367 A  
BRANCH  10  13
HETATM   13  C   UNL     1     -10.781  11.410  68.080  1.00  0.00    -0.241 C  
HETATM   14 CL   UNL     1     -12.721  15.547  70.136  1.00  0.00    -0.320 Cl 
HETATM   15  C   UNL     1     -11.283  11.680  69.318  1.00  0.00    -0.328 C  
HETATM   16  C   UNL     1     -11.940  14.283  69.133  1.00  0.00    -0.335 C  
HETATM   17  C   UNL     1     -11.890  12.967  69.901  1.00  0.00    -0.377 C  
BRANCH  13  18
HETATM   18  C   UNL     1     -10.901  12.389  66.957  1.00  0.00    -0.282 A  
HETATM   19  C   UNL     1      -9.835  13.269  66.699  1.00  0.00    -0.276 A  
HETATM   20  C   UNL     1      -9.914  14.218  65.675  1.00  0.00    -0.346 A  
HETATM   21  C   UNL     1     -12.128  13.431  65.137  1.00  0.00    -0.442 A  
HETATM   22  C   UNL     1     -11.056  14.285  64.881  1.00  0.00    -0.396 A  
HETATM   23  C   UNL     1     -12.065  12.505  66.186  1.00  0.00    -0.357 A  
ENDBRANCH  13  18
BRANCH  15  24
HETATM   24  C   UNL     1     -11.391  10.622  70.369  1.00  0.00    -0.389 A  
HETATM   25  C   UNL     1     -12.638  10.171  70.816  1.00  0.00    -0.406 A  
HETATM   26  C   UNL     1     -11.573   8.352  72.009  1.00  0.00    -0.418 A  
HETATM   27  C   UNL     1     -10.325   8.805  71.587  1.00  0.00    -0.391 A  
HETATM   28  C   UNL     1     -12.726   9.036  71.630  1.00  0.00    -0.421 A  
HETATM   29  C   UNL     1     -10.234   9.936  70.772  1.00  0.00    -0.130 A  
ENDBRANCH  15  24
ENDBRANCH  10  13
ENDBRANCH   6   7
ENDBRANCH   5   6
ENDBRANCH   4   5
ENDBRANCH   2   4
TORSDOF 7
ENDMDL
MODEL       44
REMARK 921   NORMALIZED FREE ENERGY PREDICTED BY IDOCK:   -5.00 KCAL/MOL
REMARK 922        TOTAL FREE ENERGY PREDICTED BY IDOCK:   -9.11 KCAL/MOL
REMARK 923 INTER-LIGAND FREE ENERGY PREDICTED BY IDOCK:   -7.16 KCAL/MOL
REMARK 924 INTRA-LIGAND FREE ENERGY PREDICTED BY IDOCK:   -1.94 KCAL/MOL
REMARK 927      BINDING AFFINITY PREDICTED BY RF-SCORE:    0.00 PKD
ROOT
HETATM    1  C   UNL     1      -9.243  17.171  68.153  1.00  0.00    -0.261 C  
HETATM    2  N   UNL     1     -10.059  17.016  66.948  1.00  0.00    -0.289 NA 
HETATM    3  C   UNL     1     -10.316  18.333  66.359  1.00  0.00    -0.400 C  
ENDROOT
BRANCH   2   4
HETATM    4  C   UNL     1      -9.407  16.087  65.991  1.00  0.00    -0.345 C  
BRANCH   4   5
HETATM    5  C   UNL     1     -10.261  14.842  65.683  1.00  0.00    -0.358 C  
BRANCH   5   6
HETATM    6  O   UNL     1     -11.147  14.497  66.759  1.00  0.00    -0.309 OA 
BRANCH   6   7
HETATM    7  C   UNL     1     -10.760  13.388  67.483  1.00  0.00    -0.254 A  
HETATM    8  C   UNL     1      -9.456  13.137  67.925  1.00  0.00    -0.218 A  
HETATM    9  C   UNL     1      -9.124  11.920  68.525  1.00  0.00    -0.123 A  
HETATM   10  C   UNL     1     -10.087  10.923  68.693  1.00  0.00    -0.200 A  
HETATM   11  C   UNL     1     -11.419  11.213  68.358  1.00  0.00    -0.377 A  
HETATM   12  C   UNL     1     -11.750  12.440  67.757  1.00  0.00    -0.413 A  
BRANCH  10  13
HETATM   13  C   UNL     1      -9.651   9.526  69.009  1.00  0.00    -0.166 C  
HETATM   14 CL   UNL     1      -7.707   4.913  69.217  1.00  0.00    -0.074 Cl 
HETATM   15  C   UNL     1      -8.990   8.759  68.098  1.00  0.00    -0.141 C  
HETATM   16  C   UNL     1      -8.446   6.523  69.492  1.00  0.00    -0.131 C  
HETATM   17  C   UNL     1      -8.426   7.332  68.200  1.00  0.00    -0.123 C  
BRANCH  13  18
HETATM   18  C   UNL     1     -10.095   8.970  70.324  1.00  0.00    -0.232 A  
HETATM   19  C   UNL     1      -9.224   9.037  71.425  1.00  0.00    -0.293 A  
HETATM   20  C   UNL     1      -9.587   8.507  72.667  1.00  0.00    -0.294 A  
HETATM   21  C   UNL     1     -11.707   7.829  71.740  1.00  0.00    -0.323 A  
HETATM   22  C   UNL     1     -10.840   7.920  72.828  1.00  0.00    -0.451 A  
HETATM   23  C   UNL     1     -11.329   8.327  70.486  1.00  0.00    -0.225 A  
ENDBRANCH  13  18
BRANCH  15  24
HETATM   24  C   UNL     1      -8.764   9.226  66.695  1.00  0.00    -0.139 A  
HETATM   25  C   UNL     1      -9.837   9.447  65.825  1.00  0.00    -0.345 A  
HETATM   26  C   UNL     1      -8.351  10.508  64.233  1.00  0.00    -0.092 A  
HETATM   27  C   UNL     1      -7.272  10.273  65.082  1.00  0.00    -0.125 A  
HETATM   28  C   UNL     1      -9.630  10.090  64.599  1.00  0.00    -0.363 A  
HETATM   29  C   UNL     1      -7.478   9.635  66.308  1.00  0.00    -0.098 A  
ENDBRANCH  15  24
ENDBRANCH  10  13
ENDBRANCH   6   7
ENDBRANCH   5   6
ENDBRANCH   4   5
ENDBRANCH   2   4
TORSDOF 7
ENDMDL
MODEL       45
REMARK 921   NORMALIZED FREE ENERGY PREDICTED BY IDOCK:   -4.99 KCAL/MOL
REMARK 922        TOTAL FREE ENERGY PREDICTED BY IDOCK:   -9.10 KCAL/MOL
REMARK 923 INTER-LIGAND FREE ENERGY PREDICTED BY IDOCK:   -7.16 KCAL/MOL
REMARK 924 INTRA-LIGAND FREE ENERGY PREDICTED BY IDOCK:   -1.94 KCAL/MOL
REMARK 927      BINDING AFFINITY PREDICTED BY RF-SCORE:    0.00 PKD
ROOT
HETATM    1  C   UNL     1     -13.061   9.868  71.862  1.00  0.00    -0.459 C  
HETATM    2  N   UNL     1     -12.496  11.139  71.404  1.00  0.00    -0.340 NA 
HETATM    3  C   UNL     1     -12.233  11.066  69.965  1.00  0.00    -0.343 C  
ENDROOT
BRANCH   2   4
HETATM    4  C   UNL     1     -13.395  12.268  71.758  1.00  0.00    -0.254 C  
BRANCH   4   5
HETATM    5  C   UNL     1     -12.721  13.645  71.604  1.00  0.00    -0.305 C  
BRANCH   5   6
HETATM    6  O   UNL     1     -12.872  14.193  70.286  1.00  0.00    -0.297 OA 
BRANCH   6   7
HETATM    7  C   UNL     1     -11.844  15.023  69.891  1.00  0.00    -0.324 A  
HETATM    8  C   UNL     1     -12.010  16.224  69.192  1.00  0.00     0.051 A  
HETATM    9  C   UNL     1     -10.906  16.929  68.704  1.00  0.00    -0.314 A  
HETATM   10  C   UNL     1      -9.611  16.446  68.899  1.00  0.00    -0.252 A  
HETATM   11  C   UNL     1      -9.432  15.306  69.698  1.00  0.00    -0.171 A  
HETATM   12  C   UNL     1     -10.545  14.601  70.190  1.00  0.00     0.101 A  
BRANCH  10  13
HETATM   13  C   UNL     1      -8.486  17.011  68.089  1.00  0.00    -0.227 C  
HETATM   14 CL   UNL     1      -5.237  18.574  64.610  1.00  0.00    -0.187 Cl 
HETATM   15  C   UNL     1      -8.377  16.774  66.752  1.00  0.00    -0.272 C  
HETATM   16  C   UNL     1      -6.238  18.252  66.062  1.00  0.00    -0.223 C  
HETATM   17  C   UNL     1      -7.345  17.262  65.721  1.00  0.00     0.158 C  
BRANCH  13  18
HETATM   18  C   UNL     1      -7.418  17.736  68.844  1.00  0.00    -0.235 A  
HETATM   19  C   UNL     1      -7.507  19.132  68.987  1.00  0.00    -0.353 A  
HETATM   20  C   UNL     1      -6.518  19.852  69.663  1.00  0.00    -0.388 A  
HETATM   21  C   UNL     1      -5.323  17.799  70.073  1.00  0.00    -0.224 A  
HETATM   22  C   UNL     1      -5.434  19.181  70.224  1.00  0.00    -0.242 A  
HETATM   23  C   UNL     1      -6.294  17.081  69.364  1.00  0.00    -0.236 A  
ENDBRANCH  13  18
BRANCH  15  24
HETATM   24  C   UNL     1      -9.308  15.844  66.042  1.00  0.00    -0.385 A  
HETATM   25  C   UNL     1      -9.251  14.462  66.253  1.00  0.00    -0.202 A  
HETATM   26  C   UNL     1     -11.330  14.172  65.044  1.00  0.00    -0.350 A  
HETATM   27  C   UNL     1     -11.386  15.544  64.809  1.00  0.00    -0.362 A  
HETATM   28  C   UNL     1     -10.262  13.631  65.759  1.00  0.00    -0.317 A  
HETATM   29  C   UNL     1     -10.379  16.376  65.305  1.00  0.00    -0.209 A  
ENDBRANCH  15  24
ENDBRANCH  10  13
ENDBRANCH   6   7
ENDBRANCH   5   6
ENDBRANCH   4   5
ENDBRANCH   2   4
TORSDOF 7
ENDMDL
MODEL       46
REMARK 921   NORMALIZED FREE ENERGY PREDICTED BY IDOCK:   -4.94 KCAL/MOL
REMARK 922        TOTAL FREE ENERGY PREDICTED BY IDOCK:   -9.03 KCAL/MOL
REMARK 923 INTER-LIGAND FREE ENERGY PREDICTED BY IDOCK:   -6.97 KCAL/MOL
REMARK 924 INTRA-LIGAND FREE ENERGY PREDICTED BY IDOCK:   -2.06 KCAL/MOL
REMARK 927      BINDING AFFINITY PREDICTED BY RF-SCORE:    0.00 PKD
ROOT
HETATM    1  C   UNL     1      -6.106   3.643  63.241  1.00  0.00    -0.014 C  
HETATM    2  N   UNL     1      -7.394   3.855  63.903  1.00  0.00    -0.054 NA 
HETATM    3  C   UNL     1      -8.290   2.737  63.598  1.00  0.00    -0.086 C  
ENDROOT
BRANCH   2   4
HETATM    4  C   UNL     1      -7.206   4.047  65.364  1.00  0.00    -0.068 C  
BRANCH   4   5
HETATM    5  C   UNL     1      -8.161   5.100  65.961  1.00  0.00    -0.109 C  
BRANCH   5   6
HETATM    6  O   UNL     1      -7.651   6.437  65.849  1.00  0.00    -0.080 OA 
BRANCH   6   7
HETATM    7  C   UNL     1      -8.336   7.373  66.596  1.00  0.00    -0.124 A  
HETATM    8  C   UNL     1      -7.742   8.272  67.490  1.00  0.00    -0.099 A  
HETATM    9  C   UNL     1      -8.524   9.086  68.313  1.00  0.00    -0.129 A  
HETATM   10  C   UNL     1      -9.918   9.018  68.266  1.00  0.00    -0.198 A  
HETATM   11  C   UNL     1     -10.517   8.204  67.291  1.00  0.00    -0.379 A  
HETATM   12  C   UNL     1      -9.727   7.388  66.462  1.00  0.00    -0.225 A  
BRANCH  10  13
HETATM   13  C   UNL     1     -10.722   9.625  69.373  1.00  0.00    -0.248 C  
HETATM   14 CL   UNL     1     -13.583  12.376  72.430  1.00  0.00    -0.457 Cl 
HETATM   15  C   UNL     1     -11.214  10.893  69.288  1.00  0.00    -0.327 C  
HETATM   16  C   UNL     1     -12.638  11.127  71.558  1.00  0.00    -0.325 C  
HETATM   17  C   UNL     1     -12.076  11.708  70.266  1.00  0.00    -0.443 C  
BRANCH  13  18
HETATM   18  C   UNL     1     -10.844   8.821  70.627  1.00  0.00    -0.273 A  
HETATM   19  C   UNL     1      -9.929   9.038  71.672  1.00  0.00    -0.383 A  
HETATM   20  C   UNL     1      -9.990   8.291  72.852  1.00  0.00    -0.296 A  
HETATM   21  C   UNL     1     -11.888   7.090  71.975  1.00  0.00    -0.336 A  
HETATM   22  C   UNL     1     -10.984   7.329  73.011  1.00  0.00    -0.388 A  
HETATM   23  C   UNL     1     -11.804   7.812  70.778  1.00  0.00    -0.205 A  
ENDBRANCH  13  18
BRANCH  15  24
HETATM   24  C   UNL     1     -10.882  11.788  68.137  1.00  0.00    -0.258 A  
HETATM   25  C   UNL     1     -11.774  11.958  67.072  1.00  0.00    -0.304 A  
HETATM   26  C   UNL     1     -10.436  13.788  66.219  1.00  0.00    -0.291 A  
HETATM   27  C   UNL     1      -9.530  13.613  67.263  1.00  0.00    -0.230 A  
HETATM   28  C   UNL     1     -11.552  12.959  66.119  1.00  0.00    -0.423 A  
HETATM   29  C   UNL     1      -9.751  12.617  68.217  1.00  0.00    -0.216 A  
ENDBRANCH  15  24
ENDBRANCH  10  13
ENDBRANCH   6   7
ENDBRANCH   5   6
ENDBRANCH   4   5
ENDBRANCH   2   4
TORSDOF 7
ENDMDL
MODEL       47
REMARK 921   NORMALIZED FREE ENERGY PREDICTED BY IDOCK:   -4.94 KCAL/MOL
REMARK 922        TOTAL FREE ENERGY PREDICTED BY IDOCK:   -9.02 KCAL/MOL
REMARK 923 INTER-LIGAND FREE ENERGY PREDICTED BY IDOCK:   -7.44 KCAL/MOL
REMARK 924 INTRA-LIGAND FREE ENERGY PREDICTED BY IDOCK:   -1.58 KCAL/MOL
REMARK 927      BINDING AFFINITY PREDICTED BY RF-SCORE:    0.00 PKD
ROOT
HETATM    1  C   UNL     1     -10.715   7.642  73.048  1.00  0.00    -0.391 C  
HETATM    2  N   UNL     1     -11.692   6.789  72.368  1.00  0.00    -0.251 NA 
HETATM    3  C   UNL     1     -12.675   7.628  71.677  1.00  0.00    -0.343 C  
ENDROOT
BRANCH   2   4
HETATM    4  C   UNL     1     -11.010   5.843  71.448  1.00  0.00    -0.263 C  
BRANCH   4   5
HETATM    5  C   UNL     1     -10.824   6.412  70.028  1.00  0.00    -0.307 C  
BRANCH   5   6
HETATM    6  O   UNL     1      -9.524   6.985  69.826  1.00  0.00    -0.147 OA 
BRANCH   6   7
HETATM    7  C   UNL     1      -9.515   8.121  69.044  1.00  0.00    -0.155 A  
HETATM    8  C   UNL     1      -8.668   9.219  69.238  1.00  0.00    -0.141 A  
HETATM    9  C   UNL     1      -8.827  10.388  68.490  1.00  0.00    -0.142 A  
HETATM   10  C   UNL     1      -9.840  10.490  67.534  1.00  0.00    -0.196 A  
HETATM   11  C   UNL     1     -10.616   9.354  67.255  1.00  0.00    -0.314 A  
HETATM   12  C   UNL     1     -10.451   8.178  68.007  1.00  0.00    -0.242 A  
BRANCH  10  13
HETATM   13  C   UNL     1     -10.214  11.838  67.000  1.00  0.00    -0.240 C  
HETATM   14 CL   UNL     1     -11.341  15.927  64.334  1.00  0.00    -0.383 Cl 
HETATM   15  C   UNL     1     -10.094  12.142  65.677  1.00  0.00    -0.274 C  
HETATM   16  C   UNL     1     -11.111  14.629  65.549  1.00  0.00    -0.345 C  
HETATM   17  C   UNL     1     -10.436  13.425  64.902  1.00  0.00    -0.404 C  
BRANCH  13  18
HETATM   18  C   UNL     1     -10.599  12.872  68.009  1.00  0.00    -0.238 A  
HETATM   19  C   UNL     1     -11.865  12.800  68.614  1.00  0.00    -0.341 A  
HETATM   20  C   UNL     1     -12.277  13.760  69.544  1.00  0.00    -0.344 A  
HETATM   21  C   UNL     1     -10.162  14.891  69.288  1.00  0.00    -0.219 A  
HETATM   22  C   UNL     1     -11.415  14.796  69.895  1.00  0.00    -0.322 A  
HETATM   23  C   UNL     1      -9.764  13.950  68.329  1.00  0.00    -0.223 A  
ENDBRANCH  13  18
BRANCH  15  24
HETATM   24  C   UNL     1      -9.475  11.188  64.706  1.00  0.00    -0.250 A  
HETATM   25  C   UNL     1     -10.099  10.888  63.489  1.00  0.00    -0.406 A  
HETATM   26  C   UNL     1      -8.102   9.750  62.725  1.00  0.00    -0.133 A  
HETATM   27  C   UNL     1      -7.479  10.024  63.941  1.00  0.00    -0.134 A  
HETATM   28  C   UNL     1      -9.410  10.175  62.502  1.00  0.00    -0.313 A  
HETATM   29  C   UNL     1      -8.163  10.740  64.927  1.00  0.00     0.022 A  
ENDBRANCH  15  24
ENDBRANCH  10  13
ENDBRANCH   6   7
ENDBRANCH   5   6
ENDBRANCH   4   5
ENDBRANCH   2   4
TORSDOF 7
ENDMDL
MODEL       48
REMARK 921   NORMALIZED FREE ENERGY PREDICTED BY IDOCK:   -4.93 KCAL/MOL
REMARK 922        TOTAL FREE ENERGY PREDICTED BY IDOCK:   -9.01 KCAL/MOL
REMARK 923 INTER-LIGAND FREE ENERGY PREDICTED BY IDOCK:   -8.38 KCAL/MOL
REMARK 924 INTRA-LIGAND FREE ENERGY PREDICTED BY IDOCK:   -0.63 KCAL/MOL
REMARK 927      BINDING AFFINITY PREDICTED BY RF-SCORE:    0.00 PKD
ROOT
HETATM    1  C   UNL     1     -10.309  18.721  68.572  1.00  0.00    -0.259 C  
HETATM    2  N   UNL     1     -10.001  18.997  67.168  1.00  0.00    -0.322 NA 
HETATM    3  C   UNL     1      -9.825  20.439  66.981  1.00  0.00    -0.453 C  
ENDROOT
BRANCH   2   4
HETATM    4  C   UNL     1      -8.812  18.221  66.731  1.00  0.00    -0.276 C  
BRANCH   4   5
HETATM    5  C   UNL     1      -9.180  16.915  66.000  1.00  0.00    -0.170 C  
BRANCH   5   6
HETATM    6  O   UNL     1     -10.538  16.514  66.230  1.00  0.00    -0.294 OA 
BRANCH   6   7
HETATM    7  C   UNL     1     -10.683  15.219  66.681  1.00  0.00    -0.309 A  
HETATM    8  C   UNL     1     -11.895  14.520  66.732  1.00  0.00    -0.390 A  
HETATM    9  C   UNL     1     -11.974  13.264  67.339  1.00  0.00    -0.383 A  
HETATM   10  C   UNL     1     -10.844  12.680  67.915  1.00  0.00    -0.244 A  
HETATM   11  C   UNL     1      -9.606  13.323  67.766  1.00  0.00    -0.214 A  
HETATM   12  C   UNL     1      -9.529  14.585  67.151  1.00  0.00    -0.236 A  
BRANCH  10  13
HETATM   13  C   UNL     1     -11.012  11.521  68.849  1.00  0.00    -0.279 C  
HETATM   14 CL   UNL     1     -12.168   8.251  72.465  1.00  0.00    -0.413 Cl 
HETATM   15  C   UNL     1     -11.658  11.651  70.042  1.00  0.00    -0.338 C  
HETATM   16  C   UNL     1     -11.660   9.133  70.989  1.00  0.00    -0.306 C  
HETATM   17  C   UNL     1     -11.973  10.617  71.135  1.00  0.00    -0.401 C  
BRANCH  13  18
HETATM   18  C   UNL     1     -10.320  10.252  68.469  1.00  0.00    -0.200 A  
HETATM   19  C   UNL     1      -9.130   9.896  69.128  1.00  0.00    -0.175 A  
HETATM   20  C   UNL     1      -8.436   8.731  68.787  1.00  0.00    -0.129 A  
HETATM   21  C   UNL     1     -10.105   8.246  67.115  1.00  0.00    -0.334 A  
HETATM   22  C   UNL     1      -8.936   7.895  67.791  1.00  0.00    -0.128 A  
HETATM   23  C   UNL     1     -10.781   9.431  67.432  1.00  0.00    -0.280 A  
ENDBRANCH  13  18
BRANCH  15  24
HETATM   24  C   UNL     1     -12.134  12.980  70.536  1.00  0.00    -0.373 A  
HETATM   25  C   UNL     1     -11.434  14.155  70.239  1.00  0.00    -0.193 A  
HETATM   26  C   UNL     1     -13.268  15.485  71.096  1.00  0.00    -0.576 A  
HETATM   27  C   UNL     1     -13.964  14.321  71.417  1.00  0.00    -0.343 A  
HETATM   28  C   UNL     1     -12.004  15.403  70.515  1.00  0.00    -0.394 A  
HETATM   29  C   UNL     1     -13.399  13.074  71.138  1.00  0.00     0.029 A  
ENDBRANCH  15  24
ENDBRANCH  10  13
ENDBRANCH   6   7
ENDBRANCH   5   6
ENDBRANCH   4   5
ENDBRANCH   2   4
TORSDOF 7
ENDMDL
MODEL       49
REMARK 921   NORMALIZED FREE ENERGY PREDICTED BY IDOCK:   -4.93 KCAL/MOL
REMARK 922        TOTAL FREE ENERGY PREDICTED BY IDOCK:   -9.01 KCAL/MOL
REMARK 923 INTER-LIGAND FREE ENERGY PREDICTED BY IDOCK:   -6.98 KCAL/MOL
REMARK 924 INTRA-LIGAND FREE ENERGY PREDICTED BY IDOCK:   -2.03 KCAL/MOL
REMARK 927      BINDING AFFINITY PREDICTED BY RF-SCORE:    0.00 PKD
ROOT
HETATM    1  C   UNL     1     -12.269  14.303  64.423  1.00  0.00    -0.447 C  
HETATM    2  N   UNL     1     -12.597  12.928  64.805  1.00  0.00    -0.649 NA 
HETATM    3  C   UNL     1     -12.167  12.011  63.746  1.00  0.00    -0.498 C  
ENDROOT
BRANCH   2   4
HETATM    4  C   UNL     1     -11.995  12.594  66.121  1.00  0.00    -0.395 C  
BRANCH   4   5
HETATM    5  C   UNL     1     -10.847  11.571  66.016  1.00  0.00    -0.276 C  
BRANCH   5   6
HETATM    6  O   UNL     1     -10.304  11.214  67.296  1.00  0.00    -0.193 OA 
BRANCH   6   7
HETATM    7  C   UNL     1      -9.986   9.878  67.429  1.00  0.00    -0.189 A  
HETATM    8  C   UNL     1     -10.769   8.819  66.955  1.00  0.00    -0.186 A  
HETATM    9  C   UNL     1     -10.445   7.495  67.261  1.00  0.00    -0.391 A  
HETATM   10  C   UNL     1      -9.333   7.198  68.052  1.00  0.00    -0.129 A  
HETATM   11  C   UNL     1      -8.480   8.247  68.431  1.00  0.00    -0.129 A  
HETATM   12  C   UNL     1      -8.808   9.578  68.119  1.00  0.00    -0.124 A  
BRANCH  10  13
HETATM   13  C   UNL     1      -9.199   5.833  68.651  1.00  0.00    -0.125 C  
HETATM   14 CL   UNL     1      -9.410   1.589  71.306  1.00  0.00    -0.155 Cl 
HETATM   15  C   UNL     1      -9.757   5.521  69.854  1.00  0.00    -0.233 C  
HETATM   16  C   UNL     1      -9.203   2.900  70.101  1.00  0.00    -0.137 C  
HETATM   17  C   UNL     1      -9.779   4.202  70.644  1.00  0.00    -0.273 C  
BRANCH  13  18
HETATM   18  C   UNL     1      -8.313   4.871  67.927  1.00  0.00    -0.103 A  
HETATM   19  C   UNL     1      -6.947   4.817  68.257  1.00  0.00    -0.057 A  
HETATM   20  C   UNL     1      -6.077   3.951  67.588  1.00  0.00    -0.032 A  
HETATM   21  C   UNL     1      -7.917   3.167  66.241  1.00  0.00    -0.081 A  
HETATM   22  C   UNL     1      -6.568   3.111  66.591  1.00  0.00    -0.037 A  
HETATM   23  C   UNL     1      -8.782   4.061  66.885  1.00  0.00    -0.118 A  
ENDBRANCH  13  18
BRANCH  15  24
HETATM   24  C   UNL     1     -10.434   6.555  70.696  1.00  0.00    -0.257 A  
HETATM   25  C   UNL     1      -9.694   7.504  71.411  1.00  0.00    -0.180 A  
HETATM   26  C   UNL     1     -11.720   8.735  71.910  1.00  0.00    -0.429 A  
HETATM   27  C   UNL     1     -12.469   7.784  71.219  1.00  0.00    -0.301 A  
HETATM   28  C   UNL     1     -10.337   8.592  72.012  1.00  0.00    -0.416 A  
HETATM   29  C   UNL     1     -11.829   6.699  70.616  1.00  0.00    -0.443 A  
ENDBRANCH  15  24
ENDBRANCH  10  13
ENDBRANCH   6   7
ENDBRANCH   5   6
ENDBRANCH   4   5
ENDBRANCH   2   4
TORSDOF 7
ENDMDL
MODEL       50
REMARK 921   NORMALIZED FREE ENERGY PREDICTED BY IDOCK:   -4.89 KCAL/MOL
REMARK 922        TOTAL FREE ENERGY PREDICTED BY IDOCK:   -8.96 KCAL/MOL
REMARK 923 INTER-LIGAND FREE ENERGY PREDICTED BY IDOCK:   -7.22 KCAL/MOL
REMARK 924 INTRA-LIGAND FREE ENERGY PREDICTED BY IDOCK:   -1.73 KCAL/MOL
REMARK 927      BINDING AFFINITY PREDICTED BY RF-SCORE:    0.00 PKD
ROOT
HETATM    1  C   UNL     1     -10.780   7.873  69.919  1.00  0.00    -0.244 C  
HETATM    2  N   UNL     1     -10.069   6.893  69.096  1.00  0.00    -0.169 NA 
HETATM    3  C   UNL     1     -11.023   6.209  68.219  1.00  0.00    -0.308 C  
ENDROOT
BRANCH   2   4
HETATM    4  C   UNL     1      -8.971   7.544  68.338  1.00  0.00    -0.128 C  
BRANCH   4   5
HETATM    5  C   UNL     1      -9.231   9.039  68.065  1.00  0.00    -0.135 C  
BRANCH   5   6
HETATM    6  O   UNL     1      -8.020   9.786  67.873  1.00  0.00    -0.103 OA 
BRANCH   6   7
HETATM    7  C   UNL     1      -8.181  11.155  67.919  1.00  0.00    -0.121 A  
HETATM    8  C   UNL     1      -9.296  11.811  68.454  1.00  0.00    -0.185 A  
HETATM    9  C   UNL     1      -9.442  13.195  68.327  1.00  0.00    -0.210 A  
HETATM   10  C   UNL     1      -8.481  13.954  67.657  1.00  0.00    -0.193 A  
HETATM   11  C   UNL     1      -7.308  13.319  67.221  1.00  0.00    -0.050 A  
HETATM   12  C   UNL     1      -7.162  11.926  67.354  1.00  0.00    -0.142 A  
BRANCH  10  13
HETATM   13  C   UNL     1      -8.812  15.351  67.231  1.00  0.00    -0.212 C  
HETATM   14 CL   UNL     1     -10.754  19.622  65.473  1.00  0.00    -0.483 Cl 
HETATM   15  C   UNL     1      -9.888  15.621  66.440  1.00  0.00    -0.295 C  
HETATM   16  C   UNL     1      -9.855  18.308  66.297  1.00  0.00    -0.321 C  
HETATM   17  C   UNL     1     -10.437  16.954  65.906  1.00  0.00    -0.294 C  
BRANCH  13  18
HETATM   18  C   UNL     1      -7.830  16.414  67.607  1.00  0.00    -0.160 A  
HETATM   19  C   UNL     1      -6.855  16.806  66.673  1.00  0.00    -0.255 A  
HETATM   20  C   UNL     1      -5.902  17.778  66.990  1.00  0.00    -0.170 A  
HETATM   21  C   UNL     1      -6.874  17.993  69.186  1.00  0.00    -0.226 A  
HETATM   22  C   UNL     1      -5.924  18.386  68.243  1.00  0.00    -0.186 A  
HETATM   23  C   UNL     1      -7.807  16.993  68.882  1.00  0.00    -0.224 A  
ENDBRANCH  13  18
BRANCH  15  24
HETATM   24  C   UNL     1     -10.729  14.530  65.859  1.00  0.00    -0.308 A  
HETATM   25  C   UNL     1     -12.063  14.361  66.246  1.00  0.00    -0.384 A  
HETATM   26  C   UNL     1     -12.402  12.770  64.452  1.00  0.00    -0.498 A  
HETATM   27  C   UNL     1     -11.069  12.914  64.071  1.00  0.00    -0.455 A  
HETATM   28  C   UNL     1     -12.897  13.486  65.540  1.00  0.00    -0.406 A  
HETATM   29  C   UNL     1     -10.237  13.789  64.773  1.00  0.00    -0.362 A  
ENDBRANCH  15  24
ENDBRANCH  10  13
ENDBRANCH   6   7
ENDBRANCH   5   6
ENDBRANCH   4   5
ENDBRANCH   2   4
TORSDOF 7
ENDMDL
MODEL       51
REMARK 921   NORMALIZED FREE ENERGY PREDICTED BY IDOCK:   -4.88 KCAL/MOL
REMARK 922        TOTAL FREE ENERGY PREDICTED BY IDOCK:   -8.94 KCAL/MOL
REMARK 923 INTER-LIGAND FREE ENERGY PREDICTED BY IDOCK:   -7.13 KCAL/MOL
REMARK 924 INTRA-LIGAND FREE ENERGY PREDICTED BY IDOCK:   -1.82 KCAL/MOL
REMARK 927      BINDING AFFINITY PREDICTED BY RF-SCORE:    0.00 PKD
ROOT
HETATM    1  C   UNL     1     -11.628   9.677  71.533  1.00  0.00    -0.381 C  
HETATM    2  N   UNL     1     -10.733   8.566  71.863  1.00  0.00    -0.297 NA 
HETATM    3  C   UNL     1     -11.447   7.593  72.692  1.00  0.00    -0.349 C  
ENDROOT
BRANCH   2   4
HETATM    4  C   UNL     1     -10.179   7.957  70.627  1.00  0.00    -0.196 C  
BRANCH   4   5
HETATM    5  C   UNL     1      -8.930   8.691  70.101  1.00  0.00    -0.154 C  
BRANCH   5   6
HETATM    6  O   UNL     1      -8.830   8.659  68.669  1.00  0.00    -0.140 OA 
BRANCH   6   7
HETATM    7  C   UNL     1      -8.978   9.886  68.058  1.00  0.00    -0.121 A  
HETATM    8  C   UNL     1      -7.961  10.572  67.384  1.00  0.00    -0.110 A  
HETATM    9  C   UNL     1      -8.160  11.875  66.921  1.00  0.00    -0.146 A  
HETATM   10  C   UNL     1      -9.378  12.526  67.127  1.00  0.00    -0.201 A  
HETATM   11  C   UNL     1     -10.437  11.803  67.699  1.00  0.00    -0.223 A  
HETATM   12  C   UNL     1     -10.235  10.490  68.160  1.00  0.00    -0.187 A  
BRANCH  10  13
HETATM   13  C   UNL     1      -9.460  14.010  66.943  1.00  0.00    -0.271 C  
HETATM   14 CL   UNL     1     -10.503  18.765  65.757  1.00  0.00    -0.422 Cl 
HETATM   15  C   UNL     1     -10.293  14.572  66.024  1.00  0.00    -0.320 C  
HETATM   16  C   UNL     1      -9.955  17.206  66.454  1.00  0.00    -0.306 C  
HETATM   17  C   UNL     1     -10.567  16.046  65.679  1.00  0.00    -0.392 C  
BRANCH  13  18
HETATM   18  C   UNL     1      -8.486  14.833  67.723  1.00  0.00    -0.169 A  
HETATM   19  C   UNL     1      -8.775  15.150  69.062  1.00  0.00    -0.215 A  
HETATM   20  C   UNL     1      -7.905  15.939  69.821  1.00  0.00     0.184 A  
HETATM   21  C   UNL     1      -6.430  16.113  67.922  1.00  0.00    -0.158 A  
HETATM   22  C   UNL     1      -6.722  16.404  69.255  1.00  0.00    -0.215 A  
HETATM   23  C   UNL     1      -7.319  15.354  67.150  1.00  0.00    -0.203 A  
ENDBRANCH  13  18
BRANCH  15  24
HETATM   24  C   UNL     1     -11.087  13.738  65.070  1.00  0.00    -0.348 A  
HETATM   25  C   UNL     1     -10.457  12.968  64.086  1.00  0.00    -0.395 A  
HETATM   26  C   UNL     1     -12.552  11.859  63.586  1.00  0.00    -0.555 A  
HETATM   27  C   UNL     1     -13.194  12.637  64.548  1.00  0.00     0.173 A  
HETATM   28  C   UNL     1     -11.189  12.028  63.350  1.00  0.00    -0.481 A  
HETATM   29  C   UNL     1     -12.464  13.572  65.286  1.00  0.00    -0.525 A  
ENDBRANCH  15  24
ENDBRANCH  10  13
ENDBRANCH   6   7
ENDBRANCH   5   6
ENDBRANCH   4   5
ENDBRANCH   2   4
TORSDOF 7
ENDMDL
MODEL       52
REMARK 921   NORMALIZED FREE ENERGY PREDICTED BY IDOCK:   -4.86 KCAL/MOL
REMARK 922        TOTAL FREE ENERGY PREDICTED BY IDOCK:   -8.91 KCAL/MOL
REMARK 923 INTER-LIGAND FREE ENERGY PREDICTED BY IDOCK:   -7.91 KCAL/MOL
REMARK 924 INTRA-LIGAND FREE ENERGY PREDICTED BY IDOCK:   -1.00 KCAL/MOL
REMARK 927      BINDING AFFINITY PREDICTED BY RF-SCORE:    0.00 PKD
ROOT
HETATM    1  C   UNL     1      -9.792   4.697  72.775  1.00  0.00    -0.143 C  
HETATM    2  N   UNL     1      -9.208   5.063  71.482  1.00  0.00    -0.143 NA 
HETATM    3  C   UNL     1      -9.932   4.377  70.409  1.00  0.00    -0.183 C  
ENDROOT
BRANCH   2   4
HETATM    4  C   UNL     1      -9.203   6.537  71.309  1.00  0.00    -0.155 C  
BRANCH   4   5
HETATM    5  C   UNL     1     -10.361   7.044  70.427  1.00  0.00    -0.202 C  
BRANCH   5   6
HETATM    6  O   UNL     1     -11.194   8.000  71.100  1.00  0.00    -0.251 OA 
BRANCH   6   7
HETATM    7  C   UNL     1     -11.198   9.256  70.530  1.00  0.00    -0.265 A  
HETATM    8  C   UNL     1     -12.347  10.009  70.263  1.00  0.00    -0.141 A  
HETATM    9  C   UNL     1     -12.269  11.208  69.551  1.00  0.00    -0.347 A  
HETATM   10  C   UNL     1     -11.041  11.681  69.084  1.00  0.00    -0.302 A  
HETATM   11  C   UNL     1      -9.874  10.991  69.449  1.00  0.00     0.021 A  
HETATM   12  C   UNL     1      -9.956   9.786  70.169  1.00  0.00    -0.315 A  
BRANCH  10  13
HETATM   13  C   UNL     1     -11.014  12.759  68.046  1.00  0.00    -0.266 C  
HETATM   14 CL   UNL     1     -10.966  16.975  65.340  1.00  0.00    -0.125 Cl 
HETATM   15  C   UNL     1     -11.236  14.065  68.364  1.00  0.00    -0.292 C  
HETATM   16  C   UNL     1     -10.849  15.319  66.016  1.00  0.00    -0.330 C  
HETATM   17  C   UNL     1     -11.231  15.331  67.491  1.00  0.00    -0.317 C  
BRANCH  13  18
HETATM   18  C   UNL     1     -10.864  12.314  66.626  1.00  0.00    -0.296 A  
HETATM   19  C   UNL     1     -11.983  12.348  65.776  1.00  0.00    -0.437 A  
HETATM   20  C   UNL     1     -11.894  11.917  64.449  1.00  0.00    -0.336 A  
HETATM   21  C   UNL     1      -9.561  11.409  64.786  1.00  0.00    -0.239 A  
HETATM   22  C   UNL     1     -10.675  11.465  63.949  1.00  0.00    -0.462 A  
HETATM   23  C   UNL     1      -9.658  11.805  66.126  1.00  0.00    -0.250 A  
ENDBRANCH  13  18
BRANCH  15  24
HETATM   24  C   UNL     1     -11.632  14.480  69.745  1.00  0.00    -0.345 A  
HETATM   25  C   UNL     1     -10.844  15.366  70.488  1.00  0.00    -0.327 A  
HETATM   26  C   UNL     1     -12.605  15.577  72.139  1.00  0.00    -0.479 A  
HETATM   27  C   UNL     1     -13.389  14.678  71.418  1.00  0.00    -0.441 A  
HETATM   28  C   UNL     1     -11.333  15.915  71.679  1.00  0.00    -0.356 A  
HETATM   29  C   UNL     1     -12.904  14.132  70.227  1.00  0.00    -0.183 A  
ENDBRANCH  15  24
ENDBRANCH  10  13
ENDBRANCH   6   7
ENDBRANCH   5   6
ENDBRANCH   4   5
ENDBRANCH   2   4
TORSDOF 7
ENDMDL
MODEL       53
REMARK 921   NORMALIZED FREE ENERGY PREDICTED BY IDOCK:   -4.83 KCAL/MOL
REMARK 922        TOTAL FREE ENERGY PREDICTED BY IDOCK:   -8.88 KCAL/MOL
REMARK 923 INTER-LIGAND FREE ENERGY PREDICTED BY IDOCK:   -6.96 KCAL/MOL
REMARK 924 INTRA-LIGAND FREE ENERGY PREDICTED BY IDOCK:   -1.91 KCAL/MOL
REMARK 927      BINDING AFFINITY PREDICTED BY RF-SCORE:    0.00 PKD
ROOT
HETATM    1  C   UNL     1     -12.382  12.194  63.384  1.00  0.00    -0.538 C  
HETATM    2  N   UNL     1     -11.464  13.241  63.838  1.00  0.00    -0.388 NA 
HETATM    3  C   UNL     1     -12.233  14.413  64.266  1.00  0.00    -0.423 C  
ENDROOT
BRANCH   2   4
HETATM    4  C   UNL     1     -10.575  12.727  64.911  1.00  0.00    -0.314 C  
BRANCH   4   5
HETATM    5  C   UNL     1     -11.050  13.113  66.325  1.00  0.00    -0.287 C  
BRANCH   5   6
HETATM    6  O   UNL     1     -12.034  12.208  66.846  1.00  0.00    -0.603 OA 
BRANCH   6   7
HETATM    7  C   UNL     1     -11.547  11.304  67.768  1.00  0.00    -0.230 A  
HETATM    8  C   UNL     1     -11.565  11.490  69.155  1.00  0.00    -0.382 A  
HETATM    9  C   UNL     1     -10.918  10.591  70.007  1.00  0.00    -0.351 A  
HETATM   10  C   UNL     1     -10.234   9.488  69.492  1.00  0.00    -0.225 A  
HETATM   11  C   UNL     1     -10.311   9.235  68.114  1.00  0.00    -0.261 A  
HETATM   12  C   UNL     1     -10.965  10.139  67.260  1.00  0.00    -0.250 A  
BRANCH  10  13
HETATM   13  C   UNL     1      -9.273   8.744  70.367  1.00  0.00    -0.204 C  
HETATM   14 CL   UNL     1      -5.392   6.879  72.928  1.00  0.00    -0.037 Cl 
HETATM   15  C   UNL     1      -7.928   8.941  70.281  1.00  0.00    -0.116 C  
HETATM   16  C   UNL     1      -6.976   7.387  72.260  1.00  0.00    -0.063 C  
HETATM   17  C   UNL     1      -6.766   8.327  71.079  1.00  0.00    -0.045 C  
BRANCH  13  18
HETATM   18  C   UNL     1      -9.854   7.682  71.244  1.00  0.00    -0.187 A  
HETATM   19  C   UNL     1     -10.245   8.013  72.553  1.00  0.00    -0.361 A  
HETATM   20  C   UNL     1     -10.769   7.045  73.416  1.00  0.00    -0.379 A  
HETATM   21  C   UNL     1     -10.526   5.388  71.681  1.00  0.00    -0.291 A  
HETATM   22  C   UNL     1     -10.927   5.735  72.972  1.00  0.00    -0.314 A  
HETATM   23  C   UNL     1      -9.967   6.349  70.829  1.00  0.00    -0.212 A  
ENDBRANCH  13  18
BRANCH  15  24
HETATM   24  C   UNL     1      -7.329   9.823  69.232  1.00  0.00    -0.082 A  
HETATM   25  C   UNL     1      -6.919   9.303  67.999  1.00  0.00    -0.076 A  
HETATM   26  C   UNL     1      -6.619  11.545  67.133  1.00  0.00    -0.124 A  
HETATM   27  C   UNL     1      -7.005  12.073  68.363  1.00  0.00    -0.080 A  
HETATM   28  C   UNL     1      -6.570  10.164  66.952  1.00  0.00    -0.075 A  
HETATM   29  C   UNL     1      -7.357  11.215  69.408  1.00  0.00    -0.062 A  
ENDBRANCH  15  24
ENDBRANCH  10  13
ENDBRANCH   6   7
ENDBRANCH   5   6
ENDBRANCH   4   5
ENDBRANCH   2   4
TORSDOF 7
ENDMDL
MODEL       54
REMARK 921   NORMALIZED FREE ENERGY PREDICTED BY IDOCK:   -4.82 KCAL/MOL
REMARK 922        TOTAL FREE ENERGY PREDICTED BY IDOCK:   -8.86 KCAL/MOL
REMARK 923 INTER-LIGAND FREE ENERGY PREDICTED BY IDOCK:   -6.73 KCAL/MOL
REMARK 924 INTRA-LIGAND FREE ENERGY PREDICTED BY IDOCK:   -2.14 KCAL/MOL
REMARK 927      BINDING AFFINITY PREDICTED BY RF-SCORE:    0.00 PKD
ROOT
HETATM    1  C   UNL     1     -10.460   5.652  71.297  1.00  0.00    -0.236 C  
HETATM    2  N   UNL     1      -9.092   5.155  71.138  1.00  0.00    -0.140 NA 
HETATM    3  C   UNL     1      -9.031   3.752  71.557  1.00  0.00    -0.107 C  
ENDROOT
BRANCH   2   4
HETATM    4  C   UNL     1      -8.625   5.349  69.742  1.00  0.00    -0.100 C  
BRANCH   4   5
HETATM    5  C   UNL     1      -9.624   4.824  68.693  1.00  0.00    -0.160 C  
BRANCH   5   6
HETATM    6  O   UNL     1      -9.218   5.111  67.347  1.00  0.00    -0.113 OA 
BRANCH   6   7
HETATM    7  C   UNL     1      -9.347   6.435  66.982  1.00  0.00    -0.131 A  
HETATM    8  C   UNL     1      -8.327   7.213  66.420  1.00  0.00    -0.125 A  
HETATM    9  C   UNL     1      -8.501   8.584  66.216  1.00  0.00    -0.130 A  
HETATM   10  C   UNL     1      -9.696   9.212  66.574  1.00  0.00    -0.306 A  
HETATM   11  C   UNL     1     -10.760   8.418  67.030  1.00  0.00    -0.204 A  
HETATM   12  C   UNL     1     -10.583   7.038  67.230  1.00  0.00    -0.395 A  
BRANCH  10  13
HETATM   13  C   UNL     1      -9.741  10.705  66.675  1.00  0.00    -0.225 C  
HETATM   14 CL   UNL     1      -9.322  15.569  67.800  1.00  0.00    -0.195 Cl 
HETATM   15  C   UNL     1      -9.252  11.364  67.763  1.00  0.00    -0.159 C  
HETATM   16  C   UNL     1      -9.562  13.947  67.076  1.00  0.00    -0.254 C  
HETATM   17  C   UNL     1      -9.162  12.867  68.075  1.00  0.00    -0.212 C  
BRANCH  13  18
HETATM   18  C   UNL     1     -10.467  11.425  65.584  1.00  0.00    -0.316 A  
HETATM   19  C   UNL     1     -11.733  11.975  65.851  1.00  0.00    -0.312 A  
HETATM   20  C   UNL     1     -12.458  12.634  64.855  1.00  0.00    -0.564 A  
HETATM   21  C   UNL     1     -10.668  12.214  63.295  1.00  0.00    -0.373 A  
HETATM   22  C   UNL     1     -11.915  12.770  63.580  1.00  0.00    -0.633 A  
HETATM   23  C   UNL     1      -9.957  11.521  64.283  1.00  0.00    -0.312 A  
ENDBRANCH  13  18
BRANCH  15  24
HETATM   24  C   UNL     1      -8.750  10.630  68.965  1.00  0.00    -0.152 A  
HETATM   25  C   UNL     1      -9.634   9.994  69.845  1.00  0.00    -0.233 A  
HETATM   26  C   UNL     1      -7.775   8.906  70.954  1.00  0.00    -0.139 A  
HETATM   27  C   UNL     1      -6.885   9.552  70.097  1.00  0.00    -0.085 A  
HETATM   28  C   UNL     1      -9.145   9.132  70.833  1.00  0.00    -0.316 A  
HETATM   29  C   UNL     1      -7.371  10.410  69.107  1.00  0.00    -0.102 A  
ENDBRANCH  15  24
ENDBRANCH  10  13
ENDBRANCH   6   7
ENDBRANCH   5   6
ENDBRANCH   4   5
ENDBRANCH   2   4
TORSDOF 7
ENDMDL
MODEL       55
REMARK 921   NORMALIZED FREE ENERGY PREDICTED BY IDOCK:   -4.82 KCAL/MOL
REMARK 922        TOTAL FREE ENERGY PREDICTED BY IDOCK:   -8.86 KCAL/MOL
REMARK 923 INTER-LIGAND FREE ENERGY PREDICTED BY IDOCK:   -6.66 KCAL/MOL
REMARK 924 INTRA-LIGAND FREE ENERGY PREDICTED BY IDOCK:   -2.20 KCAL/MOL
REMARK 927      BINDING AFFINITY PREDICTED BY RF-SCORE:    0.00 PKD
ROOT
HETATM    1  C   UNL     1      -9.605   5.288  66.263  1.00  0.00    -0.161 C  
HETATM    2  N   UNL     1      -8.672   4.435  65.524  1.00  0.00    -0.120 NA 
HETATM    3  C   UNL     1      -9.301   3.989  64.278  1.00  0.00    -0.158 C  
ENDROOT
BRANCH   2   4
HETATM    4  C   UNL     1      -7.390   5.145  65.288  1.00  0.00    -0.068 C  
BRANCH   4   5
HETATM    5  C   UNL     1      -7.559   6.435  64.461  1.00  0.00    -0.100 C  
BRANCH   5   6
HETATM    6  O   UNL     1      -6.782   7.528  64.974  1.00  0.00    -0.046 OA 
BRANCH   6   7
HETATM    7  C   UNL     1      -7.516   8.652  65.289  1.00  0.00    -0.086 A  
HETATM    8  C   UNL     1      -6.987   9.821  65.850  1.00  0.00    -0.101 A  
HETATM    9  C   UNL     1      -7.824  10.856  66.273  1.00  0.00    -0.158 A  
HETATM   10  C   UNL     1      -9.211  10.745  66.150  1.00  0.00    -0.202 A  
HETATM   11  C   UNL     1      -9.739   9.627  65.485  1.00  0.00    -0.372 A  
HETATM   12  C   UNL     1      -8.893   8.589  65.057  1.00  0.00    -0.074 A  
BRANCH  10  13
HETATM   13  C   UNL     1     -10.094  11.686  66.910  1.00  0.00    -0.238 C  
HETATM   14 CL   UNL     1     -12.783  14.302  70.230  1.00  0.00    -0.367 Cl 
HETATM   15  C   UNL     1     -10.418  11.468  68.215  1.00  0.00    -0.219 C  
HETATM   16  C   UNL     1     -11.853  13.655  68.840  1.00  0.00    -0.364 C  
HETATM   17  C   UNL     1     -11.268  12.293  69.194  1.00  0.00    -0.300 C  
BRANCH  13  18
HETATM   18  C   UNL     1     -10.707  12.803  66.127  1.00  0.00    -0.297 A  
HETATM   19  C   UNL     1      -9.995  14.005  65.976  1.00  0.00    -0.331 A  
HETATM   20  C   UNL     1     -10.540  15.084  65.274  1.00  0.00    -0.418 A  
HETATM   21  C   UNL     1     -12.528  13.786  64.855  1.00  0.00    -0.420 A  
HETATM   22  C   UNL     1     -11.802  14.967  64.697  1.00  0.00    -0.412 A  
HETATM   23  C   UNL     1     -11.997  12.718  65.589  1.00  0.00    -0.503 A  
ENDBRANCH  13  18
BRANCH  15  24
HETATM   24  C   UNL     1     -10.006  10.219  68.927  1.00  0.00    -0.209 A  
HETATM   25  C   UNL     1      -8.826  10.171  69.679  1.00  0.00    -0.184 A  
HETATM   26  C   UNL     1      -9.477   8.026  70.597  1.00  0.00    -0.167 A  
HETATM   27  C   UNL     1     -10.645   8.054  69.837  1.00  0.00    -0.242 A  
HETATM   28  C   UNL     1      -8.567   9.079  70.514  1.00  0.00    -0.229 A  
HETATM   29  C   UNL     1     -10.907   9.145  69.005  1.00  0.00    -0.115 A  
ENDBRANCH  15  24
ENDBRANCH  10  13
ENDBRANCH   6   7
ENDBRANCH   5   6
ENDBRANCH   4   5
ENDBRANCH   2   4
TORSDOF 7
ENDMDL
MODEL       56
REMARK 921   NORMALIZED FREE ENERGY PREDICTED BY IDOCK:   -4.81 KCAL/MOL
REMARK 922        TOTAL FREE ENERGY PREDICTED BY IDOCK:   -8.84 KCAL/MOL
REMARK 923 INTER-LIGAND FREE ENERGY PREDICTED BY IDOCK:   -6.54 KCAL/MOL
REMARK 924 INTRA-LIGAND FREE ENERGY PREDICTED BY IDOCK:   -2.31 KCAL/MOL
REMARK 927      BINDING AFFINITY PREDICTED BY RF-SCORE:    0.00 PKD
ROOT
HETATM    1  C   UNL     1     -13.737  13.446  72.313  1.00  0.00    -0.607 C  
HETATM    2  N   UNL     1     -12.683  12.696  71.625  1.00  0.00    -0.243 NA 
HETATM    3  C   UNL     1     -13.069  11.286  71.533  1.00  0.00    -0.355 C  
ENDROOT
BRANCH   2   4
HETATM    4  C   UNL     1     -12.400  13.293  70.295  1.00  0.00    -0.264 C  
BRANCH   4   5
HETATM    5  C   UNL     1     -12.001  12.245  69.238  1.00  0.00    -0.253 C  
BRANCH   5   6
HETATM    6  O   UNL     1     -10.587  12.003  69.203  1.00  0.00    -0.150 OA 
BRANCH   6   7
HETATM    7  C   UNL     1     -10.235  10.730  68.805  1.00  0.00    -0.193 A  
HETATM    8  C   UNL     1     -10.997   9.920  67.954  1.00  0.00    -0.281 A  
HETATM    9  C   UNL     1     -10.638   8.590  67.720  1.00  0.00    -0.242 A  
HETATM   10  C   UNL     1      -9.514   8.036  68.336  1.00  0.00    -0.148 A  
HETATM   11  C   UNL     1      -8.684   8.875  69.096  1.00  0.00    -0.132 A  
HETATM   12  C   UNL     1      -9.045  10.214  69.326  1.00  0.00    -0.208 A  
BRANCH  10  13
HETATM   13  C   UNL     1      -9.343   6.549  68.355  1.00  0.00    -0.122 C  
HETATM   14 CL   UNL     1      -9.401   1.606  69.170  1.00  0.00    -0.181 Cl 
HETATM   15  C   UNL     1      -9.842   5.784  69.365  1.00  0.00    -0.219 C  
HETATM   16  C   UNL     1      -9.259   3.285  68.558  1.00  0.00    -0.175 C  
HETATM   17  C   UNL     1      -9.819   4.262  69.585  1.00  0.00    -0.244 C  
BRANCH  13  18
HETATM   18  C   UNL     1      -8.484   5.962  67.281  1.00  0.00    -0.103 A  
HETATM   19  C   UNL     1      -7.107   5.803  67.516  1.00  0.00    -0.074 A  
HETATM   20  C   UNL     1      -6.262   5.283  66.531  1.00  0.00    -0.035 A  
HETATM   21  C   UNL     1      -8.150   5.065  65.048  1.00  0.00    -0.113 A  
HETATM   22  C   UNL     1      -6.789   4.895  65.302  1.00  0.00    -0.060 A  
HETATM   23  C   UNL     1      -8.991   5.621  66.021  1.00  0.00    -0.158 A  
ENDBRANCH  13  18
BRANCH  15  24
HETATM   24  C   UNL     1     -10.487   6.396  70.568  1.00  0.00    -0.270 A  
HETATM   25  C   UNL     1      -9.729   6.775  71.681  1.00  0.00    -0.166 A  
HETATM   26  C   UNL     1     -11.644   7.928  72.616  1.00  0.00    -0.435 A  
HETATM   27  C   UNL     1     -12.414   7.537  71.522  1.00  0.00    -0.375 A  
HETATM   28  C   UNL     1     -10.307   7.543  72.699  1.00  0.00    -0.311 A  
HETATM   29  C   UNL     1     -11.838   6.774  70.503  1.00  0.00    -0.418 A  
ENDBRANCH  15  24
ENDBRANCH  10  13
ENDBRANCH   6   7
ENDBRANCH   5   6
ENDBRANCH   4   5
ENDBRANCH   2   4
TORSDOF 7
ENDMDL
MODEL       57
REMARK 921   NORMALIZED FREE ENERGY PREDICTED BY IDOCK:   -4.73 KCAL/MOL
REMARK 922        TOTAL FREE ENERGY PREDICTED BY IDOCK:   -8.73 KCAL/MOL
REMARK 923 INTER-LIGAND FREE ENERGY PREDICTED BY IDOCK:   -6.78 KCAL/MOL
REMARK 924 INTRA-LIGAND FREE ENERGY PREDICTED BY IDOCK:   -1.96 KCAL/MOL
REMARK 927      BINDING AFFINITY PREDICTED BY RF-SCORE:    0.00 PKD
ROOT
HETATM    1  C   UNL     1      -8.044  10.406  63.478  1.00  0.00    -0.116 C  
HETATM    2  N   UNL     1      -8.731   9.161  63.829  1.00  0.00    -0.171 NA 
HETATM    3  C   UNL     1      -7.827   8.028  63.615  1.00  0.00    -0.142 C  
ENDROOT
BRANCH   2   4
HETATM    4  C   UNL     1      -9.243   9.221  65.221  1.00  0.00    -0.212 C  
BRANCH   4   5
HETATM    5  C   UNL     1      -8.127   9.111  66.279  1.00  0.00    -0.111 C  
BRANCH   5   6
HETATM    6  O   UNL     1      -8.537   9.590  67.568  1.00  0.00    -0.125 OA 
BRANCH   6   7
HETATM    7  C   UNL     1      -8.611  10.963  67.670  1.00  0.00    -0.124 A  
HETATM    8  C   UNL     1      -9.698  11.668  68.203  1.00  0.00    -0.189 A  
HETATM    9  C   UNL     1      -9.751  13.062  68.133  1.00  0.00    -0.228 A  
HETATM   10  C   UNL     1      -8.723  13.785  67.525  1.00  0.00    -0.194 A  
HETATM   11  C   UNL     1      -7.580  13.093  67.094  1.00  0.00    -0.008 A  
HETATM   12  C   UNL     1      -7.528  11.690  67.169  1.00  0.00    -0.146 A  
BRANCH  10  13
HETATM   13  C   UNL     1      -8.952  15.217  67.152  1.00  0.00    -0.227 C  
HETATM   14 CL   UNL     1     -10.550  19.673  65.509  1.00  0.00    -0.477 Cl 
HETATM   15  C   UNL     1      -9.965  15.587  66.320  1.00  0.00    -0.313 C  
HETATM   16  C   UNL     1      -9.773  18.270  66.313  1.00  0.00    -0.291 C  
HETATM   17  C   UNL     1     -10.408  16.974  65.824  1.00  0.00    -0.275 C  
BRANCH  13  18
HETATM   18  C   UNL     1      -7.934  16.202  67.632  1.00  0.00    -0.162 A  
HETATM   19  C   UNL     1      -6.933  16.639  66.746  1.00  0.00    -0.264 A  
HETATM   20  C   UNL     1      -5.947  17.539  67.160  1.00  0.00    -0.164 A  
HETATM   21  C   UNL     1      -6.937  17.592  69.358  1.00  0.00    -0.098 A  
HETATM   22  C   UNL     1      -5.961  18.031  68.462  1.00  0.00    -0.188 A  
HETATM   23  C   UNL     1      -7.904  16.661  68.955  1.00  0.00    -0.240 A  
ENDBRANCH  13  18
BRANCH  15  24
HETATM   24  C   UNL     1     -10.832  14.575  65.641  1.00  0.00    -0.329 A  
HETATM   25  C   UNL     1     -10.331  13.764  64.616  1.00  0.00    -0.393 A  
HETATM   26  C   UNL     1     -12.334  12.404  64.688  1.00  0.00    -0.518 A  
HETATM   27  C   UNL     1     -12.852  13.218  65.694  1.00  0.00    -0.221 A  
HETATM   28  C   UNL     1     -11.080  12.680  64.146  1.00  0.00    -0.428 A  
HETATM   29  C   UNL     1     -12.104  14.299  66.167  1.00  0.00    -0.424 A  
ENDBRANCH  15  24
ENDBRANCH  10  13
ENDBRANCH   6   7
ENDBRANCH   5   6
ENDBRANCH   4   5
ENDBRANCH   2   4
TORSDOF 7
ENDMDL
MODEL       58
REMARK 921   NORMALIZED FREE ENERGY PREDICTED BY IDOCK:   -4.72 KCAL/MOL
REMARK 922        TOTAL FREE ENERGY PREDICTED BY IDOCK:   -8.71 KCAL/MOL
REMARK 923 INTER-LIGAND FREE ENERGY PREDICTED BY IDOCK:   -6.68 KCAL/MOL
REMARK 924 INTRA-LIGAND FREE ENERGY PREDICTED BY IDOCK:   -2.04 KCAL/MOL
REMARK 927      BINDING AFFINITY PREDICTED BY RF-SCORE:    0.00 PKD
ROOT
HETATM    1  C   UNL     1     -12.417  11.949  63.382  1.00  0.00    -0.463 C  
HETATM    2  N   UNL     1     -11.765  13.086  64.035  1.00  0.00    -0.406 NA 
HETATM    3  C   UNL     1     -12.518  13.456  65.236  1.00  0.00    -0.483 C  
ENDROOT
BRANCH   2   4
HETATM    4  C   UNL     1     -10.344  12.774  64.332  1.00  0.00    -0.364 C  
BRANCH   4   5
HETATM    5  C   UNL     1      -9.981  11.301  64.063  1.00  0.00    -0.312 C  
BRANCH   5   6
HETATM    6  O   UNL     1      -8.800  10.884  64.763  1.00  0.00    -0.177 OA 
BRANCH   6   7
HETATM    7  C   UNL     1      -9.042  10.159  65.911  1.00  0.00    -0.156 A  
HETATM    8  C   UNL     1      -8.151  10.039  66.984  1.00  0.00    -0.117 A  
HETATM    9  C   UNL     1      -8.417   9.167  68.043  1.00  0.00    -0.121 A  
HETATM   10  C   UNL     1      -9.577   8.391  68.051  1.00  0.00    -0.168 A  
HETATM   11  C   UNL     1     -10.527   8.592  67.038  1.00  0.00    -0.354 A  
HETATM   12  C   UNL     1     -10.259   9.473  65.976  1.00  0.00    -0.242 A  
BRANCH  10  13
HETATM   13  C   UNL     1      -9.678   7.230  68.993  1.00  0.00    -0.152 C  
HETATM   14 CL   UNL     1      -9.384   2.919  71.527  1.00  0.00    -0.187 Cl 
HETATM   15  C   UNL     1      -9.136   6.017  68.693  1.00  0.00    -0.116 C  
HETATM   16  C   UNL     1      -9.608   4.593  70.927  1.00  0.00    -0.179 C  
HETATM   17  C   UNL     1      -9.088   4.708  69.499  1.00  0.00    -0.163 C  
BRANCH  13  18
HETATM   18  C   UNL     1     -10.516   7.433  70.214  1.00  0.00    -0.229 A  
HETATM   19  C   UNL     1      -9.975   8.130  71.308  1.00  0.00    -0.225 A  
HETATM   20  C   UNL     1     -10.713   8.321  72.480  1.00  0.00    -0.411 A  
HETATM   21  C   UNL     1     -12.559   7.123  71.493  1.00  0.00    -0.427 A  
HETATM   22  C   UNL     1     -12.015   7.833  72.564  1.00  0.00    -0.304 A  
HETATM   23  C   UNL     1     -11.806   6.899  70.333  1.00  0.00    -0.351 A  
ENDBRANCH  13  18
BRANCH  15  24
HETATM   24  C   UNL     1      -8.512   5.743  67.362  1.00  0.00    -0.103 A  
HETATM   25  C   UNL     1      -9.297   5.434  66.245  1.00  0.00    -0.163 A  
HETATM   26  C   UNL     1      -7.365   5.662  64.802  1.00  0.00    -0.068 A  
HETATM   27  C   UNL     1      -6.570   5.948  65.910  1.00  0.00    -0.047 A  
HETATM   28  C   UNL     1      -8.724   5.399  64.969  1.00  0.00    -0.116 A  
HETATM   29  C   UNL     1      -7.141   5.988  67.184  1.00  0.00    -0.070 A  
ENDBRANCH  15  24
ENDBRANCH  10  13
ENDBRANCH   6   7
ENDBRANCH   5   6
ENDBRANCH   4   5
ENDBRANCH   2   4
TORSDOF 7
ENDMDL
MODEL       59
REMARK 921   NORMALIZED FREE ENERGY PREDICTED BY IDOCK:   -4.70 KCAL/MOL
REMARK 922        TOTAL FREE ENERGY PREDICTED BY IDOCK:   -8.68 KCAL/MOL
REMARK 923 INTER-LIGAND FREE ENERGY PREDICTED BY IDOCK:   -7.12 KCAL/MOL
REMARK 924 INTRA-LIGAND FREE ENERGY PREDICTED BY IDOCK:   -1.57 KCAL/MOL
REMARK 927      BINDING AFFINITY PREDICTED BY RF-SCORE:    0.00 PKD
ROOT
HETATM    1  C   UNL     1      -8.956   8.300  72.801  1.00  0.00    -0.253 C  
HETATM    2  N   UNL     1      -9.380   6.902  72.697  1.00  0.00    -0.138 NA 
HETATM    3  C   UNL     1     -10.640   6.719  73.421  1.00  0.00    -0.325 C  
ENDROOT
BRANCH   2   4
HETATM    4  C   UNL     1      -9.481   6.492  71.273  1.00  0.00    -0.166 C  
BRANCH   4   5
HETATM    5  C   UNL     1      -8.264   6.926  70.433  1.00  0.00    -0.124 C  
BRANCH   5   6
HETATM    6  O   UNL     1      -8.603   7.198  69.065  1.00  0.00    -0.128 OA 
BRANCH   6   7
HETATM    7  C   UNL     1      -9.149   8.447  68.851  1.00  0.00    -0.147 A  
HETATM    8  C   UNL     1     -10.436   8.681  68.351  1.00  0.00    -0.220 A  
HETATM    9  C   UNL     1     -10.854   9.974  68.027  1.00  0.00    -0.311 A  
HETATM   10  C   UNL     1      -9.995  11.063  68.190  1.00  0.00    -0.190 A  
HETATM   11  C   UNL     1      -8.748  10.848  68.797  1.00  0.00    -0.158 A  
HETATM   12  C   UNL     1      -8.331   9.546  69.126  1.00  0.00    -0.125 A  
BRANCH  10  13
HETATM   13  C   UNL     1     -10.323  12.364  67.525  1.00  0.00    -0.223 C  
HETATM   14 CL   UNL     1     -11.300  16.213  64.471  1.00  0.00    -0.400 Cl 
HETATM   15  C   UNL     1     -10.182  12.537  66.181  1.00  0.00    -0.269 C  
HETATM   16  C   UNL     1     -11.120  15.031  65.806  1.00  0.00    -0.346 C  
HETATM   17  C   UNL     1     -10.477  13.751  65.285  1.00  0.00    -0.376 C  
BRANCH  13  18
HETATM   18  C   UNL     1     -10.683  13.501  68.427  1.00  0.00    -0.273 A  
HETATM   19  C   UNL     1      -9.723  14.491  68.698  1.00  0.00    -0.221 A  
HETATM   20  C   UNL     1     -10.009  15.558  69.556  1.00  0.00    -0.280 A  
HETATM   21  C   UNL     1     -12.226  14.673  69.893  1.00  0.00    -0.365 A  
HETATM   22  C   UNL     1     -11.269  15.658  70.139  1.00  0.00    -0.346 A  
HETATM   23  C   UNL     1     -11.928  13.584  69.064  1.00  0.00    -0.376 A  
ENDBRANCH  13  18
BRANCH  15  24
HETATM   24  C   UNL     1      -9.585  11.477  65.312  1.00  0.00    -0.244 A  
HETATM   25  C   UNL     1     -10.205  11.085  64.121  1.00  0.00    -0.419 A  
HETATM   26  C   UNL     1      -8.239   9.816  63.493  1.00  0.00    -0.156 A  
HETATM   27  C   UNL     1      -7.620  10.183  64.686  1.00  0.00    -0.135 A  
HETATM   28  C   UNL     1      -9.531  10.260  63.213  1.00  0.00    -0.342 A  
HETATM   29  C   UNL     1      -8.291  11.010  65.592  1.00  0.00    -0.060 A  
ENDBRANCH  15  24
ENDBRANCH  10  13
ENDBRANCH   6   7
ENDBRANCH   5   6
ENDBRANCH   4   5
ENDBRANCH   2   4
TORSDOF 7
ENDMDL
MODEL       60
REMARK 921   NORMALIZED FREE ENERGY PREDICTED BY IDOCK:   -4.64 KCAL/MOL
REMARK 922        TOTAL FREE ENERGY PREDICTED BY IDOCK:   -8.60 KCAL/MOL
REMARK 923 INTER-LIGAND FREE ENERGY PREDICTED BY IDOCK:   -6.65 KCAL/MOL
REMARK 924 INTRA-LIGAND FREE ENERGY PREDICTED BY IDOCK:   -1.94 KCAL/MOL
REMARK 927      BINDING AFFINITY PREDICTED BY RF-SCORE:    0.00 PKD
ROOT
HETATM    1  C   UNL     1     -10.890   7.025  67.693  1.00  0.00    -0.242 C  
HETATM    2  N   UNL     1      -9.516   6.772  67.256  1.00  0.00    -0.131 NA 
HETATM    3  C   UNL     1      -9.144   7.747  66.227  1.00  0.00    -0.178 C  
ENDROOT
BRANCH   2   4
HETATM    4  C   UNL     1      -8.587   6.791  68.414  1.00  0.00    -0.125 C  
BRANCH   4   5
HETATM    5  C   UNL     1      -7.493   7.870  68.292  1.00  0.00    -0.104 C  
BRANCH   5   6
HETATM    6  O   UNL     1      -7.740   9.007  69.132  1.00  0.00    -0.088 OA 
BRANCH   6   7
HETATM    7  C   UNL     1      -8.075  10.159  68.451  1.00  0.00    -0.104 A  
HETATM    8  C   UNL     1      -7.217  10.858  67.593  1.00  0.00    -0.093 A  
HETATM    9  C   UNL     1      -7.589  12.094  67.058  1.00  0.00    -0.093 A  
HETATM   10  C   UNL     1      -8.825  12.663  67.373  1.00  0.00    -0.189 A  
HETATM   11  C   UNL     1      -9.733  11.915  68.138  1.00  0.00    -0.194 A  
HETATM   12  C   UNL     1      -9.357  10.669  68.671  1.00  0.00    -0.177 A  
BRANCH  10  13
HETATM   13  C   UNL     1      -9.062  14.113  67.084  1.00  0.00    -0.240 C  
HETATM   14 CL   UNL     1     -10.646  18.640  65.635  1.00  0.00    -0.345 Cl 
HETATM   15  C   UNL     1     -10.019  14.520  66.203  1.00  0.00    -0.330 C  
HETATM   16  C   UNL     1      -9.897  17.201  66.397  1.00  0.00    -0.300 C  
HETATM   17  C   UNL     1     -10.459  15.929  65.773  1.00  0.00    -0.386 C  
BRANCH  13  18
HETATM   18  C   UNL     1      -8.109  15.082  67.707  1.00  0.00    -0.160 A  
HETATM   19  C   UNL     1      -8.258  15.413  69.065  1.00  0.00    -0.217 A  
HETATM   20  C   UNL     1      -7.406  16.333  69.682  1.00  0.00     0.055 A  
HETATM   21  C   UNL     1      -6.228  16.617  67.597  1.00  0.00    -0.170 A  
HETATM   22  C   UNL     1      -6.377  16.921  68.950  1.00  0.00    -0.179 A  
HETATM   23  C   UNL     1      -7.105  15.723  66.969  1.00  0.00    -0.169 A  
ENDBRANCH  13  18
BRANCH  15  24
HETATM   24  C   UNL     1     -10.806  13.541  65.392  1.00  0.00    -0.299 A  
HETATM   25  C   UNL     1     -12.185  13.389  65.582  1.00  0.00    -0.510 A  
HETATM   26  C   UNL     1     -12.328  12.032  63.580  1.00  0.00    -0.648 A  
HETATM   27  C   UNL     1     -10.953  12.159  63.394  1.00  0.00    -0.480 A  
HETATM   28  C   UNL     1     -12.942  12.639  64.674  1.00  0.00    -0.225 A  
HETATM   29  C   UNL     1     -10.195  12.910  64.297  1.00  0.00    -0.337 A  
ENDBRANCH  15  24
ENDBRANCH  10  13
ENDBRANCH   6   7
ENDBRANCH   5   6
ENDBRANCH   4   5
ENDBRANCH   2   4
TORSDOF 7
ENDMDL
MODEL       61
REMARK 921   NORMALIZED FREE ENERGY PREDICTED BY IDOCK:   -4.63 KCAL/MOL
REMARK 922        TOTAL FREE ENERGY PREDICTED BY IDOCK:   -8.59 KCAL/MOL
REMARK 923 INTER-LIGAND FREE ENERGY PREDICTED BY IDOCK:   -6.47 KCAL/MOL
REMARK 924 INTRA-LIGAND FREE ENERGY PREDICTED BY IDOCK:   -2.12 KCAL/MOL
REMARK 927      BINDING AFFINITY PREDICTED BY RF-SCORE:    0.00 PKD
ROOT
HETATM    1  C   UNL     1     -12.241  14.478  64.455  1.00  0.00    -0.465 C  
HETATM    2  N   UNL     1     -11.755  13.418  65.340  1.00  0.00    -0.319 NA 
HETATM    3  C   UNL     1     -10.862  12.529  64.591  1.00  0.00    -0.310 C  
ENDROOT
BRANCH   2   4
HETATM    4  C   UNL     1     -11.099  13.997  66.540  1.00  0.00    -0.314 C  
BRANCH   4   5
HETATM    5  C   UNL     1     -11.506  13.292  67.848  1.00  0.00    -0.306 C  
BRANCH   5   6
HETATM    6  O   UNL     1     -10.387  12.719  68.540  1.00  0.00    -0.235 OA 
BRANCH   6   7
HETATM    7  C   UNL     1     -10.127  11.404  68.214  1.00  0.00    -0.196 A  
HETATM    8  C   UNL     1     -11.059  10.518  67.660  1.00  0.00    -0.375 A  
HETATM    9  C   UNL     1     -10.753   9.165  67.497  1.00  0.00    -0.255 A  
HETATM   10  C   UNL     1      -9.510   8.663  67.889  1.00  0.00    -0.157 A  
HETATM   11  C   UNL     1      -8.533   9.566  68.337  1.00  0.00    -0.119 A  
HETATM   12  C   UNL     1      -8.843  10.928  68.496  1.00  0.00    -0.153 A  
BRANCH  10  13
HETATM   13  C   UNL     1      -9.326   7.184  68.032  1.00  0.00    -0.129 C  
HETATM   14 CL   UNL     1      -9.321   2.330  69.271  1.00  0.00    -0.190 Cl 
HETATM   15  C   UNL     1      -9.794   6.506  69.117  1.00  0.00    -0.156 C  
HETATM   16  C   UNL     1      -9.208   3.951  68.514  1.00  0.00    -0.155 C  
HETATM   17  C   UNL     1      -9.752   5.009  69.466  1.00  0.00    -0.259 C  
BRANCH  13  18
HETATM   18  C   UNL     1      -8.488   6.513  66.992  1.00  0.00    -0.113 A  
HETATM   19  C   UNL     1      -7.093   6.466  67.162  1.00  0.00    -0.073 A  
HETATM   20  C   UNL     1      -6.268   5.871  66.203  1.00  0.00    -0.040 A  
HETATM   21  C   UNL     1      -8.213   5.352  64.875  1.00  0.00    -0.138 A  
HETATM   22  C   UNL     1      -6.833   5.296  65.066  1.00  0.00    -0.049 A  
HETATM   23  C   UNL     1      -9.036   5.981  65.818  1.00  0.00    -0.083 A  
ENDBRANCH  13  18
BRANCH  15  24
HETATM   24  C   UNL     1     -10.416   7.215  70.277  1.00  0.00    -0.232 A  
HETATM   25  C   UNL     1     -11.790   7.125  70.528  1.00  0.00    -0.286 A  
HETATM   26  C   UNL     1     -11.484   8.185  72.685  1.00  0.00    -0.454 A  
HETATM   27  C   UNL     1     -10.118   8.299  72.436  1.00  0.00    -0.383 A  
HETATM   28  C   UNL     1     -12.320   7.606  71.731  1.00  0.00    -0.349 A  
HETATM   29  C   UNL     1      -9.587   7.817  71.237  1.00  0.00    -0.178 A  
ENDBRANCH  15  24
ENDBRANCH  10  13
ENDBRANCH   6   7
ENDBRANCH   5   6
ENDBRANCH   4   5
ENDBRANCH   2   4
TORSDOF 7
ENDMDL
MODEL       62
REMARK 921   NORMALIZED FREE ENERGY PREDICTED BY IDOCK:   -4.59 KCAL/MOL
REMARK 922        TOTAL FREE ENERGY PREDICTED BY IDOCK:   -8.53 KCAL/MOL
REMARK 923 INTER-LIGAND FREE ENERGY PREDICTED BY IDOCK:   -6.57 KCAL/MOL
REMARK 924 INTRA-LIGAND FREE ENERGY PREDICTED BY IDOCK:   -1.96 KCAL/MOL
REMARK 927      BINDING AFFINITY PREDICTED BY RF-SCORE:    0.00 PKD
ROOT
HETATM    1  C   UNL     1     -10.378   5.234  71.821  1.00  0.00    -0.214 C  
HETATM    2  N   UNL     1      -9.007   4.728  71.745  1.00  0.00    -0.129 NA 
HETATM    3  C   UNL     1      -8.890   3.512  72.555  1.00  0.00    -0.085 C  
ENDROOT
BRANCH   2   4
HETATM    4  C   UNL     1      -8.608   4.507  70.332  1.00  0.00    -0.078 C  
BRANCH   4   5
HETATM    5  C   UNL     1      -9.768   4.005  69.450  1.00  0.00    -0.135 C  
BRANCH   5   6
HETATM    6  O   UNL     1      -9.485   4.112  68.047  1.00  0.00    -0.151 OA 
BRANCH   6   7
HETATM    7  C   UNL     1      -9.474   5.404  67.564  1.00  0.00    -0.121 A  
HETATM    8  C   UNL     1      -8.321   6.116  67.212  1.00  0.00    -0.105 A  
HETATM    9  C   UNL     1      -8.391   7.469  66.870  1.00  0.00    -0.125 A  
HETATM   10  C   UNL     1      -9.614   8.144  66.878  1.00  0.00    -0.269 A  
HETATM   11  C   UNL     1     -10.785   7.408  67.117  1.00  0.00    -0.400 A  
HETATM   12  C   UNL     1     -10.711   6.045  67.457  1.00  0.00    -0.383 A  
BRANCH  10  13
HETATM   13  C   UNL     1      -9.628   9.641  66.853  1.00  0.00    -0.217 C  
HETATM   14 CL   UNL     1      -9.578  14.571  67.742  1.00  0.00    -0.212 Cl 
HETATM   15  C   UNL     1      -9.708  10.375  67.997  1.00  0.00    -0.166 C  
HETATM   16  C   UNL     1      -9.509  12.901  67.093  1.00  0.00    -0.229 C  
HETATM   17  C   UNL     1      -9.710  11.896  68.222  1.00  0.00    -0.200 C  
BRANCH  13  18
HETATM   18  C   UNL     1      -9.683  10.285  65.504  1.00  0.00    -0.326 A  
HETATM   19  C   UNL     1     -10.888  10.864  65.072  1.00  0.00    -0.142 A  
HETATM   20  C   UNL     1     -10.993  11.455  63.809  1.00  0.00    -0.448 A  
HETATM   21  C   UNL     1      -8.686  10.902  63.377  1.00  0.00    -0.074 A  
HETATM   22  C   UNL     1      -9.883  11.490  62.968  1.00  0.00    -0.367 A  
HETATM   23  C   UNL     1      -8.591  10.278  64.627  1.00  0.00    -0.194 A  
ENDBRANCH  13  18
BRANCH  15  24
HETATM   24  C   UNL     1      -9.903   9.729  69.332  1.00  0.00    -0.217 A  
HETATM   25  C   UNL     1      -8.813   9.269  70.079  1.00  0.00    -0.212 A  
HETATM   26  C   UNL     1     -10.249   8.925  71.999  1.00  0.00    -0.363 A  
HETATM   27  C   UNL     1     -11.346   9.361  71.257  1.00  0.00    -0.436 A  
HETATM   28  C   UNL     1      -8.987   8.873  71.410  1.00  0.00    -0.300 A  
HETATM   29  C   UNL     1     -11.174   9.760  69.930  1.00  0.00    -0.271 A  
ENDBRANCH  15  24
ENDBRANCH  10  13
ENDBRANCH   6   7
ENDBRANCH   5   6
ENDBRANCH   4   5
ENDBRANCH   2   4
TORSDOF 7
ENDMDL
MODEL       63
REMARK 921   NORMALIZED FREE ENERGY PREDICTED BY IDOCK:   -4.58 KCAL/MOL
REMARK 922        TOTAL FREE ENERGY PREDICTED BY IDOCK:   -8.51 KCAL/MOL
REMARK 923 INTER-LIGAND FREE ENERGY PREDICTED BY IDOCK:   -6.59 KCAL/MOL
REMARK 924 INTRA-LIGAND FREE ENERGY PREDICTED BY IDOCK:   -1.93 KCAL/MOL
REMARK 927      BINDING AFFINITY PREDICTED BY RF-SCORE:    0.00 PKD
ROOT
HETATM    1  C   UNL     1     -10.766   5.657  70.366  1.00  0.00    -0.282 C  
HETATM    2  N   UNL     1      -9.393   5.156  70.281  1.00  0.00    -0.148 NA 
HETATM    3  C   UNL     1      -9.066   4.418  71.504  1.00  0.00    -0.131 C  
ENDROOT
BRANCH   2   4
HETATM    4  C   UNL     1      -9.210   4.334  69.058  1.00  0.00    -0.145 C  
BRANCH   4   5
HETATM    5  C   UNL     1     -10.022   4.854  67.856  1.00  0.00    -0.123 C  
BRANCH   5   6
HETATM    6  O   UNL     1      -9.189   5.345  66.795  1.00  0.00    -0.123 OA 
BRANCH   6   7
HETATM    7  C   UNL     1      -9.381   6.676  66.488  1.00  0.00    -0.159 A  
HETATM    8  C   UNL     1      -8.641   7.392  65.540  1.00  0.00    -0.093 A  
HETATM    9  C   UNL     1      -8.804   8.772  65.397  1.00  0.00    -0.221 A  
HETATM   10  C   UNL     1      -9.707   9.470  66.202  1.00  0.00    -0.324 A  
HETATM   11  C   UNL     1     -10.534   8.741  67.071  1.00  0.00    -0.338 A  
HETATM   12  C   UNL     1     -10.369   7.351  67.210  1.00  0.00    -0.356 A  
BRANCH  10  13
HETATM   13  C   UNL     1      -9.622  10.963  66.280  1.00  0.00    -0.234 C  
HETATM   14 CL   UNL     1      -8.529  15.787  67.079  1.00  0.00    -0.227 Cl 
HETATM   15  C   UNL     1      -8.736  11.586  67.107  1.00  0.00    -0.160 C  
HETATM   16  C   UNL     1      -9.112  14.185  66.522  1.00  0.00    -0.173 C  
HETATM   17  C   UNL     1      -8.448  13.079  67.334  1.00  0.00    -0.200 C  
BRANCH  13  18
HETATM   18  C   UNL     1     -10.645  11.732  65.508  1.00  0.00    -0.323 A  
HETATM   19  C   UNL     1     -10.529  11.812  64.109  1.00  0.00    -0.394 A  
HETATM   20  C   UNL     1     -11.449  12.541  63.349  1.00  0.00    -0.523 A  
HETATM   21  C   UNL     1     -12.628  13.129  65.368  1.00  0.00    -0.512 A  
HETATM   22  C   UNL     1     -12.511  13.184  63.979  1.00  0.00    -0.346 A  
HETATM   23  C   UNL     1     -11.686  12.429  66.133  1.00  0.00    -0.460 A  
ENDBRANCH  13  18
BRANCH  15  24
HETATM   24  C   UNL     1      -7.882  10.818  68.064  1.00  0.00    -0.106 A  
HETATM   25  C   UNL     1      -6.507  10.668  67.847  1.00  0.00    -0.059 A  
HETATM   26  C   UNL     1      -6.236   9.758  70.076  1.00  0.00    -0.059 A  
HETATM   27  C   UNL     1      -7.607   9.883  70.295  1.00  0.00    -0.172 A  
HETATM   28  C   UNL     1      -5.688  10.143  68.853  1.00  0.00    -0.034 A  
HETATM   29  C   UNL     1      -8.426  10.410  69.293  1.00  0.00    -0.162 A  
ENDBRANCH  15  24
ENDBRANCH  10  13
ENDBRANCH   6   7
ENDBRANCH   5   6
ENDBRANCH   4   5
ENDBRANCH   2   4
TORSDOF 7
ENDMDL
MODEL       64
REMARK 921   NORMALIZED FREE ENERGY PREDICTED BY IDOCK:   -4.57 KCAL/MOL
REMARK 922        TOTAL FREE ENERGY PREDICTED BY IDOCK:   -8.51 KCAL/MOL
REMARK 923 INTER-LIGAND FREE ENERGY PREDICTED BY IDOCK:   -7.33 KCAL/MOL
REMARK 924 INTRA-LIGAND FREE ENERGY PREDICTED BY IDOCK:   -1.18 KCAL/MOL
REMARK 927      BINDING AFFINITY PREDICTED BY RF-SCORE:    0.00 PKD
ROOT
HETATM    1  C   UNL     1     -10.046   4.482  66.881  1.00  0.00    -0.162 C  
HETATM    2  N   UNL     1      -8.790   3.730  66.879  1.00  0.00    -0.118 NA 
HETATM    3  C   UNL     1      -8.689   2.950  65.642  1.00  0.00    -0.127 C  
ENDROOT
BRANCH   2   4
HETATM    4  C   UNL     1      -7.634   4.643  67.066  1.00  0.00    -0.086 C  
BRANCH   4   5
HETATM    5  C   UNL     1      -7.979   6.118  66.784  1.00  0.00    -0.105 C  
BRANCH   5   6
HETATM    6  O   UNL     1      -7.448   7.011  67.774  1.00  0.00    -0.094 OA 
BRANCH   6   7
HETATM    7  C   UNL     1      -8.218   8.133  68.004  1.00  0.00    -0.129 A  
HETATM    8  C   UNL     1      -7.739   9.336  68.535  1.00  0.00    -0.085 A  
HETATM    9  C   UNL     1      -8.615  10.371  68.871  1.00  0.00    -0.149 A  
HETATM   10  C   UNL     1      -9.992  10.225  68.689  1.00  0.00    -0.183 A  
HETATM   11  C   UNL     1     -10.466   9.068  68.051  1.00  0.00    -0.270 A  
HETATM   12  C   UNL     1      -9.581   8.030  67.710  1.00  0.00    -0.179 A  
BRANCH  10  13
HETATM   13  C   UNL     1     -10.928  11.180  69.363  1.00  0.00    -0.298 C  
HETATM   14 CL   UNL     1     -14.046  13.722  72.349  1.00  0.00    -0.639 Cl 
HETATM   15  C   UNL     1     -11.576  10.853  70.516  1.00  0.00    -0.397 C  
HETATM   16  C   UNL     1     -12.884  13.125  71.121  1.00  0.00    -0.264 C  
HETATM   17  C   UNL     1     -12.545  11.664  71.392  1.00  0.00    -0.391 C  
BRANCH  13  18
HETATM   18  C   UNL     1     -11.218  12.454  68.637  1.00  0.00    -0.314 A  
HETATM   19  C   UNL     1     -10.846  13.677  69.224  1.00  0.00    -0.123 A  
HETATM   20  C   UNL     1     -11.120  14.893  68.592  1.00  0.00    -0.272 A  
HETATM   21  C   UNL     1     -12.144  13.698  66.766  1.00  0.00    -0.445 A  
HETATM   22  C   UNL     1     -11.753  14.902  67.352  1.00  0.00    -0.311 A  
HETATM   23  C   UNL     1     -11.903  12.480  67.415  1.00  0.00    -0.381 A  
ENDBRANCH  13  18
BRANCH  15  24
HETATM   24  C   UNL     1     -11.478   9.485  71.110  1.00  0.00    -0.430 A  
HETATM   25  C   UNL     1     -12.552   8.589  71.044  1.00  0.00    -0.060 A  
HETATM   26  C   UNL     1     -11.129   6.796  71.838  1.00  0.00    -0.279 A  
HETATM   27  C   UNL     1     -10.060   7.685  71.929  1.00  0.00    -0.218 A  
HETATM   28  C   UNL     1     -12.374   7.248  71.403  1.00  0.00    -0.403 A  
HETATM   29  C   UNL     1     -10.234   9.023  71.567  1.00  0.00    -0.414 A  
ENDBRANCH  15  24
ENDBRANCH  10  13
ENDBRANCH   6   7
ENDBRANCH   5   6
ENDBRANCH   4   5
ENDBRANCH   2   4
TORSDOF 7
ENDMDL
MODEL       65
REMARK 921   NORMALIZED FREE ENERGY PREDICTED BY IDOCK:   -4.57 KCAL/MOL
REMARK 922        TOTAL FREE ENERGY PREDICTED BY IDOCK:   -8.51 KCAL/MOL
REMARK 923 INTER-LIGAND FREE ENERGY PREDICTED BY IDOCK:   -7.21 KCAL/MOL
REMARK 924 INTRA-LIGAND FREE ENERGY PREDICTED BY IDOCK:   -1.30 KCAL/MOL
REMARK 927      BINDING AFFINITY PREDICTED BY RF-SCORE:    0.00 PKD
ROOT
HETATM    1  C   UNL     1      -7.436   4.948  66.156  1.00  0.00    -0.086 C  
HETATM    2  N   UNL     1      -6.778   5.421  64.937  1.00  0.00    -0.046 NA 
HETATM    3  C   UNL     1      -6.689   4.323  63.971  1.00  0.00    -0.044 C  
ENDROOT
BRANCH   2   4
HETATM    4  C   UNL     1      -7.488   6.603  64.384  1.00  0.00    -0.095 C  
BRANCH   4   5
HETATM    5  C   UNL     1      -8.285   7.380  65.450  1.00  0.00    -0.134 C  
BRANCH   5   6
HETATM    6  O   UNL     1      -8.797   8.628  64.959  1.00  0.00    -0.165 OA 
BRANCH   6   7
HETATM    7  C   UNL     1      -9.265   9.478  65.940  1.00  0.00    -0.206 A  
HETATM    8  C   UNL     1      -8.597   9.762  67.137  1.00  0.00    -0.129 A  
HETATM    9  C   UNL     1      -9.210  10.520  68.137  1.00  0.00    -0.148 A  
HETATM   10  C   UNL     1     -10.508  11.007  67.968  1.00  0.00    -0.219 A  
HETATM   11  C   UNL     1     -11.136  10.823  66.726  1.00  0.00    -0.153 A  
HETATM   12  C   UNL     1     -10.515  10.063  65.720  1.00  0.00    -0.084 A  
BRANCH  10  13
HETATM   13  C   UNL     1     -11.268  11.506  69.158  1.00  0.00    -0.337 C  
HETATM   14 CL   UNL     1     -13.793  14.036  72.668  1.00  0.00    -0.578 Cl 
HETATM   15  C   UNL     1     -11.506  12.833  69.349  1.00  0.00    -0.321 C  
HETATM   16  C   UNL     1     -13.032  12.845  71.565  1.00  0.00    -0.294 C  
HETATM   17  C   UNL     1     -12.274  13.570  70.459  1.00  0.00    -0.433 C  
BRANCH  13  18
HETATM   18  C   UNL     1     -11.634  10.488  70.190  1.00  0.00    -0.408 A  
HETATM   19  C   UNL     1     -12.987  10.150  70.367  1.00  0.00    -0.116 A  
HETATM   20  C   UNL     1     -13.378   9.223  71.338  1.00  0.00    -0.390 A  
HETATM   21  C   UNL     1     -11.070   8.945  71.979  1.00  0.00    -0.421 A  
HETATM   22  C   UNL     1     -12.415   8.605  72.132  1.00  0.00    -0.453 A  
HETATM   23  C   UNL     1     -10.682   9.901  71.032  1.00  0.00    -0.241 A  
ENDBRANCH  13  18
BRANCH  15  24
HETATM   24  C   UNL     1     -10.925  13.873  68.445  1.00  0.00    -0.272 A  
HETATM   25  C   UNL     1      -9.580  14.248  68.545  1.00  0.00    -0.220 A  
HETATM   26  C   UNL     1      -9.755  15.493  66.474  1.00  0.00    -0.290 A  
HETATM   27  C   UNL     1     -11.100  15.144  66.377  1.00  0.00    -0.312 A  
HETATM   28  C   UNL     1      -8.998  15.052  67.558  1.00  0.00    -0.189 A  
HETATM   29  C   UNL     1     -11.683  14.339  67.359  1.00  0.00    -0.422 A  
ENDBRANCH  15  24
ENDBRANCH  10  13
ENDBRANCH   6   7
ENDBRANCH   5   6
ENDBRANCH   4   5
ENDBRANCH   2   4
TORSDOF 7
ENDMDL
MODEL       66
REMARK 921   NORMALIZED FREE ENERGY PREDICTED BY IDOCK:   -4.53 KCAL/MOL
REMARK 922        TOTAL FREE ENERGY PREDICTED BY IDOCK:   -8.45 KCAL/MOL
REMARK 923 INTER-LIGAND FREE ENERGY PREDICTED BY IDOCK:   -6.40 KCAL/MOL
REMARK 924 INTRA-LIGAND FREE ENERGY PREDICTED BY IDOCK:   -2.05 KCAL/MOL
REMARK 927      BINDING AFFINITY PREDICTED BY RF-SCORE:    0.00 PKD
ROOT
HETATM    1  C   UNL     1     -12.262  14.911  64.229  1.00  0.00    -0.344 C  
HETATM    2  N   UNL     1     -12.749  13.545  64.428  1.00  0.00    -0.658 NA 
HETATM    3  C   UNL     1     -12.257  12.688  63.346  1.00  0.00    -0.517 C  
ENDROOT
BRANCH   2   4
HETATM    4  C   UNL     1     -12.358  13.041  65.769  1.00  0.00    -0.416 C  
BRANCH   4   5
HETATM    5  C   UNL     1     -11.217  12.006  65.715  1.00  0.00    -0.334 C  
BRANCH   5   6
HETATM    6  O   UNL     1     -10.162  12.294  66.645  1.00  0.00    -0.213 OA 
BRANCH   6   7
HETATM    7  C   UNL     1      -9.936  11.304  67.578  1.00  0.00    -0.182 A  
HETATM    8  C   UNL     1      -8.868  11.286  68.482  1.00  0.00    -0.159 A  
HETATM    9  C   UNL     1      -8.633  10.172  69.292  1.00  0.00    -0.180 A  
HETATM   10  C   UNL     1      -9.458   9.048  69.214  1.00  0.00    -0.157 A  
HETATM   11  C   UNL     1     -10.596   9.106  68.395  1.00  0.00    -0.217 A  
HETATM   12  C   UNL     1     -10.831  10.230  67.583  1.00  0.00    -0.363 A  
BRANCH  10  13
HETATM   13  C   UNL     1      -9.000   7.757  69.818  1.00  0.00    -0.146 C  
HETATM   14 CL   UNL     1      -6.906   3.371  71.037  1.00  0.00    -0.032 Cl 
HETATM   15  C   UNL     1      -8.227   6.876  69.123  1.00  0.00    -0.121 C  
HETATM   16  C   UNL     1      -7.730   4.961  70.947  1.00  0.00    -0.078 C  
HETATM   17  C   UNL     1      -7.620   5.524  69.535  1.00  0.00    -0.071 C  
BRANCH  13  18
HETATM   18  C   UNL     1      -9.543   7.423  71.171  1.00  0.00    -0.162 A  
HETATM   19  C   UNL     1      -8.893   7.924  72.312  1.00  0.00    -0.202 A  
HETATM   20  C   UNL     1      -9.351   7.617  73.597  1.00  0.00    -0.344 A  
HETATM   21  C   UNL     1     -11.125   6.299  72.633  1.00  0.00    -0.298 A  
HETATM   22  C   UNL     1     -10.481   6.818  73.756  1.00  0.00    -0.383 A  
HETATM   23  C   UNL     1     -10.644   6.576  71.346  1.00  0.00    -0.266 A  
ENDBRANCH  13  18
BRANCH  15  24
HETATM   24  C   UNL     1      -7.889   7.095  67.683  1.00  0.00    -0.113 A  
HETATM   25  C   UNL     1      -6.690   7.711  67.308  1.00  0.00    -0.068 A  
HETATM   26  C   UNL     1      -7.080   7.102  64.995  1.00  0.00    -0.064 A  
HETATM   27  C   UNL     1      -8.286   6.505  65.356  1.00  0.00    -0.140 A  
HETATM   28  C   UNL     1      -6.287   7.710  65.967  1.00  0.00    -0.042 A  
HETATM   29  C   UNL     1      -8.689   6.502  66.694  1.00  0.00    -0.128 A  
ENDBRANCH  15  24
ENDBRANCH  10  13
ENDBRANCH   6   7
ENDBRANCH   5   6
ENDBRANCH   4   5
ENDBRANCH   2   4
TORSDOF 7
ENDMDL
MODEL       67
REMARK 921   NORMALIZED FREE ENERGY PREDICTED BY IDOCK:   -4.53 KCAL/MOL
REMARK 922        TOTAL FREE ENERGY PREDICTED BY IDOCK:   -8.45 KCAL/MOL
REMARK 923 INTER-LIGAND FREE ENERGY PREDICTED BY IDOCK:   -8.22 KCAL/MOL
REMARK 924 INTRA-LIGAND FREE ENERGY PREDICTED BY IDOCK:   -0.22 KCAL/MOL
REMARK 927      BINDING AFFINITY PREDICTED BY RF-SCORE:    0.00 PKD
ROOT
HETATM    1  C   UNL     1     -10.247  20.058  67.698  1.00  0.00    -0.408 C  
HETATM    2  N   UNL     1      -8.813  20.061  67.402  1.00  0.00    -0.335 NA 
HETATM    3  C   UNL     1      -8.085  19.434  68.508  1.00  0.00    -0.361 C  
ENDROOT
BRANCH   2   4
HETATM    4  C   UNL     1      -8.546  19.397  66.101  1.00  0.00    -0.284 C  
BRANCH   4   5
HETATM    5  C   UNL     1      -8.555  17.859  66.196  1.00  0.00    -0.096 C  
BRANCH   5   6
HETATM    6  O   UNL     1      -9.848  17.294  65.931  1.00  0.00    -0.494 OA 
BRANCH   6   7
HETATM    7  C   UNL     1     -10.088  16.095  66.569  1.00  0.00    -0.291 A  
HETATM    8  C   UNL     1      -9.390  15.632  67.691  1.00  0.00    -0.206 A  
HETATM    9  C   UNL     1      -9.601  14.342  68.184  1.00  0.00    -0.218 A  
HETATM   10  C   UNL     1     -10.510  13.482  67.564  1.00  0.00    -0.237 A  
HETATM   11  C   UNL     1     -11.295  13.980  66.512  1.00  0.00    -0.343 A  
HETATM   12  C   UNL     1     -11.083  15.280  66.021  1.00  0.00    -0.278 A  
BRANCH  10  13
HETATM   13  C   UNL     1     -10.470  12.019  67.879  1.00  0.00    -0.221 C  
HETATM   14 CL   UNL     1     -11.027   7.345  69.597  1.00  0.00    -0.224 Cl 
HETATM   15  C   UNL     1     -11.122  11.502  68.958  1.00  0.00    -0.302 C  
HETATM   16  C   UNL     1     -10.687   8.859  68.699  1.00  0.00    -0.078 C  
HETATM   17  C   UNL     1     -11.249  10.054  69.460  1.00  0.00    -0.254 C  
BRANCH  13  18
HETATM   18  C   UNL     1      -9.573  11.177  67.029  1.00  0.00    -0.201 A  
HETATM   19  C   UNL     1      -8.215  11.061  67.374  1.00  0.00    -0.122 A  
HETATM   20  C   UNL     1      -7.335  10.305  66.594  1.00  0.00    -0.109 A  
HETATM   21  C   UNL     1      -9.149   9.761  65.102  1.00  0.00    -0.270 A  
HETATM   22  C   UNL     1      -7.808   9.639  65.467  1.00  0.00    -0.111 A  
HETATM   23  C   UNL     1     -10.023  10.548  65.862  1.00  0.00    -0.313 A  
ENDBRANCH  13  18
BRANCH  15  24
HETATM   24  C   UNL     1     -11.816  12.378  69.950  1.00  0.00    -0.376 A  
HETATM   25  C   UNL     1     -12.037  13.735  69.687  1.00  0.00    -0.392 A  
HETATM   26  C   UNL     1     -13.490  13.893  71.619  1.00  0.00    -0.428 A  
HETATM   27  C   UNL     1     -13.260  12.548  71.903  1.00  0.00    -0.495 A  
HETATM   28  C   UNL     1     -12.876  14.487  70.518  1.00  0.00    -0.361 A  
HETATM   29  C   UNL     1     -12.426  11.795  71.073  1.00  0.00    -0.411 A  
ENDBRANCH  15  24
ENDBRANCH  10  13
ENDBRANCH   6   7
ENDBRANCH   5   6
ENDBRANCH   4   5
ENDBRANCH   2   4
TORSDOF 7
ENDMDL
MODEL       68
REMARK 921   NORMALIZED FREE ENERGY PREDICTED BY IDOCK:   -4.49 KCAL/MOL
REMARK 922        TOTAL FREE ENERGY PREDICTED BY IDOCK:   -8.39 KCAL/MOL
REMARK 923 INTER-LIGAND FREE ENERGY PREDICTED BY IDOCK:   -6.58 KCAL/MOL
REMARK 924 INTRA-LIGAND FREE ENERGY PREDICTED BY IDOCK:   -1.81 KCAL/MOL
REMARK 927      BINDING AFFINITY PREDICTED BY RF-SCORE:    0.00 PKD
ROOT
HETATM    1  C   UNL     1      -7.232   4.612  63.039  1.00  0.00    -0.044 C  
HETATM    2  N   UNL     1      -6.932   3.895  64.280  1.00  0.00    -0.045 NA 
HETATM    3  C   UNL     1      -5.493   3.630  64.355  1.00  0.00    -0.009 C  
ENDROOT
BRANCH   2   4
HETATM    4  C   UNL     1      -7.430   4.653  65.456  1.00  0.00    -0.081 C  
BRANCH   4   5
HETATM    5  C   UNL     1      -7.813   6.106  65.117  1.00  0.00    -0.108 C  
BRANCH   5   6
HETATM    6  O   UNL     1      -7.182   7.062  65.982  1.00  0.00    -0.071 OA 
BRANCH   6   7
HETATM    7  C   UNL     1      -8.043   7.705  66.847  1.00  0.00    -0.116 A  
HETATM    8  C   UNL     1      -9.433   7.542  66.859  1.00  0.00    -0.219 A  
HETATM    9  C   UNL     1     -10.242   8.342  67.671  1.00  0.00    -0.298 A  
HETATM   10  C   UNL     1      -9.680   9.326  68.486  1.00  0.00    -0.162 A  
HETATM   11  C   UNL     1      -8.281   9.414  68.565  1.00  0.00    -0.113 A  
HETATM   12  C   UNL     1      -7.470   8.606  67.750  1.00  0.00    -0.097 A  
BRANCH  10  13
HETATM   13  C   UNL     1     -10.560  10.386  69.073  1.00  0.00    -0.247 C  
HETATM   14 CL   UNL     1     -13.492  13.366  71.835  1.00  0.00    -0.516 Cl 
HETATM   15  C   UNL     1     -11.183  10.216  70.272  1.00  0.00    -0.387 C  
HETATM   16  C   UNL     1     -12.390  12.591  70.652  1.00  0.00    -0.282 C  
HETATM   17  C   UNL     1     -12.095  11.157  71.077  1.00  0.00    -0.380 C  
BRANCH  13  18
HETATM   18  C   UNL     1     -10.827  11.581  68.215  1.00  0.00    -0.257 A  
HETATM   19  C   UNL     1     -11.695  11.456  67.117  1.00  0.00    -0.059 A  
HETATM   20  C   UNL     1     -11.953  12.541  66.273  1.00  0.00    -0.410 A  
HETATM   21  C   UNL     1     -10.480  13.908  67.606  1.00  0.00    -0.245 A  
HETATM   22  C   UNL     1     -11.359  13.774  66.530  1.00  0.00    -0.336 A  
HETATM   23  C   UNL     1     -10.193  12.812  68.429  1.00  0.00    -0.237 A  
ENDBRANCH  13  18
BRANCH  15  24
HETATM   24  C   UNL     1     -11.115   8.920  71.015  1.00  0.00    -0.340 A  
HETATM   25  C   UNL     1     -10.179   8.720  72.036  1.00  0.00    -0.401 A  
HETATM   26  C   UNL     1     -11.290   6.664  72.676  1.00  0.00    -0.262 A  
HETATM   27  C   UNL     1     -12.214   6.843  71.649  1.00  0.00    -0.403 A  
HETATM   28  C   UNL     1     -10.270   7.596  72.865  1.00  0.00    -0.356 A  
HETATM   29  C   UNL     1     -12.127   7.966  70.822  1.00  0.00    -0.101 A  
ENDBRANCH  15  24
ENDBRANCH  10  13
ENDBRANCH   6   7
ENDBRANCH   5   6
ENDBRANCH   4   5
ENDBRANCH   2   4
TORSDOF 7
ENDMDL
MODEL       69
REMARK 921   NORMALIZED FREE ENERGY PREDICTED BY IDOCK:   -4.48 KCAL/MOL
REMARK 922        TOTAL FREE ENERGY PREDICTED BY IDOCK:   -8.37 KCAL/MOL
REMARK 923 INTER-LIGAND FREE ENERGY PREDICTED BY IDOCK:   -6.39 KCAL/MOL
REMARK 924 INTRA-LIGAND FREE ENERGY PREDICTED BY IDOCK:   -1.98 KCAL/MOL
REMARK 927      BINDING AFFINITY PREDICTED BY RF-SCORE:    0.00 PKD
ROOT
HETATM    1  C   UNL     1     -12.652  12.163  63.381  1.00  0.00    -0.463 C  
HETATM    2  N   UNL     1     -11.701  12.155  64.494  1.00  0.00    -0.348 NA 
HETATM    3  C   UNL     1     -10.394  11.696  64.017  1.00  0.00    -0.357 C  
ENDROOT
BRANCH   2   4
HETATM    4  C   UNL     1     -11.631  13.495  65.131  1.00  0.00    -0.316 C  
BRANCH   4   5
HETATM    5  C   UNL     1     -12.379  13.563  66.477  1.00  0.00    -0.327 C  
BRANCH   5   6
HETATM    6  O   UNL     1     -11.492  13.552  67.605  1.00  0.00    -0.285 OA 
BRANCH   6   7
HETATM    7  C   UNL     1     -10.920  12.325  67.870  1.00  0.00    -0.224 A  
HETATM    8  C   UNL     1      -9.558  12.114  68.114  1.00  0.00    -0.208 A  
HETATM    9  C   UNL     1      -9.042  10.820  68.228  1.00  0.00    -0.157 A  
HETATM   10  C   UNL     1      -9.875   9.707  68.096  1.00  0.00    -0.172 A  
HETATM   11  C   UNL     1     -11.257   9.915  67.967  1.00  0.00    -0.129 A  
HETATM   12  C   UNL     1     -11.773  11.218  67.856  1.00  0.00    -0.289 A  
BRANCH  10  13
HETATM   13  C   UNL     1      -9.267   8.356  67.875  1.00  0.00    -0.144 C  
HETATM   14 CL   UNL     1      -7.805   3.564  67.887  1.00  0.00    -0.072 Cl 
HETATM   15  C   UNL     1      -9.461   7.332  68.752  1.00  0.00    -0.142 C  
HETATM   16  C   UNL     1      -8.203   5.280  67.551  1.00  0.00    -0.100 C  
HETATM   17  C   UNL     1      -8.973   5.875  68.724  1.00  0.00    -0.117 C  
BRANCH  13  18
HETATM   18  C   UNL     1      -8.331   8.227  66.716  1.00  0.00    -0.107 A  
HETATM   19  C   UNL     1      -6.951   8.389  66.929  1.00  0.00    -0.074 A  
HETATM   20  C   UNL     1      -6.042   8.302  65.870  1.00  0.00    -0.045 A  
HETATM   21  C   UNL     1      -7.871   7.887  64.355  1.00  0.00    -0.139 A  
HETATM   22  C   UNL     1      -6.503   8.031  64.584  1.00  0.00    -0.056 A  
HETATM   23  C   UNL     1      -8.785   8.011  65.409  1.00  0.00    -0.101 A  
ENDBRANCH  13  18
BRANCH  15  24
HETATM   24  C   UNL     1     -10.194   7.531  70.041  1.00  0.00    -0.215 A  
HETATM   25  C   UNL     1      -9.733   8.438  71.002  1.00  0.00    -0.218 A  
HETATM   26  C   UNL     1     -11.802   8.204  72.240  1.00  0.00    -0.441 A  
HETATM   27  C   UNL     1     -12.261   7.284  71.300  1.00  0.00    -0.389 A  
HETATM   28  C   UNL     1     -10.539   8.775  72.096  1.00  0.00    -0.386 A  
HETATM   29  C   UNL     1     -11.460   6.948  70.206  1.00  0.00    -0.373 A  
ENDBRANCH  15  24
ENDBRANCH  10  13
ENDBRANCH   6   7
ENDBRANCH   5   6
ENDBRANCH   4   5
ENDBRANCH   2   4
TORSDOF 7
ENDMDL
MODEL       70
REMARK 921   NORMALIZED FREE ENERGY PREDICTED BY IDOCK:   -4.45 KCAL/MOL
REMARK 922        TOTAL FREE ENERGY PREDICTED BY IDOCK:   -8.33 KCAL/MOL
REMARK 923 INTER-LIGAND FREE ENERGY PREDICTED BY IDOCK:   -6.36 KCAL/MOL
REMARK 924 INTRA-LIGAND FREE ENERGY PREDICTED BY IDOCK:   -1.97 KCAL/MOL
REMARK 927      BINDING AFFINITY PREDICTED BY RF-SCORE:    0.00 PKD
ROOT
HETATM    1  C   UNL     1     -12.071  14.187  68.471  1.00  0.00    -0.277 C  
HETATM    2  N   UNL     1     -11.389  15.076  67.528  1.00  0.00    -0.331 NA 
HETATM    3  C   UNL     1     -10.800  16.202  68.256  1.00  0.00    -0.326 C  
ENDROOT
BRANCH   2   4
HETATM    4  C   UNL     1     -10.381  14.325  66.737  1.00  0.00    -0.274 C  
BRANCH   4   5
HETATM    5  C   UNL     1      -9.843  13.082  67.472  1.00  0.00    -0.209 C  
BRANCH   5   6
HETATM    6  O   UNL     1      -9.529  12.002  66.580  1.00  0.00    -0.216 OA 
BRANCH   6   7
HETATM    7  C   UNL     1      -9.519  10.756  67.172  1.00  0.00    -0.160 A  
HETATM    8  C   UNL     1      -8.462  10.240  67.931  1.00  0.00    -0.118 A  
HETATM    9  C   UNL     1      -8.476   8.914  68.371  1.00  0.00    -0.129 A  
HETATM   10  C   UNL     1      -9.544   8.071  68.058  1.00  0.00    -0.170 A  
HETATM   11  C   UNL     1     -10.657   8.615  67.398  1.00  0.00    -0.298 A  
HETATM   12  C   UNL     1     -10.642   9.951  66.960  1.00  0.00    -0.272 A  
BRANCH  10  13
HETATM   13  C   UNL     1      -9.388   6.592  68.230  1.00  0.00    -0.118 C  
HETATM   14 CL   UNL     1      -9.476   1.764  69.565  1.00  0.00    -0.156 Cl 
HETATM   15  C   UNL     1      -9.869   5.945  69.328  1.00  0.00    -0.205 C  
HETATM   16  C   UNL     1      -9.332   3.367  68.775  1.00  0.00    -0.167 C  
HETATM   17  C   UNL     1      -9.855   4.454  69.707  1.00  0.00    -0.284 C  
BRANCH  13  18
HETATM   18  C   UNL     1      -8.563   5.884  67.203  1.00  0.00    -0.106 A  
HETATM   19  C   UNL     1      -7.193   5.684  67.445  1.00  0.00    -0.076 A  
HETATM   20  C   UNL     1      -6.379   5.050  66.501  1.00  0.00    -0.036 A  
HETATM   21  C   UNL     1      -8.286   4.797  65.048  1.00  0.00    -0.132 A  
HETATM   22  C   UNL     1      -6.932   4.589  65.309  1.00  0.00    -0.062 A  
HETATM   23  C   UNL     1      -9.094   5.465  65.977  1.00  0.00    -0.159 A  
ENDBRANCH  13  18
BRANCH  15  24
HETATM   24  C   UNL     1     -10.476   6.688  70.475  1.00  0.00    -0.240 A  
HETATM   25  C   UNL     1      -9.693   7.495  71.309  1.00  0.00    -0.173 A  
HETATM   26  C   UNL     1     -11.691   8.404  72.335  1.00  0.00    -0.452 A  
HETATM   27  C   UNL     1     -12.479   7.589  71.524  1.00  0.00    -0.375 A  
HETATM   28  C   UNL     1     -10.302   8.352  72.233  1.00  0.00    -0.403 A  
HETATM   29  C   UNL     1     -11.874   6.735  70.598  1.00  0.00    -0.442 A  
ENDBRANCH  15  24
ENDBRANCH  10  13
ENDBRANCH   6   7
ENDBRANCH   5   6
ENDBRANCH   4   5
ENDBRANCH   2   4
TORSDOF 7
ENDMDL
MODEL       71
REMARK 921   NORMALIZED FREE ENERGY PREDICTED BY IDOCK:   -4.45 KCAL/MOL
REMARK 922        TOTAL FREE ENERGY PREDICTED BY IDOCK:   -8.33 KCAL/MOL
REMARK 923 INTER-LIGAND FREE ENERGY PREDICTED BY IDOCK:   -6.20 KCAL/MOL
REMARK 924 INTRA-LIGAND FREE ENERGY PREDICTED BY IDOCK:   -2.13 KCAL/MOL
REMARK 927      BINDING AFFINITY PREDICTED BY RF-SCORE:    0.00 PKD
ROOT
HETATM    1  C   UNL     1     -14.030  13.941  72.308  1.00  0.00    -0.565 C  
HETATM    2  N   UNL     1     -12.763  13.682  71.622  1.00  0.00    -0.331 NA 
HETATM    3  C   UNL     1     -12.650  12.251  71.329  1.00  0.00    -0.234 C  
ENDROOT
BRANCH   2   4
HETATM    4  C   UNL     1     -12.648  14.519  70.402  1.00  0.00    -0.346 C  
BRANCH   4   5
HETATM    5  C   UNL     1     -11.454  14.125  69.510  1.00  0.00    -0.281 C  
BRANCH   5   6
HETATM    6  O   UNL     1     -11.835  13.892  68.146  1.00  0.00    -0.339 OA 
BRANCH   6   7
HETATM    7  C   UNL     1     -11.020  13.009  67.469  1.00  0.00    -0.259 A  
HETATM    8  C   UNL     1     -11.447  12.148  66.451  1.00  0.00    -0.430 A  
HETATM    9  C   UNL     1     -10.586  11.183  65.921  1.00  0.00    -0.294 A  
HETATM   10  C   UNL     1      -9.281  11.052  66.399  1.00  0.00    -0.192 A  
HETATM   11  C   UNL     1      -8.813  11.987  67.336  1.00  0.00    -0.178 A  
HETATM   12  C   UNL     1      -9.681  12.959  67.865  1.00  0.00    -0.218 A  
BRANCH  10  13
HETATM   13  C   UNL     1      -8.500   9.815  66.078  1.00  0.00    -0.131 C  
HETATM   14 CL   UNL     1      -6.320   5.313  65.807  1.00  0.00    -0.034 Cl 
HETATM   15  C   UNL     1      -8.432   8.767  66.946  1.00  0.00    -0.112 C  
HETATM   16  C   UNL     1      -7.015   6.947  65.561  1.00  0.00    -0.060 C  
HETATM   17  C   UNL     1      -7.729   7.404  66.827  1.00  0.00    -0.109 C  
BRANCH  13  18
HETATM   18  C   UNL     1      -7.694   9.844  64.820  1.00  0.00    -0.138 A  
HETATM   19  C   UNL     1      -6.354  10.267  64.874  1.00  0.00    -0.121 A  
HETATM   20  C   UNL     1      -5.571  10.333  63.718  1.00  0.00    -0.143 A  
HETATM   21  C   UNL     1      -7.447   9.553  62.420  1.00  0.00    -0.111 A  
HETATM   22  C   UNL     1      -6.114   9.957  62.492  1.00  0.00    -0.108 A  
HETATM   23  C   UNL     1      -8.243   9.521  63.572  1.00  0.00    -0.164 A  
ENDBRANCH  13  18
BRANCH  15  24
HETATM   24  C   UNL     1      -9.035   8.839  68.312  1.00  0.00    -0.141 A  
HETATM   25  C   UNL     1      -8.242   9.074  69.441  1.00  0.00    -0.117 A  
HETATM   26  C   UNL     1     -10.227   9.399  70.791  1.00  0.00    -0.368 A  
HETATM   27  C   UNL     1     -11.026   9.144  69.678  1.00  0.00    -0.168 A  
HETATM   28  C   UNL     1      -8.839   9.358  70.675  1.00  0.00    -0.275 A  
HETATM   29  C   UNL     1     -10.432   8.864  68.444  1.00  0.00    -0.230 A  
ENDBRANCH  15  24
ENDBRANCH  10  13
ENDBRANCH   6   7
ENDBRANCH   5   6
ENDBRANCH   4   5
ENDBRANCH   2   4
TORSDOF 7
ENDMDL
MODEL       72
REMARK 921   NORMALIZED FREE ENERGY PREDICTED BY IDOCK:   -4.43 KCAL/MOL
REMARK 922        TOTAL FREE ENERGY PREDICTED BY IDOCK:   -8.31 KCAL/MOL
REMARK 923 INTER-LIGAND FREE ENERGY PREDICTED BY IDOCK:   -6.47 KCAL/MOL
REMARK 924 INTRA-LIGAND FREE ENERGY PREDICTED BY IDOCK:   -1.84 KCAL/MOL
REMARK 927      BINDING AFFINITY PREDICTED BY RF-SCORE:    0.00 PKD
ROOT
HETATM    1  C   UNL     1      -8.977   1.500  66.055  1.00  0.00    -0.094 C  
HETATM    2  N   UNL     1      -8.300   2.291  65.025  1.00  0.00    -0.087 NA 
HETATM    3  C   UNL     1      -8.496   1.659  63.717  1.00  0.00    -0.077 C  
ENDROOT
BRANCH   2   4
HETATM    4  C   UNL     1      -8.776   3.698  65.049  1.00  0.00    -0.115 C  
BRANCH   4   5
HETATM    5  C   UNL     1      -8.307   4.471  66.297  1.00  0.00    -0.110 C  
BRANCH   5   6
HETATM    6  O   UNL     1      -9.379   5.154  66.962  1.00  0.00    -0.118 OA 
BRANCH   6   7
HETATM    7  C   UNL     1      -9.493   6.490  66.637  1.00  0.00    -0.159 A  
HETATM    8  C   UNL     1      -8.554   7.215  65.894  1.00  0.00    -0.157 A  
HETATM    9  C   UNL     1      -8.677   8.597  65.736  1.00  0.00    -0.212 A  
HETATM   10  C   UNL     1      -9.738   9.289  66.322  1.00  0.00    -0.340 A  
HETATM   11  C   UNL     1     -10.743   8.553  66.969  1.00  0.00    -0.190 A  
HETATM   12  C   UNL     1     -10.618   7.162  67.123  1.00  0.00    -0.417 A  
BRANCH  10  13
HETATM   13  C   UNL     1      -9.669  10.781  66.439  1.00  0.00    -0.241 C  
HETATM   14 CL   UNL     1      -8.768  15.588  67.524  1.00  0.00    -0.175 Cl 
HETATM   15  C   UNL     1      -8.982  11.388  67.446  1.00  0.00    -0.154 C  
HETATM   16  C   UNL     1      -9.219  13.997  66.832  1.00  0.00    -0.260 C  
HETATM   17  C   UNL     1      -8.748  12.877  67.752  1.00  0.00    -0.188 C  
BRANCH  13  18
HETATM   18  C   UNL     1     -10.500  11.564  65.474  1.00  0.00    -0.327 A  
HETATM   19  C   UNL     1     -11.655  12.218  65.939  1.00  0.00    -0.450 A  
HETATM   20  C   UNL     1     -12.475  12.940  65.067  1.00  0.00    -0.553 A  
HETATM   21  C   UNL     1     -11.005  12.377  63.241  1.00  0.00    -0.325 A  
HETATM   22  C   UNL     1     -12.138  13.036  63.719  1.00  0.00    -0.574 A  
HETATM   23  C   UNL     1     -10.203  11.622  64.107  1.00  0.00    -0.372 A  
ENDBRANCH  13  18
BRANCH  15  24
HETATM   24  C   UNL     1      -8.357  10.604  68.555  1.00  0.00    -0.130 A  
HETATM   25  C   UNL     1      -9.136  10.043  69.573  1.00  0.00    -0.236 A  
HETATM   26  C   UNL     1      -7.225   8.784  70.368  1.00  0.00    -0.050 A  
HETATM   27  C   UNL     1      -6.435   9.354  69.372  1.00  0.00    -0.044 A  
HETATM   28  C   UNL     1      -8.571   9.133  70.473  1.00  0.00    -0.252 A  
HETATM   29  C   UNL     1      -6.998  10.260  68.470  1.00  0.00    -0.066 A  
ENDBRANCH  15  24
ENDBRANCH  10  13
ENDBRANCH   6   7
ENDBRANCH   5   6
ENDBRANCH   4   5
ENDBRANCH   2   4
TORSDOF 7
ENDMDL
MODEL       73
REMARK 921   NORMALIZED FREE ENERGY PREDICTED BY IDOCK:   -4.42 KCAL/MOL
REMARK 922        TOTAL FREE ENERGY PREDICTED BY IDOCK:   -8.29 KCAL/MOL
REMARK 923 INTER-LIGAND FREE ENERGY PREDICTED BY IDOCK:   -6.25 KCAL/MOL
REMARK 924 INTRA-LIGAND FREE ENERGY PREDICTED BY IDOCK:   -2.04 KCAL/MOL
REMARK 927      BINDING AFFINITY PREDICTED BY RF-SCORE:    0.00 PKD
ROOT
HETATM    1  C   UNL     1     -10.817  16.551  65.058  1.00  0.00    -0.229 C  
HETATM    2  N   UNL     1     -10.912  15.105  65.268  1.00  0.00    -0.372 NA 
HETATM    3  C   UNL     1     -10.684  14.800  66.683  1.00  0.00    -0.309 C  
ENDROOT
BRANCH   2   4
HETATM    4  C   UNL     1     -12.218  14.591  64.782  1.00  0.00    -0.431 C  
BRANCH   4   5
HETATM    5  C   UNL     1     -12.078  13.370  63.852  1.00  0.00    -0.455 C  
BRANCH   5   6
HETATM    6  O   UNL     1     -10.721  12.916  63.735  1.00  0.00    -0.397 OA 
BRANCH   6   7
HETATM    7  C   UNL     1     -10.453  11.738  64.399  1.00  0.00    -0.311 A  
HETATM    8  C   UNL     1     -10.900  11.428  65.690  1.00  0.00    -0.280 A  
HETATM    9  C   UNL     1     -10.461  10.274  66.343  1.00  0.00    -0.233 A  
HETATM   10  C   UNL     1      -9.561   9.405  65.724  1.00  0.00    -0.340 A  
HETATM   11  C   UNL     1      -9.201   9.649  64.390  1.00  0.00    -0.258 A  
HETATM   12  C   UNL     1      -9.647  10.810  63.734  1.00  0.00    -0.339 A  
BRANCH  10  13
HETATM   13  C   UNL     1      -8.843   8.381  66.548  1.00  0.00    -0.172 C  
HETATM   14 CL   UNL     1      -6.071   5.735  69.776  1.00  0.00    -0.024 Cl 
HETATM   15  C   UNL     1      -7.869   8.731  67.435  1.00  0.00    -0.098 C  
HETATM   16  C   UNL     1      -7.242   6.379  68.582  1.00  0.00    -0.085 C  
HETATM   17  C   UNL     1      -7.026   7.877  68.396  1.00  0.00    -0.075 C  
BRANCH  13  18
HETATM   18  C   UNL     1      -9.154   6.949  66.253  1.00  0.00    -0.170 A  
HETATM   19  C   UNL     1     -10.259   6.346  66.877  1.00  0.00    -0.277 A  
HETATM   20  C   UNL     1     -10.572   5.002  66.650  1.00  0.00    -0.256 A  
HETATM   21  C   UNL     1      -8.680   4.829  65.165  1.00  0.00    -0.144 A  
HETATM   22  C   UNL     1      -9.792   4.248  65.777  1.00  0.00    -0.228 A  
HETATM   23  C   UNL     1      -8.345   6.164  65.421  1.00  0.00    -0.150 A  
ENDBRANCH  13  18
BRANCH  15  24
HETATM   24  C   UNL     1      -7.384  10.141  67.552  1.00  0.00    -0.089 A  
HETATM   25  C   UNL     1      -7.719  10.932  68.656  1.00  0.00    -0.122 A  
HETATM   26  C   UNL     1      -6.118  12.612  67.963  1.00  0.00    -0.091 A  
HETATM   27  C   UNL     1      -5.792  11.842  66.848  1.00  0.00    -0.118 A  
HETATM   28  C   UNL     1      -7.083  12.162  68.861  1.00  0.00    -0.098 A  
HETATM   29  C   UNL     1      -6.423  10.612  66.643  1.00  0.00    -0.100 A  
ENDBRANCH  15  24
ENDBRANCH  10  13
ENDBRANCH   6   7
ENDBRANCH   5   6
ENDBRANCH   4   5
ENDBRANCH   2   4
TORSDOF 7
ENDMDL
MODEL       74
REMARK 921   NORMALIZED FREE ENERGY PREDICTED BY IDOCK:   -4.37 KCAL/MOL
REMARK 922        TOTAL FREE ENERGY PREDICTED BY IDOCK:   -8.22 KCAL/MOL
REMARK 923 INTER-LIGAND FREE ENERGY PREDICTED BY IDOCK:   -5.99 KCAL/MOL
REMARK 924 INTRA-LIGAND FREE ENERGY PREDICTED BY IDOCK:   -2.23 KCAL/MOL
REMARK 927      BINDING AFFINITY PREDICTED BY RF-SCORE:    0.00 PKD
ROOT
HETATM    1  C   UNL     1      -9.654   4.674  71.637  1.00  0.00    -0.161 C  
HETATM    2  N   UNL     1      -9.084   4.844  72.975  1.00  0.00    -0.118 NA 
HETATM    3  C   UNL     1      -7.754   5.449  72.866  1.00  0.00    -0.098 C  
ENDROOT
BRANCH   2   4
HETATM    4  C   UNL     1      -9.998   5.640  73.834  1.00  0.00    -0.200 C  
BRANCH   4   5
HETATM    5  C   UNL     1      -9.650   7.141  73.857  1.00  0.00    -0.278 C  
BRANCH   5   6
HETATM    6  O   UNL     1     -10.715   7.965  73.360  1.00  0.00    -0.282 OA 
BRANCH   6   7
HETATM    7  C   UNL     1     -10.583   8.332  72.037  1.00  0.00    -0.296 A  
HETATM    8  C   UNL     1     -11.620   8.316  71.096  1.00  0.00    -0.310 A  
HETATM    9  C   UNL     1     -11.366   8.564  69.745  1.00  0.00     0.122 A  
HETATM   10  C   UNL     1     -10.068   8.828  69.301  1.00  0.00    -0.206 A  
HETATM   11  C   UNL     1      -9.047   8.959  70.255  1.00  0.00    -0.201 A  
HETATM   12  C   UNL     1      -9.307   8.713  71.614  1.00  0.00    -0.333 A  
BRANCH  10  13
HETATM   13  C   UNL     1      -9.760   8.747  67.838  1.00  0.00    -0.188 C  
HETATM   14 CL   UNL     1      -8.715   9.453  62.990  1.00  0.00    -0.226 Cl 
HETATM   15  C   UNL     1      -9.755   9.854  67.045  1.00  0.00    -0.230 C  
HETATM   16  C   UNL     1      -8.963   8.874  64.668  1.00  0.00     0.010 C  
HETATM   17  C   UNL     1      -9.446  10.021  65.548  1.00  0.00    -0.296 C  
BRANCH  13  18
HETATM   18  C   UNL     1      -9.591   7.375  67.268  1.00  0.00    -0.191 A  
HETATM   19  C   UNL     1     -10.733   6.626  66.935  1.00  0.00    -0.401 A  
HETATM   20  C   UNL     1     -10.621   5.329  66.423  1.00  0.00    -0.338 A  
HETATM   21  C   UNL     1      -8.220   5.497  66.561  1.00  0.00    -0.105 A  
HETATM   22  C   UNL     1      -9.361   4.773  66.218  1.00  0.00    -0.149 A  
HETATM   23  C   UNL     1      -8.332   6.782  67.109  1.00  0.00    -0.121 A  
ENDBRANCH  13  18
BRANCH  15  24
HETATM   24  C   UNL     1     -10.169  11.194  67.565  1.00  0.00    -0.216 A  
HETATM   25  C   UNL     1     -11.512  11.481  67.836  1.00  0.00    -0.372 A  
HETATM   26  C   UNL     1     -10.867  13.540  68.939  1.00  0.00    -0.255 A  
HETATM   27  C   UNL     1      -9.529  13.274  68.655  1.00  0.00    -0.020 A  
HETATM   28  C   UNL     1     -11.857  12.650  68.525  1.00  0.00    -0.342 A  
HETATM   29  C   UNL     1      -9.182  12.106  67.971  1.00  0.00    -0.194 A  
ENDBRANCH  15  24
ENDBRANCH  10  13
ENDBRANCH   6   7
ENDBRANCH   5   6
ENDBRANCH   4   5
ENDBRANCH   2   4
TORSDOF 7
ENDMDL
MODEL       75
REMARK 921   NORMALIZED FREE ENERGY PREDICTED BY IDOCK:   -4.37 KCAL/MOL
REMARK 922        TOTAL FREE ENERGY PREDICTED BY IDOCK:   -8.22 KCAL/MOL
REMARK 923 INTER-LIGAND FREE ENERGY PREDICTED BY IDOCK:   -6.39 KCAL/MOL
REMARK 924 INTRA-LIGAND FREE ENERGY PREDICTED BY IDOCK:   -1.83 KCAL/MOL
REMARK 927      BINDING AFFINITY PREDICTED BY RF-SCORE:    0.00 PKD
ROOT
HETATM    1  C   UNL     1     -10.349   8.307  70.758  1.00  0.00    -0.193 C  
HETATM    2  N   UNL     1     -10.731   9.334  69.787  1.00  0.00    -0.227 NA 
HETATM    3  C   UNL     1     -10.534   8.820  68.429  1.00  0.00    -0.176 C  
ENDROOT
BRANCH   2   4
HETATM    4  C   UNL     1     -12.125   9.786  70.024  1.00  0.00     0.125 C  
BRANCH   4   5
HETATM    5  C   UNL     1     -12.230  11.298  70.303  1.00  0.00    -0.345 C  
BRANCH   5   6
HETATM    6  O   UNL     1     -12.241  12.084  69.103  1.00  0.00    -0.210 OA 
BRANCH   6   7
HETATM    7  C   UNL     1     -11.287  13.080  69.064  1.00  0.00    -0.289 A  
HETATM    8  C   UNL     1     -11.382  14.304  69.735  1.00  0.00    -0.279 A  
HETATM    9  C   UNL     1     -10.439  15.313  69.523  1.00  0.00    -0.265 A  
HETATM   10  C   UNL     1      -9.382  15.124  68.631  1.00  0.00    -0.199 A  
HETATM   11  C   UNL     1      -9.217  13.859  68.044  1.00  0.00    -0.193 A  
HETATM   12  C   UNL     1     -10.166  12.845  68.263  1.00  0.00    -0.245 A  
BRANCH  10  13
HETATM   13  C   UNL     1      -8.598  16.309  68.158  1.00  0.00    -0.183 C  
HETATM   14 CL   UNL     1      -5.196  19.685  66.697  1.00  0.00    -0.164 Cl 
HETATM   15  C   UNL     1      -7.237  16.335  68.216  1.00  0.00    -0.141 C  
HETATM   16  C   UNL     1      -6.642  18.684  67.046  1.00  0.00    -0.188 C  
HETATM   17  C   UNL     1      -6.229  17.408  67.771  1.00  0.00    -0.159 C  
BRANCH  13  18
HETATM   18  C   UNL     1      -9.387  17.509  67.744  1.00  0.00    -0.257 A  
HETATM   19  C   UNL     1      -9.650  18.515  68.691  1.00  0.00    -0.382 A  
HETATM   20  C   UNL     1     -10.406  19.642  68.355  1.00  0.00    -0.502 A  
HETATM   21  C   UNL     1     -10.653  18.789  66.113  1.00  0.00    -0.435 A  
HETATM   22  C   UNL     1     -10.891  19.788  67.058  1.00  0.00    -0.465 A  
HETATM   23  C   UNL     1      -9.928  17.642  66.459  1.00  0.00    -0.332 A  
ENDBRANCH  13  18
BRANCH  15  24
HETATM   24  C   UNL     1      -6.457  15.234  68.860  1.00  0.00    -0.103 A  
HETATM   25  C   UNL     1      -6.517  15.017  70.242  1.00  0.00    -0.095 A  
HETATM   26  C   UNL     1      -5.343  12.914  69.982  1.00  0.00    -0.104 A  
HETATM   27  C   UNL     1      -5.258  13.130  68.608  1.00  0.00    -0.069 A  
HETATM   28  C   UNL     1      -5.964  13.858  70.798  1.00  0.00    -0.170 A  
HETATM   29  C   UNL     1      -5.813  14.285  68.050  1.00  0.00    -0.138 A  
ENDBRANCH  15  24
ENDBRANCH  10  13
ENDBRANCH   6   7
ENDBRANCH   5   6
ENDBRANCH   4   5
ENDBRANCH   2   4
TORSDOF 7
ENDMDL
MODEL       76
REMARK 921   NORMALIZED FREE ENERGY PREDICTED BY IDOCK:   -4.36 KCAL/MOL
REMARK 922        TOTAL FREE ENERGY PREDICTED BY IDOCK:   -8.21 KCAL/MOL
REMARK 923 INTER-LIGAND FREE ENERGY PREDICTED BY IDOCK:   -6.65 KCAL/MOL
REMARK 924 INTRA-LIGAND FREE ENERGY PREDICTED BY IDOCK:   -1.56 KCAL/MOL
REMARK 927      BINDING AFFINITY PREDICTED BY RF-SCORE:    0.00 PKD
ROOT
HETATM    1  C   UNL     1     -12.592  14.472  73.248  1.00  0.00    -0.322 C  
HETATM    2  N   UNL     1     -12.333  13.895  71.928  1.00  0.00    -0.156 NA 
HETATM    3  C   UNL     1     -13.335  12.866  71.639  1.00  0.00    -0.269 C  
ENDROOT
BRANCH   2   4
HETATM    4  C   UNL     1     -12.299  14.957  70.891  1.00  0.00    -0.328 C  
BRANCH   4   5
HETATM    5  C   UNL     1     -12.084  14.404  69.468  1.00  0.00    -0.322 C  
BRANCH   5   6
HETATM    6  O   UNL     1     -10.709  14.093  69.196  1.00  0.00    -0.240 OA 
BRANCH   6   7
HETATM    7  C   UNL     1     -10.514  12.899  68.533  1.00  0.00    -0.247 A  
HETATM    8  C   UNL     1     -11.509  11.941  68.304  1.00  0.00    -0.372 A  
HETATM    9  C   UNL     1     -11.192  10.696  67.753  1.00  0.00    -0.383 A  
HETATM   10  C   UNL     1      -9.872  10.378  67.424  1.00  0.00    -0.210 A  
HETATM   11  C   UNL     1      -8.892  11.376  67.544  1.00  0.00    -0.146 A  
HETATM   12  C   UNL     1      -9.215  12.628  68.095  1.00  0.00    -0.209 A  
BRANCH  10  13
HETATM   13  C   UNL     1      -9.502   8.950  67.169  1.00  0.00    -0.202 C  
HETATM   14 CL   UNL     1      -7.838   4.527  65.505  1.00  0.00    -0.093 Cl 
HETATM   15  C   UNL     1      -8.961   8.552  65.984  1.00  0.00    -0.228 C  
HETATM   16  C   UNL     1      -8.452   5.945  66.414  1.00  0.00    -0.120 C  
HETATM   17  C   UNL     1      -8.481   7.171  65.508  1.00  0.00    -0.114 C  
BRANCH  13  18
HETATM   18  C   UNL     1      -9.877   7.964  68.229  1.00  0.00    -0.187 A  
HETATM   19  C   UNL     1     -10.964   7.101  68.006  1.00  0.00    -0.127 A  
HETATM   20  C   UNL     1     -11.366   6.181  68.979  1.00  0.00    -0.257 A  
HETATM   21  C   UNL     1      -9.602   6.962  70.425  1.00  0.00    -0.171 A  
HETATM   22  C   UNL     1     -10.671   6.099  70.183  1.00  0.00    -0.366 A  
HETATM   23  C   UNL     1      -9.222   7.909  69.465  1.00  0.00    -0.152 A  
ENDBRANCH  13  18
BRANCH  15  24
HETATM   24  C   UNL     1      -8.815   9.494  64.832  1.00  0.00    -0.240 A  
HETATM   25  C   UNL     1      -7.605   9.603  64.137  1.00  0.00    -0.128 A  
HETATM   26  C   UNL     1      -8.688  10.931  62.424  1.00  0.00    -0.355 A  
HETATM   27  C   UNL     1      -9.893  10.846  63.120  1.00  0.00    -0.392 A  
HETATM   28  C   UNL     1      -7.546  10.317  62.934  1.00  0.00    -0.141 A  
HETATM   29  C   UNL     1      -9.955  10.132  64.318  1.00  0.00    -0.174 A  
ENDBRANCH  15  24
ENDBRANCH  10  13
ENDBRANCH   6   7
ENDBRANCH   5   6
ENDBRANCH   4   5
ENDBRANCH   2   4
TORSDOF 7
ENDMDL
MODEL       77
REMARK 921   NORMALIZED FREE ENERGY PREDICTED BY IDOCK:   -4.31 KCAL/MOL
REMARK 922        TOTAL FREE ENERGY PREDICTED BY IDOCK:   -8.14 KCAL/MOL
REMARK 923 INTER-LIGAND FREE ENERGY PREDICTED BY IDOCK:   -7.32 KCAL/MOL
REMARK 924 INTRA-LIGAND FREE ENERGY PREDICTED BY IDOCK:   -0.82 KCAL/MOL
REMARK 927      BINDING AFFINITY PREDICTED BY RF-SCORE:    0.00 PKD
ROOT
HETATM    1  C   UNL     1      -6.599   6.548  71.506  1.00  0.00    -0.054 C  
HETATM    2  N   UNL     1      -6.480   6.373  72.955  1.00  0.00    -0.066 NA 
HETATM    3  C   UNL     1      -5.428   7.253  73.469  1.00  0.00    -0.045 C  
ENDROOT
BRANCH   2   4
HETATM    4  C   UNL     1      -7.788   6.608  73.619  1.00  0.00    -0.092 C  
BRANCH   4   5
HETATM    5  C   UNL     1      -8.283   8.061  73.478  1.00  0.00    -0.214 C  
BRANCH   5   6
HETATM    6  O   UNL     1      -9.687   8.143  73.192  1.00  0.00    -0.277 OA 
BRANCH   6   7
HETATM    7  C   UNL     1      -9.989   8.742  71.987  1.00  0.00    -0.321 A  
HETATM    8  C   UNL     1      -9.045   9.141  71.033  1.00  0.00    -0.305 A  
HETATM    9  C   UNL     1      -9.430   9.873  69.907  1.00  0.00    -0.256 A  
HETATM   10  C   UNL     1     -10.766  10.227  69.709  1.00  0.00    -0.328 A  
HETATM   11  C   UNL     1     -11.730   9.730  70.600  1.00  0.00    -0.377 A  
HETATM   12  C   UNL     1     -11.341   8.992  71.731  1.00  0.00    -0.447 A  
BRANCH  10  13
HETATM   13  C   UNL     1     -11.106  11.285  68.705  1.00  0.00    -0.288 C  
HETATM   14 CL   UNL     1     -12.130  14.103  64.692  1.00  0.00    -0.444 Cl 
HETATM   15  C   UNL     1     -10.979  11.068  67.366  1.00  0.00    -0.349 C  
HETATM   16  C   UNL     1     -11.932  13.350  66.307  1.00  0.00    -0.411 C  
HETATM   17  C   UNL     1     -11.289  11.976  66.164  1.00  0.00    -0.407 C  
BRANCH  13  18
HETATM   18  C   UNL     1     -11.463  12.630  69.250  1.00  0.00    -0.354 A  
HETATM   19  C   UNL     1     -10.647  13.732  68.942  1.00  0.00    -0.224 A  
HETATM   20  C   UNL     1     -10.928  15.004  69.450  1.00  0.00    -0.275 A  
HETATM   21  C   UNL     1     -12.854  14.105  70.589  1.00  0.00    -0.356 A  
HETATM   22  C   UNL     1     -12.046  15.193  70.260  1.00  0.00    -0.385 A  
HETATM   23  C   UNL     1     -12.551  12.824  70.110  1.00  0.00     0.008 A  
ENDBRANCH  13  18
BRANCH  15  24
HETATM   24  C   UNL     1     -10.385   9.805  66.828  1.00  0.00    -0.289 A  
HETATM   25  C   UNL     1      -9.138   9.806  66.194  1.00  0.00    -0.198 A  
HETATM   26  C   UNL     1      -9.102   7.384  66.220  1.00  0.00    -0.195 A  
HETATM   27  C   UNL     1     -10.354   7.372  66.833  1.00  0.00    -0.367 A  
HETATM   28  C   UNL     1      -8.498   8.597  65.896  1.00  0.00    -0.158 A  
HETATM   29  C   UNL     1     -10.993   8.577  67.135  1.00  0.00     0.153 A  
ENDBRANCH  15  24
ENDBRANCH  10  13
ENDBRANCH   6   7
ENDBRANCH   5   6
ENDBRANCH   4   5
ENDBRANCH   2   4
TORSDOF 7
ENDMDL
MODEL       78
REMARK 921   NORMALIZED FREE ENERGY PREDICTED BY IDOCK:   -4.25 KCAL/MOL
REMARK 922        TOTAL FREE ENERGY PREDICTED BY IDOCK:   -8.05 KCAL/MOL
REMARK 923 INTER-LIGAND FREE ENERGY PREDICTED BY IDOCK:   -7.29 KCAL/MOL
REMARK 924 INTRA-LIGAND FREE ENERGY PREDICTED BY IDOCK:   -0.76 KCAL/MOL
REMARK 927      BINDING AFFINITY PREDICTED BY RF-SCORE:    0.00 PKD
ROOT
HETATM    1  C   UNL     1      -6.172  18.024  65.216  1.00  0.00    -0.020 C  
HETATM    2  N   UNL     1      -6.413  18.841  66.407  1.00  0.00    -0.189 NA 
HETATM    3  C   UNL     1      -5.132  19.214  67.011  1.00  0.00    -0.148 C  
ENDROOT
BRANCH   2   4
HETATM    4  C   UNL     1      -7.244  20.025  66.068  1.00  0.00    -0.301 C  
BRANCH   4   5
HETATM    5  C   UNL     1      -8.749  19.703  65.988  1.00  0.00    -0.240 C  
BRANCH   5   6
HETATM    6  O   UNL     1      -9.469  20.126  67.155  1.00  0.00    -0.357 OA 
BRANCH   6   7
HETATM    7  C   UNL     1     -10.080  19.104  67.851  1.00  0.00    -0.386 A  
HETATM    8  C   UNL     1      -9.846  18.804  69.199  1.00  0.00    -0.262 A  
HETATM    9  C   UNL     1     -10.397  17.661  69.785  1.00  0.00     0.411 A  
HETATM   10  C   UNL     1     -11.189  16.788  69.037  1.00  0.00    -0.072 A  
HETATM   11  C   UNL     1     -11.520  17.145  67.720  1.00  0.00     0.472 A  
HETATM   12  C   UNL     1     -10.968  18.297  67.134  1.00  0.00    -0.085 A  
BRANCH  10  13
HETATM   13  C   UNL     1     -11.477  15.418  69.567  1.00  0.00    -0.330 C  
HETATM   14 CL   UNL     1     -11.996  10.527  70.522  1.00  0.00    -0.403 Cl 
HETATM   15  C   UNL     1     -11.282  14.302  68.810  1.00  0.00    -0.286 C  
HETATM   16  C   UNL     1     -11.862  12.315  70.529  1.00  0.00    -0.072 C  
HETATM   17  C   UNL     1     -11.475  12.813  69.141  1.00  0.00    -0.361 C  
BRANCH  13  18
HETATM   18  C   UNL     1     -12.113  15.346  70.918  1.00  0.00    -0.413 A  
HETATM   19  C   UNL     1     -13.515  15.331  71.015  1.00  0.00    -0.516 A  
HETATM   20  C   UNL     1     -14.152  15.290  72.259  1.00  0.00    -0.651 A  
HETATM   21  C   UNL     1     -11.999  15.277  73.344  1.00  0.00    -0.540 A  
HETATM   22  C   UNL     1     -13.392  15.243  73.424  1.00  0.00    -0.411 A  
HETATM   23  C   UNL     1     -11.361  15.355  72.100  1.00  0.00    -0.447 A  
ENDBRANCH  13  18
BRANCH  15  24
HETATM   24  C   UNL     1     -10.881  14.389  67.372  1.00  0.00    -0.293 A  
HETATM   25  C   UNL     1     -11.806  14.155  66.348  1.00  0.00    -0.440 A  
HETATM   26  C   UNL     1     -10.225  14.979  64.708  1.00  0.00    -0.121 A  
HETATM   27  C   UNL     1      -9.289  15.196  65.717  1.00  0.00    -0.207 A  
HETATM   28  C   UNL     1     -11.478  14.454  65.021  1.00  0.00    -0.372 A  
HETATM   29  C   UNL     1      -9.615  14.901  67.043  1.00  0.00    -0.245 A  
ENDBRANCH  15  24
ENDBRANCH  10  13
ENDBRANCH   6   7
ENDBRANCH   5   6
ENDBRANCH   4   5
ENDBRANCH   2   4
TORSDOF 7
ENDMDL
MODEL       79
REMARK 921   NORMALIZED FREE ENERGY PREDICTED BY IDOCK:   -4.23 KCAL/MOL
REMARK 922        TOTAL FREE ENERGY PREDICTED BY IDOCK:   -8.03 KCAL/MOL
REMARK 923 INTER-LIGAND FREE ENERGY PREDICTED BY IDOCK:   -5.81 KCAL/MOL
REMARK 924 INTRA-LIGAND FREE ENERGY PREDICTED BY IDOCK:   -2.22 KCAL/MOL
REMARK 927      BINDING AFFINITY PREDICTED BY RF-SCORE:    0.00 PKD
ROOT
HETATM    1  C   UNL     1     -11.705  15.450  64.304  1.00  0.00    -0.206 C  
HETATM    2  N   UNL     1     -11.783  14.033  64.662  1.00  0.00    -0.385 NA 
HETATM    3  C   UNL     1     -12.772  13.852  65.728  1.00  0.00    -0.461 C  
ENDROOT
BRANCH   2   4
HETATM    4  C   UNL     1     -12.084  13.207  63.465  1.00  0.00    -0.514 C  
BRANCH   4   5
HETATM    5  C   UNL     1     -11.386  11.833  63.490  1.00  0.00    -0.405 C  
BRANCH   5   6
HETATM    6  O   UNL     1     -10.077  11.887  64.075  1.00  0.00    -0.299 OA 
BRANCH   6   7
HETATM    7  C   UNL     1      -9.906  11.064  65.169  1.00  0.00    -0.268 A  
HETATM    8  C   UNL     1     -10.659  11.133  66.347  1.00  0.00    -0.315 A  
HETATM    9  C   UNL     1     -10.323  10.358  67.460  1.00  0.00    -0.268 A  
HETATM   10  C   UNL     1      -9.223   9.500  67.423  1.00  0.00    -0.152 A  
HETATM   11  C   UNL     1      -8.536   9.340  66.210  1.00  0.00    -0.133 A  
HETATM   12  C   UNL     1      -8.879  10.119  65.091  1.00  0.00    -0.207 A  
BRANCH  10  13
HETATM   13  C   UNL     1      -8.675   8.951  68.704  1.00  0.00    -0.134 C  
HETATM   14 CL   UNL     1      -6.384   7.979  73.053  1.00  0.00    -0.071 Cl 
HETATM   15  C   UNL     1      -7.687   9.589  69.392  1.00  0.00    -0.094 C  
HETATM   16  C   UNL     1      -7.423   8.066  71.594  1.00  0.00    -0.078 C  
HETATM   17  C   UNL     1      -6.997   9.240  70.721  1.00  0.00    -0.110 C  
BRANCH  13  18
HETATM   18  C   UNL     1      -9.173   7.604  69.120  1.00  0.00    -0.141 A  
HETATM   19  C   UNL     1      -8.499   6.455  68.668  1.00  0.00    -0.123 A  
HETATM   20  C   UNL     1      -8.945   5.175  69.011  1.00  0.00    -0.123 A  
HETATM   21  C   UNL     1     -10.753   6.158  70.268  1.00  0.00    -0.355 A  
HETATM   22  C   UNL     1     -10.063   5.028  69.828  1.00  0.00    -0.337 A  
HETATM   23  C   UNL     1     -10.328   7.440  69.895  1.00  0.00    -0.222 A  
ENDBRANCH  13  18
BRANCH  15  24
HETATM   24  C   UNL     1      -7.015  10.809  68.849  1.00  0.00    -0.077 A  
HETATM   25  C   UNL     1      -5.909  10.706  67.997  1.00  0.00    -0.042 A  
HETATM   26  C   UNL     1      -6.046  13.074  67.504  1.00  0.00    -0.129 A  
HETATM   27  C   UNL     1      -7.134  13.191  68.366  1.00  0.00    -0.107 A  
HETATM   28  C   UNL     1      -5.431  11.836  67.324  1.00  0.00    -0.108 A  
HETATM   29  C   UNL     1      -7.616  12.064  69.036  1.00  0.00     0.056 A  
ENDBRANCH  15  24
ENDBRANCH  10  13
ENDBRANCH   6   7
ENDBRANCH   5   6
ENDBRANCH   4   5
ENDBRANCH   2   4
TORSDOF 7
ENDMDL
MODEL       80
REMARK 921   NORMALIZED FREE ENERGY PREDICTED BY IDOCK:   -4.23 KCAL/MOL
REMARK 922        TOTAL FREE ENERGY PREDICTED BY IDOCK:   -8.02 KCAL/MOL
REMARK 923 INTER-LIGAND FREE ENERGY PREDICTED BY IDOCK:   -6.05 KCAL/MOL
REMARK 924 INTRA-LIGAND FREE ENERGY PREDICTED BY IDOCK:   -1.98 KCAL/MOL
REMARK 927      BINDING AFFINITY PREDICTED BY RF-SCORE:    0.00 PKD
ROOT
HETATM    1  C   UNL     1     -10.979  13.715  65.307  1.00  0.00    -0.310 C  
HETATM    2  N   UNL     1     -11.421  12.666  64.385  1.00  0.00    -0.328 NA 
HETATM    3  C   UNL     1     -12.428  13.212  63.471  1.00  0.00    -0.278 C  
ENDROOT
BRANCH   2   4
HETATM    4  C   UNL     1     -10.262  12.080  63.665  1.00  0.00    -0.444 C  
BRANCH   4   5
HETATM    5  C   UNL     1      -9.837  10.708  64.223  1.00  0.00    -0.330 C  
BRANCH   5   6
HETATM    6  O   UNL     1      -8.975  10.818  65.366  1.00  0.00    -0.185 OA 
BRANCH   6   7
HETATM    7  C   UNL     1      -9.012   9.731  66.215  1.00  0.00    -0.153 A  
HETATM    8  C   UNL     1      -7.897   9.182  66.859  1.00  0.00    -0.098 A  
HETATM    9  C   UNL     1      -8.003   7.993  67.586  1.00  0.00    -0.123 A  
HETATM   10  C   UNL     1      -9.225   7.323  67.682  1.00  0.00    -0.130 A  
HETATM   11  C   UNL     1     -10.367   7.929  67.136  1.00  0.00    -0.398 A  
HETATM   12  C   UNL     1     -10.258   9.127  66.409  1.00  0.00    -0.300 A  
BRANCH  10  13
HETATM   13  C   UNL     1      -9.249   5.903  68.156  1.00  0.00    -0.116 C  
HETATM   14 CL   UNL     1      -9.716   1.533  70.561  1.00  0.00    -0.137 Cl 
HETATM   15  C   UNL     1      -9.541   5.585  69.448  1.00  0.00    -0.196 C  
HETATM   16  C   UNL     1      -9.535   2.895  69.409  1.00  0.00    -0.088 C  
HETATM   17  C   UNL     1      -9.654   4.222  70.150  1.00  0.00    -0.269 C  
BRANCH  13  18
HETATM   18  C   UNL     1      -8.809   4.864  67.175  1.00  0.00    -0.106 A  
HETATM   19  C   UNL     1      -9.774   4.210  66.390  1.00  0.00    -0.223 A  
HETATM   20  C   UNL     1      -9.410   3.215  65.478  1.00  0.00    -0.117 A  
HETATM   21  C   UNL     1      -7.101   3.502  66.112  1.00  0.00    -0.063 A  
HETATM   22  C   UNL     1      -8.068   2.874  65.326  1.00  0.00    -0.086 A  
HETATM   23  C   UNL     1      -7.469   4.473  67.051  1.00  0.00    -0.081 A  
ENDBRANCH  13  18
BRANCH  15  24
HETATM   24  C   UNL     1      -9.739   6.639  70.490  1.00  0.00    -0.187 A  
HETATM   25  C   UNL     1     -11.013   6.931  70.990  1.00  0.00    -0.287 A  
HETATM   26  C   UNL     1     -10.035   8.296  72.736  1.00  0.00    -0.333 A  
HETATM   27  C   UNL     1      -8.763   8.029  72.233  1.00  0.00    -0.220 A  
HETATM   28  C   UNL     1     -11.157   7.754  72.113  1.00  0.00    -0.331 A  
HETATM   29  C   UNL     1      -8.616   7.205  71.115  1.00  0.00    -0.129 A  
ENDBRANCH  15  24
ENDBRANCH  10  13
ENDBRANCH   6   7
ENDBRANCH   5   6
ENDBRANCH   4   5
ENDBRANCH   2   4
TORSDOF 7
ENDMDL
MODEL       81
REMARK 921   NORMALIZED FREE ENERGY PREDICTED BY IDOCK:   -4.22 KCAL/MOL
REMARK 922        TOTAL FREE ENERGY PREDICTED BY IDOCK:   -8.02 KCAL/MOL
REMARK 923 INTER-LIGAND FREE ENERGY PREDICTED BY IDOCK:   -6.22 KCAL/MOL
REMARK 924 INTRA-LIGAND FREE ENERGY PREDICTED BY IDOCK:   -1.79 KCAL/MOL
REMARK 927      BINDING AFFINITY PREDICTED BY RF-SCORE:    0.00 PKD
ROOT
HETATM    1  C   UNL     1     -10.990   7.712  72.917  1.00  0.00    -0.400 C  
HETATM    2  N   UNL     1     -10.436   6.754  73.875  1.00  0.00    -0.363 NA 
HETATM    3  C   UNL     1     -10.931   5.410  73.564  1.00  0.00    -0.268 C  
ENDROOT
BRANCH   2   4
HETATM    4  C   UNL     1      -8.953   6.822  73.885  1.00  0.00    -0.159 C  
BRANCH   4   5
HETATM    5  C   UNL     1      -8.324   6.447  72.529  1.00  0.00    -0.116 C  
BRANCH   5   6
HETATM    6  O   UNL     1      -7.370   7.418  72.073  1.00  0.00    -0.070 OA 
BRANCH   6   7
HETATM    7  C   UNL     1      -7.793   8.174  70.999  1.00  0.00    -0.090 A  
HETATM    8  C   UNL     1      -7.305   9.445  70.675  1.00  0.00    -0.140 A  
HETATM    9  C   UNL     1      -7.893  10.200  69.657  1.00  0.00    -0.181 A  
HETATM   10  C   UNL     1      -8.986   9.705  68.943  1.00  0.00    -0.144 A  
HETATM   11  C   UNL     1      -9.405   8.387  69.186  1.00  0.00    -0.151 A  
HETATM   12  C   UNL     1      -8.809   7.628  70.208  1.00  0.00    -0.145 A  
BRANCH  10  13
HETATM   13  C   UNL     1      -9.809  10.642  68.114  1.00  0.00    -0.170 C  
HETATM   14 CL   UNL     1     -12.219  13.256  64.584  1.00  0.00    -0.444 Cl 
HETATM   15  C   UNL     1      -9.715  10.666  66.755  1.00  0.00    -0.222 C  
HETATM   16  C   UNL     1     -11.599  12.458  66.065  1.00  0.00    -0.401 C  
HETATM   17  C   UNL     1     -10.465  11.505  65.707  1.00  0.00    -0.308 C  
BRANCH  13  18
HETATM   18  C   UNL     1     -10.638  11.639  68.859  1.00  0.00    -0.224 A  
HETATM   19  C   UNL     1     -10.326  13.005  68.753  1.00  0.00    -0.146 A  
HETATM   20  C   UNL     1     -11.058  13.970  69.452  1.00  0.00    -0.246 A  
HETATM   21  C   UNL     1     -12.438  12.225  70.383  1.00  0.00    -0.221 A  
HETATM   22  C   UNL     1     -12.128  13.579  70.253  1.00  0.00    -0.425 A  
HETATM   23  C   UNL     1     -11.681  11.256  69.712  1.00  0.00    -0.422 A  
ENDBRANCH  13  18
BRANCH  15  24
HETATM   24  C   UNL     1      -8.704   9.842  66.024  1.00  0.00    -0.156 A  
HETATM   25  C   UNL     1      -9.040   8.592  65.492  1.00  0.00    -0.150 A  
HETATM   26  C   UNL     1      -6.935   8.517  64.294  1.00  0.00    -0.081 A  
HETATM   27  C   UNL     1      -6.582   9.751  64.835  1.00  0.00    -0.108 A  
HETATM   28  C   UNL     1      -8.157   7.935  64.626  1.00  0.00    -0.125 A  
HETATM   29  C   UNL     1      -7.463  10.410  65.697  1.00  0.00    -0.149 A  
ENDBRANCH  15  24
ENDBRANCH  10  13
ENDBRANCH   6   7
ENDBRANCH   5   6
ENDBRANCH   4   5
ENDBRANCH   2   4
TORSDOF 7
ENDMDL
MODEL       82
REMARK 921   NORMALIZED FREE ENERGY PREDICTED BY IDOCK:   -4.22 KCAL/MOL
REMARK 922        TOTAL FREE ENERGY PREDICTED BY IDOCK:   -8.01 KCAL/MOL
REMARK 923 INTER-LIGAND FREE ENERGY PREDICTED BY IDOCK:   -5.96 KCAL/MOL
REMARK 924 INTRA-LIGAND FREE ENERGY PREDICTED BY IDOCK:   -2.05 KCAL/MOL
REMARK 927      BINDING AFFINITY PREDICTED BY RF-SCORE:    0.00 PKD
ROOT
HETATM    1  C   UNL     1      -9.406   2.869  72.661  1.00  0.00    -0.101 C  
HETATM    2  N   UNL     1     -10.775   3.194  73.068  1.00  0.00    -0.150 NA 
HETATM    3  C   UNL     1     -11.454   1.976  73.518  1.00  0.00    -0.207 C  
ENDROOT
BRANCH   2   4
HETATM    4  C   UNL     1     -10.773   4.257  74.105  1.00  0.00    -0.240 C  
BRANCH   4   5
HETATM    5  C   UNL     1     -10.316   5.626  73.565  1.00  0.00    -0.233 C  
BRANCH   5   6
HETATM    6  O   UNL     1     -11.317   6.267  72.762  1.00  0.00    -0.254 OA 
BRANCH   6   7
HETATM    7  C   UNL     1     -10.865   6.717  71.538  1.00  0.00    -0.239 A  
HETATM    8  C   UNL     1      -9.653   7.386  71.331  1.00  0.00    -0.167 A  
HETATM    9  C   UNL     1      -9.342   7.935  70.084  1.00  0.00    -0.156 A  
HETATM   10  C   UNL     1     -10.237   7.833  69.017  1.00  0.00    -0.213 A  
HETATM   11  C   UNL     1     -11.400   7.065  69.188  1.00  0.00    -0.007 A  
HETATM   12  C   UNL     1     -11.708   6.511  70.443  1.00  0.00    -0.439 A  
BRANCH  10  13
HETATM   13  C   UNL     1     -10.053   8.708  67.816  1.00  0.00    -0.266 C  
HETATM   14 CL   UNL     1      -9.321  10.786  63.316  1.00  0.00    -0.283 Cl 
HETATM   15  C   UNL     1      -9.633   8.204  66.622  1.00  0.00    -0.295 C  
HETATM   16  C   UNL     1      -9.729  10.354  65.008  1.00  0.00    -0.300 C  
HETATM   17  C   UNL     1      -9.402   8.888  65.264  1.00  0.00    -0.095 C  
BRANCH  13  18
HETATM   18  C   UNL     1     -10.223  10.178  68.029  1.00  0.00    -0.205 A  
HETATM   19  C   UNL     1     -11.515  10.731  67.985  1.00  0.00    -0.333 A  
HETATM   20  C   UNL     1     -11.719  12.103  68.153  1.00  0.00    -0.402 A  
HETATM   21  C   UNL     1      -9.341  12.408  68.415  1.00  0.00    -0.158 A  
HETATM   22  C   UNL     1     -10.630  12.940  68.387  1.00  0.00    -0.267 A  
HETATM   23  C   UNL     1      -9.133  11.038  68.210  1.00  0.00    -0.158 A  
ENDBRANCH  13  18
BRANCH  15  24
HETATM   24  C   UNL     1      -9.223   6.773  66.474  1.00  0.00    -0.190 A  
HETATM   25  C   UNL     1      -7.947   6.344  66.856  1.00  0.00    -0.109 A  
HETATM   26  C   UNL     1      -8.628   4.033  66.596  1.00  0.00    -0.109 A  
HETATM   27  C   UNL     1      -9.895   4.451  66.194  1.00  0.00    -0.243 A  
HETATM   28  C   UNL     1      -7.654   4.976  66.920  1.00  0.00    -0.088 A  
HETATM   29  C   UNL     1     -10.191   5.815  66.132  1.00  0.00    -0.044 A  
ENDBRANCH  15  24
ENDBRANCH  10  13
ENDBRANCH   6   7
ENDBRANCH   5   6
ENDBRANCH   4   5
ENDBRANCH   2   4
TORSDOF 7
ENDMDL
MODEL       83
REMARK 921   NORMALIZED FREE ENERGY PREDICTED BY IDOCK:   -4.21 KCAL/MOL
REMARK 922        TOTAL FREE ENERGY PREDICTED BY IDOCK:   -8.00 KCAL/MOL
REMARK 923 INTER-LIGAND FREE ENERGY PREDICTED BY IDOCK:   -6.47 KCAL/MOL
REMARK 924 INTRA-LIGAND FREE ENERGY PREDICTED BY IDOCK:   -1.53 KCAL/MOL
REMARK 927      BINDING AFFINITY PREDICTED BY RF-SCORE:    0.00 PKD
ROOT
HETATM    1  C   UNL     1      -9.378  14.655  65.968  1.00  0.00    -0.181 C  
HETATM    2  N   UNL     1     -10.151  14.511  64.733  1.00  0.00    -0.241 NA 
HETATM    3  C   UNL     1     -10.092  13.119  64.279  1.00  0.00    -0.140 C  
ENDROOT
BRANCH   2   4
HETATM    4  C   UNL     1     -11.545  14.982  64.931  1.00  0.00    -0.374 C  
BRANCH   4   5
HETATM    5  C   UNL     1     -12.432  13.950  65.656  1.00  0.00    -0.505 C  
BRANCH   5   6
HETATM    6  O   UNL     1     -12.404  14.099  67.083  1.00  0.00    -0.370 OA 
BRANCH   6   7
HETATM    7  C   UNL     1     -11.935  12.995  67.763  1.00  0.00    -0.295 A  
HETATM    8  C   UNL     1     -11.496  13.003  69.093  1.00  0.00    -0.353 A  
HETATM    9  C   UNL     1     -10.899  11.873  69.657  1.00  0.00     0.099 A  
HETATM   10  C   UNL     1     -10.723  10.710  68.905  1.00  0.00    -0.254 A  
HETATM   11  C   UNL     1     -11.264  10.659  67.611  1.00  0.00    -0.361 A  
HETATM   12  C   UNL     1     -11.867  11.797  67.047  1.00  0.00    -0.126 A  
BRANCH  10  13
HETATM   13  C   UNL     1      -9.788   9.649  69.399  1.00  0.00    -0.203 C  
HETATM   14 CL   UNL     1      -7.475   5.690  71.419  1.00  0.00    -0.092 Cl 
HETATM   15  C   UNL     1     -10.200   8.679  70.262  1.00  0.00    -0.213 C  
HETATM   16  C   UNL     1      -8.011   7.131  70.497  1.00  0.00    -0.105 C  
HETATM   17  C   UNL     1      -9.444   7.487  70.874  1.00  0.00    -0.165 C  
BRANCH  13  18
HETATM   18  C   UNL     1      -8.353   9.787  69.003  1.00  0.00    -0.127 A  
HETATM   19  C   UNL     1      -7.460  10.429  69.878  1.00  0.00    -0.134 A  
HETATM   20  C   UNL     1      -6.115  10.603  69.537  1.00  0.00    -0.053 A  
HETATM   21  C   UNL     1      -6.521   9.494  67.435  1.00  0.00    -0.069 A  
HETATM   22  C   UNL     1      -5.642  10.117  68.321  1.00  0.00    -0.041 A  
HETATM   23  C   UNL     1      -7.876   9.352  67.760  1.00  0.00    -0.095 A  
ENDBRANCH  13  18
BRANCH  15  24
HETATM   24  C   UNL     1     -11.573   8.685  70.853  1.00  0.00    -0.307 A  
HETATM   25  C   UNL     1     -12.411   7.569  70.749  1.00  0.00    -0.113 A  
HETATM   26  C   UNL     1     -13.956   8.557  72.332  1.00  0.00    -0.371 A  
HETATM   27  C   UNL     1     -13.140   9.683  72.426  1.00  0.00    -0.389 A  
HETATM   28  C   UNL     1     -13.596   7.505  71.491  1.00  0.00    -0.439 A  
HETATM   29  C   UNL     1     -11.955   9.747  71.690  1.00  0.00    -0.454 A  
ENDBRANCH  15  24
ENDBRANCH  10  13
ENDBRANCH   6   7
ENDBRANCH   5   6
ENDBRANCH   4   5
ENDBRANCH   2   4
TORSDOF 7
ENDMDL
MODEL       84
REMARK 921   NORMALIZED FREE ENERGY PREDICTED BY IDOCK:   -4.19 KCAL/MOL
REMARK 922        TOTAL FREE ENERGY PREDICTED BY IDOCK:   -7.97 KCAL/MOL
REMARK 923 INTER-LIGAND FREE ENERGY PREDICTED BY IDOCK:   -5.91 KCAL/MOL
REMARK 924 INTRA-LIGAND FREE ENERGY PREDICTED BY IDOCK:   -2.06 KCAL/MOL
REMARK 927      BINDING AFFINITY PREDICTED BY RF-SCORE:    0.00 PKD
ROOT
HETATM    1  C   UNL     1     -12.336  14.611  64.279  1.00  0.00    -0.349 C  
HETATM    2  N   UNL     1     -11.659  13.845  65.327  1.00  0.00    -0.317 NA 
HETATM    3  C   UNL     1     -10.430  13.258  64.786  1.00  0.00    -0.384 C  
ENDROOT
BRANCH   2   4
HETATM    4  C   UNL     1     -11.402  14.698  66.515  1.00  0.00    -0.353 C  
BRANCH   4   5
HETATM    5  C   UNL     1     -12.232  14.282  67.746  1.00  0.00    -0.164 C  
BRANCH   5   6
HETATM    6  O   UNL     1     -11.444  13.626  68.750  1.00  0.00    -0.265 OA 
BRANCH   6   7
HETATM    7  C   UNL     1     -10.906  12.419  68.355  1.00  0.00    -0.238 A  
HETATM    8  C   UNL     1     -11.646  11.334  67.871  1.00  0.00    -0.330 A  
HETATM    9  C   UNL     1     -11.035  10.100  67.632  1.00  0.00    -0.331 A  
HETATM   10  C   UNL     1      -9.672   9.920  67.875  1.00  0.00    -0.162 A  
HETATM   11  C   UNL     1      -8.905  11.035  68.249  1.00  0.00    -0.144 A  
HETATM   12  C   UNL     1      -9.521  12.276  68.485  1.00  0.00    -0.115 A  
BRANCH  10  13
HETATM   13  C   UNL     1      -9.115   8.533  67.948  1.00  0.00    -0.145 C  
HETATM   14 CL   UNL     1      -6.658   4.192  67.471  1.00  0.00    -0.045 Cl 
HETATM   15  C   UNL     1      -8.239   8.063  67.016  1.00  0.00    -0.116 C  
HETATM   16  C   UNL     1      -7.624   5.621  67.961  1.00  0.00    -0.085 C  
HETATM   17  C   UNL     1      -7.522   6.708  66.898  1.00  0.00    -0.087 C  
BRANCH  13  18
HETATM   18  C   UNL     1      -9.669   7.647  69.018  1.00  0.00    -0.160 A  
HETATM   19  C   UNL     1      -9.058   7.638  70.284  1.00  0.00    -0.149 A  
HETATM   20  C   UNL     1      -9.527   6.806  71.305  1.00  0.00    -0.166 A  
HETATM   21  C   UNL     1     -11.233   5.969  69.820  1.00  0.00    -0.440 A  
HETATM   22  C   UNL     1     -10.628   5.985  71.078  1.00  0.00    -0.305 A  
HETATM   23  C   UNL     1     -10.740   6.775  68.786  1.00  0.00    -0.280 A  
ENDBRANCH  13  18
BRANCH  15  24
HETATM   24  C   UNL     1      -7.876   8.865  65.807  1.00  0.00    -0.099 A  
HETATM   25  C   UNL     1      -6.575   9.348  65.624  1.00  0.00    -0.070 A  
HETATM   26  C   UNL     1      -7.110   9.982  63.348  1.00  0.00    -0.129 A  
HETATM   27  C   UNL     1      -8.414   9.523  63.527  1.00  0.00    -0.197 A  
HETATM   28  C   UNL     1      -6.195   9.901  64.396  1.00  0.00    -0.122 A  
HETATM   29  C   UNL     1      -8.795   8.968  64.751  1.00  0.00    -0.165 A  
ENDBRANCH  15  24
ENDBRANCH  10  13
ENDBRANCH   6   7
ENDBRANCH   5   6
ENDBRANCH   4   5
ENDBRANCH   2   4
TORSDOF 7
ENDMDL
MODEL       85
REMARK 921   NORMALIZED FREE ENERGY PREDICTED BY IDOCK:   -4.19 KCAL/MOL
REMARK 922        TOTAL FREE ENERGY PREDICTED BY IDOCK:   -7.96 KCAL/MOL
REMARK 923 INTER-LIGAND FREE ENERGY PREDICTED BY IDOCK:   -5.87 KCAL/MOL
REMARK 924 INTRA-LIGAND FREE ENERGY PREDICTED BY IDOCK:   -2.10 KCAL/MOL
REMARK 927      BINDING AFFINITY PREDICTED BY RF-SCORE:    0.00 PKD
ROOT
HETATM    1  C   UNL     1     -10.387  17.409  67.254  1.00  0.00    -0.336 C  
HETATM    2  N   UNL     1     -10.528  16.111  66.591  1.00  0.00    -0.305 NA 
HETATM    3  C   UNL     1     -10.615  16.310  65.142  1.00  0.00    -0.304 C  
ENDROOT
BRANCH   2   4
HETATM    4  C   UNL     1      -9.414  15.206  66.971  1.00  0.00    -0.226 C  
BRANCH   4   5
HETATM    5  C   UNL     1      -9.565  13.787  66.388  1.00  0.00    -0.272 C  
BRANCH   5   6
HETATM    6  O   UNL     1     -10.587  13.024  67.045  1.00  0.00    -0.254 OA 
BRANCH   6   7
HETATM    7  C   UNL     1     -10.233  11.721  67.331  1.00  0.00    -0.199 A  
HETATM    8  C   UNL     1     -11.024  10.599  67.057  1.00  0.00    -0.274 A  
HETATM    9  C   UNL     1     -10.652   9.332  67.512  1.00  0.00    -0.329 A  
HETATM   10  C   UNL     1      -9.483   9.156  68.255  1.00  0.00    -0.152 A  
HETATM   11  C   UNL     1      -8.630  10.256  68.433  1.00  0.00    -0.125 A  
HETATM   12  C   UNL     1      -9.005  11.530  67.971  1.00  0.00    -0.170 A  
BRANCH  10  13
HETATM   13  C   UNL     1      -9.281   7.884  69.019  1.00  0.00    -0.147 C  
HETATM   14 CL   UNL     1      -7.964   3.414  70.860  1.00  0.00    -0.053 Cl 
HETATM   15  C   UNL     1      -8.556   6.850  68.507  1.00  0.00    -0.123 C  
HETATM   16  C   UNL     1      -8.547   5.078  70.531  1.00  0.00    -0.109 C  
HETATM   17  C   UNL     1      -8.193   5.481  69.104  1.00  0.00    -0.095 C  
BRANCH  13  18
HETATM   18  C   UNL     1     -10.024   7.756  70.310  1.00  0.00    -0.189 A  
HETATM   19  C   UNL     1     -11.305   7.176  70.308  1.00  0.00    -0.305 A  
HETATM   20  C   UNL     1     -12.045   7.059  71.488  1.00  0.00    -0.392 A  
HETATM   21  C   UNL     1     -10.242   8.098  72.705  1.00  0.00    -0.372 A  
HETATM   22  C   UNL     1     -11.504   7.504  72.692  1.00  0.00    -0.369 A  
HETATM   23  C   UNL     1      -9.514   8.249  71.518  1.00  0.00    -0.244 A  
ENDBRANCH  13  18
BRANCH  15  24
HETATM   24  C   UNL     1      -8.020   6.882  67.111  1.00  0.00    -0.113 A  
HETATM   25  C   UNL     1      -6.722   7.332  66.846  1.00  0.00    -0.064 A  
HETATM   26  C   UNL     1      -6.890   6.528  64.567  1.00  0.00    -0.046 A  
HETATM   27  C   UNL     1      -8.192   6.097  64.814  1.00  0.00    -0.112 A  
HETATM   28  C   UNL     1      -6.159   7.150  65.577  1.00  0.00    -0.037 A  
HETATM   29  C   UNL     1      -8.754   6.274  66.081  1.00  0.00    -0.148 A  
ENDBRANCH  15  24
ENDBRANCH  10  13
ENDBRANCH   6   7
ENDBRANCH   5   6
ENDBRANCH   4   5
ENDBRANCH   2   4
TORSDOF 7
ENDMDL
MODEL       86
REMARK 921   NORMALIZED FREE ENERGY PREDICTED BY IDOCK:   -4.10 KCAL/MOL
REMARK 922        TOTAL FREE ENERGY PREDICTED BY IDOCK:   -7.84 KCAL/MOL
REMARK 923 INTER-LIGAND FREE ENERGY PREDICTED BY IDOCK:   -5.72 KCAL/MOL
REMARK 924 INTRA-LIGAND FREE ENERGY PREDICTED BY IDOCK:   -2.11 KCAL/MOL
REMARK 927      BINDING AFFINITY PREDICTED BY RF-SCORE:    0.00 PKD
ROOT
HETATM    1  C   UNL     1      -6.589   6.456  66.660  1.00  0.00    -0.048 C  
HETATM    2  N   UNL     1      -7.428   6.076  67.799  1.00  0.00    -0.083 NA 
HETATM    3  C   UNL     1      -7.664   4.630  67.769  1.00  0.00    -0.082 C  
ENDROOT
BRANCH   2   4
HETATM    4  C   UNL     1      -6.811   6.521  69.074  1.00  0.00    -0.066 C  
BRANCH   4   5
HETATM    5  C   UNL     1      -7.807   7.239  70.006  1.00  0.00    -0.111 C  
BRANCH   5   6
HETATM    6  O   UNL     1      -9.134   7.296  69.462  1.00  0.00    -0.143 OA 
BRANCH   6   7
HETATM    7  C   UNL     1      -9.600   8.572  69.225  1.00  0.00    -0.170 A  
HETATM    8  C   UNL     1     -10.829   8.876  68.627  1.00  0.00    -0.036 A  
HETATM    9  C   UNL     1     -11.157  10.192  68.292  1.00  0.00    -0.285 A  
HETATM   10  C   UNL     1     -10.263  11.235  68.542  1.00  0.00    -0.214 A  
HETATM   11  C   UNL     1      -9.081  10.952  69.245  1.00  0.00     0.003 A  
HETATM   12  C   UNL     1      -8.756   9.626  69.584  1.00  0.00    -0.206 A  
BRANCH  10  13
HETATM   13  C   UNL     1     -10.473  12.559  67.875  1.00  0.00    -0.226 C  
HETATM   14 CL   UNL     1     -10.934  16.508  64.826  1.00  0.00    -0.322 Cl 
HETATM   15  C   UNL     1     -10.126  12.769  66.574  1.00  0.00    -0.264 C  
HETATM   16  C   UNL     1     -10.972  15.285  66.136  1.00  0.00    -0.307 C  
HETATM   17  C   UNL     1     -10.269  14.011  65.680  1.00  0.00    -0.351 C  
BRANCH  13  18
HETATM   18  C   UNL     1     -10.956  13.675  68.745  1.00  0.00    -0.292 A  
HETATM   19  C   UNL     1     -10.037  14.637  69.199  1.00  0.00    -0.178 A  
HETATM   20  C   UNL     1     -10.441  15.682  70.035  1.00  0.00    -0.333 A  
HETATM   21  C   UNL     1     -12.696  14.831  69.985  1.00  0.00    -0.199 A  
HETATM   22  C   UNL     1     -11.777  15.790  70.413  1.00  0.00    -0.390 A  
HETATM   23  C   UNL     1     -12.286  13.763  69.178  1.00  0.00    -0.289 A  
ENDBRANCH  13  18
BRANCH  15  24
HETATM   24  C   UNL     1      -9.413  11.726  65.775  1.00  0.00    -0.232 A  
HETATM   25  C   UNL     1      -8.102  11.347  66.085  1.00  0.00    -0.011 A  
HETATM   26  C   UNL     1      -8.257   9.480  64.550  1.00  0.00    -0.152 A  
HETATM   27  C   UNL     1      -9.555   9.861  64.217  1.00  0.00    -0.220 A  
HETATM   28  C   UNL     1      -7.529  10.225  65.476  1.00  0.00    -0.149 A  
HETATM   29  C   UNL     1     -10.130  10.979  64.826  1.00  0.00    -0.367 A  
ENDBRANCH  15  24
ENDBRANCH  10  13
ENDBRANCH   6   7
ENDBRANCH   5   6
ENDBRANCH   4   5
ENDBRANCH   2   4
TORSDOF 7
ENDMDL
MODEL       87
REMARK 921   NORMALIZED FREE ENERGY PREDICTED BY IDOCK:   -4.07 KCAL/MOL
REMARK 922        TOTAL FREE ENERGY PREDICTED BY IDOCK:   -7.80 KCAL/MOL
REMARK 923 INTER-LIGAND FREE ENERGY PREDICTED BY IDOCK:   -6.82 KCAL/MOL
REMARK 924 INTRA-LIGAND FREE ENERGY PREDICTED BY IDOCK:   -0.98 KCAL/MOL
REMARK 927      BINDING AFFINITY PREDICTED BY RF-SCORE:    0.00 PKD
ROOT
HETATM    1  C   UNL     1      -7.576   4.719  68.969  1.00  0.00    -0.067 C  
HETATM    2  N   UNL     1      -8.205   4.064  70.119  1.00  0.00    -0.057 NA 
HETATM    3  C   UNL     1      -8.268   2.620  69.883  1.00  0.00    -0.041 C  
ENDROOT
BRANCH   2   4
HETATM    4  C   UNL     1      -7.482   4.402  71.372  1.00  0.00    -0.060 C  
BRANCH   4   5
HETATM    5  C   UNL     1      -7.721   5.853  71.833  1.00  0.00    -0.102 C  
BRANCH   5   6
HETATM    6  O   UNL     1      -9.114   6.169  71.970  1.00  0.00    -0.143 OA 
BRANCH   6   7
HETATM    7  C   UNL     1      -9.544   7.213  71.178  1.00  0.00    -0.164 A  
HETATM    8  C   UNL     1     -10.385   7.079  70.066  1.00  0.00    -0.217 A  
HETATM    9  C   UNL     1     -10.651   8.169  69.234  1.00  0.00    -0.191 A  
HETATM   10  C   UNL     1     -10.080   9.417  69.490  1.00  0.00    -0.214 A  
HETATM   11  C   UNL     1      -9.331   9.584  70.665  1.00  0.00    -0.263 A  
HETATM   12  C   UNL     1      -9.067   8.486  71.503  1.00  0.00    -0.281 A  
BRANCH  10  13
HETATM   13  C   UNL     1     -10.090  10.464  68.419  1.00  0.00    -0.181 C  
HETATM   14 CL   UNL     1     -10.645  14.489  65.487  1.00  0.00    -0.338 Cl 
HETATM   15  C   UNL     1     -10.863  11.582  68.519  1.00  0.00    -0.254 C  
HETATM   16  C   UNL     1     -10.177  12.972  66.321  1.00  0.00    -0.288 C  
HETATM   17  C   UNL     1     -11.017  12.789  67.579  1.00  0.00    -0.280 C  
BRANCH  13  18
HETATM   18  C   UNL     1      -9.315  10.158  67.178  1.00  0.00    -0.176 A  
HETATM   19  C   UNL     1      -9.998   9.689  66.042  1.00  0.00    -0.344 A  
HETATM   20  C   UNL     1      -9.311   9.365  64.869  1.00  0.00    -0.218 A  
HETATM   21  C   UNL     1      -7.235   9.973  65.936  1.00  0.00    -0.115 A  
HETATM   22  C   UNL     1      -7.929   9.526  64.811  1.00  0.00    -0.123 A  
HETATM   23  C   UNL     1      -7.919  10.262  67.123  1.00  0.00    -0.114 A  
ENDBRANCH  13  18
BRANCH  15  24
HETATM   24  C   UNL     1     -11.828  11.771  69.646  1.00  0.00    -0.407 A  
HETATM   25  C   UNL     1     -12.384  10.674  70.313  1.00  0.00    -0.406 A  
HETATM   26  C   UNL     1     -13.283  12.142  72.017  1.00  0.00    -0.496 A  
HETATM   27  C   UNL     1     -12.752  13.244  71.349  1.00  0.00    -0.401 A  
HETATM   28  C   UNL     1     -13.106  10.861  71.498  1.00  0.00    -0.503 A  
HETATM   29  C   UNL     1     -12.028  13.059  70.169  1.00  0.00    -0.374 A  
ENDBRANCH  15  24
ENDBRANCH  10  13
ENDBRANCH   6   7
ENDBRANCH   5   6
ENDBRANCH   4   5
ENDBRANCH   2   4
TORSDOF 7
ENDMDL
MODEL       88
REMARK 921   NORMALIZED FREE ENERGY PREDICTED BY IDOCK:   -4.07 KCAL/MOL
REMARK 922        TOTAL FREE ENERGY PREDICTED BY IDOCK:   -7.79 KCAL/MOL
REMARK 923 INTER-LIGAND FREE ENERGY PREDICTED BY IDOCK:   -5.81 KCAL/MOL
REMARK 924 INTRA-LIGAND FREE ENERGY PREDICTED BY IDOCK:   -1.99 KCAL/MOL
REMARK 927      BINDING AFFINITY PREDICTED BY RF-SCORE:    0.00 PKD
ROOT
HETATM    1  C   UNL     1      -6.837   5.316  62.469  1.00  0.00    -0.026 C  
HETATM    2  N   UNL     1      -6.727   5.107  63.914  1.00  0.00    -0.044 NA 
HETATM    3  C   UNL     1      -5.370   4.662  64.241  1.00  0.00    -0.013 C  
ENDROOT
BRANCH   2   4
HETATM    4  C   UNL     1      -7.111   6.338  64.651  1.00  0.00    -0.057 C  
BRANCH   4   5
HETATM    5  C   UNL     1      -7.423   7.526  63.719  1.00  0.00    -0.108 C  
BRANCH   5   6
HETATM    6  O   UNL     1      -6.972   8.780  64.250  1.00  0.00    -0.087 OA 
BRANCH   6   7
HETATM    7  C   UNL     1      -7.782   9.309  65.233  1.00  0.00    -0.103 A  
HETATM    8  C   UNL     1      -9.149   9.041  65.372  1.00  0.00    -0.250 A  
HETATM    9  C   UNL     1      -9.924   9.732  66.307  1.00  0.00    -0.331 A  
HETATM   10  C   UNL     1      -9.351  10.712  67.121  1.00  0.00    -0.172 A  
HETATM   11  C   UNL     1      -7.962  10.902  67.066  1.00  0.00    -0.132 A  
HETATM   12  C   UNL     1      -7.184  10.202  66.127  1.00  0.00    -0.115 A  
BRANCH  10  13
HETATM   13  C   UNL     1     -10.239  11.669  67.855  1.00  0.00    -0.203 C  
HETATM   14 CL   UNL     1     -13.028  14.296  71.083  1.00  0.00    -0.410 Cl 
HETATM   15  C   UNL     1     -10.667  11.419  69.123  1.00  0.00    -0.229 C  
HETATM   16  C   UNL     1     -12.034  13.654  69.736  1.00  0.00    -0.341 C  
HETATM   17  C   UNL     1     -11.544  12.251  70.074  1.00  0.00    -0.236 C  
BRANCH  13  18
HETATM   18  C   UNL     1     -10.738  12.845  67.078  1.00  0.00    -0.273 A  
HETATM   19  C   UNL     1     -11.937  12.728  66.354  1.00  0.00    -0.443 A  
HETATM   20  C   UNL     1     -12.428  13.794  65.593  1.00  0.00    -0.541 A  
HETATM   21  C   UNL     1     -10.531  15.124  66.261  1.00  0.00    -0.312 A  
HETATM   22  C   UNL     1     -11.733  15.000  65.563  1.00  0.00    -0.145 A  
HETATM   23  C   UNL     1     -10.021  14.045  66.994  1.00  0.00    -0.257 A  
ENDBRANCH  13  18
BRANCH  15  24
HETATM   24  C   UNL     1     -10.371  10.125  69.811  1.00  0.00    -0.297 A  
HETATM   25  C   UNL     1     -11.280   9.061  69.774  1.00  0.00    -0.041 A  
HETATM   26  C   UNL     1      -9.616   7.581  70.728  1.00  0.00    -0.166 A  
HETATM   27  C   UNL     1      -8.710   8.639  70.789  1.00  0.00    -0.202 A  
HETATM   28  C   UNL     1     -10.899   7.793  70.228  1.00  0.00    -0.252 A  
HETATM   29  C   UNL     1      -9.086   9.905  70.333  1.00  0.00    -0.021 A  
ENDBRANCH  15  24
ENDBRANCH  10  13
ENDBRANCH   6   7
ENDBRANCH   5   6
ENDBRANCH   4   5
ENDBRANCH   2   4
TORSDOF 7
ENDMDL
MODEL       89
REMARK 921   NORMALIZED FREE ENERGY PREDICTED BY IDOCK:   -4.05 KCAL/MOL
REMARK 922        TOTAL FREE ENERGY PREDICTED BY IDOCK:   -7.77 KCAL/MOL
REMARK 923 INTER-LIGAND FREE ENERGY PREDICTED BY IDOCK:   -5.77 KCAL/MOL
REMARK 924 INTRA-LIGAND FREE ENERGY PREDICTED BY IDOCK:   -2.00 KCAL/MOL
REMARK 927      BINDING AFFINITY PREDICTED BY RF-SCORE:    0.00 PKD
ROOT
HETATM    1  C   UNL     1      -9.272  18.222  66.628  1.00  0.00    -0.295 C  
HETATM    2  N   UNL     1      -9.997  16.972  66.865  1.00  0.00    -0.278 NA 
HETATM    3  C   UNL     1     -10.904  17.142  68.003  1.00  0.00    -0.317 C  
ENDROOT
BRANCH   2   4
HETATM    4  C   UNL     1     -10.708  16.539  65.635  1.00  0.00    -0.248 C  
BRANCH   4   5
HETATM    5  C   UNL     1     -10.532  15.038  65.333  1.00  0.00    -0.384 C  
BRANCH   5   6
HETATM    6  O   UNL     1     -11.492  14.219  66.016  1.00  0.00    -0.332 OA 
BRANCH   6   7
HETATM    7  C   UNL     1     -11.053  12.942  66.301  1.00  0.00    -0.288 A  
HETATM    8  C   UNL     1     -11.342  12.242  67.478  1.00  0.00    -0.388 A  
HETATM    9  C   UNL     1     -10.736  11.012  67.747  1.00  0.00    -0.270 A  
HETATM   10  C   UNL     1      -9.824  10.455  66.848  1.00  0.00    -0.236 A  
HETATM   11  C   UNL     1      -9.620  11.096  65.616  1.00  0.00    -0.259 A  
HETATM   12  C   UNL     1     -10.233  12.332  65.347  1.00  0.00    -0.297 A  
BRANCH  10  13
HETATM   13  C   UNL     1      -8.938   9.336  67.299  1.00  0.00    -0.136 C  
HETATM   14 CL   UNL     1      -5.428   6.306  69.198  1.00  0.00    -0.011 Cl 
HETATM   15  C   UNL     1      -7.713   9.569  67.847  1.00  0.00    -0.087 C  
HETATM   16  C   UNL     1      -6.884   7.098  68.513  1.00  0.00    -0.076 C  
HETATM   17  C   UNL     1      -6.655   8.601  68.401  1.00  0.00    -0.060 C  
BRANCH  13  18
HETATM   18  C   UNL     1      -9.407   7.949  66.995  1.00  0.00    -0.200 A  
HETATM   19  C   UNL     1     -10.410   7.375  67.795  1.00  0.00    -0.273 A  
HETATM   20  C   UNL     1     -10.862   6.072  67.563  1.00  0.00    -0.393 A  
HETATM   21  C   UNL     1      -9.319   5.883  65.720  1.00  0.00    -0.018 A  
HETATM   22  C   UNL     1     -10.328   5.333  66.511  1.00  0.00    -0.332 A  
HETATM   23  C   UNL     1      -8.840   7.174  65.975  1.00  0.00    -0.154 A  
ENDBRANCH  13  18
BRANCH  15  24
HETATM   24  C   UNL     1      -7.137  10.947  67.924  1.00  0.00    -0.081 A  
HETATM   25  C   UNL     1      -7.333  11.751  69.053  1.00  0.00    -0.055 A  
HETATM   26  C   UNL     1      -5.698  13.338  68.230  1.00  0.00    -0.095 A  
HETATM   27  C   UNL     1      -5.511  12.556  67.092  1.00  0.00     0.014 A  
HETATM   28  C   UNL     1      -6.611  12.940  69.205  1.00  0.00    -0.085 A  
HETATM   29  C   UNL     1      -6.228  11.366  66.939  1.00  0.00    -0.135 A  
ENDBRANCH  15  24
ENDBRANCH  10  13
ENDBRANCH   6   7
ENDBRANCH   5   6
ENDBRANCH   4   5
ENDBRANCH   2   4
TORSDOF 7
ENDMDL
MODEL       90
REMARK 921   NORMALIZED FREE ENERGY PREDICTED BY IDOCK:   -4.05 KCAL/MOL
REMARK 922        TOTAL FREE ENERGY PREDICTED BY IDOCK:   -7.77 KCAL/MOL
REMARK 923 INTER-LIGAND FREE ENERGY PREDICTED BY IDOCK:   -6.92 KCAL/MOL
REMARK 924 INTRA-LIGAND FREE ENERGY PREDICTED BY IDOCK:   -0.85 KCAL/MOL
REMARK 927      BINDING AFFINITY PREDICTED BY RF-SCORE:    0.00 PKD
ROOT
HETATM    1  C   UNL     1      -6.970   9.000  65.677  1.00  0.00    -0.080 C  
HETATM    2  N   UNL     1      -6.660   9.229  64.264  1.00  0.00    -0.084 NA 
HETATM    3  C   UNL     1      -6.042   8.027  63.699  1.00  0.00    -0.063 C  
ENDROOT
BRANCH   2   4
HETATM    4  C   UNL     1      -7.879   9.640  63.522  1.00  0.00    -0.136 C  
BRANCH   4   5
HETATM    5  C   UNL     1      -9.124   9.754  64.424  1.00  0.00    -0.248 C  
BRANCH   5   6
HETATM    6  O   UNL     1      -9.774  11.029  64.314  1.00  0.00    -0.242 OA 
BRANCH   6   7
HETATM    7  C   UNL     1     -10.179  11.568  65.517  1.00  0.00    -0.258 A  
HETATM    8  C   UNL     1     -11.485  11.981  65.808  1.00  0.00    -0.377 A  
HETATM    9  C   UNL     1     -11.776  12.651  66.999  1.00  0.00    -0.438 A  
HETATM   10  C   UNL     1     -10.768  12.929  67.924  1.00  0.00    -0.235 A  
HETATM   11  C   UNL     1      -9.482  12.417  67.690  1.00  0.00    -0.190 A  
HETATM   12  C   UNL     1      -9.193  11.740  66.493  1.00  0.00    -0.206 A  
BRANCH  10  13
HETATM   13  C   UNL     1     -11.021  13.932  69.007  1.00  0.00    -0.281 C  
HETATM   14 CL   UNL     1     -12.091  16.502  73.173  1.00  0.00    -0.567 Cl 
HETATM   15  C   UNL     1     -11.604  13.580  70.187  1.00  0.00    -0.190 C  
HETATM   16  C   UNL     1     -11.532  15.875  71.589  1.00  0.00    -0.392 C  
HETATM   17  C   UNL     1     -11.933  14.413  71.437  1.00  0.00    -0.337 C  
BRANCH  13  18
HETATM   18  C   UNL     1     -10.723  15.360  68.677  1.00  0.00    -0.246 A  
HETATM   19  C   UNL     1     -11.772  16.201  68.267  1.00  0.00    -0.074 A  
HETATM   20  C   UNL     1     -11.535  17.536  67.924  1.00  0.00     0.640 A  
HETATM   21  C   UNL     1      -9.191  17.224  68.393  1.00  0.00    -0.268 A  
HETATM   22  C   UNL     1     -10.245  18.052  68.006  1.00  0.00    -0.390 A  
HETATM   23  C   UNL     1      -9.421  15.877  68.701  1.00  0.00    -0.214 A  
ENDBRANCH  13  18
BRANCH  15  24
HETATM   24  C   UNL     1     -12.129  12.200  70.422  1.00  0.00    -0.395 A  
HETATM   25  C   UNL     1     -11.488  11.080  69.878  1.00  0.00    -0.400 A  
HETATM   26  C   UNL     1     -12.867   9.614  71.226  1.00  0.00    -0.438 A  
HETATM   27  C   UNL     1     -13.527  10.721  71.756  1.00  0.00    -0.303 A  
HETATM   28  C   UNL     1     -11.855   9.792  70.284  1.00  0.00    -0.208 A  
HETATM   29  C   UNL     1     -13.160  12.008  71.356  1.00  0.00    -0.295 A  
ENDBRANCH  15  24
ENDBRANCH  10  13
ENDBRANCH   6   7
ENDBRANCH   5   6
ENDBRANCH   4   5
ENDBRANCH   2   4
TORSDOF 7
ENDMDL
MODEL       91
REMARK 921   NORMALIZED FREE ENERGY PREDICTED BY IDOCK:   -4.04 KCAL/MOL
REMARK 922        TOTAL FREE ENERGY PREDICTED BY IDOCK:   -7.76 KCAL/MOL
REMARK 923 INTER-LIGAND FREE ENERGY PREDICTED BY IDOCK:   -6.27 KCAL/MOL
REMARK 924 INTRA-LIGAND FREE ENERGY PREDICTED BY IDOCK:   -1.49 KCAL/MOL
REMARK 927      BINDING AFFINITY PREDICTED BY RF-SCORE:    0.00 PKD
ROOT
HETATM    1  C   UNL     1      -7.961  20.018  68.522  1.00  0.00    -0.104 C  
HETATM    2  N   UNL     1      -6.553  19.644  68.380  1.00  0.00    -0.262 NA 
HETATM    3  C   UNL     1      -5.708  20.698  68.948  1.00  0.00    -0.353 C  
ENDROOT
BRANCH   2   4
HETATM    4  C   UNL     1      -6.298  18.320  69.002  1.00  0.00    -0.242 C  
BRANCH   4   5
HETATM    5  C   UNL     1      -7.033  17.168  68.288  1.00  0.00    -0.187 C  
BRANCH   5   6
HETATM    6  O   UNL     1      -7.782  16.343  69.193  1.00  0.00    -0.234 OA 
BRANCH   6   7
HETATM    7  C   UNL     1      -8.205  15.145  68.657  1.00  0.00    -0.154 A  
HETATM    8  C   UNL     1      -9.508  14.642  68.752  1.00  0.00    -0.199 A  
HETATM    9  C   UNL     1      -9.813  13.353  68.306  1.00  0.00    -0.235 A  
HETATM   10  C   UNL     1      -8.822  12.535  67.761  1.00  0.00    -0.178 A  
HETATM   11  C   UNL     1      -7.543  13.075  67.558  1.00  0.00    -0.166 A  
HETATM   12  C   UNL     1      -7.240  14.373  68.004  1.00  0.00    -0.146 A  
BRANCH  10  13
HETATM   13  C   UNL     1      -9.079  11.067  67.615  1.00  0.00    -0.145 C  
HETATM   14 CL   UNL     1     -10.321   6.406  66.259  1.00  0.00    -0.016 Cl 
HETATM   15  C   UNL     1      -9.838  10.571  66.598  1.00  0.00    -0.246 C  
HETATM   16  C   UNL     1      -9.656   7.912  66.969  1.00  0.00    -0.192 C  
HETATM   17  C   UNL     1     -10.211   9.125  66.231  1.00  0.00    -0.257 C  
BRANCH  13  18
HETATM   18  C   UNL     1      -8.572  10.189  68.713  1.00  0.00    -0.133 A  
HETATM   19  C   UNL     1      -9.480   9.681  69.658  1.00  0.00    -0.226 A  
HETATM   20  C   UNL     1      -9.047   8.877  70.717  1.00  0.00    -0.260 A  
HETATM   21  C   UNL     1      -6.781   9.065  69.912  1.00  0.00    -0.046 A  
HETATM   22  C   UNL     1      -7.697   8.553  70.832  1.00  0.00    -0.092 A  
HETATM   23  C   UNL     1      -7.210   9.901  68.873  1.00  0.00    -0.076 A  
ENDBRANCH  13  18
BRANCH  15  24
HETATM   24  C   UNL     1     -10.552  11.471  65.641  1.00  0.00    -0.326 A  
HETATM   25  C   UNL     1     -11.739  12.116  66.003  1.00  0.00    -0.388 A  
HETATM   26  C   UNL     1     -11.632  13.476  64.001  1.00  0.00    -0.394 A  
HETATM   27  C   UNL     1     -10.461  12.825  63.620  1.00  0.00    -0.239 A  
HETATM   28  C   UNL     1     -12.274  13.119  65.186  1.00  0.00    -0.497 A  
HETATM   29  C   UNL     1      -9.924  11.826  64.436  1.00  0.00    -0.281 A  
ENDBRANCH  15  24
ENDBRANCH  10  13
ENDBRANCH   6   7
ENDBRANCH   5   6
ENDBRANCH   4   5
ENDBRANCH   2   4
TORSDOF 7
ENDMDL
MODEL       92
REMARK 921   NORMALIZED FREE ENERGY PREDICTED BY IDOCK:   -4.03 KCAL/MOL
REMARK 922        TOTAL FREE ENERGY PREDICTED BY IDOCK:   -7.74 KCAL/MOL
REMARK 923 INTER-LIGAND FREE ENERGY PREDICTED BY IDOCK:   -5.74 KCAL/MOL
REMARK 924 INTRA-LIGAND FREE ENERGY PREDICTED BY IDOCK:   -2.00 KCAL/MOL
REMARK 927      BINDING AFFINITY PREDICTED BY RF-SCORE:    0.00 PKD
ROOT
HETATM    1  C   UNL     1      -8.620   2.354  67.264  1.00  0.00    -0.108 C  
HETATM    2  N   UNL     1      -8.619   3.777  66.916  1.00  0.00    -0.105 NA 
HETATM    3  C   UNL     1      -7.815   3.983  65.708  1.00  0.00    -0.090 C  
ENDROOT
BRANCH   2   4
HETATM    4  C   UNL     1     -10.008   4.279  66.764  1.00  0.00    -0.160 C  
BRANCH   4   5
HETATM    5  C   UNL     1     -10.291   5.536  67.609  1.00  0.00    -0.200 C  
BRANCH   5   6
HETATM    6  O   UNL     1     -10.992   6.551  66.876  1.00  0.00    -0.373 OA 
BRANCH   6   7
HETATM    7  C   UNL     1     -10.476   7.822  67.025  1.00  0.00    -0.349 A  
HETATM    8  C   UNL     1     -10.756   8.676  68.098  1.00  0.00    -0.116 A  
HETATM    9  C   UNL     1     -10.308  10.000  68.097  1.00  0.00    -0.228 A  
HETATM   10  C   UNL     1      -9.575  10.502  67.019  1.00  0.00    -0.202 A  
HETATM   11  C   UNL     1      -9.194   9.619  65.997  1.00  0.00    -0.232 A  
HETATM   12  C   UNL     1      -9.643   8.287  66.004  1.00  0.00    -0.151 A  
BRANCH  10  13
HETATM   13  C   UNL     1      -9.406  11.982  66.871  1.00  0.00    -0.200 C  
HETATM   14 CL   UNL     1      -7.922  16.764  66.677  1.00  0.00    -0.275 Cl 
HETATM   15  C   UNL     1      -8.291  12.624  67.321  1.00  0.00    -0.189 C  
HETATM   16  C   UNL     1      -8.710  15.160  66.528  1.00  0.00    -0.245 C  
HETATM   17  C   UNL     1      -7.886  14.106  67.256  1.00  0.00    -0.154 C  
BRANCH  13  18
HETATM   18  C   UNL     1     -10.577  12.736  66.327  1.00  0.00    -0.275 A  
HETATM   19  C   UNL     1     -10.666  12.955  64.941  1.00  0.00    -0.333 A  
HETATM   20  C   UNL     1     -11.730  13.676  64.392  1.00  0.00    -0.444 A  
HETATM   21  C   UNL     1     -12.646  13.980  66.602  1.00  0.00    -0.146 A  
HETATM   22  C   UNL     1     -12.732  14.172  65.223  1.00  0.00    -0.425 A  
HETATM   23  C   UNL     1     -11.561  13.289  67.156  1.00  0.00    -0.402 A  
ENDBRANCH  13  18
BRANCH  15  24
HETATM   24  C   UNL     1      -7.228  11.906  68.088  1.00  0.00    -0.085 A  
HETATM   25  C   UNL     1      -7.405  11.581  69.438  1.00  0.00     0.051 A  
HETATM   26  C   UNL     1      -5.422  10.190  69.383  1.00  0.00    -0.038 A  
HETATM   27  C   UNL     1      -5.225  10.524  68.045  1.00  0.00    -0.037 A  
HETATM   28  C   UNL     1      -6.506  10.722  70.080  1.00  0.00    -0.155 A  
HETATM   29  C   UNL     1      -6.123  11.379  67.401  1.00  0.00    -0.074 A  
ENDBRANCH  15  24
ENDBRANCH  10  13
ENDBRANCH   6   7
ENDBRANCH   5   6
ENDBRANCH   4   5
ENDBRANCH   2   4
TORSDOF 7
ENDMDL
MODEL       93
REMARK 921   NORMALIZED FREE ENERGY PREDICTED BY IDOCK:   -4.03 KCAL/MOL
REMARK 922        TOTAL FREE ENERGY PREDICTED BY IDOCK:   -7.74 KCAL/MOL
REMARK 923 INTER-LIGAND FREE ENERGY PREDICTED BY IDOCK:   -5.54 KCAL/MOL
REMARK 924 INTRA-LIGAND FREE ENERGY PREDICTED BY IDOCK:   -2.20 KCAL/MOL
REMARK 927      BINDING AFFINITY PREDICTED BY RF-SCORE:    0.00 PKD
ROOT
HETATM    1  C   UNL     1      -7.165   2.030  68.499  1.00  0.00    -0.043 C  
HETATM    2  N   UNL     1      -7.992   2.731  69.484  1.00  0.00    -0.042 NA 
HETATM    3  C   UNL     1      -7.138   3.563  70.334  1.00  0.00    -0.037 C  
ENDROOT
BRANCH   2   4
HETATM    4  C   UNL     1      -9.056   3.517  68.809  1.00  0.00    -0.145 C  
BRANCH   4   5
HETATM    5  C   UNL     1      -8.911   3.534  67.275  1.00  0.00    -0.146 C  
BRANCH   5   6
HETATM    6  O   UNL     1     -10.033   4.144  66.619  1.00  0.00    -0.221 OA 
BRANCH   6   7
HETATM    7  C   UNL     1      -9.939   5.514  66.483  1.00  0.00    -0.185 A  
HETATM    8  C   UNL     1      -8.951   6.178  65.748  1.00  0.00    -0.099 A  
HETATM    9  C   UNL     1      -8.845   7.571  65.784  1.00  0.00    -0.122 A  
HETATM   10  C   UNL     1      -9.722   8.332  66.560  1.00  0.00    -0.323 A  
HETATM   11  C   UNL     1     -10.784   7.681  67.206  1.00  0.00    -0.344 A  
HETATM   12  C   UNL     1     -10.890   6.279  67.165  1.00  0.00    -0.460 A  
BRANCH  10  13
HETATM   13  C   UNL     1      -9.387   9.760  66.861  1.00  0.00    -0.184 C  
HETATM   14 CL   UNL     1      -7.614  14.153  68.491  1.00  0.00    -0.123 Cl 
HETATM   15  C   UNL     1      -8.566  10.100  67.894  1.00  0.00    -0.118 C  
HETATM   16  C   UNL     1      -8.363  12.770  67.631  1.00  0.00    -0.175 C  
HETATM   17  C   UNL     1      -8.062  11.472  68.372  1.00  0.00    -0.149 C  
BRANCH  13  18
HETATM   18  C   UNL     1     -10.103  10.797  66.056  1.00  0.00    -0.305 A  
HETATM   19  C   UNL     1     -11.245  11.414  66.596  1.00  0.00    -0.298 A  
HETATM   20  C   UNL     1     -11.960  12.370  65.869  1.00  0.00    -0.434 A  
HETATM   21  C   UNL     1     -10.408  12.119  64.041  1.00  0.00    -0.412 A  
HETATM   22  C   UNL     1     -11.529  12.736  64.596  1.00  0.00    -0.367 A  
HETATM   23  C   UNL     1      -9.713  11.134  64.754  1.00  0.00    -0.303 A  
ENDBRANCH  13  18
BRANCH  15  24
HETATM   24  C   UNL     1      -8.046   9.078  68.853  1.00  0.00    -0.104 A  
HETATM   25  C   UNL     1      -6.764   8.537  68.709  1.00  0.00    -0.058 A  
HETATM   26  C   UNL     1      -6.935   7.501  70.892  1.00  0.00    -0.054 A  
HETATM   27  C   UNL     1      -8.222   8.017  71.036  1.00  0.00    -0.106 A  
HETATM   28  C   UNL     1      -6.210   7.755  69.729  1.00  0.00    -0.030 A  
HETATM   29  C   UNL     1      -8.775   8.801  70.021  1.00  0.00    -0.146 A  
ENDBRANCH  15  24
ENDBRANCH  10  13
ENDBRANCH   6   7
ENDBRANCH   5   6
ENDBRANCH   4   5
ENDBRANCH   2   4
TORSDOF 7
ENDMDL
MODEL       94
REMARK 921   NORMALIZED FREE ENERGY PREDICTED BY IDOCK:   -3.99 KCAL/MOL
REMARK 922        TOTAL FREE ENERGY PREDICTED BY IDOCK:   -7.68 KCAL/MOL
REMARK 923 INTER-LIGAND FREE ENERGY PREDICTED BY IDOCK:   -5.86 KCAL/MOL
REMARK 924 INTRA-LIGAND FREE ENERGY PREDICTED BY IDOCK:   -1.82 KCAL/MOL
REMARK 927      BINDING AFFINITY PREDICTED BY RF-SCORE:    0.00 PKD
ROOT
HETATM    1  C   UNL     1     -11.453   7.423  72.555  1.00  0.00    -0.301 C  
HETATM    2  N   UNL     1     -10.561   6.429  73.157  1.00  0.00    -0.240 NA 
HETATM    3  C   UNL     1     -10.431   5.281  72.255  1.00  0.00    -0.218 C  
ENDROOT
BRANCH   2   4
HETATM    4  C   UNL     1      -9.249   7.037  73.490  1.00  0.00    -0.163 C  
BRANCH   4   5
HETATM    5  C   UNL     1      -9.071   8.449  72.898  1.00  0.00    -0.212 C  
BRANCH   5   6
HETATM    6  O   UNL     1      -7.822   8.609  72.210  1.00  0.00    -0.295 OA 
BRANCH   6   7
HETATM    7  C   UNL     1      -7.941   9.013  70.896  1.00  0.00    -0.164 A  
HETATM    8  C   UNL     1      -7.400  10.192  70.371  1.00  0.00    -0.016 A  
HETATM    9  C   UNL     1      -7.693  10.596  69.066  1.00  0.00    -0.130 A  
HETATM   10  C   UNL     1      -8.538   9.834  68.257  1.00  0.00    -0.119 A  
HETATM   11  C   UNL     1      -8.989   8.595  68.738  1.00  0.00    -0.138 A  
HETATM   12  C   UNL     1      -8.689   8.189  70.051  1.00  0.00    -0.131 A  
BRANCH  10  13
HETATM   13  C   UNL     1      -9.111  10.441  67.014  1.00  0.00    -0.153 C  
HETATM   14 CL   UNL     1     -11.556  13.018  63.480  1.00  0.00    -0.511 Cl 
HETATM   15  C   UNL     1     -10.179  11.286  67.058  1.00  0.00    -0.250 C  
HETATM   16  C   UNL     1     -10.449  12.028  64.486  1.00  0.00    -0.299 C  
HETATM   17  C   UNL     1     -10.913  12.042  65.938  1.00  0.00    -0.342 C  
BRANCH  13  18
HETATM   18  C   UNL     1      -8.539   9.970  65.716  1.00  0.00    -0.156 A  
HETATM   19  C   UNL     1      -7.292  10.466  65.297  1.00  0.00    -0.108 A  
HETATM   20  C   UNL     1      -6.730  10.072  64.079  1.00  0.00    -0.128 A  
HETATM   21  C   UNL     1      -8.650   8.672  63.664  1.00  0.00    -0.012 A  
HETATM   22  C   UNL     1      -7.403   9.159  63.271  1.00  0.00    -0.096 A  
HETATM   23  C   UNL     1      -9.229   9.095  64.868  1.00  0.00    -0.135 A  
ENDBRANCH  13  18
BRANCH  15  24
HETATM   24  C   UNL     1     -10.909  11.563  68.333  1.00  0.00    -0.250 A  
HETATM   25  C   UNL     1     -10.988  12.860  68.854  1.00  0.00    -0.271 A  
HETATM   26  C   UNL     1     -12.635  12.129  70.473  1.00  0.00    -0.184 A  
HETATM   27  C   UNL     1     -12.548  10.830  69.976  1.00  0.00    -0.247 A  
HETATM   28  C   UNL     1     -11.853  13.140  69.918  1.00  0.00    -0.378 A  
HETATM   29  C   UNL     1     -11.689  10.548  68.911  1.00  0.00    -0.217 A  
ENDBRANCH  15  24
ENDBRANCH  10  13
ENDBRANCH   6   7
ENDBRANCH   5   6
ENDBRANCH   4   5
ENDBRANCH   2   4
TORSDOF 7
ENDMDL
MODEL       95
REMARK 921   NORMALIZED FREE ENERGY PREDICTED BY IDOCK:   -3.98 KCAL/MOL
REMARK 922        TOTAL FREE ENERGY PREDICTED BY IDOCK:   -7.67 KCAL/MOL
REMARK 923 INTER-LIGAND FREE ENERGY PREDICTED BY IDOCK:   -6.02 KCAL/MOL
REMARK 924 INTRA-LIGAND FREE ENERGY PREDICTED BY IDOCK:   -1.65 KCAL/MOL
REMARK 927      BINDING AFFINITY PREDICTED BY RF-SCORE:    0.00 PKD
ROOT
HETATM    1  C   UNL     1      -7.321   9.691  63.921  1.00  0.00    -0.120 C  
HETATM    2  N   UNL     1      -7.106   8.643  64.920  1.00  0.00    -0.079 NA 
HETATM    3  C   UNL     1      -5.682   8.303  64.973  1.00  0.00    -0.044 C  
ENDROOT
BRANCH   2   4
HETATM    4  C   UNL     1      -7.636   9.063  66.241  1.00  0.00    -0.092 C  
BRANCH   4   5
HETATM    5  C   UNL     1      -6.608   9.845  67.083  1.00  0.00    -0.070 C  
BRANCH   5   6
HETATM    6  O   UNL     1      -7.168  10.369  68.296  1.00  0.00    -0.080 OA 
BRANCH   6   7
HETATM    7  C   UNL     1      -7.451  11.718  68.257  1.00  0.00    -0.103 A  
HETATM    8  C   UNL     1      -8.603  12.309  68.790  1.00  0.00     0.126 A  
HETATM    9  C   UNL     1      -8.878  13.662  68.578  1.00  0.00    -0.099 A  
HETATM   10  C   UNL     1      -8.012  14.456  67.824  1.00  0.00    -0.166 A  
HETATM   11  C   UNL     1      -6.800  13.898  67.387  1.00  0.00    -0.029 A  
HETATM   12  C   UNL     1      -6.524  12.537  67.605  1.00  0.00    -0.138 A  
BRANCH  10  13
HETATM   13  C   UNL     1      -8.482  15.785  67.321  1.00  0.00    -0.212 C  
HETATM   14 CL   UNL     1     -10.861  19.738  65.367  1.00  0.00    -0.360 Cl 
HETATM   15  C   UNL     1      -9.607  15.905  66.562  1.00  0.00    -0.291 C  
HETATM   16  C   UNL     1      -9.818  18.568  66.237  1.00  0.00    -0.337 C  
HETATM   17  C   UNL     1     -10.293  17.145  65.964  1.00  0.00    -0.317 C  
BRANCH  13  18
HETATM   18  C   UNL     1      -7.584  16.952  67.579  1.00  0.00    -0.184 A  
HETATM   19  C   UNL     1      -7.816  17.757  68.708  1.00  0.00    -0.251 A  
HETATM   20  C   UNL     1      -7.017  18.873  68.975  1.00  0.00    -0.342 A  
HETATM   21  C   UNL     1      -5.732  18.409  66.989  1.00  0.00    -0.161 A  
HETATM   22  C   UNL     1      -5.961  19.188  68.123  1.00  0.00    -0.229 A  
HETATM   23  C   UNL     1      -6.554  17.312  66.701  1.00  0.00    -0.268 A  
ENDBRANCH  13  18
BRANCH  15  24
HETATM   24  C   UNL     1     -10.370  14.707  66.094  1.00  0.00    -0.309 A  
HETATM   25  C   UNL     1     -11.580  14.341  66.695  1.00  0.00    -0.397 A  
HETATM   26  C   UNL     1     -11.990  12.733  64.930  1.00  0.00    -0.451 A  
HETATM   27  C   UNL     1     -10.777  13.075  64.335  1.00  0.00    -0.414 A  
HETATM   28  C   UNL     1     -12.388  13.359  66.110  1.00  0.00    -0.440 A  
HETATM   29  C   UNL     1      -9.971  14.057  64.915  1.00  0.00    -0.161 A  
ENDBRANCH  15  24
ENDBRANCH  10  13
ENDBRANCH   6   7
ENDBRANCH   5   6
ENDBRANCH   4   5
ENDBRANCH   2   4
TORSDOF 7
ENDMDL
MODEL       96
REMARK 921   NORMALIZED FREE ENERGY PREDICTED BY IDOCK:   -3.98 KCAL/MOL
REMARK 922        TOTAL FREE ENERGY PREDICTED BY IDOCK:   -7.67 KCAL/MOL
REMARK 923 INTER-LIGAND FREE ENERGY PREDICTED BY IDOCK:   -5.67 KCAL/MOL
REMARK 924 INTRA-LIGAND FREE ENERGY PREDICTED BY IDOCK:   -2.00 KCAL/MOL
REMARK 927      BINDING AFFINITY PREDICTED BY RF-SCORE:    0.00 PKD
ROOT
HETATM    1  C   UNL     1      -8.396  18.790  68.381  1.00  0.00    -0.342 C  
HETATM    2  N   UNL     1      -7.333  18.277  67.514  1.00  0.00    -0.208 NA 
HETATM    3  C   UNL     1      -6.231  19.241  67.469  1.00  0.00    -0.195 C  
ENDROOT
BRANCH   2   4
HETATM    4  C   UNL     1      -6.891  16.934  67.968  1.00  0.00    -0.148 C  
BRANCH   4   5
HETATM    5  C   UNL     1      -7.730  15.788  67.369  1.00  0.00    -0.183 C  
BRANCH   5   6
HETATM    6  O   UNL     1      -8.568  15.147  68.342  1.00  0.00    -0.149 OA 
BRANCH   6   7
HETATM    7  C   UNL     1      -8.715  13.787  68.161  1.00  0.00    -0.183 A  
HETATM    8  C   UNL     1      -9.891  13.161  67.730  1.00  0.00    -0.228 A  
HETATM    9  C   UNL     1      -9.997  11.768  67.714  1.00  0.00    -0.198 A  
HETATM   10  C   UNL     1      -8.933  10.968  68.135  1.00  0.00    -0.152 A  
HETATM   11  C   UNL     1      -7.715  11.587  68.459  1.00  0.00    -0.134 A  
HETATM   12  C   UNL     1      -7.610  12.989  68.469  1.00  0.00    -0.121 A  
BRANCH  10  13
HETATM   13  C   UNL     1      -9.175   9.523  68.441  1.00  0.00    -0.130 C  
HETATM   14 CL   UNL     1      -9.532   4.528  68.606  1.00  0.00    -0.206 Cl 
HETATM   15  C   UNL     1      -8.941   8.548  67.518  1.00  0.00    -0.142 C  
HETATM   16  C   UNL     1      -9.459   6.296  68.896  1.00  0.00    -0.127 C  
HETATM   17  C   UNL     1      -9.085   7.019  67.608  1.00  0.00    -0.122 C  
BRANCH  13  18
HETATM   18  C   UNL     1      -9.812   9.217  69.758  1.00  0.00    -0.192 A  
HETATM   19  C   UNL     1     -11.210   9.295  69.878  1.00  0.00    -0.145 A  
HETATM   20  C   UNL     1     -11.846   9.042  71.097  1.00  0.00    -0.362 A  
HETATM   21  C   UNL     1      -9.699   8.624  72.112  1.00  0.00    -0.383 A  
HETATM   22  C   UNL     1     -11.089   8.687  72.211  1.00  0.00    -0.395 A  
HETATM   23  C   UNL     1      -9.059   8.913  70.900  1.00  0.00    -0.283 A  
ENDBRANCH  13  18
BRANCH  15  24
HETATM   24  C   UNL     1      -8.540   8.874  66.115  1.00  0.00    -0.155 A  
HETATM   25  C   UNL     1      -9.490   9.257  65.162  1.00  0.00    -0.184 A  
HETATM   26  C   UNL     1      -7.724   9.896  63.631  1.00  0.00    -0.141 A  
HETATM   27  C   UNL     1      -6.770   9.497  64.565  1.00  0.00    -0.095 A  
HETATM   28  C   UNL     1      -9.081   9.770  63.926  1.00  0.00    -0.275 A  
HETATM   29  C   UNL     1      -7.176   8.988  65.801  1.00  0.00    -0.089 A  
ENDBRANCH  15  24
ENDBRANCH  10  13
ENDBRANCH   6   7
ENDBRANCH   5   6
ENDBRANCH   4   5
ENDBRANCH   2   4
TORSDOF 7
ENDMDL
MODEL       97
REMARK 921   NORMALIZED FREE ENERGY PREDICTED BY IDOCK:   -3.96 KCAL/MOL
REMARK 922        TOTAL FREE ENERGY PREDICTED BY IDOCK:   -7.64 KCAL/MOL
REMARK 923 INTER-LIGAND FREE ENERGY PREDICTED BY IDOCK:   -5.48 KCAL/MOL
REMARK 924 INTRA-LIGAND FREE ENERGY PREDICTED BY IDOCK:   -2.17 KCAL/MOL
REMARK 927      BINDING AFFINITY PREDICTED BY RF-SCORE:    0.00 PKD
ROOT
HETATM    1  C   UNL     1      -9.760  11.624  65.705  1.00  0.00    -0.236 C  
HETATM    2  N   UNL     1     -10.142  10.955  64.461  1.00  0.00    -0.315 NA 
HETATM    3  C   UNL     1     -10.808  11.913  63.575  1.00  0.00    -0.434 C  
ENDROOT
BRANCH   2   4
HETATM    4  C   UNL     1      -8.959  10.324  63.822  1.00  0.00    -0.239 C  
BRANCH   4   5
HETATM    5  C   UNL     1      -8.654   8.918  64.375  1.00  0.00    -0.115 C  
BRANCH   5   6
HETATM    6  O   UNL     1      -7.707   8.940  65.454  1.00  0.00    -0.088 OA 
BRANCH   6   7
HETATM    7  C   UNL     1      -8.067   8.177  66.545  1.00  0.00    -0.106 A  
HETATM    8  C   UNL     1      -7.342   8.101  67.741  1.00  0.00    -0.093 A  
HETATM    9  C   UNL     1      -7.701   7.192  68.739  1.00  0.00    -0.116 A  
HETATM   10  C   UNL     1      -8.789   6.334  68.565  1.00  0.00    -0.114 A  
HETATM   11  C   UNL     1      -9.586   6.487  67.420  1.00  0.00    -0.142 A  
HETATM   12  C   UNL     1      -9.225   7.405  66.418  1.00  0.00    -0.203 A  
BRANCH  10  13
HETATM   13  C   UNL     1      -8.946   5.152  69.470  1.00  0.00    -0.128 C  
HETATM   14 CL   UNL     1     -10.208   1.714  72.889  1.00  0.00    -0.176 Cl 
HETATM   15  C   UNL     1      -9.775   5.183  70.550  1.00  0.00    -0.260 C  
HETATM   16  C   UNL     1      -9.600   2.672  71.501  1.00  0.00    -0.151 C  
HETATM   17  C   UNL     1     -10.118   4.103  71.590  1.00  0.00    -0.198 C  
BRANCH  13  18
HETATM   18  C   UNL     1      -8.049   3.985  69.205  1.00  0.00    -0.064 A  
HETATM   19  C   UNL     1      -6.819   3.900  69.880  1.00  0.00    -0.037 A  
HETATM   20  C   UNL     1      -5.938   2.841  69.645  1.00  0.00    -0.023 A  
HETATM   21  C   UNL     1      -7.495   1.920  68.052  1.00  0.00    -0.054 A  
HETATM   22  C   UNL     1      -6.286   1.839  68.743  1.00  0.00    -0.025 A  
HETATM   23  C   UNL     1      -8.362   3.000  68.260  1.00  0.00    -0.095 A  
ENDBRANCH  13  18
BRANCH  15  24
HETATM   24  C   UNL     1     -10.485   6.434  70.959  1.00  0.00    -0.268 A  
HETATM   25  C   UNL     1     -11.844   6.618  70.679  1.00  0.00    -0.443 A  
HETATM   26  C   UNL     1     -11.891   8.575  72.106  1.00  0.00    -0.448 A  
HETATM   27  C   UNL     1     -10.533   8.413  72.374  1.00  0.00    -0.402 A  
HETATM   28  C   UNL     1     -12.543   7.685  71.256  1.00  0.00    -0.316 A  
HETATM   29  C   UNL     1      -9.833   7.348  71.802  1.00  0.00    -0.187 A  
ENDBRANCH  15  24
ENDBRANCH  10  13
ENDBRANCH   6   7
ENDBRANCH   5   6
ENDBRANCH   4   5
ENDBRANCH   2   4
TORSDOF 7
ENDMDL
MODEL       98
REMARK 921   NORMALIZED FREE ENERGY PREDICTED BY IDOCK:   -3.96 KCAL/MOL
REMARK 922        TOTAL FREE ENERGY PREDICTED BY IDOCK:   -7.64 KCAL/MOL
REMARK 923 INTER-LIGAND FREE ENERGY PREDICTED BY IDOCK:   -5.52 KCAL/MOL
REMARK 924 INTRA-LIGAND FREE ENERGY PREDICTED BY IDOCK:   -2.12 KCAL/MOL
REMARK 927      BINDING AFFINITY PREDICTED BY RF-SCORE:    0.00 PKD
ROOT
HETATM    1  C   UNL     1      -8.600  10.088  65.354  1.00  0.00    -0.151 C  
HETATM    2  N   UNL     1      -8.919   9.010  66.292  1.00  0.00    -0.152 NA 
HETATM    3  C   UNL     1      -8.482   7.729  65.731  1.00  0.00    -0.144 C  
ENDROOT
BRANCH   2   4
HETATM    4  C   UNL     1      -8.317   9.280  67.622  1.00  0.00    -0.116 C  
BRANCH   4   5
HETATM    5  C   UNL     1      -7.081  10.197  67.550  1.00  0.00    -0.087 C  
BRANCH   5   6
HETATM    6  O   UNL     1      -6.851  10.916  68.771  1.00  0.00    -0.061 OA 
BRANCH   6   7
HETATM    7  C   UNL     1      -6.912  12.288  68.645  1.00  0.00    -0.097 A  
HETATM    8  C   UNL     1      -6.660  13.197  69.680  1.00  0.00     0.010 A  
HETATM    9  C   UNL     1      -6.888  14.564  69.503  1.00  0.00    -0.152 A  
HETATM   10  C   UNL     1      -7.378  15.055  68.291  1.00  0.00    -0.111 A  
HETATM   11  C   UNL     1      -7.522  14.164  67.216  1.00  0.00    -0.068 A  
HETATM   12  C   UNL     1      -7.289  12.789  67.396  1.00  0.00    -0.135 A  
BRANCH  10  13
HETATM   13  C   UNL     1      -7.937  16.442  68.231  1.00  0.00    -0.170 C  
HETATM   14 CL   UNL     1     -10.559  20.701  68.533  1.00  0.00     0.056 Cl 
HETATM   15  C   UNL     1      -9.212  16.718  68.625  1.00  0.00    -0.257 C  
HETATM   16  C   UNL     1      -9.346  19.392  68.362  1.00  0.00    -0.367 C  
HETATM   17  C   UNL     1      -9.985  18.046  68.681  1.00  0.00    -0.396 C  
BRANCH  13  18
HETATM   18  C   UNL     1      -7.073  17.483  67.595  1.00  0.00    -0.180 A  
HETATM   19  C   UNL     1      -7.151  17.682  66.206  1.00  0.00    -0.337 A  
HETATM   20  C   UNL     1      -6.343  18.627  65.565  1.00  0.00    -0.320 A  
HETATM   21  C   UNL     1      -5.356  19.200  67.689  1.00  0.00    -0.172 A  
HETATM   22  C   UNL     1      -5.458  19.400  66.312  1.00  0.00    -0.162 A  
HETATM   23  C   UNL     1      -6.138  18.228  68.326  1.00  0.00    -0.180 A  
ENDBRANCH  13  18
BRANCH  15  24
HETATM   24  C   UNL     1     -10.160  15.634  69.029  1.00  0.00    -0.227 A  
HETATM   25  C   UNL     1     -10.532  15.460  70.367  1.00  0.00    -0.209 A  
HETATM   26  C   UNL     1     -12.256  13.893  69.703  1.00  0.00    -0.374 A  
HETATM   27  C   UNL     1     -11.879  14.042  68.370  1.00  0.00    -0.397 A  
HETATM   28  C   UNL     1     -11.580  14.595  70.700  1.00  0.00    -0.305 A  
HETATM   29  C   UNL     1     -10.835  14.908  68.034  1.00  0.00    -0.263 A  
ENDBRANCH  15  24
ENDBRANCH  10  13
ENDBRANCH   6   7
ENDBRANCH   5   6
ENDBRANCH   4   5
ENDBRANCH   2   4
TORSDOF 7
ENDMDL
MODEL       99
REMARK 921   NORMALIZED FREE ENERGY PREDICTED BY IDOCK:   -3.93 KCAL/MOL
REMARK 922        TOTAL FREE ENERGY PREDICTED BY IDOCK:   -7.60 KCAL/MOL
REMARK 923 INTER-LIGAND FREE ENERGY PREDICTED BY IDOCK:   -7.68 KCAL/MOL
REMARK 924 INTRA-LIGAND FREE ENERGY PREDICTED BY IDOCK:    0.07 KCAL/MOL
REMARK 927      BINDING AFFINITY PREDICTED BY RF-SCORE:    0.00 PKD
ROOT
HETATM    1  C   UNL     1      -7.577   7.302  64.373  1.00  0.00    -0.111 C  
HETATM    2  N   UNL     1      -6.686   8.342  63.856  1.00  0.00    -0.075 NA 
HETATM    3  C   UNL     1      -5.869   7.791  62.772  1.00  0.00    -0.063 C  
ENDROOT
BRANCH   2   4
HETATM    4  C   UNL     1      -7.464   9.532  63.428  1.00  0.00    -0.109 C  
BRANCH   4   5
HETATM    5  C   UNL     1      -8.905   9.538  63.975  1.00  0.00    -0.212 C  
BRANCH   5   6
HETATM    6  O   UNL     1      -9.580  10.784  63.744  1.00  0.00    -0.240 OA 
BRANCH   6   7
HETATM    7  C   UNL     1      -9.968  11.444  64.892  1.00  0.00    -0.265 A  
HETATM    8  C   UNL     1      -9.105  11.824  65.926  1.00  0.00    -0.128 A  
HETATM    9  C   UNL     1      -9.604  12.358  67.117  1.00  0.00    -0.206 A  
HETATM   10  C   UNL     1     -10.978  12.519  67.304  1.00  0.00    -0.300 A  
HETATM   11  C   UNL     1     -11.838  12.248  66.228  1.00  0.00    -0.387 A  
HETATM   12  C   UNL     1     -11.333  11.715  65.030  1.00  0.00    -0.237 A  
BRANCH  10  13
HETATM   13  C   UNL     1     -11.510  12.757  68.684  1.00  0.00    -0.341 C  
HETATM   14 CL   UNL     1     -13.347  14.490  73.011  1.00  0.00    -0.569 Cl 
HETATM   15  C   UNL     1     -11.698  14.016  69.170  1.00  0.00    -0.375 C  
HETATM   16  C   UNL     1     -12.805  13.556  71.579  1.00  0.00    -0.352 C  
HETATM   17  C   UNL     1     -12.250  14.502  70.521  1.00  0.00    -0.399 C  
BRANCH  13  18
HETATM   18  C   UNL     1     -11.695  11.549  69.545  1.00  0.00    -0.413 A  
HETATM   19  C   UNL     1     -10.569  10.795  69.919  1.00  0.00    -0.130 A  
HETATM   20  C   UNL     1     -10.699   9.644  70.702  1.00  0.00    -0.388 A  
HETATM   21  C   UNL     1     -13.088   9.970  70.758  1.00  0.00    -0.316 A  
HETATM   22  C   UNL     1     -11.959   9.243  71.138  1.00  0.00    -0.394 A  
HETATM   23  C   UNL     1     -12.962  11.103  69.944  1.00  0.00     0.224 A  
ENDBRANCH  13  18
BRANCH  15  24
HETATM   24  C   UNL     1     -11.279  15.226  68.400  1.00  0.00    -0.314 A  
HETATM   25  C   UNL     1     -10.753  16.350  69.048  1.00  0.00    -0.322 A  
HETATM   26  C   UNL     1     -10.102  17.298  66.916  1.00  0.00    -0.304 A  
HETATM   27  C   UNL     1     -10.642  16.195  66.260  1.00  0.00    -0.276 A  
HETATM   28  C   UNL     1     -10.163  17.379  68.307  1.00  0.00    -0.362 A  
HETATM   29  C   UNL     1     -11.228  15.164  66.998  1.00  0.00    -0.308 A  
ENDBRANCH  15  24
ENDBRANCH  10  13
ENDBRANCH   6   7
ENDBRANCH   5   6
ENDBRANCH   4   5
ENDBRANCH   2   4
TORSDOF 7
ENDMDL
MODEL      100
REMARK 921   NORMALIZED FREE ENERGY PREDICTED BY IDOCK:   -3.90 KCAL/MOL
REMARK 922        TOTAL FREE ENERGY PREDICTED BY IDOCK:   -7.56 KCAL/MOL
REMARK 923 INTER-LIGAND FREE ENERGY PREDICTED BY IDOCK:   -5.72 KCAL/MOL
REMARK 924 INTRA-LIGAND FREE ENERGY PREDICTED BY IDOCK:   -1.85 KCAL/MOL
REMARK 927      BINDING AFFINITY PREDICTED BY RF-SCORE:    0.00 PKD
ROOT
HETATM    1  C   UNL     1     -10.105  19.022  68.452  1.00  0.00    -0.403 C  
HETATM    2  N   UNL     1     -10.500  17.935  67.554  1.00  0.00    -0.383 NA 
HETATM    3  C   UNL     1     -10.336  18.366  66.163  1.00  0.00    -0.407 C  
ENDROOT
BRANCH   2   4
HETATM    4  C   UNL     1      -9.733  16.700  67.858  1.00  0.00    -0.244 C  
BRANCH   4   5
HETATM    5  C   UNL     1     -10.309  15.448  67.168  1.00  0.00    -0.271 C  
BRANCH   5   6
HETATM    6  O   UNL     1     -10.792  14.472  68.103  1.00  0.00    -0.233 OA 
BRANCH   6   7
HETATM    7  C   UNL     1     -10.225  13.222  67.968  1.00  0.00    -0.240 A  
HETATM    8  C   UNL     1      -8.854  12.953  68.052  1.00  0.00    -0.195 A  
HETATM    9  C   UNL     1      -8.353  11.682  67.757  1.00  0.00    -0.143 A  
HETATM   10  C   UNL     1      -9.211  10.652  67.365  1.00  0.00    -0.153 A  
HETATM   11  C   UNL     1     -10.595  10.885  67.391  1.00  0.00    -0.285 A  
HETATM   12  C   UNL     1     -11.096  12.164  67.692  1.00  0.00    -0.320 A  
BRANCH  10  13
HETATM   13  C   UNL     1      -8.641   9.423  66.727  1.00  0.00    -0.134 C  
HETATM   14 CL   UNL     1      -6.921   4.891  65.461  1.00  0.00    -0.061 Cl 
HETATM   15  C   UNL     1      -8.373   8.300  67.451  1.00  0.00    -0.125 C  
HETATM   16  C   UNL     1      -7.559   6.563  65.564  1.00  0.00    -0.088 C  
HETATM   17  C   UNL     1      -7.823   6.930  67.020  1.00  0.00    -0.111 C  
BRANCH  13  18
HETATM   18  C   UNL     1      -8.258   9.536  65.287  1.00  0.00    -0.131 A  
HETATM   19  C   UNL     1      -9.262   9.477  64.304  1.00  0.00    -0.166 A  
HETATM   20  C   UNL     1      -8.947   9.552  62.944  1.00  0.00    -0.230 A  
HETATM   21  C   UNL     1      -6.612   9.750  63.512  1.00  0.00    -0.117 A  
HETATM   22  C   UNL     1      -7.620   9.708  62.550  1.00  0.00    -0.118 A  
HETATM   23  C   UNL     1      -6.923   9.637  64.873  1.00  0.00    -0.113 A  
ENDBRANCH  13  18
BRANCH  15  24
HETATM   24  C   UNL     1      -8.524   8.270  68.938  1.00  0.00    -0.128 A  
HETATM   25  C   UNL     1      -7.446   8.564  69.780  1.00  0.00    -0.071 A  
HETATM   26  C   UNL     1      -8.933   8.632  71.691  1.00  0.00    -0.305 A  
HETATM   27  C   UNL     1     -10.010   8.318  70.865  1.00  0.00    -0.223 A  
HETATM   28  C   UNL     1      -7.653   8.749  71.152  1.00  0.00    -0.134 A  
HETATM   29  C   UNL     1      -9.806   8.137  69.495  1.00  0.00    -0.181 A  
ENDBRANCH  15  24
ENDBRANCH  10  13
ENDBRANCH   6   7
ENDBRANCH   5   6
ENDBRANCH   4   5
ENDBRANCH   2   4
TORSDOF 7
ENDMDL
MODEL      101
REMARK 921   NORMALIZED FREE ENERGY PREDICTED BY IDOCK:   -3.86 KCAL/MOL
REMARK 922        TOTAL FREE ENERGY PREDICTED BY IDOCK:   -7.51 KCAL/MOL
REMARK 923 INTER-LIGAND FREE ENERGY PREDICTED BY IDOCK:   -5.35 KCAL/MOL
REMARK 924 INTRA-LIGAND FREE ENERGY PREDICTED BY IDOCK:   -2.16 KCAL/MOL
REMARK 927      BINDING AFFINITY PREDICTED BY RF-SCORE:    0.00 PKD
ROOT
HETATM    1  C   UNL     1     -12.839   9.571  72.114  1.00  0.00    -0.389 C  
HETATM    2  N   UNL     1     -13.282  10.662  71.243  1.00  0.00    -0.323 NA 
HETATM    3  C   UNL     1     -13.158  11.936  71.955  1.00  0.00    -0.369 C  
ENDROOT
BRANCH   2   4
HETATM    4  C   UNL     1     -12.524  10.652  69.966  1.00  0.00    -0.225 C  
BRANCH   4   5
HETATM    5  C   UNL     1     -11.381  11.685  69.936  1.00  0.00    -0.150 C  
BRANCH   5   6
HETATM    6  O   UNL     1     -10.858  11.895  68.616  1.00  0.00    -0.216 OA 
BRANCH   6   7
HETATM    7  C   UNL     1     -10.239  10.792  68.065  1.00  0.00    -0.178 A  
HETATM    8  C   UNL     1     -10.745  10.040  66.998  1.00  0.00    -0.248 A  
HETATM    9  C   UNL     1     -10.126   8.853  66.600  1.00  0.00    -0.357 A  
HETATM   10  C   UNL     1      -8.989   8.386  67.262  1.00  0.00    -0.142 A  
HETATM   11  C   UNL     1      -8.411   9.194  68.255  1.00  0.00    -0.125 A  
HETATM   12  C   UNL     1      -9.035  10.390  68.651  1.00  0.00    -0.146 A  
BRANCH  10  13
HETATM   13  C   UNL     1      -8.550   6.969  67.060  1.00  0.00    -0.122 C  
HETATM   14 CL   UNL     1      -7.718   2.029  67.103  1.00  0.00    -0.064 Cl 
HETATM   15  C   UNL     1      -8.917   5.977  67.918  1.00  0.00    -0.118 C  
HETATM   16  C   UNL     1      -7.875   3.782  66.763  1.00  0.00    -0.088 C  
HETATM   17  C   UNL     1      -8.619   4.468  67.902  1.00  0.00    -0.108 C  
BRANCH  13  18
HETATM   18  C   UNL     1      -7.582   6.723  65.947  1.00  0.00    -0.087 A  
HETATM   19  C   UNL     1      -6.204   6.850  66.197  1.00  0.00    -0.042 A  
HETATM   20  C   UNL     1      -5.265   6.654  65.180  1.00  0.00    -0.025 A  
HETATM   21  C   UNL     1      -7.058   6.196  63.634  1.00  0.00    -0.049 A  
HETATM   22  C   UNL     1      -5.693   6.308  63.901  1.00  0.00    -0.022 A  
HETATM   23  C   UNL     1      -8.001   6.428  64.643  1.00  0.00    -0.118 A  
ENDBRANCH  13  18
BRANCH  15  24
HETATM   24  C   UNL     1      -9.681   6.265  69.171  1.00  0.00    -0.154 A  
HETATM   25  C   UNL     1     -11.079   6.318  69.169  1.00  0.00    -0.457 A  
HETATM   26  C   UNL     1     -11.099   6.374  71.591  1.00  0.00    -0.314 A  
HETATM   27  C   UNL     1      -9.706   6.343  71.603  1.00  0.00    -0.174 A  
HETATM   28  C   UNL     1     -11.784   6.368  70.377  1.00  0.00    -0.389 A  
HETATM   29  C   UNL     1      -9.000   6.290  70.399  1.00  0.00    -0.154 A  
ENDBRANCH  15  24
ENDBRANCH  10  13
ENDBRANCH   6   7
ENDBRANCH   5   6
ENDBRANCH   4   5
ENDBRANCH   2   4
TORSDOF 7
ENDMDL
MODEL      102
REMARK 921   NORMALIZED FREE ENERGY PREDICTED BY IDOCK:   -3.86 KCAL/MOL
REMARK 922        TOTAL FREE ENERGY PREDICTED BY IDOCK:   -7.51 KCAL/MOL
REMARK 923 INTER-LIGAND FREE ENERGY PREDICTED BY IDOCK:   -5.51 KCAL/MOL
REMARK 924 INTRA-LIGAND FREE ENERGY PREDICTED BY IDOCK:   -1.99 KCAL/MOL
REMARK 927      BINDING AFFINITY PREDICTED BY RF-SCORE:    0.00 PKD
ROOT
HETATM    1  C   UNL     1      -9.067  15.462  68.873  1.00  0.00    -0.218 C  
HETATM    2  N   UNL     1      -8.895  14.587  67.712  1.00  0.00    -0.176 NA 
HETATM    3  C   UNL     1      -8.873  15.395  66.490  1.00  0.00    -0.312 C  
ENDROOT
BRANCH   2   4
HETATM    4  C   UNL     1      -7.675  13.753  67.861  1.00  0.00    -0.161 C  
BRANCH   4   5
HETATM    5  C   UNL     1      -7.665  12.527  66.927  1.00  0.00     0.057 C  
BRANCH   5   6
HETATM    6  O   UNL     1      -8.978  11.996  66.695  1.00  0.00    -0.199 OA 
BRANCH   6   7
HETATM    7  C   UNL     1      -9.143  10.688  67.101  1.00  0.00    -0.143 A  
HETATM    8  C   UNL     1     -10.334   9.960  66.986  1.00  0.00    -0.303 A  
HETATM    9  C   UNL     1     -10.455   8.690  67.555  1.00  0.00    -0.335 A  
HETATM   10  C   UNL     1      -9.392   8.119  68.258  1.00  0.00    -0.137 A  
HETATM   11  C   UNL     1      -8.162   8.794  68.277  1.00  0.00    -0.118 A  
HETATM   12  C   UNL     1      -8.041  10.071  67.700  1.00  0.00    -0.110 A  
BRANCH  10  13
HETATM   13  C   UNL     1      -9.645   6.938  69.142  1.00  0.00    -0.144 C  
HETATM   14 CL   UNL     1      -9.883   2.516  71.486  1.00  0.00    -0.227 Cl 
HETATM   15  C   UNL     1      -9.220   5.688  68.804  1.00  0.00    -0.133 C  
HETATM   16  C   UNL     1      -9.913   4.228  70.956  1.00  0.00    -0.153 C  
HETATM   17  C   UNL     1      -9.334   4.348  69.551  1.00  0.00    -0.226 C  
BRANCH  13  18
HETATM   18  C   UNL     1     -10.499   7.175  70.345  1.00  0.00    -0.234 A  
HETATM   19  C   UNL     1      -9.919   7.733  71.498  1.00  0.00    -0.205 A  
HETATM   20  C   UNL     1     -10.675   7.948  72.654  1.00  0.00    -0.411 A  
HETATM   21  C   UNL     1     -12.615   7.056  71.534  1.00  0.00    -0.426 A  
HETATM   22  C   UNL     1     -12.030   7.627  72.665  1.00  0.00    -0.208 A  
HETATM   23  C   UNL     1     -11.850   6.805  70.388  1.00  0.00    -0.395 A  
ENDBRANCH  13  18
BRANCH  15  24
HETATM   24  C   UNL     1      -8.582   5.406  67.482  1.00  0.00    -0.108 A  
HETATM   25  C   UNL     1      -9.341   5.364  66.307  1.00  0.00    -0.163 A  
HETATM   26  C   UNL     1      -7.316   5.311  64.978  1.00  0.00    -0.068 A  
HETATM   27  C   UNL     1      -6.551   5.331  66.143  1.00  0.00    -0.048 A  
HETATM   28  C   UNL     1      -8.707   5.321  65.060  1.00  0.00    -0.136 A  
HETATM   29  C   UNL     1      -7.181   5.378  67.389  1.00  0.00    -0.075 A  
ENDBRANCH  15  24
ENDBRANCH  10  13
ENDBRANCH   6   7
ENDBRANCH   5   6
ENDBRANCH   4   5
ENDBRANCH   2   4
TORSDOF 7
ENDMDL
MODEL      103
REMARK 921   NORMALIZED FREE ENERGY PREDICTED BY IDOCK:   -3.85 KCAL/MOL
REMARK 922        TOTAL FREE ENERGY PREDICTED BY IDOCK:   -7.48 KCAL/MOL
REMARK 923 INTER-LIGAND FREE ENERGY PREDICTED BY IDOCK:   -5.37 KCAL/MOL
REMARK 924 INTRA-LIGAND FREE ENERGY PREDICTED BY IDOCK:   -2.11 KCAL/MOL
REMARK 927      BINDING AFFINITY PREDICTED BY RF-SCORE:    0.00 PKD
ROOT
HETATM    1  C   UNL     1      -9.428   2.479  72.742  1.00  0.00    -0.093 C  
HETATM    2  N   UNL     1     -10.770   2.933  73.113  1.00  0.00    -0.165 NA 
HETATM    3  C   UNL     1     -11.520   1.817  73.694  1.00  0.00    -0.204 C  
ENDROOT
BRANCH   2   4
HETATM    4  C   UNL     1     -10.692   4.099  74.028  1.00  0.00    -0.243 C  
BRANCH   4   5
HETATM    5  C   UNL     1     -10.110   5.357  73.354  1.00  0.00    -0.183 C  
BRANCH   5   6
HETATM    6  O   UNL     1     -11.110   6.146  72.694  1.00  0.00    -0.247 OA 
BRANCH   6   7
HETATM    7  C   UNL     1     -10.784   6.521  71.407  1.00  0.00    -0.238 A  
HETATM    8  C   UNL     1     -11.632   6.401  70.300  1.00  0.00    -0.451 A  
HETATM    9  C   UNL     1     -11.169   6.669  69.009  1.00  0.00    -0.289 A  
HETATM   10  C   UNL     1      -9.845   7.058  68.794  1.00  0.00    -0.152 A  
HETATM   11  C   UNL     1      -9.025   7.291  69.909  1.00  0.00    -0.142 A  
HETATM   12  C   UNL     1      -9.495   7.024  71.206  1.00  0.00    -0.164 A  
BRANCH  10  13
HETATM   13  C   UNL     1      -9.279   7.002  67.409  1.00  0.00    -0.134 C  
HETATM   14 CL   UNL     1      -7.342   7.795  62.857  1.00  0.00    -0.094 Cl 
HETATM   15  C   UNL     1      -9.091   8.130  66.667  1.00  0.00    -0.202 C  
HETATM   16  C   UNL     1      -7.912   7.182  64.442  1.00  0.00    -0.101 C  
HETATM   17  C   UNL     1      -8.508   8.324  65.258  1.00  0.00    -0.179 C  
BRANCH  13  18
HETATM   18  C   UNL     1      -9.055   5.641  66.834  1.00  0.00    -0.116 A  
HETATM   19  C   UNL     1     -10.055   5.063  66.033  1.00  0.00    -0.234 A  
HETATM   20  C   UNL     1      -9.899   3.782  65.496  1.00  0.00    -0.116 A  
HETATM   21  C   UNL     1      -7.734   3.622  66.546  1.00  0.00    -0.084 A  
HETATM   22  C   UNL     1      -8.727   3.069  65.737  1.00  0.00    -0.130 A  
HETATM   23  C   UNL     1      -7.906   4.890  67.114  1.00  0.00    -0.095 A  
ENDBRANCH  13  18
BRANCH  15  24
HETATM   24  C   UNL     1      -9.546   9.470  67.148  1.00  0.00    -0.206 A  
HETATM   25  C   UNL     1     -10.907   9.797  67.198  1.00  0.00    -0.207 A  
HETATM   26  C   UNL     1     -10.397  11.807  68.450  1.00  0.00    -0.223 A  
HETATM   27  C   UNL     1      -9.038  11.502  68.388  1.00  0.00    -0.185 A  
HETATM   28  C   UNL     1     -11.328  10.961  67.851  1.00  0.00    -0.380 A  
HETATM   29  C   UNL     1      -8.615  10.340  67.739  1.00  0.00    -0.118 A  
ENDBRANCH  15  24
ENDBRANCH  10  13
ENDBRANCH   6   7
ENDBRANCH   5   6
ENDBRANCH   4   5
ENDBRANCH   2   4
TORSDOF 7
ENDMDL
MODEL      104
REMARK 921   NORMALIZED FREE ENERGY PREDICTED BY IDOCK:   -3.84 KCAL/MOL
REMARK 922        TOTAL FREE ENERGY PREDICTED BY IDOCK:   -7.48 KCAL/MOL
REMARK 923 INTER-LIGAND FREE ENERGY PREDICTED BY IDOCK:   -5.73 KCAL/MOL
REMARK 924 INTRA-LIGAND FREE ENERGY PREDICTED BY IDOCK:   -1.75 KCAL/MOL
REMARK 927      BINDING AFFINITY PREDICTED BY RF-SCORE:    0.00 PKD
ROOT
HETATM    1  C   UNL     1     -10.041  13.379  65.935  1.00  0.00    -0.293 C  
HETATM    2  N   UNL     1     -10.334  14.017  67.220  1.00  0.00    -0.262 NA 
HETATM    3  C   UNL     1     -11.578  14.782  67.114  1.00  0.00    -0.359 C  
ENDROOT
BRANCH   2   4
HETATM    4  C   UNL     1     -10.383  13.005  68.306  1.00  0.00    -0.252 C  
BRANCH   4   5
HETATM    5  C   UNL     1     -11.799  12.442  68.541  1.00  0.00    -0.304 C  
BRANCH   5   6
HETATM    6  O   UNL     1     -11.945  11.096  68.065  1.00  0.00    -0.625 OA 
BRANCH   6   7
HETATM    7  C   UNL     1     -11.434  10.133  68.909  1.00  0.00    -0.064 A  
HETATM    8  C   UNL     1     -11.640  10.092  70.293  1.00  0.00    -0.354 A  
HETATM    9  C   UNL     1     -10.965   9.165  71.092  1.00  0.00    -0.390 A  
HETATM   10  C   UNL     1     -10.063   8.261  70.526  1.00  0.00    -0.210 A  
HETATM   11  C   UNL     1      -9.941   8.221  69.128  1.00  0.00    -0.196 A  
HETATM   12  C   UNL     1     -10.625   9.153  68.327  1.00  0.00    -0.223 A  
BRANCH  10  13
HETATM   13  C   UNL     1      -9.106   7.526  71.412  1.00  0.00    -0.145 C  
HETATM   14 CL   UNL     1      -5.246   5.715  74.043  1.00  0.00    -0.023 Cl 
HETATM   15  C   UNL     1      -7.765   7.764  71.370  1.00  0.00    -0.082 C  
HETATM   16  C   UNL     1      -6.825   6.192  73.341  1.00  0.00    -0.076 C  
HETATM   17  C   UNL     1      -6.609   7.166  72.188  1.00  0.00    -0.055 C  
BRANCH  13  18
HETATM   18  C   UNL     1      -9.680   6.426  72.247  1.00  0.00    -0.158 A  
HETATM   19  C   UNL     1     -10.006   6.686  73.590  1.00  0.00    -0.270 A  
HETATM   20  C   UNL     1     -10.521   5.681  74.414  1.00  0.00    -0.214 A  
HETATM   21  C   UNL     1     -10.398   4.128  72.573  1.00  0.00    -0.228 A  
HETATM   22  C   UNL     1     -10.735   4.405  73.898  1.00  0.00    -0.340 A  
HETATM   23  C   UNL     1      -9.847   5.125  71.757  1.00  0.00    -0.228 A  
ENDBRANCH  13  18
BRANCH  15  24
HETATM   24  C   UNL     1      -7.163   8.687  70.359  1.00  0.00    -0.045 A  
HETATM   25  C   UNL     1      -6.660   8.202  69.146  1.00  0.00    -0.043 A  
HETATM   26  C   UNL     1      -6.443  10.465  68.310  1.00  0.00    -0.059 A  
HETATM   27  C   UNL     1      -6.922  10.959  69.522  1.00  0.00    -0.131 A  
HETATM   28  C   UNL     1      -6.306   9.090  68.125  1.00  0.00    -0.055 A  
HETATM   29  C   UNL     1      -7.280  10.074  70.542  1.00  0.00    -0.048 A  
ENDBRANCH  15  24
ENDBRANCH  10  13
ENDBRANCH   6   7
ENDBRANCH   5   6
ENDBRANCH   4   5
ENDBRANCH   2   4
TORSDOF 7
ENDMDL
MODEL      105
REMARK 921   NORMALIZED FREE ENERGY PREDICTED BY IDOCK:   -3.83 KCAL/MOL
REMARK 922        TOTAL FREE ENERGY PREDICTED BY IDOCK:   -7.45 KCAL/MOL
REMARK 923 INTER-LIGAND FREE ENERGY PREDICTED BY IDOCK:   -5.76 KCAL/MOL
REMARK 924 INTRA-LIGAND FREE ENERGY PREDICTED BY IDOCK:   -1.69 KCAL/MOL
REMARK 927      BINDING AFFINITY PREDICTED BY RF-SCORE:    0.00 PKD
ROOT
HETATM    1  C   UNL     1     -11.194   6.602  69.392  1.00  0.00    -0.299 C  
HETATM    2  N   UNL     1      -9.903   6.319  70.022  1.00  0.00    -0.167 NA 
HETATM    3  C   UNL     1     -10.051   5.204  70.960  1.00  0.00    -0.227 C  
ENDROOT
BRANCH   2   4
HETATM    4  C   UNL     1      -8.865   6.057  68.993  1.00  0.00    -0.121 C  
BRANCH   4   5
HETATM    5  C   UNL     1      -7.727   7.097  69.006  1.00  0.00    -0.109 C  
BRANCH   5   6
HETATM    6  O   UNL     1      -7.460   7.643  67.706  1.00  0.00    -0.102 OA 
BRANCH   6   7
HETATM    7  C   UNL     1      -7.835   8.962  67.553  1.00  0.00    -0.101 A  
HETATM    8  C   UNL     1      -8.844   9.596  68.288  1.00  0.00    -0.120 A  
HETATM    9  C   UNL     1      -9.258  10.892  67.967  1.00  0.00    -0.156 A  
HETATM   10  C   UNL     1      -8.677  11.581  66.900  1.00  0.00    -0.181 A  
HETATM   11  C   UNL     1      -7.588  10.995  66.236  1.00  0.00    -0.111 A  
HETATM   12  C   UNL     1      -7.172   9.693  66.564  1.00  0.00    -0.090 A  
BRANCH  10  13
HETATM   13  C   UNL     1      -9.354  12.802  66.358  1.00  0.00    -0.196 C  
HETATM   14 CL   UNL     1     -10.938  17.372  65.053  1.00  0.00     0.012 Cl 
HETATM   15  C   UNL     1      -9.044  14.050  66.805  1.00  0.00    -0.250 C  
HETATM   16  C   UNL     1     -10.551  15.631  65.234  1.00  0.00    -0.426 C  
HETATM   17  C   UNL     1      -9.574  15.432  66.386  1.00  0.00    -0.319 C  
BRANCH  13  18
HETATM   18  C   UNL     1     -10.478  12.570  65.399  1.00  0.00    -0.308 A  
HETATM   19  C   UNL     1     -11.803  12.685  65.857  1.00  0.00    -0.499 A  
HETATM   20  C   UNL     1     -12.884  12.452  65.002  1.00  0.00     0.019 A  
HETATM   21  C   UNL     1     -11.344  11.985  63.206  1.00  0.00    -0.396 A  
HETATM   22  C   UNL     1     -12.653  12.120  63.669  1.00  0.00    -0.616 A  
HETATM   23  C   UNL     1     -10.261  12.182  64.071  1.00  0.00    -0.396 A  
ENDBRANCH  13  18
BRANCH  15  24
HETATM   24  C   UNL     1      -8.096  14.264  67.941  1.00  0.00    -0.152 A  
HETATM   25  C   UNL     1      -6.736  13.960  67.815  1.00  0.00    -0.186 A  
HETATM   26  C   UNL     1      -6.273  15.073  69.916  1.00  0.00    -0.155 A  
HETATM   27  C   UNL     1      -7.628  15.362  70.063  1.00  0.00     0.154 A  
HETATM   28  C   UNL     1      -5.828  14.368  68.799  1.00  0.00    -0.085 A  
HETATM   29  C   UNL     1      -8.536  14.959  69.080  1.00  0.00    -0.178 A  
ENDBRANCH  15  24
ENDBRANCH  10  13
ENDBRANCH   6   7
ENDBRANCH   5   6
ENDBRANCH   4   5
ENDBRANCH   2   4
TORSDOF 7
ENDMDL
MODEL      106
REMARK 921   NORMALIZED FREE ENERGY PREDICTED BY IDOCK:   -3.78 KCAL/MOL
REMARK 922        TOTAL FREE ENERGY PREDICTED BY IDOCK:   -7.39 KCAL/MOL
REMARK 923 INTER-LIGAND FREE ENERGY PREDICTED BY IDOCK:   -5.27 KCAL/MOL
REMARK 924 INTRA-LIGAND FREE ENERGY PREDICTED BY IDOCK:   -2.11 KCAL/MOL
REMARK 927      BINDING AFFINITY PREDICTED BY RF-SCORE:    0.00 PKD
ROOT
HETATM    1  C   UNL     1      -9.430   1.769  72.613  1.00  0.00    -0.077 C  
HETATM    2  N   UNL     1     -10.453   2.662  73.161  1.00  0.00    -0.148 NA 
HETATM    3  C   UNL     1     -11.603   1.872  73.608  1.00  0.00    -0.204 C  
ENDROOT
BRANCH   2   4
HETATM    4  C   UNL     1      -9.887   3.501  74.248  1.00  0.00    -0.118 C  
BRANCH   4   5
HETATM    5  C   UNL     1      -9.348   4.855  73.746  1.00  0.00    -0.128 C  
BRANCH   5   6
HETATM    6  O   UNL     1     -10.258   5.938  73.988  1.00  0.00    -0.224 OA 
BRANCH   6   7
HETATM    7  C   UNL     1     -10.375   6.829  72.941  1.00  0.00    -0.221 A  
HETATM    8  C   UNL     1     -11.547   7.053  72.209  1.00  0.00    -0.307 A  
HETATM    9  C   UNL     1     -11.538   7.866  71.073  1.00  0.00    -0.299 A  
HETATM   10  C   UNL     1     -10.356   8.470  70.638  1.00  0.00    -0.232 A  
HETATM   11  C   UNL     1      -9.206   8.342  71.433  1.00  0.00    -0.218 A  
HETATM   12  C   UNL     1      -9.219   7.526  72.578  1.00  0.00    -0.192 A  
BRANCH  10  13
HETATM   13  C   UNL     1     -10.286   9.039  69.255  1.00  0.00    -0.227 C  
HETATM   14 CL   UNL     1      -9.979  10.004  64.348  1.00  0.00    -0.243 Cl 
HETATM   15  C   UNL     1      -9.974   8.265  68.178  1.00  0.00    -0.224 C  
HETATM   16  C   UNL     1     -10.229   9.983  66.123  1.00  0.00    -0.213 C  
HETATM   17  C   UNL     1      -9.872   8.611  66.683  1.00  0.00    -0.336 C  
BRANCH  13  18
HETATM   18  C   UNL     1     -10.444  10.520  69.134  1.00  0.00    -0.250 A  
HETATM   19  C   UNL     1      -9.298  11.322  68.997  1.00  0.00    -0.016 A  
HETATM   20  C   UNL     1      -9.397  12.714  68.907  1.00  0.00     0.275 A  
HETATM   21  C   UNL     1     -11.796  12.539  69.087  1.00  0.00    -0.348 A  
HETATM   22  C   UNL     1     -10.651  13.321  68.933  1.00  0.00    -0.167 A  
HETATM   23  C   UNL     1     -11.694  11.148  69.215  1.00  0.00    -0.401 A  
ENDBRANCH  13  18
BRANCH  15  24
HETATM   24  C   UNL     1      -9.572   6.833  68.330  1.00  0.00    -0.125 A  
HETATM   25  C   UNL     1     -10.516   5.803  68.238  1.00  0.00    -0.281 A  
HETATM   26  C   UNL     1      -8.740   4.156  68.184  1.00  0.00    -0.117 A  
HETATM   27  C   UNL     1      -7.793   5.172  68.298  1.00  0.00    -0.087 A  
HETATM   28  C   UNL     1     -10.098   4.469  68.161  1.00  0.00    -0.031 A  
HETATM   29  C   UNL     1      -8.208   6.504  68.371  1.00  0.00    -0.114 A  
ENDBRANCH  15  24
ENDBRANCH  10  13
ENDBRANCH   6   7
ENDBRANCH   5   6
ENDBRANCH   4   5
ENDBRANCH   2   4
TORSDOF 7
ENDMDL
MODEL      107
REMARK 921   NORMALIZED FREE ENERGY PREDICTED BY IDOCK:   -3.75 KCAL/MOL
REMARK 922        TOTAL FREE ENERGY PREDICTED BY IDOCK:   -7.35 KCAL/MOL
REMARK 923 INTER-LIGAND FREE ENERGY PREDICTED BY IDOCK:   -5.12 KCAL/MOL
REMARK 924 INTRA-LIGAND FREE ENERGY PREDICTED BY IDOCK:   -2.23 KCAL/MOL
REMARK 927      BINDING AFFINITY PREDICTED BY RF-SCORE:    0.00 PKD
ROOT
HETATM    1  C   UNL     1      -8.011   6.074  73.907  1.00  0.00    -0.101 C  
HETATM    2  N   UNL     1      -9.033   7.079  74.207  1.00  0.00    -0.192 NA 
HETATM    3  C   UNL     1      -8.766   8.293  73.431  1.00  0.00    -0.204 C  
ENDROOT
BRANCH   2   4
HETATM    4  C   UNL     1     -10.392   6.535  73.954  1.00  0.00    -0.335 C  
BRANCH   4   5
HETATM    5  C   UNL     1     -10.416   5.467  72.844  1.00  0.00    -0.211 C  
BRANCH   5   6
HETATM    6  O   UNL     1     -11.361   5.767  71.807  1.00  0.00    -0.253 OA 
BRANCH   6   7
HETATM    7  C   UNL     1     -10.793   6.108  70.597  1.00  0.00    -0.292 A  
HETATM    8  C   UNL     1     -11.509   6.389  69.428  1.00  0.00    -0.374 A  
HETATM    9  C   UNL     1     -10.849   6.583  68.211  1.00  0.00    -0.359 A  
HETATM   10  C   UNL     1      -9.458   6.494  68.134  1.00  0.00    -0.114 A  
HETATM   11  C   UNL     1      -8.729   6.327  69.322  1.00  0.00    -0.124 A  
HETATM   12  C   UNL     1      -9.396   6.137  70.545  1.00  0.00    -0.173 A  
BRANCH  10  13
HETATM   13  C   UNL     1      -8.803   6.357  66.794  1.00  0.00    -0.124 C  
HETATM   14 CL   UNL     1      -6.485   6.870  62.383  1.00  0.00    -0.046 Cl 
HETATM   15  C   UNL     1      -8.457   7.446  66.053  1.00  0.00    -0.152 C  
HETATM   16  C   UNL     1      -7.221   6.346  63.931  1.00  0.00    -0.063 C  
HETATM   17  C   UNL     1      -7.761   7.555  64.686  1.00  0.00    -0.122 C  
BRANCH  13  18
HETATM   18  C   UNL     1      -8.671   4.969  66.255  1.00  0.00    -0.117 A  
HETATM   19  C   UNL     1      -9.697   4.446  65.450  1.00  0.00    -0.203 A  
HETATM   20  C   UNL     1      -9.627   3.144  64.945  1.00  0.00    -0.119 A  
HETATM   21  C   UNL     1      -7.498   2.852  66.039  1.00  0.00    -0.072 A  
HETATM   22  C   UNL     1      -8.515   2.353  65.225  1.00  0.00    -0.101 A  
HETATM   23  C   UNL     1      -7.585   4.143  66.575  1.00  0.00    -0.089 A  
ENDBRANCH  13  18
BRANCH  15  24
HETATM   24  C   UNL     1      -8.815   8.833  66.481  1.00  0.00    -0.156 A  
HETATM   25  C   UNL     1     -10.063   9.386  66.172  1.00  0.00    -0.324 A  
HETATM   26  C   UNL     1      -9.625  11.250  67.657  1.00  0.00    -0.180 A  
HETATM   27  C   UNL     1      -8.372  10.719  67.954  1.00  0.00    -0.117 A  
HETATM   28  C   UNL     1     -10.467  10.589  66.763  1.00  0.00    -0.302 A  
HETATM   29  C   UNL     1      -7.968   9.517  67.368  1.00  0.00    -0.106 A  
ENDBRANCH  15  24
ENDBRANCH  10  13
ENDBRANCH   6   7
ENDBRANCH   5   6
ENDBRANCH   4   5
ENDBRANCH   2   4
TORSDOF 7
ENDMDL
MODEL      108
REMARK 921   NORMALIZED FREE ENERGY PREDICTED BY IDOCK:   -3.73 KCAL/MOL
REMARK 922        TOTAL FREE ENERGY PREDICTED BY IDOCK:   -7.32 KCAL/MOL
REMARK 923 INTER-LIGAND FREE ENERGY PREDICTED BY IDOCK:   -5.16 KCAL/MOL
REMARK 924 INTRA-LIGAND FREE ENERGY PREDICTED BY IDOCK:   -2.16 KCAL/MOL
REMARK 927      BINDING AFFINITY PREDICTED BY RF-SCORE:    0.00 PKD
ROOT
HETATM    1  C   UNL     1      -7.143   6.111  73.841  1.00  0.00    -0.084 C  
HETATM    2  N   UNL     1      -8.163   6.991  74.415  1.00  0.00    -0.141 NA 
HETATM    3  C   UNL     1      -8.279   8.202  73.598  1.00  0.00    -0.231 C  
ENDROOT
BRANCH   2   4
HETATM    4  C   UNL     1      -9.456   6.274  74.551  1.00  0.00    -0.238 C  
BRANCH   4   5
HETATM    5  C   UNL     1      -9.690   5.237  73.435  1.00  0.00    -0.145 C  
BRANCH   5   6
HETATM    6  O   UNL     1     -10.824   5.553  72.614  1.00  0.00    -0.226 OA 
BRANCH   6   7
HETATM    7  C   UNL     1     -10.509   5.951  71.332  1.00  0.00    -0.236 A  
HETATM    8  C   UNL     1      -9.207   6.078  70.832  1.00  0.00    -0.165 A  
HETATM    9  C   UNL     1      -8.975   6.627  69.569  1.00  0.00    -0.138 A  
HETATM   10  C   UNL     1     -10.037   7.068  68.777  1.00  0.00    -0.170 A  
HETATM   11  C   UNL     1     -11.348   6.837  69.224  1.00  0.00    -0.224 A  
HETATM   12  C   UNL     1     -11.578   6.280  70.495  1.00  0.00    -0.357 A  
BRANCH  10  13
HETATM   13  C   UNL     1      -9.762   7.955  67.603  1.00  0.00    -0.196 C  
HETATM   14 CL   UNL     1      -8.735  10.080  63.184  1.00  0.00    -0.194 Cl 
HETATM   15  C   UNL     1      -9.304   7.456  66.421  1.00  0.00    -0.206 C  
HETATM   16  C   UNL     1      -9.240   9.636  64.845  1.00  0.00    -0.246 C  
HETATM   17  C   UNL     1      -8.982   8.154  65.089  1.00  0.00     0.113 C  
BRANCH  13  18
HETATM   18  C   UNL     1      -9.886   9.427  67.835  1.00  0.00    -0.197 A  
HETATM   19  C   UNL     1      -8.743  10.162  68.194  1.00  0.00    -0.122 A  
HETATM   20  C   UNL     1      -8.817  11.536  68.445  1.00  0.00    -0.163 A  
HETATM   21  C   UNL     1     -11.184  11.475  67.985  1.00  0.00    -0.335 A  
HETATM   22  C   UNL     1     -10.037  12.196  68.322  1.00  0.00    -0.210 A  
HETATM   23  C   UNL     1     -11.116  10.093  67.769  1.00  0.00    -0.293 A  
ENDBRANCH  13  18
BRANCH  15  24
HETATM   24  C   UNL     1      -8.943   6.013  66.265  1.00  0.00    -0.156 A  
HETATM   25  C   UNL     1      -7.626   5.574  66.444  1.00  0.00    -0.091 A  
HETATM   26  C   UNL     1      -8.369   3.269  66.398  1.00  0.00    -0.099 A  
HETATM   27  C   UNL     1      -9.681   3.695  66.198  1.00  0.00    -0.092 A  
HETATM   28  C   UNL     1      -7.343   4.205  66.514  1.00  0.00    -0.080 A  
HETATM   29  C   UNL     1      -9.966   5.061  66.131  1.00  0.00    -0.240 A  
ENDBRANCH  15  24
ENDBRANCH  10  13
ENDBRANCH   6   7
ENDBRANCH   5   6
ENDBRANCH   4   5
ENDBRANCH   2   4
TORSDOF 7
ENDMDL
MODEL      109
REMARK 921   NORMALIZED FREE ENERGY PREDICTED BY IDOCK:   -3.70 KCAL/MOL
REMARK 922        TOTAL FREE ENERGY PREDICTED BY IDOCK:   -7.28 KCAL/MOL
REMARK 923 INTER-LIGAND FREE ENERGY PREDICTED BY IDOCK:   -5.12 KCAL/MOL
REMARK 924 INTRA-LIGAND FREE ENERGY PREDICTED BY IDOCK:   -2.15 KCAL/MOL
REMARK 927      BINDING AFFINITY PREDICTED BY RF-SCORE:    0.00 PKD
ROOT
HETATM    1  C   UNL     1     -10.319  17.211  68.454  1.00  0.00    -0.362 C  
HETATM    2  N   UNL     1      -8.986  17.053  67.868  1.00  0.00    -0.224 NA 
HETATM    3  C   UNL     1      -8.239  18.305  68.011  1.00  0.00    -0.264 C  
ENDROOT
BRANCH   2   4
HETATM    4  C   UNL     1      -8.279  15.900  68.481  1.00  0.00    -0.169 C  
BRANCH   4   5
HETATM    5  C   UNL     1      -7.568  15.008  67.444  1.00  0.00    -0.205 C  
BRANCH   5   6
HETATM    6  O   UNL     1      -6.514  14.222  68.018  1.00  0.00    -0.120 OA 
BRANCH   6   7
HETATM    7  C   UNL     1      -6.704  12.859  67.928  1.00  0.00    -0.123 A  
HETATM    8  C   UNL     1      -6.320  12.068  66.839  1.00  0.00    -0.066 A  
HETATM    9  C   UNL     1      -6.682  10.721  66.768  1.00  0.00    -0.110 A  
HETATM   10  C   UNL     1      -7.442  10.133  67.781  1.00  0.00    -0.089 A  
HETATM   11  C   UNL     1      -7.730  10.890  68.928  1.00  0.00    -0.135 A  
HETATM   12  C   UNL     1      -7.361  12.244  68.998  1.00  0.00     0.017 A  
BRANCH  10  13
HETATM   13  C   UNL     1      -8.106   8.815  67.532  1.00  0.00    -0.106 C  
HETATM   14 CL   UNL     1     -10.987   4.937  66.203  1.00  0.00    -0.147 Cl 
HETATM   15  C   UNL     1      -9.345   8.733  66.971  1.00  0.00    -0.200 C  
HETATM   16  C   UNL     1      -9.708   6.078  66.729  1.00  0.00    -0.153 C  
HETATM   17  C   UNL     1     -10.204   7.513  66.597  1.00  0.00    -0.261 C  
BRANCH  13  18
HETATM   18  C   UNL     1      -7.401   7.603  68.052  1.00  0.00    -0.099 A  
HETATM   19  C   UNL     1      -7.672   7.160  69.358  1.00  0.00    -0.107 A  
HETATM   20  C   UNL     1      -7.016   6.047  69.893  1.00  0.00    -0.070 A  
HETATM   21  C   UNL     1      -5.800   5.789  67.827  1.00  0.00    -0.013 A  
HETATM   22  C   UNL     1      -6.093   5.350  69.119  1.00  0.00    -0.025 A  
HETATM   23  C   UNL     1      -6.429   6.926  67.304  1.00  0.00    -0.049 A  
ENDBRANCH  13  18
BRANCH  15  24
HETATM   24  C   UNL     1     -10.157   9.954  66.679  1.00  0.00    -0.297 A  
HETATM   25  C   UNL     1     -11.050  10.471  67.624  1.00  0.00    -0.375 A  
HETATM   26  C   UNL     1     -11.337  12.470  66.285  1.00  0.00    -0.386 A  
HETATM   27  C   UNL     1     -10.465  11.954  65.328  1.00  0.00    -0.317 A  
HETATM   28  C   UNL     1     -11.634  11.728  67.427  1.00  0.00    -0.352 A  
HETATM   29  C   UNL     1      -9.879  10.702  65.523  1.00  0.00    -0.316 A  
ENDBRANCH  15  24
ENDBRANCH  10  13
ENDBRANCH   6   7
ENDBRANCH   5   6
ENDBRANCH   4   5
ENDBRANCH   2   4
TORSDOF 7
ENDMDL
MODEL      110
REMARK 921   NORMALIZED FREE ENERGY PREDICTED BY IDOCK:   -3.70 KCAL/MOL
REMARK 922        TOTAL FREE ENERGY PREDICTED BY IDOCK:   -7.27 KCAL/MOL
REMARK 923 INTER-LIGAND FREE ENERGY PREDICTED BY IDOCK:   -6.18 KCAL/MOL
REMARK 924 INTRA-LIGAND FREE ENERGY PREDICTED BY IDOCK:   -1.09 KCAL/MOL
REMARK 927      BINDING AFFINITY PREDICTED BY RF-SCORE:    0.00 PKD
ROOT
HETATM    1  C   UNL     1     -10.121   3.911  74.312  1.00  0.00    -0.169 C  
HETATM    2  N   UNL     1      -9.257   3.562  73.182  1.00  0.00    -0.097 NA 
HETATM    3  C   UNL     1     -10.080   3.088  72.067  1.00  0.00    -0.110 C  
ENDROOT
BRANCH   2   4
HETATM    4  C   UNL     1      -8.402   4.716  72.802  1.00  0.00    -0.111 C  
BRANCH   4   5
HETATM    5  C   UNL     1      -8.427   5.012  71.290  1.00  0.00    -0.121 C  
BRANCH   5   6
HETATM    6  O   UNL     1      -7.778   6.248  70.957  1.00  0.00    -0.100 OA 
BRANCH   6   7
HETATM    7  C   UNL     1      -8.640   7.292  70.690  1.00  0.00    -0.142 A  
HETATM    8  C   UNL     1      -9.950   7.145  70.218  1.00  0.00    -0.191 A  
HETATM    9  C   UNL     1     -10.702   8.259  69.835  1.00  0.00    -0.234 A  
HETATM   10  C   UNL     1     -10.161   9.544  69.909  1.00  0.00    -0.261 A  
HETATM   11  C   UNL     1      -8.893   9.706  70.488  1.00  0.00    -0.169 A  
HETATM   12  C   UNL     1      -8.140   8.584  70.876  1.00  0.00    -0.140 A  
BRANCH  10  13
HETATM   13  C   UNL     1     -10.833  10.668  69.183  1.00  0.00    -0.279 C  
HETATM   14 CL   UNL     1     -12.694  14.016  65.953  1.00  0.00    -0.500 Cl 
HETATM   15  C   UNL     1     -10.596  10.911  67.864  1.00  0.00    -0.246 C  
HETATM   16  C   UNL     1     -12.283  12.936  67.324  1.00  0.00    -0.055 C  
HETATM   17  C   UNL     1     -11.179  11.970  66.913  1.00  0.00    -0.375 C  
BRANCH  13  18
HETATM   18  C   UNL     1     -11.674  11.588  70.009  1.00  0.00    -0.414 A  
HETATM   19  C   UNL     1     -11.423  12.970  69.964  1.00  0.00    -0.086 A  
HETATM   20  C   UNL     1     -12.167  13.864  70.740  1.00  0.00    -0.441 A  
HETATM   21  C   UNL     1     -13.435  12.016  71.627  1.00  0.00    -0.068 A  
HETATM   22  C   UNL     1     -13.188  13.387  71.558  1.00  0.00    -0.395 A  
HETATM   23  C   UNL     1     -12.666  11.116  70.878  1.00  0.00    -0.438 A  
ENDBRANCH  13  18
BRANCH  15  24
HETATM   24  C   UNL     1      -9.566  10.144  67.097  1.00  0.00    -0.202 A  
HETATM   25  C   UNL     1      -8.215  10.508  67.138  1.00  0.00    -0.123 A  
HETATM   26  C   UNL     1      -7.608   8.449  66.014  1.00  0.00    -0.085 A  
HETATM   27  C   UNL     1      -8.953   8.088  65.949  1.00  0.00    -0.181 A  
HETATM   28  C   UNL     1      -7.240   9.659  66.601  1.00  0.00    -0.086 A  
HETATM   29  C   UNL     1      -9.927   8.932  66.487  1.00  0.00    -0.358 A  
ENDBRANCH  15  24
ENDBRANCH  10  13
ENDBRANCH   6   7
ENDBRANCH   5   6
ENDBRANCH   4   5
ENDBRANCH   2   4
TORSDOF 7
ENDMDL
MODEL      111
REMARK 921   NORMALIZED FREE ENERGY PREDICTED BY IDOCK:   -3.69 KCAL/MOL
REMARK 922        TOTAL FREE ENERGY PREDICTED BY IDOCK:   -7.27 KCAL/MOL
REMARK 923 INTER-LIGAND FREE ENERGY PREDICTED BY IDOCK:   -6.17 KCAL/MOL
REMARK 924 INTRA-LIGAND FREE ENERGY PREDICTED BY IDOCK:   -1.10 KCAL/MOL
REMARK 927      BINDING AFFINITY PREDICTED BY RF-SCORE:    0.00 PKD
ROOT
HETATM    1  C   UNL     1      -7.961   6.592  67.101  1.00  0.00    -0.109 C  
HETATM    2  N   UNL     1      -8.447   6.312  68.454  1.00  0.00    -0.115 NA 
HETATM    3  C   UNL     1      -8.945   4.936  68.518  1.00  0.00    -0.109 C  
ENDROOT
BRANCH   2   4
HETATM    4  C   UNL     1      -7.383   6.576  69.456  1.00  0.00    -0.091 C  
BRANCH   4   5
HETATM    5  C   UNL     1      -7.804   7.599  70.528  1.00  0.00    -0.095 C  
BRANCH   5   6
HETATM    6  O   UNL     1      -9.226   7.790  70.584  1.00  0.00    -0.159 OA 
BRANCH   6   7
HETATM    7  C   UNL     1      -9.681   8.894  69.894  1.00  0.00    -0.177 A  
HETATM    8  C   UNL     1     -10.862   8.937  69.144  1.00  0.00    -0.091 A  
HETATM    9  C   UNL     1     -11.173  10.050  68.358  1.00  0.00    -0.187 A  
HETATM   10  C   UNL     1     -10.307  11.144  68.300  1.00  0.00    -0.198 A  
HETATM   11  C   UNL     1      -9.181  11.155  69.138  1.00  0.00     0.038 A  
HETATM   12  C   UNL     1      -8.874  10.035  69.930  1.00  0.00    -0.177 A  
BRANCH  10  13
HETATM   13  C   UNL     1     -10.474  12.156  67.209  1.00  0.00    -0.238 C  
HETATM   14 CL   UNL     1     -11.213  16.165  64.296  1.00  0.00    -0.258 Cl 
HETATM   15  C   UNL     1     -10.961  13.404  67.459  1.00  0.00    -0.284 C  
HETATM   16  C   UNL     1     -10.781  14.600  65.056  1.00  0.00    -0.430 C  
HETATM   17  C   UNL     1     -11.190  14.603  66.524  1.00  0.00    -0.346 C  
BRANCH  13  18
HETATM   18  C   UNL     1     -10.207  11.686  65.815  1.00  0.00    -0.281 A  
HETATM   19  C   UNL     1     -11.252  11.697  64.876  1.00  0.00    -0.287 A  
HETATM   20  C   UNL     1     -11.054  11.242  63.569  1.00  0.00    -0.261 A  
HETATM   21  C   UNL     1      -8.755  10.752  64.105  1.00  0.00    -0.076 A  
HETATM   22  C   UNL     1      -9.797  10.787  63.179  1.00  0.00    -0.378 A  
HETATM   23  C   UNL     1      -8.963  11.173  65.425  1.00  0.00    -0.154 A  
ENDBRANCH  13  18
BRANCH  15  24
HETATM   24  C   UNL     1     -11.462  13.794  68.812  1.00  0.00    -0.338 A  
HETATM   25  C   UNL     1     -12.366  12.985  69.510  1.00  0.00    -0.067 A  
HETATM   26  C   UNL     1     -12.049  14.319  71.507  1.00  0.00    -0.317 A  
HETATM   27  C   UNL     1     -11.164  15.144  70.816  1.00  0.00    -0.322 A  
HETATM   28  C   UNL     1     -12.654  13.246  70.854  1.00  0.00    -0.386 A  
HETATM   29  C   UNL     1     -10.873  14.883  69.475  1.00  0.00    -0.272 A  
ENDBRANCH  15  24
ENDBRANCH  10  13
ENDBRANCH   6   7
ENDBRANCH   5   6
ENDBRANCH   4   5
ENDBRANCH   2   4
TORSDOF 7
ENDMDL
MODEL      112
REMARK 921   NORMALIZED FREE ENERGY PREDICTED BY IDOCK:   -3.69 KCAL/MOL
REMARK 922        TOTAL FREE ENERGY PREDICTED BY IDOCK:   -7.27 KCAL/MOL
REMARK 923 INTER-LIGAND FREE ENERGY PREDICTED BY IDOCK:   -5.62 KCAL/MOL
REMARK 924 INTRA-LIGAND FREE ENERGY PREDICTED BY IDOCK:   -1.64 KCAL/MOL
REMARK 927      BINDING AFFINITY PREDICTED BY RF-SCORE:    0.00 PKD
ROOT
HETATM    1  C   UNL     1      -9.308   2.762  67.834  1.00  0.00    -0.200 C  
HETATM    2  N   UNL     1      -8.458   3.185  66.719  1.00  0.00    -0.099 NA 
HETATM    3  C   UNL     1      -8.298   2.073  65.778  1.00  0.00    -0.094 C  
ENDROOT
BRANCH   2   4
HETATM    4  C   UNL     1      -9.014   4.399  66.069  1.00  0.00    -0.122 C  
BRANCH   4   5
HETATM    5  C   UNL     1      -8.932   5.652  66.963  1.00  0.00    -0.114 C  
BRANCH   5   6
HETATM    6  O   UNL     1     -10.135   6.434  66.934  1.00  0.00    -0.160 OA 
BRANCH   6   7
HETATM    7  C   UNL     1      -9.935   7.783  66.726  1.00  0.00    -0.261 A  
HETATM    8  C   UNL     1      -9.081   8.324  65.759  1.00  0.00    -0.169 A  
HETATM    9  C   UNL     1      -8.827   9.697  65.714  1.00  0.00    -0.186 A  
HETATM   10  C   UNL     1      -9.416  10.561  66.640  1.00  0.00    -0.199 A  
HETATM   11  C   UNL     1     -10.361  10.039  67.537  1.00  0.00    -0.282 A  
HETATM   12  C   UNL     1     -10.618   8.657  67.577  1.00  0.00    -0.292 A  
BRANCH  10  13
HETATM   13  C   UNL     1      -8.875  11.948  66.800  1.00  0.00    -0.193 C  
HETATM   14 CL   UNL     1      -7.900  16.861  66.895  1.00  0.00    -0.228 Cl 
HETATM   15  C   UNL     1      -9.469  13.020  66.206  1.00  0.00    -0.199 C  
HETATM   16  C   UNL     1      -8.006  15.085  67.118  1.00  0.00    -0.206 C  
HETATM   17  C   UNL     1      -9.121  14.518  66.248  1.00  0.00    -0.164 C  
BRANCH  13  18
HETATM   18  C   UNL     1      -7.578  12.078  67.532  1.00  0.00    -0.147 A  
HETATM   19  C   UNL     1      -7.592  12.224  68.930  1.00  0.00     0.021 A  
HETATM   20  C   UNL     1      -6.405  12.374  69.652  1.00  0.00    -0.107 A  
HETATM   21  C   UNL     1      -5.154  12.234  67.595  1.00  0.00    -0.088 A  
HETATM   22  C   UNL     1      -5.183  12.360  68.984  1.00  0.00    -0.055 A  
HETATM   23  C   UNL     1      -6.346  12.121  66.867  1.00  0.00    -0.011 A  
ENDBRANCH  13  18
BRANCH  15  24
HETATM   24  C   UNL     1     -10.624  12.859  65.270  1.00  0.00    -0.316 A  
HETATM   25  C   UNL     1     -10.525  12.052  64.131  1.00  0.00    -0.393 A  
HETATM   26  C   UNL     1     -12.915  12.228  63.776  1.00  0.00    -0.317 A  
HETATM   27  C   UNL     1     -13.021  13.050  64.895  1.00  0.00    -0.218 A  
HETATM   28  C   UNL     1     -11.669  11.735  63.391  1.00  0.00    -0.423 A  
HETATM   29  C   UNL     1     -11.881  13.365  65.638  1.00  0.00    -0.403 A  
ENDBRANCH  15  24
ENDBRANCH  10  13
ENDBRANCH   6   7
ENDBRANCH   5   6
ENDBRANCH   4   5
ENDBRANCH   2   4
TORSDOF 7
ENDMDL
MODEL      113
REMARK 921   NORMALIZED FREE ENERGY PREDICTED BY IDOCK:   -3.69 KCAL/MOL
REMARK 922        TOTAL FREE ENERGY PREDICTED BY IDOCK:   -7.26 KCAL/MOL
REMARK 923 INTER-LIGAND FREE ENERGY PREDICTED BY IDOCK:   -5.10 KCAL/MOL
REMARK 924 INTRA-LIGAND FREE ENERGY PREDICTED BY IDOCK:   -2.16 KCAL/MOL
REMARK 927      BINDING AFFINITY PREDICTED BY RF-SCORE:    0.00 PKD
ROOT
HETATM    1  C   UNL     1      -9.013   3.015  67.631  1.00  0.00    -0.161 C  
HETATM    2  N   UNL     1      -8.826   3.294  66.206  1.00  0.00    -0.133 NA 
HETATM    3  C   UNL     1      -9.041   2.066  65.436  1.00  0.00    -0.095 C  
ENDROOT
BRANCH   2   4
HETATM    4  C   UNL     1      -9.716   4.399  65.768  1.00  0.00    -0.209 C  
BRANCH   4   5
HETATM    5  C   UNL     1      -9.379   5.745  66.438  1.00  0.00    -0.156 C  
BRANCH   5   6
HETATM    6  O   UNL     1     -10.548   6.458  66.869  1.00  0.00    -0.258 OA 
BRANCH   6   7
HETATM    7  C   UNL     1     -10.375   7.821  66.985  1.00  0.00    -0.334 A  
HETATM    8  C   UNL     1      -9.821   8.644  65.997  1.00  0.00    -0.183 A  
HETATM    9  C   UNL     1      -9.548   9.990  66.255  1.00  0.00    -0.256 A  
HETATM   10  C   UNL     1      -9.818  10.544  67.508  1.00  0.00    -0.196 A  
HETATM   11  C   UNL     1     -10.479   9.755  68.462  1.00  0.00    -0.239 A  
HETATM   12  C   UNL     1     -10.756   8.402  68.198  1.00  0.00    -0.094 A  
BRANCH  10  13
HETATM   13  C   UNL     1      -9.212  11.863  67.874  1.00  0.00    -0.187 C  
HETATM   14 CL   UNL     1      -6.369  15.750  69.255  1.00  0.00    -0.138 Cl 
HETATM   15  C   UNL     1      -7.974  11.950  68.436  1.00  0.00    -0.154 C  
HETATM   16  C   UNL     1      -7.592  14.607  68.614  1.00  0.00    -0.129 C  
HETATM   17  C   UNL     1      -7.144  13.172  68.864  1.00  0.00    -0.075 C  
BRANCH  13  18
HETATM   18  C   UNL     1     -10.086  13.066  67.716  1.00  0.00    -0.229 A  
HETATM   19  C   UNL     1     -10.924  13.447  68.779  1.00  0.00    -0.290 A  
HETATM   20  C   UNL     1     -11.776  14.550  68.665  1.00  0.00    -0.364 A  
HETATM   21  C   UNL     1     -10.973  14.921  66.422  1.00  0.00    -0.336 A  
HETATM   22  C   UNL     1     -11.786  15.299  67.491  1.00  0.00    -0.153 A  
HETATM   23  C   UNL     1     -10.146  13.794  66.522  1.00  0.00    -0.286 A  
ENDBRANCH  13  18
BRANCH  15  24
HETATM   24  C   UNL     1      -7.200  10.730  68.823  1.00  0.00    -0.091 A  
HETATM   25  C   UNL     1      -7.407  10.104  70.058  1.00  0.00    -0.172 A  
HETATM   26  C   UNL     1      -6.066   8.217  69.347  1.00  0.00    -0.034 A  
HETATM   27  C   UNL     1      -5.835   8.841  68.122  1.00  0.00    -0.042 A  
HETATM   28  C   UNL     1      -6.844   8.849  70.315  1.00  0.00    -0.045 A  
HETATM   29  C   UNL     1      -6.399  10.093  67.863  1.00  0.00    -0.061 A  
ENDBRANCH  15  24
ENDBRANCH  10  13
ENDBRANCH   6   7
ENDBRANCH   5   6
ENDBRANCH   4   5
ENDBRANCH   2   4
TORSDOF 7
ENDMDL
MODEL      114
REMARK 921   NORMALIZED FREE ENERGY PREDICTED BY IDOCK:   -3.66 KCAL/MOL
REMARK 922        TOTAL FREE ENERGY PREDICTED BY IDOCK:   -7.22 KCAL/MOL
REMARK 923 INTER-LIGAND FREE ENERGY PREDICTED BY IDOCK:   -5.40 KCAL/MOL
REMARK 924 INTRA-LIGAND FREE ENERGY PREDICTED BY IDOCK:   -1.82 KCAL/MOL
REMARK 927      BINDING AFFINITY PREDICTED BY RF-SCORE:    0.00 PKD
ROOT
HETATM    1  C   UNL     1     -12.156   6.398  71.627  1.00  0.00    -0.262 C  
HETATM    2  N   UNL     1     -11.139   5.917  72.565  1.00  0.00    -0.268 NA 
HETATM    3  C   UNL     1      -9.978   5.428  71.817  1.00  0.00    -0.183 C  
ENDROOT
BRANCH   2   4
HETATM    4  C   UNL     1     -10.779   6.981  73.536  1.00  0.00    -0.332 C  
BRANCH   4   5
HETATM    5  C   UNL     1      -9.934   8.108  72.910  1.00  0.00    -0.266 C  
BRANCH   5   6
HETATM    6  O   UNL     1     -10.732   9.084  72.225  1.00  0.00    -0.270 OA 
BRANCH   6   7
HETATM    7  C   UNL     1     -10.292   9.393  70.955  1.00  0.00    -0.310 A  
HETATM    8  C   UNL     1     -11.116   9.505  69.829  1.00  0.00    -0.216 A  
HETATM    9  C   UNL     1     -10.570   9.676  68.554  1.00  0.00    -0.253 A  
HETATM   10  C   UNL     1      -9.186   9.733  68.375  1.00  0.00    -0.130 A  
HETATM   11  C   UNL     1      -8.362   9.737  69.511  1.00  0.00    -0.165 A  
HETATM   12  C   UNL     1      -8.915   9.569  70.792  1.00  0.00    -0.152 A  
BRANCH  10  13
HETATM   13  C   UNL     1      -8.615   9.567  67.000  1.00  0.00    -0.131 C  
HETATM   14 CL   UNL     1      -6.838   9.983  62.335  1.00  0.00    -0.116 Cl 
HETATM   15  C   UNL     1      -8.627  10.584  66.093  1.00  0.00    -0.155 C  
HETATM   16  C   UNL     1      -7.295   9.529  64.008  1.00  0.00    -0.115 C  
HETATM   17  C   UNL     1      -8.084  10.660  64.657  1.00  0.00     0.015 C  
BRANCH  13  18
HETATM   18  C   UNL     1      -8.154   8.194  66.631  1.00  0.00    -0.103 A  
HETATM   19  C   UNL     1      -9.002   7.369  65.871  1.00  0.00    -0.114 A  
HETATM   20  C   UNL     1      -8.622   6.068  65.525  1.00  0.00    -0.145 A  
HETATM   21  C   UNL     1      -6.534   6.385  66.688  1.00  0.00    -0.047 A  
HETATM   22  C   UNL     1      -7.377   5.583  65.918  1.00  0.00    -0.077 A  
HETATM   23  C   UNL     1      -6.929   7.674  67.067  1.00  0.00    -0.080 A  
ENDBRANCH  13  18
BRANCH  15  24
HETATM   24  C   UNL     1      -9.312  11.882  66.378  1.00  0.00    -0.233 A  
HETATM   25  C   UNL     1      -8.639  12.930  67.016  1.00  0.00    -0.171 A  
HETATM   26  C   UNL     1     -10.467  14.437  66.511  1.00  0.00    -0.289 A  
HETATM   27  C   UNL     1     -11.155  13.395  65.892  1.00  0.00    -0.293 A  
HETATM   28  C   UNL     1      -9.215  14.204  67.077  1.00  0.00    -0.249 A  
HETATM   29  C   UNL     1     -10.581  12.124  65.827  1.00  0.00    -0.295 A  
ENDBRANCH  15  24
ENDBRANCH  10  13
ENDBRANCH   6   7
ENDBRANCH   5   6
ENDBRANCH   4   5
ENDBRANCH   2   4
TORSDOF 7
ENDMDL
MODEL      115
REMARK 921   NORMALIZED FREE ENERGY PREDICTED BY IDOCK:   -3.64 KCAL/MOL
REMARK 922        TOTAL FREE ENERGY PREDICTED BY IDOCK:   -7.19 KCAL/MOL
REMARK 923 INTER-LIGAND FREE ENERGY PREDICTED BY IDOCK:   -5.86 KCAL/MOL
REMARK 924 INTRA-LIGAND FREE ENERGY PREDICTED BY IDOCK:   -1.33 KCAL/MOL
REMARK 927      BINDING AFFINITY PREDICTED BY RF-SCORE:    0.00 PKD
ROOT
HETATM    1  C   UNL     1      -7.617  15.216  69.482  1.00  0.00    -0.207 C  
HETATM    2  N   UNL     1      -7.573  14.888  68.055  1.00  0.00    -0.112 NA 
HETATM    3  C   UNL     1      -6.989  16.009  67.314  1.00  0.00    -0.205 C  
ENDROOT
BRANCH   2   4
HETATM    4  C   UNL     1      -6.835  13.618  67.834  1.00  0.00    -0.153 C  
BRANCH   4   5
HETATM    5  C   UNL     1      -7.629  12.597  66.996  1.00  0.00     0.013 C  
BRANCH   5   6
HETATM    6  O   UNL     1      -8.979  12.433  67.457  1.00  0.00    -0.168 OA 
BRANCH   6   7
HETATM    7  C   UNL     1      -9.221  11.237  68.099  1.00  0.00    -0.170 A  
HETATM    8  C   UNL     1     -10.272  10.364  67.792  1.00  0.00    -0.229 A  
HETATM    9  C   UNL     1     -10.531   9.245  68.589  1.00  0.00    -0.236 A  
HETATM   10  C   UNL     1      -9.748   8.976  69.714  1.00  0.00    -0.183 A  
HETATM   11  C   UNL     1      -8.625   9.781  69.958  1.00  0.00    -0.229 A  
HETATM   12  C   UNL     1      -8.365  10.904  69.152  1.00  0.00    -0.077 A  
BRANCH  10  13
HETATM   13  C   UNL     1     -10.240   7.997  70.734  1.00  0.00    -0.209 C  
HETATM   14 CL   UNL     1     -10.961   4.393  74.139  1.00  0.00    -0.269 Cl 
HETATM   15  C   UNL     1      -9.473   6.951  71.150  1.00  0.00    -0.166 C  
HETATM   16  C   UNL     1     -10.998   5.822  73.057  1.00  0.00    -0.278 C  
HETATM   17  C   UNL     1      -9.745   5.851  72.190  1.00  0.00    -0.175 C  
BRANCH  13  18
HETATM   18  C   UNL     1     -11.661   8.148  71.173  1.00  0.00    -0.309 A  
HETATM   19  C   UNL     1     -12.026   9.267  71.941  1.00  0.00    -0.433 A  
HETATM   20  C   UNL     1     -13.338   9.436  72.394  1.00  0.00    -0.503 A  
HETATM   21  C   UNL     1     -13.958   7.367  71.321  1.00  0.00    -0.374 A  
HETATM   22  C   UNL     1     -14.309   8.493  72.066  1.00  0.00    -0.537 A  
HETATM   23  C   UNL     1     -12.636   7.179  70.898  1.00  0.00    -0.268 A  
ENDBRANCH  13  18
BRANCH  15  24
HETATM   24  C   UNL     1      -8.145   6.656  70.529  1.00  0.00    -0.117 A  
HETATM   25  C   UNL     1      -6.952   6.942  71.202  1.00  0.00    -0.069 A  
HETATM   26  C   UNL     1      -5.696   5.703  69.543  1.00  0.00    -0.012 A  
HETATM   27  C   UNL     1      -6.875   5.430  68.853  1.00  0.00    -0.055 A  
HETATM   28  C   UNL     1      -5.732   6.463  70.711  1.00  0.00    -0.023 A  
HETATM   29  C   UNL     1      -8.094   5.905  69.343  1.00  0.00    -0.109 A  
ENDBRANCH  15  24
ENDBRANCH  10  13
ENDBRANCH   6   7
ENDBRANCH   5   6
ENDBRANCH   4   5
ENDBRANCH   2   4
TORSDOF 7
ENDMDL
MODEL      116
REMARK 921   NORMALIZED FREE ENERGY PREDICTED BY IDOCK:   -3.60 KCAL/MOL
REMARK 922        TOTAL FREE ENERGY PREDICTED BY IDOCK:   -7.14 KCAL/MOL
REMARK 923 INTER-LIGAND FREE ENERGY PREDICTED BY IDOCK:   -5.38 KCAL/MOL
REMARK 924 INTRA-LIGAND FREE ENERGY PREDICTED BY IDOCK:   -1.76 KCAL/MOL
REMARK 927      BINDING AFFINITY PREDICTED BY RF-SCORE:    0.00 PKD
ROOT
HETATM    1  C   UNL     1     -10.548  15.856  67.267  1.00  0.00    -0.314 C  
HETATM    2  N   UNL     1     -11.008  14.538  67.708  1.00  0.00    -0.268 NA 
HETATM    3  C   UNL     1     -11.447  14.615  69.104  1.00  0.00    -0.294 C  
ENDROOT
BRANCH   2   4
HETATM    4  C   UNL     1     -12.073  14.027  66.808  1.00  0.00    -0.447 C  
BRANCH   4   5
HETATM    5  C   UNL     1     -11.899  12.538  66.452  1.00  0.00    -0.381 C  
BRANCH   5   6
HETATM    6  O   UNL     1     -12.258  11.664  67.533  1.00  0.00    -0.501 OA 
BRANCH   6   7
HETATM    7  C   UNL     1     -11.260  10.794  67.919  1.00  0.00    -0.318 A  
HETATM    8  C   UNL     1     -10.817   9.701  67.165  1.00  0.00    -0.184 A  
HETATM    9  C   UNL     1      -9.904   8.786  67.696  1.00  0.00    -0.228 A  
HETATM   10  C   UNL     1      -9.417   8.939  68.996  1.00  0.00    -0.156 A  
HETATM   11  C   UNL     1      -9.768  10.094  69.712  1.00  0.00    -0.232 A  
HETATM   12  C   UNL     1     -10.684  11.014  69.173  1.00  0.00    -0.274 A  
BRANCH  10  13
HETATM   13  C   UNL     1      -8.728   7.789  69.663  1.00  0.00    -0.135 C  
HETATM   14 CL   UNL     1      -5.650   4.217  71.357  1.00  0.00    -0.008 Cl 
HETATM   15  C   UNL     1      -7.498   7.362  69.262  1.00  0.00    -0.092 C  
HETATM   16  C   UNL     1      -6.936   5.427  71.045  1.00  0.00    -0.060 C  
HETATM   17  C   UNL     1      -6.594   6.241  69.803  1.00  0.00    -0.044 C  
BRANCH  13  18
HETATM   18  C   UNL     1      -9.513   7.052  70.700  1.00  0.00    -0.165 A  
HETATM   19  C   UNL     1     -10.450   6.087  70.292  1.00  0.00    -0.305 A  
HETATM   20  C   UNL     1     -11.224   5.392  71.226  1.00  0.00     0.053 A  
HETATM   21  C   UNL     1     -10.142   6.609  73.005  1.00  0.00    -0.204 A  
HETATM   22  C   UNL     1     -11.055   5.641  72.586  1.00  0.00    -0.331 A  
HETATM   23  C   UNL     1      -9.393   7.332  72.067  1.00  0.00    -0.150 A  
ENDBRANCH  13  18
BRANCH  15  24
HETATM   24  C   UNL     1      -6.818   7.940  68.062  1.00  0.00    -0.072 A  
HETATM   25  C   UNL     1      -6.735   7.223  66.863  1.00  0.00    -0.064 A  
HETATM   26  C   UNL     1      -5.934   9.201  65.715  1.00  0.00    -0.051 A  
HETATM   27  C   UNL     1      -5.993   9.918  66.909  1.00  0.00    -0.055 A  
HETATM   28  C   UNL     1      -6.298   7.855  65.693  1.00  0.00    -0.042 A  
HETATM   29  C   UNL     1      -6.432   9.290  68.077  1.00  0.00    -0.059 A  
ENDBRANCH  15  24
ENDBRANCH  10  13
ENDBRANCH   6   7
ENDBRANCH   5   6
ENDBRANCH   4   5
ENDBRANCH   2   4
TORSDOF 7
ENDMDL
MODEL      117
REMARK 921   NORMALIZED FREE ENERGY PREDICTED BY IDOCK:   -3.60 KCAL/MOL
REMARK 922        TOTAL FREE ENERGY PREDICTED BY IDOCK:   -7.13 KCAL/MOL
REMARK 923 INTER-LIGAND FREE ENERGY PREDICTED BY IDOCK:   -5.12 KCAL/MOL
REMARK 924 INTRA-LIGAND FREE ENERGY PREDICTED BY IDOCK:   -2.02 KCAL/MOL
REMARK 927      BINDING AFFINITY PREDICTED BY RF-SCORE:    0.00 PKD
ROOT
HETATM    1  C   UNL     1     -10.124  17.556  66.269  1.00  0.00    -0.336 C  
HETATM    2  N   UNL     1     -10.471  16.138  66.383  1.00  0.00    -0.306 NA 
HETATM    3  C   UNL     1     -10.800  15.608  65.058  1.00  0.00    -0.450 C  
ENDROOT
BRANCH   2   4
HETATM    4  C   UNL     1      -9.372  15.383  67.037  1.00  0.00    -0.224 C  
BRANCH   4   5
HETATM    5  C   UNL     1      -9.445  13.865  66.775  1.00  0.00    -0.279 C  
BRANCH   5   6
HETATM    6  O   UNL     1     -10.272  13.178  67.725  1.00  0.00    -0.223 OA 
BRANCH   6   7
HETATM    7  C   UNL     1      -9.831  11.914  68.058  1.00  0.00    -0.190 A  
HETATM    8  C   UNL     1      -8.575  11.625  68.604  1.00  0.00    -0.086 A  
HETATM    9  C   UNL     1      -8.154  10.303  68.775  1.00  0.00    -0.120 A  
HETATM   10  C   UNL     1      -8.977   9.240  68.398  1.00  0.00    -0.129 A  
HETATM   11  C   UNL     1     -10.280   9.523  67.959  1.00  0.00    -0.244 A  
HETATM   12  C   UNL     1     -10.701  10.854  67.792  1.00  0.00    -0.279 A  
BRANCH  10  13
HETATM   13  C   UNL     1      -8.391   7.869  68.262  1.00  0.00    -0.124 C  
HETATM   14 CL   UNL     1      -6.997   3.067  68.578  1.00  0.00    -0.048 Cl 
HETATM   15  C   UNL     1      -8.592   6.908  69.207  1.00  0.00    -0.132 C  
HETATM   16  C   UNL     1      -7.374   4.763  68.134  1.00  0.00    -0.066 C  
HETATM   17  C   UNL     1      -8.125   5.444  69.271  1.00  0.00    -0.093 C  
BRANCH  13  18
HETATM   18  C   UNL     1      -7.467   7.650  67.108  1.00  0.00    -0.096 A  
HETATM   19  C   UNL     1      -6.084   7.827  67.294  1.00  0.00    -0.049 A  
HETATM   20  C   UNL     1      -5.186   7.658  66.236  1.00  0.00    -0.025 A  
HETATM   21  C   UNL     1      -7.030   7.129  64.775  1.00  0.00    -0.051 A  
HETATM   22  C   UNL     1      -5.659   7.289  64.980  1.00  0.00    -0.033 A  
HETATM   23  C   UNL     1      -7.933   7.334  65.825  1.00  0.00    -0.122 A  
ENDBRANCH  13  18
BRANCH  15  24
HETATM   24  C   UNL     1      -9.311   7.201  70.484  1.00  0.00    -0.158 A  
HETATM   25  C   UNL     1     -10.696   7.028  70.591  1.00  0.00    -0.255 A  
HETATM   26  C   UNL     1     -10.569   7.337  72.990  1.00  0.00    -0.371 A  
HETATM   27  C   UNL     1      -9.192   7.532  72.893  1.00  0.00    -0.218 A  
HETATM   28  C   UNL     1     -11.320   7.092  71.842  1.00  0.00    -0.291 A  
HETATM   29  C   UNL     1      -8.567   7.466  71.645  1.00  0.00    -0.122 A  
ENDBRANCH  15  24
ENDBRANCH  10  13
ENDBRANCH   6   7
ENDBRANCH   5   6
ENDBRANCH   4   5
ENDBRANCH   2   4
TORSDOF 7
ENDMDL
MODEL      118
REMARK 921   NORMALIZED FREE ENERGY PREDICTED BY IDOCK:   -3.59 KCAL/MOL
REMARK 922        TOTAL FREE ENERGY PREDICTED BY IDOCK:   -7.12 KCAL/MOL
REMARK 923 INTER-LIGAND FREE ENERGY PREDICTED BY IDOCK:   -5.91 KCAL/MOL
REMARK 924 INTRA-LIGAND FREE ENERGY PREDICTED BY IDOCK:   -1.20 KCAL/MOL
REMARK 927      BINDING AFFINITY PREDICTED BY RF-SCORE:    0.00 PKD
ROOT
HETATM    1  C   UNL     1     -12.398  11.630  63.826  1.00  0.00    -0.193 C  
HETATM    2  N   UNL     1     -11.469  12.699  64.198  1.00  0.00    -0.357 NA 
HETATM    3  C   UNL     1     -11.696  13.080  65.594  1.00  0.00    -0.375 C  
ENDROOT
BRANCH   2   4
HETATM    4  C   UNL     1     -10.065  12.282  63.947  1.00  0.00    -0.347 C  
BRANCH   4   5
HETATM    5  C   UNL     1      -9.787  10.823  64.358  1.00  0.00    -0.315 C  
BRANCH   5   6
HETATM    6  O   UNL     1      -8.629  10.694  65.195  1.00  0.00    -0.181 OA 
BRANCH   6   7
HETATM    7  C   UNL     1      -8.890  10.215  66.462  1.00  0.00    -0.140 A  
HETATM    8  C   UNL     1      -8.451  10.814  67.649  1.00  0.00    -0.119 A  
HETATM    9  C   UNL     1      -8.636  10.183  68.881  1.00  0.00    -0.141 A  
HETATM   10  C   UNL     1      -9.261   8.936  68.957  1.00  0.00    -0.140 A  
HETATM   11  C   UNL     1      -9.806   8.387  67.785  1.00  0.00    -0.218 A  
HETATM   12  C   UNL     1      -9.620   9.026  66.547  1.00  0.00    -0.286 A  
BRANCH  10  13
HETATM   13  C   UNL     1      -9.143   8.129  70.212  1.00  0.00    -0.151 C  
HETATM   14 CL   UNL     1      -9.696   5.653  74.532  1.00  0.00    -0.189 Cl 
HETATM   15  C   UNL     1     -10.139   8.101  71.141  1.00  0.00    -0.222 C  
HETATM   16  C   UNL     1      -9.215   6.331  72.944  1.00  0.00    -0.133 C  
HETATM   17  C   UNL     1     -10.257   7.337  72.470  1.00  0.00    -0.236 C  
BRANCH  13  18
HETATM   18  C   UNL     1      -7.827   7.464  70.456  1.00  0.00    -0.097 A  
HETATM   19  C   UNL     1      -7.634   6.143  70.014  1.00  0.00    -0.095 A  
HETATM   20  C   UNL     1      -6.429   5.474  70.243  1.00  0.00    -0.034 A  
HETATM   21  C   UNL     1      -5.573   7.430  71.363  1.00  0.00    -0.035 A  
HETATM   22  C   UNL     1      -5.390   6.126  70.902  1.00  0.00    -0.018 A  
HETATM   23  C   UNL     1      -6.793   8.088  71.166  1.00  0.00    -0.046 A  
ENDBRANCH  13  18
BRANCH  15  24
HETATM   24  C   UNL     1     -11.354   8.963  71.015  1.00  0.00    -0.350 A  
HETATM   25  C   UNL     1     -12.608   8.514  71.446  1.00  0.00    -0.309 A  
HETATM   26  C   UNL     1     -13.521  10.741  71.172  1.00  0.00     0.069 A  
HETATM   27  C   UNL     1     -12.283  11.194  70.721  1.00  0.00    -0.484 A  
HETATM   28  C   UNL     1     -13.686   9.403  71.527  1.00  0.00    -0.363 A  
HETATM   29  C   UNL     1     -11.205  10.309  70.642  1.00  0.00    -0.406 A  
ENDBRANCH  15  24
ENDBRANCH  10  13
ENDBRANCH   6   7
ENDBRANCH   5   6
ENDBRANCH   4   5
ENDBRANCH   2   4
TORSDOF 7
ENDMDL
MODEL      119
REMARK 921   NORMALIZED FREE ENERGY PREDICTED BY IDOCK:   -3.58 KCAL/MOL
REMARK 922        TOTAL FREE ENERGY PREDICTED BY IDOCK:   -7.12 KCAL/MOL
REMARK 923 INTER-LIGAND FREE ENERGY PREDICTED BY IDOCK:   -5.87 KCAL/MOL
REMARK 924 INTRA-LIGAND FREE ENERGY PREDICTED BY IDOCK:   -1.24 KCAL/MOL
REMARK 927      BINDING AFFINITY PREDICTED BY RF-SCORE:    0.00 PKD
ROOT
HETATM    1  C   UNL     1     -10.416  20.140  67.983  1.00  0.00    -0.249 C  
HETATM    2  N   UNL     1      -9.119  19.824  67.382  1.00  0.00    -0.317 NA 
HETATM    3  C   UNL     1      -8.229  19.270  68.405  1.00  0.00    -0.347 C  
ENDROOT
BRANCH   2   4
HETATM    4  C   UNL     1      -9.287  18.910  66.224  1.00  0.00    -0.282 C  
BRANCH   4   5
HETATM    5  C   UNL     1     -10.606  18.114  66.271  1.00  0.00    -0.274 C  
BRANCH   5   6
HETATM    6  O   UNL     1     -10.897  17.602  67.580  1.00  0.00    -0.350 OA 
BRANCH   6   7
HETATM    7  C   UNL     1     -10.555  16.278  67.764  1.00  0.00    -0.314 A  
HETATM    8  C   UNL     1     -10.495  15.634  69.006  1.00  0.00    -0.229 A  
HETATM    9  C   UNL     1      -9.998  14.332  69.114  1.00  0.00    -0.033 A  
HETATM   10  C   UNL     1      -9.545  13.647  67.986  1.00  0.00    -0.216 A  
HETATM   11  C   UNL     1      -9.711  14.244  66.726  1.00  0.00    -0.282 A  
HETATM   12  C   UNL     1     -10.214  15.552  66.620  1.00  0.00    -0.280 A  
BRANCH  10  13
HETATM   13  C   UNL     1      -8.709  12.416  68.159  1.00  0.00    -0.190 C  
HETATM   14 CL   UNL     1      -5.259   8.916  69.132  1.00  0.00    -0.036 Cl 
HETATM   15  C   UNL     1      -7.405  12.486  68.545  1.00  0.00    -0.115 C  
HETATM   16  C   UNL     1      -6.718   9.894  68.772  1.00  0.00    -0.050 C  
HETATM   17  C   UNL     1      -6.372  11.378  68.814  1.00  0.00    -0.053 C  
BRANCH  13  18
HETATM   18  C   UNL     1      -9.339  11.121  67.758  1.00  0.00    -0.166 A  
HETATM   19  C   UNL     1     -10.002  10.352  68.731  1.00  0.00    -0.196 A  
HETATM   20  C   UNL     1     -10.583   9.122  68.406  1.00  0.00    -0.217 A  
HETATM   21  C   UNL     1      -9.853   9.397  66.125  1.00  0.00    -0.356 A  
HETATM   22  C   UNL     1     -10.524   8.654  67.096  1.00  0.00    -0.360 A  
HETATM   23  C   UNL     1      -9.239  10.612  66.457  1.00  0.00    -0.187 A  
ENDBRANCH  13  18
BRANCH  15  24
HETATM   24  C   UNL     1      -6.703  13.796  68.706  1.00  0.00    -0.103 A  
HETATM   25  C   UNL     1      -6.387  14.588  67.597  1.00  0.00    -0.128 A  
HETATM   26  C   UNL     1      -5.787  16.426  69.057  1.00  0.00    -0.136 A  
HETATM   27  C   UNL     1      -6.077  15.638  70.169  1.00  0.00    -0.114 A  
HETATM   28  C   UNL     1      -5.935  15.901  67.774  1.00  0.00    -0.167 A  
HETATM   29  C   UNL     1      -6.532  14.329  69.994  1.00  0.00    -0.126 A  
ENDBRANCH  15  24
ENDBRANCH  10  13
ENDBRANCH   6   7
ENDBRANCH   5   6
ENDBRANCH   4   5
ENDBRANCH   2   4
TORSDOF 7
ENDMDL
MODEL      120
REMARK 921   NORMALIZED FREE ENERGY PREDICTED BY IDOCK:   -3.57 KCAL/MOL
REMARK 922        TOTAL FREE ENERGY PREDICTED BY IDOCK:   -7.10 KCAL/MOL
REMARK 923 INTER-LIGAND FREE ENERGY PREDICTED BY IDOCK:   -7.38 KCAL/MOL
REMARK 924 INTRA-LIGAND FREE ENERGY PREDICTED BY IDOCK:    0.28 KCAL/MOL
REMARK 927      BINDING AFFINITY PREDICTED BY RF-SCORE:    0.00 PKD
ROOT
HETATM    1  C   UNL     1     -10.173   3.367  74.525  1.00  0.00    -0.182 C  
HETATM    2  N   UNL     1      -9.917   2.814  73.194  1.00  0.00    -0.109 NA 
HETATM    3  C   UNL     1     -11.175   2.338  72.613  1.00  0.00     0.350 C  
ENDROOT
BRANCH   2   4
HETATM    4  C   UNL     1      -9.242   3.817  72.332  1.00  0.00    -0.115 C  
BRANCH   4   5
HETATM    5  C   UNL     1     -10.208   4.880  71.774  1.00  0.00    -0.200 C  
BRANCH   5   6
HETATM    6  O   UNL     1     -10.625   5.827  72.768  1.00  0.00    -0.202 OA 
BRANCH   6   7
HETATM    7  C   UNL     1     -10.962   7.069  72.269  1.00  0.00    -0.245 A  
HETATM    8  C   UNL     1     -12.241   7.436  71.836  1.00  0.00    -0.344 A  
HETATM    9  C   UNL     1     -12.461   8.665  71.210  1.00  0.00    -0.284 A  
HETATM   10  C   UNL     1     -11.405   9.554  70.996  1.00  0.00    -0.423 A  
HETATM   11  C   UNL     1     -10.146   9.241  71.530  1.00  0.00    -0.306 A  
HETATM   12  C   UNL     1      -9.929   8.005  72.164  1.00  0.00    -0.289 A  
BRANCH  10  13
HETATM   13  C   UNL     1     -11.582  10.687  70.033  1.00  0.00    -0.406 C  
HETATM   14 CL   UNL     1     -11.890  13.823  66.138  1.00  0.00    -0.396 Cl 
HETATM   15  C   UNL     1     -11.170  10.596  68.737  1.00  0.00    -0.337 C  
HETATM   16  C   UNL     1     -11.993  12.934  67.691  1.00  0.00    -0.289 C  
HETATM   17  C   UNL     1     -11.268  11.598  67.575  1.00  0.00    -0.355 C  
BRANCH  13  18
HETATM   18  C   UNL     1     -12.109  11.967  70.598  1.00  0.00    -0.389 A  
HETATM   19  C   UNL     1     -13.106  11.919  71.588  1.00  0.00    -0.433 A  
HETATM   20  C   UNL     1     -13.646  13.091  72.126  1.00  0.00    -0.618 A  
HETATM   21  C   UNL     1     -12.203  14.393  70.699  1.00  0.00    -0.414 A  
HETATM   22  C   UNL     1     -13.179  14.329  71.694  1.00  0.00    -0.429 A  
HETATM   23  C   UNL     1     -11.688  13.219  70.133  1.00  0.00    -0.254 A  
ENDBRANCH  13  18
BRANCH  15  24
HETATM   24  C   UNL     1     -10.417   9.406  68.235  1.00  0.00    -0.260 A  
HETATM   25  C   UNL     1     -11.087   8.252  67.812  1.00  0.00     0.316 A  
HETATM   26  C   UNL     1      -9.025   7.367  66.899  1.00  0.00    -0.150 A  
HETATM   27  C   UNL     1      -8.344   8.502  67.336  1.00  0.00    -0.120 A  
HETATM   28  C   UNL     1     -10.392   7.239  67.142  1.00  0.00    -0.367 A  
HETATM   29  C   UNL     1      -9.037   9.516  68.001  1.00  0.00    -0.126 A  
ENDBRANCH  15  24
ENDBRANCH  10  13
ENDBRANCH   6   7
ENDBRANCH   5   6
ENDBRANCH   4   5
ENDBRANCH   2   4
TORSDOF 7
ENDMDL
MODEL      121
REMARK 921   NORMALIZED FREE ENERGY PREDICTED BY IDOCK:   -3.57 KCAL/MOL
REMARK 922        TOTAL FREE ENERGY PREDICTED BY IDOCK:   -7.09 KCAL/MOL
REMARK 923 INTER-LIGAND FREE ENERGY PREDICTED BY IDOCK:   -4.86 KCAL/MOL
REMARK 924 INTRA-LIGAND FREE ENERGY PREDICTED BY IDOCK:   -2.23 KCAL/MOL
REMARK 927      BINDING AFFINITY PREDICTED BY RF-SCORE:    0.00 PKD
ROOT
HETATM    1  C   UNL     1      -8.458  10.430  64.586  1.00  0.00    -0.173 C  
HETATM    2  N   UNL     1      -8.566   9.270  63.700  1.00  0.00    -0.207 NA 
HETATM    3  C   UNL     1      -9.150   9.684  62.422  1.00  0.00    -0.271 C  
ENDROOT
BRANCH   2   4
HETATM    4  C   UNL     1      -7.243   8.617  63.531  1.00  0.00    -0.095 C  
BRANCH   4   5
HETATM    5  C   UNL     1      -6.912   7.623  64.662  1.00  0.00    -0.052 C  
BRANCH   5   6
HETATM    6  O   UNL     1      -6.162   8.226  65.728  1.00  0.00    -0.050 OA 
BRANCH   6   7
HETATM    7  C   UNL     1      -6.515   7.794  66.989  1.00  0.00    -0.055 A  
HETATM    8  C   UNL     1      -5.989   6.662  67.623  1.00  0.00    -0.024 A  
HETATM    9  C   UNL     1      -6.509   6.215  68.840  1.00  0.00    -0.046 A  
HETATM   10  C   UNL     1      -7.571   6.885  69.450  1.00  0.00    -0.099 A  
HETATM   11  C   UNL     1      -8.024   8.085  68.879  1.00  0.00    -0.118 A  
HETATM   12  C   UNL     1      -7.496   8.534  67.655  1.00  0.00    -0.094 A  
BRANCH  10  13
HETATM   13  C   UNL     1      -8.333   6.211  70.549  1.00  0.00    -0.129 C  
HETATM   14 CL   UNL     1     -11.292   3.443  73.495  1.00  0.00    -0.293 Cl 
HETATM   15  C   UNL     1      -9.370   5.368  70.287  1.00  0.00    -0.198 C  
HETATM   16  C   UNL     1     -10.047   4.487  72.738  1.00  0.00    -0.166 C  
HETATM   17  C   UNL     1     -10.268   4.551  71.231  1.00  0.00    -0.167 C  
BRANCH  13  18
HETATM   18  C   UNL     1      -7.984   6.613  71.946  1.00  0.00    -0.102 A  
HETATM   19  C   UNL     1      -8.658   7.697  72.535  1.00  0.00    -0.164 A  
HETATM   20  C   UNL     1      -8.346   8.123  73.830  1.00  0.00    -0.311 A  
HETATM   21  C   UNL     1      -6.677   6.389  73.982  1.00  0.00    -0.074 A  
HETATM   22  C   UNL     1      -7.367   7.454  74.561  1.00  0.00    -0.144 A  
HETATM   23  C   UNL     1      -6.963   5.985  72.672  1.00  0.00    -0.079 A  
ENDBRANCH  13  18
BRANCH  15  24
HETATM   24  C   UNL     1      -9.880   5.159  68.897  1.00  0.00    -0.241 A  
HETATM   25  C   UNL     1     -10.709   6.103  68.281  1.00  0.00    -0.361 A  
HETATM   26  C   UNL     1     -10.466   4.960  66.159  1.00  0.00    -0.346 A  
HETATM   27  C   UNL     1      -9.657   4.002  66.767  1.00  0.00    -0.234 A  
HETATM   28  C   UNL     1     -10.996   6.004  66.915  1.00  0.00    -0.350 A  
HETATM   29  C   UNL     1      -9.366   4.101  68.130  1.00  0.00    -0.212 A  
ENDBRANCH  15  24
ENDBRANCH  10  13
ENDBRANCH   6   7
ENDBRANCH   5   6
ENDBRANCH   4   5
ENDBRANCH   2   4
TORSDOF 7
ENDMDL
MODEL      122
REMARK 921   NORMALIZED FREE ENERGY PREDICTED BY IDOCK:   -3.54 KCAL/MOL
REMARK 922        TOTAL FREE ENERGY PREDICTED BY IDOCK:   -7.06 KCAL/MOL
REMARK 923 INTER-LIGAND FREE ENERGY PREDICTED BY IDOCK:   -4.95 KCAL/MOL
REMARK 924 INTRA-LIGAND FREE ENERGY PREDICTED BY IDOCK:   -2.11 KCAL/MOL
REMARK 927      BINDING AFFINITY PREDICTED BY RF-SCORE:    0.00 PKD
ROOT
HETATM    1  C   UNL     1     -12.340  14.510  64.423  1.00  0.00    -0.413 C  
HETATM    2  N   UNL     1     -12.749  13.120  64.634  1.00  0.00    -0.699 NA 
HETATM    3  C   UNL     1     -12.360  12.315  63.474  1.00  0.00    -0.565 C  
ENDROOT
BRANCH   2   4
HETATM    4  C   UNL     1     -12.181  12.595  65.902  1.00  0.00    -0.307 C  
BRANCH   4   5
HETATM    5  C   UNL     1     -10.925  11.728  65.687  1.00  0.00    -0.295 C  
BRANCH   5   6
HETATM    6  O   UNL     1     -10.171  11.536  66.893  1.00  0.00    -0.208 OA 
BRANCH   6   7
HETATM    7  C   UNL     1      -9.723  10.246  67.086  1.00  0.00    -0.173 A  
HETATM    8  C   UNL     1      -8.563   9.900  67.790  1.00  0.00    -0.121 A  
HETATM    9  C   UNL     1      -8.105   8.580  67.812  1.00  0.00    -0.115 A  
HETATM   10  C   UNL     1      -8.793   7.576  67.127  1.00  0.00    -0.127 A  
HETATM   11  C   UNL     1     -10.016   7.896  66.518  1.00  0.00    -0.267 A  
HETATM   12  C   UNL     1     -10.476   9.224  66.501  1.00  0.00    -0.204 A  
BRANCH  10  13
HETATM   13  C   UNL     1      -8.118   6.264  66.873  1.00  0.00    -0.109 C  
HETATM   14 CL   UNL     1      -5.362   2.371  65.337  1.00  0.00    -0.008 Cl 
HETATM   15  C   UNL     1      -7.296   6.078  65.803  1.00  0.00    -0.076 C  
HETATM   16  C   UNL     1      -6.395   3.571  66.179  1.00  0.00    -0.032 C  
HETATM   17  C   UNL     1      -6.481   4.851  65.358  1.00  0.00    -0.036 C  
BRANCH  13  18
HETATM   18  C   UNL     1      -8.495   5.133  67.776  1.00  0.00    -0.104 A  
HETATM   19  C   UNL     1      -7.824   4.982  69.002  1.00  0.00    -0.080 A  
HETATM   20  C   UNL     1      -8.126   3.925  69.865  1.00  0.00    -0.061 A  
HETATM   21  C   UNL     1      -9.783   3.140  68.299  1.00  0.00     0.005 A  
HETATM   22  C   UNL     1      -9.122   3.014  69.520  1.00  0.00    -0.198 A  
HETATM   23  C   UNL     1      -9.455   4.178  67.417  1.00  0.00    -0.223 A  
ENDBRANCH  13  18
BRANCH  15  24
HETATM   24  C   UNL     1      -7.113   7.134  64.760  1.00  0.00    -0.068 A  
HETATM   25  C   UNL     1      -8.024   7.277  63.708  1.00  0.00    -0.078 A  
HETATM   26  C   UNL     1      -6.995   9.377  63.077  1.00  0.00    -0.097 A  
HETATM   27  C   UNL     1      -6.069   9.234  64.109  1.00  0.00    -0.077 A  
HETATM   28  C   UNL     1      -7.966   8.398  62.872  1.00  0.00    -0.160 A  
HETATM   29  C   UNL     1      -6.128   8.117  64.946  1.00  0.00    -0.048 A  
ENDBRANCH  15  24
ENDBRANCH  10  13
ENDBRANCH   6   7
ENDBRANCH   5   6
ENDBRANCH   4   5
ENDBRANCH   2   4
TORSDOF 7
ENDMDL
MODEL      123
REMARK 921   NORMALIZED FREE ENERGY PREDICTED BY IDOCK:   -3.54 KCAL/MOL
REMARK 922        TOTAL FREE ENERGY PREDICTED BY IDOCK:   -7.05 KCAL/MOL
REMARK 923 INTER-LIGAND FREE ENERGY PREDICTED BY IDOCK:   -5.44 KCAL/MOL
REMARK 924 INTRA-LIGAND FREE ENERGY PREDICTED BY IDOCK:   -1.61 KCAL/MOL
REMARK 927      BINDING AFFINITY PREDICTED BY RF-SCORE:    0.00 PKD
ROOT
HETATM    1  C   UNL     1     -13.039  10.911  72.056  1.00  0.00    -0.356 C  
HETATM    2  N   UNL     1     -13.178  12.127  71.252  1.00  0.00    -0.104 NA 
HETATM    3  C   UNL     1     -12.968  13.302  72.102  1.00  0.00    -0.292 C  
ENDROOT
BRANCH   2   4
HETATM    4  C   UNL     1     -12.252  12.095  70.091  1.00  0.00    -0.231 C  
BRANCH   4   5
HETATM    5  C   UNL     1     -11.845  13.501  69.607  1.00  0.00    -0.336 C  
BRANCH   5   6
HETATM    6  O   UNL     1     -11.124  13.472  68.366  1.00  0.00    -0.248 OA 
BRANCH   6   7
HETATM    7  C   UNL     1     -10.572  12.247  68.055  1.00  0.00    -0.216 A  
HETATM    8  C   UNL     1     -11.197  11.261  67.281  1.00  0.00    -0.364 A  
HETATM    9  C   UNL     1     -10.627   9.994  67.138  1.00  0.00    -0.296 A  
HETATM   10  C   UNL     1      -9.422   9.679  67.769  1.00  0.00    -0.146 A  
HETATM   11  C   UNL     1      -8.735  10.697  68.449  1.00  0.00    -0.141 A  
HETATM   12  C   UNL     1      -9.309  11.973  68.588  1.00  0.00    -0.056 A  
BRANCH  10  13
HETATM   13  C   UNL     1      -9.009   8.245  67.893  1.00  0.00    -0.134 C  
HETATM   14 CL   UNL     1      -7.007   3.663  67.580  1.00  0.00    -0.054 Cl 
HETATM   15  C   UNL     1      -8.185   7.656  66.982  1.00  0.00    -0.117 C  
HETATM   16  C   UNL     1      -7.824   5.199  68.015  1.00  0.00    -0.087 C  
HETATM   17  C   UNL     1      -7.609   6.232  66.916  1.00  0.00    -0.099 C  
BRANCH  13  18
HETATM   18  C   UNL     1      -9.652   7.459  68.990  1.00  0.00    -0.148 A  
HETATM   19  C   UNL     1      -9.048   7.433  70.259  1.00  0.00    -0.151 A  
HETATM   20  C   UNL     1      -9.601   6.690  71.307  1.00  0.00    -0.176 A  
HETATM   21  C   UNL     1     -11.380   5.978  69.843  1.00  0.00    -0.355 A  
HETATM   22  C   UNL     1     -10.779   5.978  71.102  1.00  0.00    -0.323 A  
HETATM   23  C   UNL     1     -10.806   6.693  68.783  1.00  0.00    -0.321 A  
ENDBRANCH  13  18
BRANCH  15  24
HETATM   24  C   UNL     1      -7.739   8.373  65.748  1.00  0.00    -0.094 A  
HETATM   25  C   UNL     1      -8.519   8.364  64.585  1.00  0.00    -0.094 A  
HETATM   26  C   UNL     1      -7.106  10.069  63.602  1.00  0.00    -0.126 A  
HETATM   27  C   UNL     1      -6.311  10.071  64.747  1.00  0.00    -0.127 A  
HETATM   28  C   UNL     1      -8.203   9.213  63.518  1.00  0.00    -0.178 A  
HETATM   29  C   UNL     1      -6.626   9.226  65.814  1.00  0.00    -0.069 A  
ENDBRANCH  15  24
ENDBRANCH  10  13
ENDBRANCH   6   7
ENDBRANCH   5   6
ENDBRANCH   4   5
ENDBRANCH   2   4
TORSDOF 7
ENDMDL
MODEL      124
REMARK 921   NORMALIZED FREE ENERGY PREDICTED BY IDOCK:   -3.52 KCAL/MOL
REMARK 922        TOTAL FREE ENERGY PREDICTED BY IDOCK:   -7.03 KCAL/MOL
REMARK 923 INTER-LIGAND FREE ENERGY PREDICTED BY IDOCK:   -5.08 KCAL/MOL
REMARK 924 INTRA-LIGAND FREE ENERGY PREDICTED BY IDOCK:   -1.95 KCAL/MOL
REMARK 927      BINDING AFFINITY PREDICTED BY RF-SCORE:    0.00 PKD
ROOT
HETATM    1  C   UNL     1     -10.315   2.326  73.519  1.00  0.00    -0.119 C  
HETATM    2  N   UNL     1     -10.125   3.620  72.861  1.00  0.00    -0.147 NA 
HETATM    3  C   UNL     1     -11.274   4.484  73.141  1.00  0.00    -0.250 C  
ENDROOT
BRANCH   2   4
HETATM    4  C   UNL     1      -8.839   4.236  73.278  1.00  0.00    -0.098 C  
BRANCH   4   5
HETATM    5  C   UNL     1      -7.990   4.723  72.088  1.00  0.00    -0.106 C  
BRANCH   5   6
HETATM    6  O   UNL     1      -7.532   6.073  72.250  1.00  0.00    -0.092 OA 
BRANCH   6   7
HETATM    7  C   UNL     1      -8.136   6.986  71.410  1.00  0.00    -0.108 A  
HETATM    8  C   UNL     1      -9.416   6.842  70.862  1.00  0.00    -0.159 A  
HETATM    9  C   UNL     1      -9.892   7.743  69.906  1.00  0.00    -0.177 A  
HETATM   10  C   UNL     1      -9.097   8.805  69.471  1.00  0.00    -0.146 A  
HETATM   11  C   UNL     1      -7.861   9.020  70.100  1.00  0.00    -0.100 A  
HETATM   12  C   UNL     1      -7.387   8.114  71.065  1.00  0.00    -0.058 A  
BRANCH  10  13
HETATM   13  C   UNL     1      -9.472   9.540  68.221  1.00  0.00    -0.143 C  
HETATM   14 CL   UNL     1     -10.627  11.121  63.609  1.00  0.00    -0.435 Cl 
HETATM   15  C   UNL     1      -9.383   8.955  66.993  1.00  0.00    -0.194 C  
HETATM   16  C   UNL     1     -10.378  10.851  65.364  1.00  0.00    -0.261 C  
HETATM   17  C   UNL     1      -9.732   9.490  65.594  1.00  0.00    -0.361 C  
BRANCH  13  18
HETATM   18  C   UNL     1      -9.820  10.985  68.376  1.00  0.00    -0.186 A  
HETATM   19  C   UNL     1     -11.164  11.350  68.565  1.00  0.00    -0.309 A  
HETATM   20  C   UNL     1     -11.538  12.691  68.689  1.00  0.00    -0.356 A  
HETATM   21  C   UNL     1      -9.230  13.342  68.439  1.00  0.00    -0.145 A  
HETATM   22  C   UNL     1     -10.566  13.687  68.645  1.00  0.00    -0.260 A  
HETATM   23  C   UNL     1      -8.860  12.000  68.278  1.00  0.00    -0.182 A  
ENDBRANCH  13  18
BRANCH  15  24
HETATM   24  C   UNL     1      -8.799   7.590  66.814  1.00  0.00    -0.153 A  
HETATM   25  C   UNL     1      -9.582   6.523  66.360  1.00  0.00    -0.151 A  
HETATM   26  C   UNL     1      -7.596   5.165  66.074  1.00  0.00    -0.087 A  
HETATM   27  C   UNL     1      -6.810   6.214  66.545  1.00  0.00    -0.062 A  
HETATM   28  C   UNL     1      -8.979   5.316  65.988  1.00  0.00    -0.144 A  
HETATM   29  C   UNL     1      -7.408   7.421  66.914  1.00  0.00    -0.093 A  
ENDBRANCH  15  24
ENDBRANCH  10  13
ENDBRANCH   6   7
ENDBRANCH   5   6
ENDBRANCH   4   5
ENDBRANCH   2   4
TORSDOF 7
ENDMDL
MODEL      125
REMARK 921   NORMALIZED FREE ENERGY PREDICTED BY IDOCK:   -3.47 KCAL/MOL
REMARK 922        TOTAL FREE ENERGY PREDICTED BY IDOCK:   -6.95 KCAL/MOL
REMARK 923 INTER-LIGAND FREE ENERGY PREDICTED BY IDOCK:   -4.97 KCAL/MOL
REMARK 924 INTRA-LIGAND FREE ENERGY PREDICTED BY IDOCK:   -1.98 KCAL/MOL
REMARK 927      BINDING AFFINITY PREDICTED BY RF-SCORE:    0.00 PKD
ROOT
HETATM    1  C   UNL     1     -10.715  19.273  67.168  1.00  0.00    -0.480 C  
HETATM    2  N   UNL     1     -10.249  17.885  67.209  1.00  0.00    -0.343 NA 
HETATM    3  C   UNL     1     -10.628  17.280  68.488  1.00  0.00    -0.350 C  
ENDROOT
BRANCH   2   4
HETATM    4  C   UNL     1     -10.772  17.124  66.046  1.00  0.00    -0.113 C  
BRANCH   4   5
HETATM    5  C   UNL     1     -10.375  15.635  66.072  1.00  0.00    -0.335 C  
BRANCH   5   6
HETATM    6  O   UNL     1      -8.991  15.436  66.397  1.00  0.00    -0.281 OA 
BRANCH   6   7
HETATM    7  C   UNL     1      -8.699  14.190  66.913  1.00  0.00    -0.166 A  
HETATM    8  C   UNL     1      -7.421  13.621  66.951  1.00  0.00     0.525 A  
HETATM    9  C   UNL     1      -7.238  12.296  67.357  1.00  0.00    -0.147 A  
HETATM   10  C   UNL     1      -8.329  11.508  67.729  1.00  0.00    -0.136 A  
HETATM   11  C   UNL     1      -9.596  12.108  67.803  1.00  0.00    -0.195 A  
HETATM   12  C   UNL     1      -9.776  13.442  67.397  1.00  0.00    -0.221 A  
BRANCH  10  13
HETATM   13  C   UNL     1      -8.166  10.023  67.822  1.00  0.00    -0.113 C  
HETATM   14 CL   UNL     1      -7.590   5.091  67.154  1.00  0.00    -0.087 Cl 
HETATM   15  C   UNL     1      -8.229   9.225  66.719  1.00  0.00    -0.115 C  
HETATM   16  C   UNL     1      -7.679   6.790  67.721  1.00  0.00    -0.111 C  
HETATM   17  C   UNL     1      -8.065   7.704  66.564  1.00  0.00    -0.119 C  
BRANCH  13  18
HETATM   18  C   UNL     1      -8.064   9.448  69.198  1.00  0.00    -0.107 A  
HETATM   19  C   UNL     1      -9.239   9.232  69.939  1.00  0.00    -0.209 A  
HETATM   20  C   UNL     1      -9.189   8.720  71.239  1.00  0.00    -0.309 A  
HETATM   21  C   UNL     1      -6.784   8.626  71.093  1.00  0.00    -0.068 A  
HETATM   22  C   UNL     1      -7.960   8.399  71.809  1.00  0.00    -0.173 A  
HETATM   23  C   UNL     1      -6.831   9.173  69.804  1.00  0.00    -0.051 A  
ENDBRANCH  13  18
BRANCH  15  24
HETATM   24  C   UNL     1      -8.578   9.774  65.373  1.00  0.00    -0.163 A  
HETATM   25  C   UNL     1      -9.892  10.142  65.061  1.00  0.00    -0.392 A  
HETATM   26  C   UNL     1      -9.131  11.195  63.016  1.00  0.00    -0.285 A  
HETATM   27  C   UNL     1      -7.823  10.815  63.306  1.00  0.00     0.123 A  
HETATM   28  C   UNL     1     -10.165  10.854  63.887  1.00  0.00    -0.418 A  
HETATM   29  C   UNL     1      -7.548  10.107  64.479  1.00  0.00    -0.130 A  
ENDBRANCH  15  24
ENDBRANCH  10  13
ENDBRANCH   6   7
ENDBRANCH   5   6
ENDBRANCH   4   5
ENDBRANCH   2   4
TORSDOF 7
ENDMDL
MODEL      126
REMARK 921   NORMALIZED FREE ENERGY PREDICTED BY IDOCK:   -3.24 KCAL/MOL
REMARK 922        TOTAL FREE ENERGY PREDICTED BY IDOCK:   -6.63 KCAL/MOL
REMARK 923 INTER-LIGAND FREE ENERGY PREDICTED BY IDOCK:   -4.91 KCAL/MOL
REMARK 924 INTRA-LIGAND FREE ENERGY PREDICTED BY IDOCK:   -1.72 KCAL/MOL
REMARK 927      BINDING AFFINITY PREDICTED BY RF-SCORE:    0.00 PKD
ROOT
HETATM    1  C   UNL     1     -13.151  15.689  72.816  1.00  0.00    -0.495 C  
HETATM    2  N   UNL     1     -12.555  14.478  72.247  1.00  0.00    -0.320 NA 
HETATM    3  C   UNL     1     -13.531  13.387  72.289  1.00  0.00    -0.586 C  
ENDROOT
BRANCH   2   4
HETATM    4  C   UNL     1     -12.057  14.738  70.872  1.00  0.00    -0.324 C  
BRANCH   4   5
HETATM    5  C   UNL     1     -12.930  14.087  69.782  1.00  0.00     0.503 C  
BRANCH   5   6
HETATM    6  O   UNL     1     -12.190  13.770  68.594  1.00  0.00    -0.347 OA 
BRANCH   6   7
HETATM    7  C   UNL     1     -11.618  12.514  68.595  1.00  0.00    -0.314 A  
HETATM    8  C   UNL     1     -11.092  11.877  69.726  1.00  0.00    -0.025 A  
HETATM    9  C   UNL     1     -10.401  10.668  69.610  1.00  0.00    -0.185 A  
HETATM   10  C   UNL     1     -10.213  10.071  68.362  1.00  0.00    -0.196 A  
HETATM   11  C   UNL     1     -10.837  10.646  67.243  1.00  0.00    -0.345 A  
HETATM   12  C   UNL     1     -11.535  11.860  67.363  1.00  0.00    -0.393 A  
BRANCH  10  13
HETATM   13  C   UNL     1      -9.193   8.985  68.212  1.00  0.00    -0.139 C  
HETATM   14 CL   UNL     1      -5.136   6.061  67.918  1.00  0.00    -0.004 Cl 
HETATM   15  C   UNL     1      -7.858   9.256  68.190  1.00  0.00    -0.095 C  
HETATM   16  C   UNL     1      -6.762   6.802  68.065  1.00  0.00    -0.068 C  
HETATM   17  C   UNL     1      -6.642   8.321  68.078  1.00  0.00    -0.057 C  
BRANCH  13  18
HETATM   18  C   UNL     1      -9.717   7.609  67.954  1.00  0.00    -0.174 A  
HETATM   19  C   UNL     1      -9.995   7.218  66.633  1.00  0.00    -0.246 A  
HETATM   20  C   UNL     1     -10.510   5.950  66.348  1.00  0.00    -0.178 A  
HETATM   21  C   UNL     1     -10.483   5.428  68.702  1.00  0.00    -0.199 A  
HETATM   22  C   UNL     1     -10.736   5.047  67.383  1.00  0.00     0.087 A  
HETATM   23  C   UNL     1     -10.002   6.711  68.991  1.00  0.00    -0.162 A  
ENDBRANCH  13  18
BRANCH  15  24
HETATM   24  C   UNL     1      -7.341  10.659  68.199  1.00  0.00    -0.088 A  
HETATM   25  C   UNL     1      -7.644  11.547  67.161  1.00  0.00    -0.149 A  
HETATM   26  C   UNL     1      -6.732  13.388  68.445  1.00  0.00    -0.096 A  
HETATM   27  C   UNL     1      -6.407  12.508  69.476  1.00  0.00    -0.112 A  
HETATM   28  C   UNL     1      -7.343  12.908  67.288  1.00  0.00    -0.077 A  
HETATM   29  C   UNL     1      -6.709  11.150  69.353  1.00  0.00    -0.120 A  
ENDBRANCH  15  24
ENDBRANCH  10  13
ENDBRANCH   6   7
ENDBRANCH   5   6
ENDBRANCH   4   5
ENDBRANCH   2   4
TORSDOF 7
ENDMDL
MODEL      127
REMARK 921   NORMALIZED FREE ENERGY PREDICTED BY IDOCK:   -3.20 KCAL/MOL
REMARK 922        TOTAL FREE ENERGY PREDICTED BY IDOCK:   -6.57 KCAL/MOL
REMARK 923 INTER-LIGAND FREE ENERGY PREDICTED BY IDOCK:   -4.98 KCAL/MOL
REMARK 924 INTRA-LIGAND FREE ENERGY PREDICTED BY IDOCK:   -1.60 KCAL/MOL
REMARK 927      BINDING AFFINITY PREDICTED BY RF-SCORE:    0.00 PKD
ROOT
HETATM    1  C   UNL     1      -9.090  16.214  67.366  1.00  0.00    -0.195 C  
HETATM    2  N   UNL     1     -10.042  15.140  67.657  1.00  0.00    -0.230 NA 
HETATM    3  C   UNL     1     -10.867  15.517  68.807  1.00  0.00    -0.256 C  
ENDROOT
BRANCH   2   4
HETATM    4  C   UNL     1     -10.856  14.824  66.456  1.00  0.00    -0.319 C  
BRANCH   4   5
HETATM    5  C   UNL     1     -10.937  13.313  66.163  1.00  0.00    -0.279 C  
BRANCH   5   6
HETATM    6  O   UNL     1     -11.880  12.635  67.006  1.00  0.00    -0.376 OA 
BRANCH   6   7
HETATM    7  C   UNL     1     -11.370  11.536  67.665  1.00  0.00    -0.291 A  
HETATM    8  C   UNL     1     -10.810  11.562  68.948  1.00  0.00    -0.263 A  
HETATM    9  C   UNL     1     -10.185  10.431  69.480  1.00  0.00    -0.258 A  
HETATM   10  C   UNL     1     -10.099   9.250  68.741  1.00  0.00    -0.210 A  
HETATM   11  C   UNL     1     -10.759   9.184  67.503  1.00  0.00    -0.255 A  
HETATM   12  C   UNL     1     -11.390  10.322  66.972  1.00  0.00     0.282 A  
BRANCH  10  13
HETATM   13  C   UNL     1      -9.143   8.181  69.170  1.00  0.00    -0.148 C  
HETATM   14 CL   UNL     1      -6.713   4.248  71.101  1.00  0.00    -0.030 Cl 
HETATM   15  C   UNL     1      -9.468   7.276  70.135  1.00  0.00    -0.165 C  
HETATM   16  C   UNL     1      -7.319   5.657  70.173  1.00  0.00    -0.069 C  
HETATM   17  C   UNL     1      -8.677   6.090  70.713  1.00  0.00    -0.135 C  
BRANCH  13  18
HETATM   18  C   UNL     1      -7.769   8.240  68.583  1.00  0.00    -0.114 A  
HETATM   19  C   UNL     1      -6.771   8.973  69.248  1.00  0.00    -0.049 A  
HETATM   20  C   UNL     1      -5.480   9.076  68.722  1.00  0.00    -0.040 A  
HETATM   21  C   UNL     1      -6.150   7.713  66.850  1.00  0.00    -0.048 A  
HETATM   22  C   UNL     1      -5.165   8.428  67.531  1.00  0.00    -0.034 A  
HETATM   23  C   UNL     1      -7.454   7.640  67.357  1.00  0.00    -0.100 A  
ENDBRANCH  13  18
BRANCH  15  24
HETATM   24  C   UNL     1     -10.750   7.369  70.899  1.00  0.00    -0.248 A  
HETATM   25  C   UNL     1     -11.041   8.487  71.689  1.00  0.00    -0.360 A  
HETATM   26  C   UNL     1     -13.322   7.720  71.967  1.00  0.00    -0.227 A  
HETATM   27  C   UNL     1     -13.036   6.592  71.200  1.00  0.00     0.267 A  
HETATM   28  C   UNL     1     -12.325   8.662  72.217  1.00  0.00    -0.449 A  
HETATM   29  C   UNL     1     -11.756   6.417  70.669  1.00  0.00    -0.377 A  
ENDBRANCH  15  24
ENDBRANCH  10  13
ENDBRANCH   6   7
ENDBRANCH   5   6
ENDBRANCH   4   5
ENDBRANCH   2   4
TORSDOF 7
ENDMDL
MODEL      128
REMARK 921   NORMALIZED FREE ENERGY PREDICTED BY IDOCK:   -3.13 KCAL/MOL
REMARK 922        TOTAL FREE ENERGY PREDICTED BY IDOCK:   -6.47 KCAL/MOL
REMARK 923 INTER-LIGAND FREE ENERGY PREDICTED BY IDOCK:   -8.49 KCAL/MOL
REMARK 924 INTRA-LIGAND FREE ENERGY PREDICTED BY IDOCK:    2.02 KCAL/MOL
REMARK 927      BINDING AFFINITY PREDICTED BY RF-SCORE:    0.00 PKD
ROOT
HETATM    1  C   UNL     1     -10.780  17.919  65.784  1.00  0.00    -0.089 C  
HETATM    2  N   UNL     1      -9.752  18.935  66.020  1.00  0.00    -0.490 NA 
HETATM    3  C   UNL     1     -10.043  19.642  67.270  1.00  0.00    -0.409 C  
ENDROOT
BRANCH   2   4
HETATM    4  C   UNL     1      -8.400  18.320  66.020  1.00  0.00    -0.024 C  
BRANCH   4   5
HETATM    5  C   UNL     1      -8.282  17.123  66.984  1.00  0.00    -0.207 C  
BRANCH   5   6
HETATM    6  O   UNL     1      -8.282  15.860  66.302  1.00  0.00    -0.274 OA 
BRANCH   6   7
HETATM    7  C   UNL     1      -9.016  14.873  66.927  1.00  0.00    -0.253 A  
HETATM    8  C   UNL     1     -10.371  14.615  66.692  1.00  0.00    -0.273 A  
HETATM    9  C   UNL     1     -11.072  13.694  67.474  1.00  0.00    -0.296 A  
HETATM   10  C   UNL     1     -10.436  13.013  68.514  1.00  0.00    -0.261 A  
HETATM   11  C   UNL     1      -9.052  13.182  68.679  1.00  0.00     0.038 A  
HETATM   12  C   UNL     1      -8.349  14.107  67.887  1.00  0.00    -0.162 A  
BRANCH  10  13
HETATM   13  C   UNL     1     -11.261  12.308  69.545  1.00  0.00    -0.185 C  
HETATM   14 CL   UNL     1     -13.531   9.151  72.704  1.00  0.00    -0.475 Cl 
HETATM   15  C   UNL     1     -11.273  10.949  69.645  1.00  0.00    -0.348 C  
HETATM   16  C   UNL     1     -12.833  10.530  71.797  1.00  0.00    -0.454 C  
HETATM   17  C   UNL     1     -12.006  10.017  70.624  1.00  0.00    -0.401 C  
BRANCH  13  18
HETATM   18  C   UNL     1     -12.171  13.161  70.369  1.00  0.00    -0.389 A  
HETATM   19  C   UNL     1     -12.725  12.632  71.548  1.00  0.00    -0.326 A  
HETATM   20  C   UNL     1     -13.601  13.386  72.335  1.00  0.00    -0.708 A  
HETATM   21  C   UNL     1     -13.391  15.221  70.785  1.00  0.00    -0.402 A  
HETATM   22  C   UNL     1     -13.918  14.689  71.962  1.00  0.00    -0.581 A  
HETATM   23  C   UNL     1     -12.543  14.453  69.976  1.00  0.00    -0.283 A  
ENDBRANCH  13  18
BRANCH  15  24
HETATM   24  C   UNL     1     -10.555  10.083  68.660  1.00  0.00    -0.239 A  
HETATM   25  C   UNL     1     -10.991   9.982  67.334  1.00  0.00    -0.258 A  
HETATM   26  C   UNL     1      -8.957   8.810  66.736  1.00  0.00    -0.161 A  
HETATM   27  C   UNL     1      -8.523   8.886  68.058  1.00  0.00    -0.126 A  
HETATM   28  C   UNL     1     -10.190   9.350  66.376  1.00  0.00    -0.300 A  
HETATM   29  C   UNL     1      -9.320   9.519  69.016  1.00  0.00    -0.155 A  
ENDBRANCH  15  24
ENDBRANCH  10  13
ENDBRANCH   6   7
ENDBRANCH   5   6
ENDBRANCH   4   5
ENDBRANCH   2   4
TORSDOF 7
ENDMDL
MODEL      129
REMARK 921   NORMALIZED FREE ENERGY PREDICTED BY IDOCK:   -3.11 KCAL/MOL
REMARK 922        TOTAL FREE ENERGY PREDICTED BY IDOCK:   -6.44 KCAL/MOL
REMARK 923 INTER-LIGAND FREE ENERGY PREDICTED BY IDOCK:   -4.12 KCAL/MOL
REMARK 924 INTRA-LIGAND FREE ENERGY PREDICTED BY IDOCK:   -2.32 KCAL/MOL
REMARK 927      BINDING AFFINITY PREDICTED BY RF-SCORE:    0.00 PKD
ROOT
HETATM    1  C   UNL     1      -9.851   6.595  71.460  1.00  0.00    -0.171 C  
HETATM    2  N   UNL     1      -9.967   5.739  72.642  1.00  0.00    -0.175 NA 
HETATM    3  C   UNL     1     -11.380   5.458  72.905  1.00  0.00    -0.303 C  
ENDROOT
BRANCH   2   4
HETATM    4  C   UNL     1      -9.165   4.501  72.472  1.00  0.00    -0.127 C  
BRANCH   4   5
HETATM    5  C   UNL     1      -9.638   3.635  71.287  1.00  0.00    -0.174 C  
BRANCH   5   6
HETATM    6  O   UNL     1      -8.582   3.339  70.362  1.00  0.00    -0.059 OA 
BRANCH   6   7
HETATM    7  C   UNL     1      -8.488   4.217  69.303  1.00  0.00    -0.073 A  
HETATM    8  C   UNL     1      -7.365   5.002  69.013  1.00  0.00    -0.057 A  
HETATM    9  C   UNL     1      -7.409   5.972  68.008  1.00  0.00    -0.084 A  
HETATM   10  C   UNL     1      -8.576   6.184  67.273  1.00  0.00    -0.103 A  
HETATM   11  C   UNL     1      -9.666   5.323  67.480  1.00  0.00    -0.167 A  
HETATM   12  C   UNL     1      -9.617   4.346  68.490  1.00  0.00    -0.208 A  
BRANCH  10  13
HETATM   13  C   UNL     1      -8.717   7.433  66.459  1.00  0.00    -0.149 C  
HETATM   14 CL   UNL     1      -8.963  11.030  62.980  1.00  0.00    -0.245 Cl 
HETATM   15  C   UNL     1      -8.350   7.478  65.148  1.00  0.00    -0.092 C  
HETATM   16  C   UNL     1      -9.070   9.966  64.419  1.00  0.00    -0.254 C  
HETATM   17  C   UNL     1      -8.426   8.617  64.118  1.00  0.00    -0.091 C  
BRANCH  13  18
HETATM   18  C   UNL     1      -9.153   8.661  67.192  1.00  0.00    -0.156 A  
HETATM   19  C   UNL     1      -8.179   9.508  67.750  1.00  0.00    -0.114 A  
HETATM   20  C   UNL     1      -8.542  10.653  68.465  1.00  0.00    -0.137 A  
HETATM   21  C   UNL     1     -10.866  10.136  68.083  1.00  0.00    -0.310 A  
HETATM   22  C   UNL     1      -9.888  10.977  68.615  1.00  0.00    -0.197 A  
HETATM   23  C   UNL     1     -10.503   8.969  67.398  1.00  0.00    -0.338 A  
ENDBRANCH  13  18
BRANCH  15  24
HETATM   24  C   UNL     1      -7.682   6.319  64.480  1.00  0.00    -0.106 A  
HETATM   25  C   UNL     1      -8.428   5.339  63.815  1.00  0.00    -0.096 A  
HETATM   26  C   UNL     1      -6.400   4.406  62.875  1.00  0.00    -0.022 A  
HETATM   27  C   UNL     1      -5.646   5.365  63.549  1.00  0.00    -0.014 A  
HETATM   28  C   UNL     1      -7.787   4.389  63.012  1.00  0.00    -0.067 A  
HETATM   29  C   UNL     1      -6.284   6.316  64.349  1.00  0.00    -0.030 A  
ENDBRANCH  15  24
ENDBRANCH  10  13
ENDBRANCH   6   7
ENDBRANCH   5   6
ENDBRANCH   4   5
ENDBRANCH   2   4
TORSDOF 7
ENDMDL
MODEL      130
REMARK 921   NORMALIZED FREE ENERGY PREDICTED BY IDOCK:   -3.07 KCAL/MOL
REMARK 922        TOTAL FREE ENERGY PREDICTED BY IDOCK:   -6.39 KCAL/MOL
REMARK 923 INTER-LIGAND FREE ENERGY PREDICTED BY IDOCK:   -4.40 KCAL/MOL
REMARK 924 INTRA-LIGAND FREE ENERGY PREDICTED BY IDOCK:   -1.99 KCAL/MOL
REMARK 927      BINDING AFFINITY PREDICTED BY RF-SCORE:    0.00 PKD
ROOT
HETATM    1  C   UNL     1      -8.425  15.433  69.142  1.00  0.00    -0.241 C  
HETATM    2  N   UNL     1      -8.265  14.914  67.782  1.00  0.00    -0.146 NA 
HETATM    3  C   UNL     1      -7.957  16.020  66.871  1.00  0.00    -0.248 C  
ENDROOT
BRANCH   2   4
HETATM    4  C   UNL     1      -7.231  13.849  67.747  1.00  0.00    -0.164 C  
BRANCH   4   5
HETATM    5  C   UNL     1      -7.546  12.736  66.728  1.00  0.00     0.335 C  
BRANCH   5   6
HETATM    6  O   UNL     1      -8.853  12.172  66.910  1.00  0.00    -0.192 OA 
BRANCH   6   7
HETATM    7  C   UNL     1      -8.855  10.858  67.329  1.00  0.00    -0.134 A  
HETATM    8  C   UNL     1      -7.831  10.254  68.069  1.00  0.00    -0.100 A  
HETATM    9  C   UNL     1      -7.847   8.881  68.325  1.00  0.00    -0.101 A  
HETATM   10  C   UNL     1      -8.882   8.078  67.842  1.00  0.00    -0.130 A  
HETATM   11  C   UNL     1      -9.967   8.695  67.200  1.00  0.00    -0.297 A  
HETATM   12  C   UNL     1      -9.950  10.078  66.948  1.00  0.00    -0.263 A  
BRANCH  10  13
HETATM   13  C   UNL     1      -8.711   6.590  67.822  1.00  0.00    -0.115 C  
HETATM   14 CL   UNL     1      -8.873   1.617  68.404  1.00  0.00    -0.114 Cl 
HETATM   15  C   UNL     1      -9.353   5.784  68.713  1.00  0.00    -0.135 C  
HETATM   16  C   UNL     1      -8.647   3.320  67.894  1.00  0.00    -0.097 C  
HETATM   17  C   UNL     1      -9.357   4.254  68.867  1.00  0.00    -0.222 C  
BRANCH  13  18
HETATM   18  C   UNL     1      -7.699   6.048  66.864  1.00  0.00    -0.100 A  
HETATM   19  C   UNL     1      -8.057   5.874  65.516  1.00  0.00    -0.131 A  
HETATM   20  C   UNL     1      -7.152   5.347  64.591  1.00  0.00    -0.054 A  
HETATM   21  C   UNL     1      -5.502   5.154  66.339  1.00  0.00    -0.013 A  
HETATM   22  C   UNL     1      -5.866   5.004  65.000  1.00  0.00    -0.017 A  
HETATM   23  C   UNL     1      -6.421   5.647  67.273  1.00  0.00    -0.044 A  
ENDBRANCH  13  18
BRANCH  15  24
HETATM   24  C   UNL     1     -10.172   6.345  69.831  1.00  0.00    -0.224 A  
HETATM   25  C   UNL     1     -11.568   6.412  69.742  1.00  0.00    -0.397 A  
HETATM   26  C   UNL     1     -11.708   6.990  72.090  1.00  0.00    -0.321 A  
HETATM   27  C   UNL     1     -10.318   6.948  72.184  1.00  0.00    -0.221 A  
HETATM   28  C   UNL     1     -12.331   6.730  70.871  1.00  0.00    -0.336 A  
HETATM   29  C   UNL     1      -9.554   6.627  71.059  1.00  0.00    -0.178 A  
ENDBRANCH  15  24
ENDBRANCH  10  13
ENDBRANCH   6   7
ENDBRANCH   5   6
ENDBRANCH   4   5
ENDBRANCH   2   4
TORSDOF 7
ENDMDL
MODEL      131
REMARK 921   NORMALIZED FREE ENERGY PREDICTED BY IDOCK:   -3.05 KCAL/MOL
REMARK 922        TOTAL FREE ENERGY PREDICTED BY IDOCK:   -6.36 KCAL/MOL
REMARK 923 INTER-LIGAND FREE ENERGY PREDICTED BY IDOCK:   -4.44 KCAL/MOL
REMARK 924 INTRA-LIGAND FREE ENERGY PREDICTED BY IDOCK:   -1.92 KCAL/MOL
REMARK 927      BINDING AFFINITY PREDICTED BY RF-SCORE:    0.00 PKD
ROOT
HETATM    1  C   UNL     1     -10.912   7.395  72.730  1.00  0.00    -0.339 C  
HETATM    2  N   UNL     1     -11.886   7.865  71.743  1.00  0.00    -0.280 NA 
HETATM    3  C   UNL     1     -12.718   8.913  72.339  1.00  0.00    -0.368 C  
ENDROOT
BRANCH   2   4
HETATM    4  C   UNL     1     -11.199   8.323  70.508  1.00  0.00    -0.239 C  
BRANCH   4   5
HETATM    5  C   UNL     1     -10.718   9.784  70.593  1.00  0.00    -0.326 C  
BRANCH   5   6
HETATM    6  O   UNL     1     -10.686  10.432  69.313  1.00  0.00    -0.205 OA 
BRANCH   6   7
HETATM    7  C   UNL     1     -10.022   9.726  68.332  1.00  0.00    -0.156 A  
HETATM    8  C   UNL     1     -10.637   9.109  67.236  1.00  0.00    -0.303 A  
HETATM    9  C   UNL     1      -9.906   8.291  66.370  1.00  0.00    -0.283 A  
HETATM   10  C   UNL     1      -8.545   8.066  66.582  1.00  0.00    -0.141 A  
HETATM   11  C   UNL     1      -7.900   8.773  67.610  1.00  0.00    -0.102 A  
HETATM   12  C   UNL     1      -8.637   9.598  68.477  1.00  0.00    -0.119 A  
BRANCH  10  13
HETATM   13  C   UNL     1      -7.866   6.936  65.871  1.00  0.00    -0.106 C  
HETATM   14 CL   UNL     1      -5.148   3.869  62.990  1.00  0.00    -0.005 Cl 
HETATM   15  C   UNL     1      -7.103   7.144  64.762  1.00  0.00    -0.068 C  
HETATM   16  C   UNL     1      -6.148   4.685  64.234  1.00  0.00    -0.022 C  
HETATM   17  C   UNL     1      -6.299   6.163  63.893  1.00  0.00    -0.029 C  
BRANCH  13  18
HETATM   18  C   UNL     1      -8.177   5.558  66.361  1.00  0.00    -0.106 A  
HETATM   19  C   UNL     1      -7.433   5.027  67.429  1.00  0.00    -0.083 A  
HETATM   20  C   UNL     1      -7.671   3.733  67.902  1.00  0.00    -0.070 A  
HETATM   21  C   UNL     1      -9.408   3.467  66.251  1.00  0.00    -0.157 A  
HETATM   22  C   UNL     1      -8.674   2.960  67.324  1.00  0.00    -0.140 A  
HETATM   23  C   UNL     1      -9.144   4.749  65.752  1.00  0.00    -0.142 A  
ENDBRANCH  13  18
BRANCH  15  24
HETATM   24  C   UNL     1      -6.994   8.493  64.126  1.00  0.00    -0.078 A  
HETATM   25  C   UNL     1      -5.819   9.246  64.224  1.00  0.00    -0.071 A  
HETATM   26  C   UNL     1      -6.659  10.807  62.573  1.00  0.00    -0.057 A  
HETATM   27  C   UNL     1      -7.842  10.077  62.484  1.00  0.00    -0.139 A  
HETATM   28  C   UNL     1      -5.652  10.397  63.446  1.00  0.00    -0.154 A  
HETATM   29  C   UNL     1      -8.009   8.926  63.257  1.00  0.00    -0.157 A  
ENDBRANCH  15  24
ENDBRANCH  10  13
ENDBRANCH   6   7
ENDBRANCH   5   6
ENDBRANCH   4   5
ENDBRANCH   2   4
TORSDOF 7
ENDMDL
MODEL      132
REMARK 921   NORMALIZED FREE ENERGY PREDICTED BY IDOCK:   -3.04 KCAL/MOL
REMARK 922        TOTAL FREE ENERGY PREDICTED BY IDOCK:   -6.35 KCAL/MOL
REMARK 923 INTER-LIGAND FREE ENERGY PREDICTED BY IDOCK:   -4.54 KCAL/MOL
REMARK 924 INTRA-LIGAND FREE ENERGY PREDICTED BY IDOCK:   -1.81 KCAL/MOL
REMARK 927      BINDING AFFINITY PREDICTED BY RF-SCORE:    0.00 PKD
ROOT
HETATM    1  C   UNL     1     -11.560  14.817  69.877  1.00  0.00    -0.286 C  
HETATM    2  N   UNL     1     -11.604  15.186  68.461  1.00  0.00    -0.325 NA 
HETATM    3  C   UNL     1     -10.321  15.775  68.070  1.00  0.00    -0.252 C  
ENDROOT
BRANCH   2   4
HETATM    4  C   UNL     1     -11.966  14.013  67.626  1.00  0.00    -0.368 C  
BRANCH   4   5
HETATM    5  C   UNL     1     -10.949  12.860  67.733  1.00  0.00    -0.243 C  
BRANCH   5   6
HETATM    6  O   UNL     1     -10.153  12.711  66.548  1.00  0.00    -0.238 OA 
BRANCH   6   7
HETATM    7  C   UNL     1      -9.756  11.417  66.286  1.00  0.00    -0.212 A  
HETATM    8  C   UNL     1     -10.557  10.283  66.467  1.00  0.00    -0.202 A  
HETATM    9  C   UNL     1     -10.026   8.999  66.317  1.00  0.00    -0.352 A  
HETATM   10  C   UNL     1      -8.682   8.818  65.987  1.00  0.00    -0.193 A  
HETATM   11  C   UNL     1      -7.905   9.950  65.691  1.00  0.00    -0.127 A  
HETATM   12  C   UNL     1      -8.443  11.240  65.840  1.00  0.00    -0.060 A  
BRANCH  10  13
HETATM   13  C   UNL     1      -8.054   7.471  66.169  1.00  0.00    -0.116 C  
HETATM   14 CL   UNL     1      -6.352   3.005  67.674  1.00  0.00    -0.035 Cl 
HETATM   15  C   UNL     1      -8.016   6.858  67.385  1.00  0.00    -0.112 C  
HETATM   16  C   UNL     1      -6.903   4.476  66.810  1.00  0.00    -0.052 C  
HETATM   17  C   UNL     1      -7.462   5.486  67.806  1.00  0.00    -0.080 C  
BRANCH  13  18
HETATM   18  C   UNL     1      -7.357   6.893  64.979  1.00  0.00    -0.086 A  
HETATM   19  C   UNL     1      -5.987   7.152  64.796  1.00  0.00    -0.037 A  
HETATM   20  C   UNL     1      -5.301   6.653  63.685  1.00  0.00    -0.027 A  
HETATM   21  C   UNL     1      -7.337   5.622  62.908  1.00  0.00    -0.054 A  
HETATM   22  C   UNL     1      -5.974   5.871  62.750  1.00  0.00    -0.025 A  
HETATM   23  C   UNL     1      -8.034   6.152  64.002  1.00  0.00    -0.110 A  
ENDBRANCH  13  18
BRANCH  15  24
HETATM   24  C   UNL     1      -8.493   7.544  68.625  1.00  0.00    -0.129 A  
HETATM   25  C   UNL     1      -9.630   7.096  69.307  1.00  0.00    -0.155 A  
HETATM   26  C   UNL     1      -9.115   8.561  71.166  1.00  0.00    -0.238 A  
HETATM   27  C   UNL     1      -7.992   9.030  70.486  1.00  0.00    -0.150 A  
HETATM   28  C   UNL     1      -9.935   7.602  70.576  1.00  0.00    -0.184 A  
HETATM   29  C   UNL     1      -7.683   8.524  69.221  1.00  0.00    -0.093 A  
ENDBRANCH  15  24
ENDBRANCH  10  13
ENDBRANCH   6   7
ENDBRANCH   5   6
ENDBRANCH   4   5
ENDBRANCH   2   4
TORSDOF 7
ENDMDL
MODEL      133
REMARK 921   NORMALIZED FREE ENERGY PREDICTED BY IDOCK:   -3.03 KCAL/MOL
REMARK 922        TOTAL FREE ENERGY PREDICTED BY IDOCK:   -6.33 KCAL/MOL
REMARK 923 INTER-LIGAND FREE ENERGY PREDICTED BY IDOCK:   -4.98 KCAL/MOL
REMARK 924 INTRA-LIGAND FREE ENERGY PREDICTED BY IDOCK:   -1.36 KCAL/MOL
REMARK 927      BINDING AFFINITY PREDICTED BY RF-SCORE:    0.00 PKD
ROOT
HETATM    1  C   UNL     1     -14.328   7.308  71.722  1.00  0.00    -0.402 C  
HETATM    2  N   UNL     1     -14.043   8.744  71.748  1.00  0.00    -0.411 NA 
HETATM    3  C   UNL     1     -12.798   8.981  72.485  1.00  0.00    -0.338 C  
ENDROOT
BRANCH   2   4
HETATM    4  C   UNL     1     -13.997   9.293  70.370  1.00  0.00     1.006 C  
BRANCH   4   5
HETATM    5  C   UNL     1     -13.086  10.530  70.244  1.00  0.00     0.034 C  
BRANCH   5   6
HETATM    6  O   UNL     1     -12.254  10.489  69.076  1.00  0.00    -0.272 OA 
BRANCH   6   7
HETATM    7  C   UNL     1     -11.369  11.542  68.967  1.00  0.00    -0.276 A  
HETATM    8  C   UNL     1     -11.655  12.866  69.320  1.00  0.00    -0.368 A  
HETATM    9  C   UNL     1     -10.751  13.894  69.041  1.00  0.00    -0.219 A  
HETATM   10  C   UNL     1      -9.542  13.623  68.398  1.00  0.00    -0.203 A  
HETATM   11  C   UNL     1      -9.200  12.285  68.147  1.00  0.00    -0.197 A  
HETATM   12  C   UNL     1     -10.110  11.253  68.433  1.00  0.00    -0.202 A  
BRANCH  10  13
HETATM   13  C   UNL     1      -8.757  14.751  67.803  1.00  0.00    -0.173 C  
HETATM   14 CL   UNL     1      -6.845  18.540  65.140  1.00  0.00    -0.046 Cl 
HETATM   15  C   UNL     1      -9.063  15.270  66.581  1.00  0.00    -0.312 C  
HETATM   16  C   UNL     1      -7.322  17.308  66.352  1.00  0.00    -0.301 C  
HETATM   17  C   UNL     1      -8.432  16.428  65.790  1.00  0.00     0.272 C  
BRANCH  13  18
HETATM   18  C   UNL     1      -7.542  15.188  68.557  1.00  0.00    -0.120 A  
HETATM   19  C   UNL     1      -6.390  14.383  68.525  1.00  0.00    -0.088 A  
HETATM   20  C   UNL     1      -5.240  14.740  69.235  1.00  0.00    -0.089 A  
HETATM   21  C   UNL     1      -6.363  16.721  70.028  1.00  0.00     0.022 A  
HETATM   22  C   UNL     1      -5.221  15.922  69.972  1.00  0.00    -0.131 A  
HETATM   23  C   UNL     1      -7.527  16.345  69.346  1.00  0.00    -0.122 A  
ENDBRANCH  13  18
BRANCH  15  24
HETATM   24  C   UNL     1     -10.125  14.668  65.717  1.00  0.00    -0.364 A  
HETATM   25  C   UNL     1     -11.196  15.437  65.247  1.00  0.00    -0.313 A  
HETATM   26  C   UNL     1     -11.854  13.642  63.759  1.00  0.00    -0.373 A  
HETATM   27  C   UNL     1     -10.804  12.860  64.236  1.00  0.00    -0.423 A  
HETATM   28  C   UNL     1     -12.054  14.924  64.267  1.00  0.00    -0.373 A  
HETATM   29  C   UNL     1      -9.944  13.371  65.211  1.00  0.00    -0.195 A  
ENDBRANCH  15  24
ENDBRANCH  10  13
ENDBRANCH   6   7
ENDBRANCH   5   6
ENDBRANCH   4   5
ENDBRANCH   2   4
TORSDOF 7
ENDMDL
MODEL      134
REMARK 921   NORMALIZED FREE ENERGY PREDICTED BY IDOCK:   -3.00 KCAL/MOL
REMARK 922        TOTAL FREE ENERGY PREDICTED BY IDOCK:   -6.28 KCAL/MOL
REMARK 923 INTER-LIGAND FREE ENERGY PREDICTED BY IDOCK:   -4.26 KCAL/MOL
REMARK 924 INTRA-LIGAND FREE ENERGY PREDICTED BY IDOCK:   -2.03 KCAL/MOL
REMARK 927      BINDING AFFINITY PREDICTED BY RF-SCORE:    0.00 PKD
ROOT
HETATM    1  C   UNL     1     -10.818  16.429  67.843  1.00  0.00    -0.328 C  
HETATM    2  N   UNL     1     -11.339  15.107  68.195  1.00  0.00    -0.322 NA 
HETATM    3  C   UNL     1     -12.161  15.212  69.404  1.00  0.00    -0.260 C  
ENDROOT
BRANCH   2   4
HETATM    4  C   UNL     1     -12.085  14.518  67.054  1.00  0.00    -0.273 C  
BRANCH   4   5
HETATM    5  C   UNL     1     -11.559  13.129  66.643  1.00  0.00    -0.356 C  
BRANCH   5   6
HETATM    6  O   UNL     1     -11.784  12.131  67.650  1.00  0.00    -0.386 OA 
BRANCH   6   7
HETATM    7  C   UNL     1     -10.798  11.169  67.729  1.00  0.00    -0.239 A  
HETATM    8  C   UNL     1      -9.864  10.896  66.723  1.00  0.00    -0.231 A  
HETATM    9  C   UNL     1      -8.995   9.807  66.827  1.00  0.00    -0.156 A  
HETATM   10  C   UNL     1      -9.043   8.962  67.938  1.00  0.00    -0.145 A  
HETATM   11  C   UNL     1      -9.897   9.297  69.000  1.00  0.00    -0.168 A  
HETATM   12  C   UNL     1     -10.767  10.396  68.894  1.00  0.00    -0.255 A  
BRANCH  10  13
HETATM   13  C   UNL     1      -8.365   7.628  67.876  1.00  0.00    -0.123 C  
HETATM   14 CL   UNL     1      -5.491   3.550  68.340  1.00  0.00    -0.013 Cl 
HETATM   15  C   UNL     1      -7.169   7.404  68.489  1.00  0.00    -0.087 C  
HETATM   16  C   UNL     1      -6.758   4.784  68.040  1.00  0.00    -0.054 C  
HETATM   17  C   UNL     1      -6.310   6.133  68.589  1.00  0.00    -0.041 C  
BRANCH  13  18
HETATM   18  C   UNL     1      -9.000   6.597  66.999  1.00  0.00    -0.120 A  
HETATM   19  C   UNL     1      -9.988   5.755  67.536  1.00  0.00    -0.171 A  
HETATM   20  C   UNL     1     -10.590   4.760  66.759  1.00  0.00    -0.064 A  
HETATM   21  C   UNL     1      -9.230   5.425  64.883  1.00  0.00     0.141 A  
HETATM   22  C   UNL     1     -10.223   4.609  65.425  1.00  0.00    -0.172 A  
HETATM   23  C   UNL     1      -8.601   6.397  65.671  1.00  0.00    -0.138 A  
ENDBRANCH  13  18
BRANCH  15  24
HETATM   24  C   UNL     1      -6.413   8.506  69.160  1.00  0.00    -0.043 A  
HETATM   25  C   UNL     1      -5.750   9.486  68.412  1.00  0.00    -0.040 A  
HETATM   26  C   UNL     1      -5.375  10.789  70.420  1.00  0.00    -0.074 A  
HETATM   27  C   UNL     1      -6.014   9.808  71.177  1.00  0.00    -0.058 A  
HETATM   28  C   UNL     1      -5.237  10.626  69.043  1.00  0.00    -0.041 A  
HETATM   29  C   UNL     1      -6.530   8.672  70.549  1.00  0.00    -0.038 A  
ENDBRANCH  15  24
ENDBRANCH  10  13
ENDBRANCH   6   7
ENDBRANCH   5   6
ENDBRANCH   4   5
ENDBRANCH   2   4
TORSDOF 7
ENDMDL
MODEL      135
REMARK 921   NORMALIZED FREE ENERGY PREDICTED BY IDOCK:   -2.95 KCAL/MOL
REMARK 922        TOTAL FREE ENERGY PREDICTED BY IDOCK:   -6.22 KCAL/MOL
REMARK 923 INTER-LIGAND FREE ENERGY PREDICTED BY IDOCK:   -5.89 KCAL/MOL
REMARK 924 INTRA-LIGAND FREE ENERGY PREDICTED BY IDOCK:   -0.34 KCAL/MOL
REMARK 927      BINDING AFFINITY PREDICTED BY RF-SCORE:    0.00 PKD
ROOT
HETATM    1  C   UNL     1     -12.729  11.860  63.199  1.00  0.00    -0.127 C  
HETATM    2  N   UNL     1     -11.797  12.018  64.317  1.00  0.00    -0.360 NA 
HETATM    3  C   UNL     1     -10.465  11.563  63.910  1.00  0.00    -0.385 C  
ENDROOT
BRANCH   2   4
HETATM    4  C   UNL     1     -11.792  13.423  64.799  1.00  0.00    -0.380 C  
BRANCH   4   5
HETATM    5  C   UNL     1     -12.954  13.734  65.762  1.00  0.00    -0.256 C  
BRANCH   5   6
HETATM    6  O   UNL     1     -12.506  14.059  67.086  1.00  0.00    -0.293 OA 
BRANCH   6   7
HETATM    7  C   UNL     1     -11.573  13.184  67.603  1.00  0.00    -0.349 A  
HETATM    8  C   UNL     1     -10.225  13.138  67.227  1.00  0.00    -0.243 A  
HETATM    9  C   UNL     1      -9.384  12.125  67.694  1.00  0.00    -0.187 A  
HETATM   10  C   UNL     1      -9.872  11.130  68.544  1.00  0.00    -0.199 A  
HETATM   11  C   UNL     1     -11.190  11.237  69.015  1.00  0.00    -0.321 A  
HETATM   12  C   UNL     1     -12.032  12.261  68.546  1.00  0.00    -0.272 A  
BRANCH  10  13
HETATM   13  C   UNL     1      -9.071   9.882  68.752  1.00  0.00    -0.147 C  
HETATM   14 CL   UNL     1      -5.662   6.327  69.667  1.00  0.00    -0.013 Cl 
HETATM   15  C   UNL     1      -7.723   9.921  68.944  1.00  0.00    -0.085 C  
HETATM   16  C   UNL     1      -7.116   7.339  69.392  1.00  0.00    -0.074 C  
HETATM   17  C   UNL     1      -6.708   8.795  69.203  1.00  0.00    -0.051 C  
BRANCH  13  18
HETATM   18  C   UNL     1      -9.803   8.587  68.604  1.00  0.00    -0.180 A  
HETATM   19  C   UNL     1      -9.995   8.052  67.319  1.00  0.00    -0.282 A  
HETATM   20  C   UNL     1     -10.696   6.857  67.132  1.00  0.00    -0.436 A  
HETATM   21  C   UNL     1     -11.032   6.699  69.515  1.00  0.00    -0.367 A  
HETATM   22  C   UNL     1     -11.198   6.170  68.235  1.00  0.00    -0.192 A  
HETATM   23  C   UNL     1     -10.362   7.915  69.699  1.00  0.00    -0.216 A  
ENDBRANCH  13  18
BRANCH  15  24
HETATM   24  C   UNL     1      -6.952  11.199  68.844  1.00  0.00    -0.095 A  
HETATM   25  C   UNL     1      -6.509  11.867  69.991  1.00  0.00     0.001 A  
HETATM   26  C   UNL     1      -5.150  13.341  68.630  1.00  0.00    -0.071 A  
HETATM   27  C   UNL     1      -5.603  12.696  67.480  1.00  0.00    -0.121 A  
HETATM   28  C   UNL     1      -5.607  12.932  69.882  1.00  0.00    -0.112 A  
HETATM   29  C   UNL     1      -6.500  11.630  67.587  1.00  0.00    -0.075 A  
ENDBRANCH  15  24
ENDBRANCH  10  13
ENDBRANCH   6   7
ENDBRANCH   5   6
ENDBRANCH   4   5
ENDBRANCH   2   4
TORSDOF 7
ENDMDL
MODEL      136
REMARK 921   NORMALIZED FREE ENERGY PREDICTED BY IDOCK:   -2.95 KCAL/MOL
REMARK 922        TOTAL FREE ENERGY PREDICTED BY IDOCK:   -6.22 KCAL/MOL
REMARK 923 INTER-LIGAND FREE ENERGY PREDICTED BY IDOCK:   -5.03 KCAL/MOL
REMARK 924 INTRA-LIGAND FREE ENERGY PREDICTED BY IDOCK:   -1.18 KCAL/MOL
REMARK 927      BINDING AFFINITY PREDICTED BY RF-SCORE:    0.00 PKD
ROOT
HETATM    1  C   UNL     1      -7.970   2.547  69.009  1.00  0.00    -0.048 C  
HETATM    2  N   UNL     1      -9.094   2.978  69.843  1.00  0.00    -0.111 NA 
HETATM    3  C   UNL     1      -9.620   1.829  70.586  1.00  0.00    -0.075 C  
ENDROOT
BRANCH   2   4
HETATM    4  C   UNL     1      -8.684   4.090  70.738  1.00  0.00    -0.073 C  
BRANCH   4   5
HETATM    5  C   UNL     1      -8.842   5.477  70.086  1.00  0.00    -0.136 C  
BRANCH   5   6
HETATM    6  O   UNL     1      -8.478   5.482  68.697  1.00  0.00    -0.103 OA 
BRANCH   6   7
HETATM    7  C   UNL     1      -8.638   6.699  68.069  1.00  0.00    -0.118 A  
HETATM    8  C   UNL     1      -7.870   7.840  68.330  1.00  0.00    -0.121 A  
HETATM    9  C   UNL     1      -8.195   9.071  67.754  1.00  0.00    -0.109 A  
HETATM   10  C   UNL     1      -9.299   9.191  66.907  1.00  0.00    -0.199 A  
HETATM   11  C   UNL     1     -10.002   8.029  66.551  1.00  0.00    -0.283 A  
HETATM   12  C   UNL     1      -9.670   6.792  67.130  1.00  0.00    -0.191 A  
BRANCH  10  13
HETATM   13  C   UNL     1      -9.832  10.552  66.583  1.00  0.00    -0.246 C  
HETATM   14 CL   UNL     1     -11.331  14.894  64.583  1.00  0.00    -0.380 Cl 
HETATM   15  C   UNL     1      -9.624  11.131  65.367  1.00  0.00    -0.266 C  
HETATM   16  C   UNL     1     -11.019  13.423  65.559  1.00  0.00    -0.283 C  
HETATM   17  C   UNL     1     -10.089  12.483  64.802  1.00  0.00    -0.251 C  
BRANCH  13  18
HETATM   18  C   UNL     1     -10.488  11.295  67.702  1.00  0.00    -0.225 A  
HETATM   19  C   UNL     1      -9.897  12.479  68.177  1.00  0.00    -0.221 A  
HETATM   20  C   UNL     1     -10.462  13.192  69.238  1.00  0.00     0.183 A  
HETATM   21  C   UNL     1     -12.228  11.557  69.377  1.00  0.00    -0.273 A  
HETATM   22  C   UNL     1     -11.640  12.740  69.826  1.00  0.00    -0.288 A  
HETATM   23  C   UNL     1     -11.643  10.822  68.338  1.00  0.00    -0.311 A  
ENDBRANCH  13  18
BRANCH  15  24
HETATM   24  C   UNL     1      -8.755  10.492  64.332  1.00  0.00    -0.187 A  
HETATM   25  C   UNL     1      -7.380  10.332  64.539  1.00  0.00    -0.076 A  
HETATM   26  C   UNL     1      -7.231   8.913  62.582  1.00  0.00    -0.095 A  
HETATM   27  C   UNL     1      -8.595   9.083  62.353  1.00  0.00    -0.220 A  
HETATM   28  C   UNL     1      -6.624   9.540  63.668  1.00  0.00    -0.104 A  
HETATM   29  C   UNL     1      -9.354   9.870  63.224  1.00  0.00    -0.221 A  
ENDBRANCH  15  24
ENDBRANCH  10  13
ENDBRANCH   6   7
ENDBRANCH   5   6
ENDBRANCH   4   5
ENDBRANCH   2   4
TORSDOF 7
ENDMDL
MODEL      137
REMARK 921   NORMALIZED FREE ENERGY PREDICTED BY IDOCK:   -2.81 KCAL/MOL
REMARK 922        TOTAL FREE ENERGY PREDICTED BY IDOCK:   -6.02 KCAL/MOL
REMARK 923 INTER-LIGAND FREE ENERGY PREDICTED BY IDOCK:   -4.72 KCAL/MOL
REMARK 924 INTRA-LIGAND FREE ENERGY PREDICTED BY IDOCK:   -1.30 KCAL/MOL
REMARK 927      BINDING AFFINITY PREDICTED BY RF-SCORE:    0.00 PKD
ROOT
HETATM    1  C   UNL     1      -8.638   3.156  67.595  1.00  0.00    -0.100 C  
HETATM    2  N   UNL     1      -8.611   4.185  68.637  1.00  0.00    -0.091 NA 
HETATM    3  C   UNL     1      -8.316   3.563  69.930  1.00  0.00    -0.052 C  
ENDROOT
BRANCH   2   4
HETATM    4  C   UNL     1      -7.642   5.255  68.289  1.00  0.00    -0.080 C  
BRANCH   4   5
HETATM    5  C   UNL     1      -8.232   6.321  67.346  1.00  0.00    -0.109 C  
BRANCH   5   6
HETATM    6  O   UNL     1      -7.269   7.310  66.955  1.00  0.00    -0.083 OA 
BRANCH   6   7
HETATM    7  C   UNL     1      -7.733   8.608  67.003  1.00  0.00    -0.095 A  
HETATM    8  C   UNL     1      -8.980   8.994  67.509  1.00  0.00    -0.131 A  
HETATM    9  C   UNL     1      -9.428  10.311  67.385  1.00  0.00    -0.174 A  
HETATM   10  C   UNL     1      -8.642  11.273  66.747  1.00  0.00    -0.159 A  
HETATM   11  C   UNL     1      -7.346  10.920  66.342  1.00  0.00    -0.141 A  
HETATM   12  C   UNL     1      -6.896   9.594  66.472  1.00  0.00    -0.084 A  
BRANCH  10  13
HETATM   13  C   UNL     1      -9.266  12.566  66.319  1.00  0.00    -0.133 C  
HETATM   14 CL   UNL     1     -10.583  17.299  65.338  1.00  0.00    -0.200 Cl 
HETATM   15  C   UNL     1      -8.807  13.766  66.772  1.00  0.00    -0.156 C  
HETATM   16  C   UNL     1     -10.328  15.526  65.420  1.00  0.00    -0.394 C  
HETATM   17  C   UNL     1      -9.259  15.202  66.457  1.00  0.00    -0.318 C  
BRANCH  13  18
HETATM   18  C   UNL     1     -10.497  12.465  65.477  1.00  0.00    -0.304 A  
HETATM   19  C   UNL     1     -10.375  12.094  64.127  1.00  0.00    -0.382 A  
HETATM   20  C   UNL     1     -11.496  12.012  63.296  1.00  0.00    -0.398 A  
HETATM   21  C   UNL     1     -12.895  12.671  65.146  1.00  0.00    -0.135 A  
HETATM   22  C   UNL     1     -12.761  12.283  63.813  1.00  0.00    -0.516 A  
HETATM   23  C   UNL     1     -11.768  12.789  65.969  1.00  0.00    -0.470 A  
ENDBRANCH  13  18
BRANCH  15  24
HETATM   24  C   UNL     1      -7.734  13.856  67.809  1.00  0.00    -0.177 A  
HETATM   25  C   UNL     1      -7.812  13.119  68.997  1.00  0.00     0.233 A  
HETATM   26  C   UNL     1      -5.522  13.702  69.531  1.00  0.00    -0.087 A  
HETATM   27  C   UNL     1      -5.440  14.455  68.361  1.00  0.00    -0.108 A  
HETATM   28  C   UNL     1      -6.707  13.041  69.851  1.00  0.00     0.233 A  
HETATM   29  C   UNL     1      -6.542  14.532  67.505  1.00  0.00    -0.106 A  
ENDBRANCH  15  24
ENDBRANCH  10  13
ENDBRANCH   6   7
ENDBRANCH   5   6
ENDBRANCH   4   5
ENDBRANCH   2   4
TORSDOF 7
ENDMDL
MODEL      138
REMARK 921   NORMALIZED FREE ENERGY PREDICTED BY IDOCK:   -2.64 KCAL/MOL
REMARK 922        TOTAL FREE ENERGY PREDICTED BY IDOCK:   -5.78 KCAL/MOL
REMARK 923 INTER-LIGAND FREE ENERGY PREDICTED BY IDOCK:   -4.27 KCAL/MOL
REMARK 924 INTRA-LIGAND FREE ENERGY PREDICTED BY IDOCK:   -1.52 KCAL/MOL
REMARK 927      BINDING AFFINITY PREDICTED BY RF-SCORE:    0.00 PKD
ROOT
HETATM    1  C   UNL     1      -6.423  18.617  69.607  1.00  0.00    -0.175 C  
HETATM    2  N   UNL     1      -5.403  18.698  70.654  1.00  0.00    -0.244 NA 
HETATM    3  C   UNL     1      -5.754  19.762  71.598  1.00  0.00    -0.314 C  
ENDROOT
BRANCH   2   4
HETATM    4  C   UNL     1      -5.234  17.383  71.323  1.00  0.00    -0.042 C  
BRANCH   4   5
HETATM    5  C   UNL     1      -5.127  16.210  70.328  1.00  0.00    -0.160 C  
BRANCH   5   6
HETATM    6  O   UNL     1      -6.029  15.137  70.636  1.00  0.00    -0.118 OA 
BRANCH   6   7
HETATM    7  C   UNL     1      -7.003  14.920  69.684  1.00  0.00    -0.184 A  
HETATM    8  C   UNL     1      -8.380  14.917  69.935  1.00  0.00     0.309 A  
HETATM    9  C   UNL     1      -9.290  14.543  68.942  1.00  0.00    -0.136 A  
HETATM   10  C   UNL     1      -8.844  14.157  67.677  1.00  0.00    -0.194 A  
HETATM   11  C   UNL     1      -7.475  14.269  67.385  1.00  0.00    -0.172 A  
HETATM   12  C   UNL     1      -6.563  14.649  68.385  1.00  0.00    -0.102 A  
BRANCH  10  13
HETATM   13  C   UNL     1      -9.779  13.439  66.754  1.00  0.00    -0.262 C  
HETATM   14 CL   UNL     1     -13.138  11.938  63.353  1.00  0.00    -0.349 Cl 
HETATM   15  C   UNL     1     -10.699  14.109  66.005  1.00  0.00    -0.299 C  
HETATM   16  C   UNL     1     -11.818  12.142  64.549  1.00  0.00    -0.343 C  
HETATM   17  C   UNL     1     -11.729  13.601  64.982  1.00  0.00    -0.354 C  
BRANCH  13  18
HETATM   18  C   UNL     1      -9.743  11.945  66.798  1.00  0.00    -0.218 A  
HETATM   19  C   UNL     1      -8.819  11.259  65.991  1.00  0.00    -0.189 A  
HETATM   20  C   UNL     1      -8.768   9.862  65.981  1.00  0.00    -0.152 A  
HETATM   21  C   UNL     1     -10.565   9.799  67.587  1.00  0.00    -0.333 A  
HETATM   22  C   UNL     1      -9.630   9.132  66.796  1.00  0.00    -0.253 A  
HETATM   23  C   UNL     1     -10.642  11.198  67.570  1.00  0.00    -0.258 A  
ENDBRANCH  13  18
BRANCH  15  24
HETATM   24  C   UNL     1     -10.903  15.583  66.146  1.00  0.00    -0.295 A  
HETATM   25  C   UNL     1     -11.355  16.139  67.349  1.00  0.00     0.061 A  
HETATM   26  C   UNL     1     -10.864  18.364  66.527  1.00  0.00    -0.066 A  
HETATM   27  C   UNL     1     -10.433  17.823  65.317  1.00  0.00     0.315 A  
HETATM   28  C   UNL     1     -11.330  17.525  67.537  1.00  0.00     0.480 A  
HETATM   29  C   UNL     1     -10.453  16.439  65.128  1.00  0.00    -0.218 A  
ENDBRANCH  15  24
ENDBRANCH  10  13
ENDBRANCH   6   7
ENDBRANCH   5   6
ENDBRANCH   4   5
ENDBRANCH   2   4
TORSDOF 7
ENDMDL
MODEL      139
REMARK 921   NORMALIZED FREE ENERGY PREDICTED BY IDOCK:   -2.57 KCAL/MOL
REMARK 922        TOTAL FREE ENERGY PREDICTED BY IDOCK:   -5.69 KCAL/MOL
REMARK 923 INTER-LIGAND FREE ENERGY PREDICTED BY IDOCK:   -4.08 KCAL/MOL
REMARK 924 INTRA-LIGAND FREE ENERGY PREDICTED BY IDOCK:   -1.61 KCAL/MOL
REMARK 927      BINDING AFFINITY PREDICTED BY RF-SCORE:    0.00 PKD
ROOT
HETATM    1  C   UNL     1     -14.214  12.251  72.623  1.00  0.00     0.976 C  
HETATM    2  N   UNL     1     -12.962  12.097  71.880  1.00  0.00    -0.362 NA 
HETATM    3  C   UNL     1     -12.825  10.708  71.436  1.00  0.00    -0.451 C  
ENDROOT
BRANCH   2   4
HETATM    4  C   UNL     1     -12.901  13.061  70.752  1.00  0.00    -0.074 C  
BRANCH   4   5
HETATM    5  C   UNL     1     -11.748  12.770  69.772  1.00  0.00    -0.282 C  
BRANCH   5   6
HETATM    6  O   UNL     1     -12.192  12.120  68.572  1.00  0.00    -0.293 OA 
BRANCH   6   7
HETATM    7  C   UNL     1     -11.183  11.544  67.828  1.00  0.00    -0.279 A  
HETATM    8  C   UNL     1     -11.294  11.171  66.483  1.00  0.00    -0.034 A  
HETATM    9  C   UNL     1     -10.271  10.461  65.849  1.00  0.00    -0.302 A  
HETATM   10  C   UNL     1      -9.115  10.102  66.546  1.00  0.00    -0.166 A  
HETATM   11  C   UNL     1      -8.949  10.573  67.858  1.00  0.00    -0.137 A  
HETATM   12  C   UNL     1      -9.979  11.290  68.492  1.00  0.00    -0.206 A  
BRANCH  10  13
HETATM   13  C   UNL     1      -8.203   9.063  65.971  1.00  0.00    -0.113 C  
HETATM   14 CL   UNL     1      -5.682   4.961  64.586  1.00  0.00    -0.017 Cl 
HETATM   15  C   UNL     1      -8.204   7.779  66.427  1.00  0.00    -0.116 C  
HETATM   16  C   UNL     1      -6.445   6.570  64.789  1.00  0.00    -0.041 C  
HETATM   17  C   UNL     1      -7.393   6.551  65.982  1.00  0.00    -0.080 C  
BRANCH  13  18
HETATM   18  C   UNL     1      -7.201   9.536  64.967  1.00  0.00    -0.110 A  
HETATM   19  C   UNL     1      -7.377   9.201  63.614  1.00  0.00    -0.100 A  
HETATM   20  C   UNL     1      -6.452   9.600  62.645  1.00  0.00    -0.101 A  
HETATM   21  C   UNL     1      -5.148  10.685  64.359  1.00  0.00    -0.153 A  
HETATM   22  C   UNL     1      -5.346  10.360  63.017  1.00  0.00    -0.144 A  
HETATM   23  C   UNL     1      -6.056  10.253  65.335  1.00  0.00    -0.120 A  
ENDBRANCH  13  18
BRANCH  15  24
HETATM   24  C   UNL     1      -9.031   7.364  67.602  1.00  0.00    -0.126 A  
HETATM   25  C   UNL     1     -10.354   6.936  67.439  1.00  0.00    -0.297 A  
HETATM   26  C   UNL     1     -10.413   6.184  69.742  1.00  0.00    -0.299 A  
HETATM   27  C   UNL     1      -9.103   6.627  69.920  1.00  0.00    -0.143 A  
HETATM   28  C   UNL     1     -11.039   6.345  68.507  1.00  0.00    -0.385 A  
HETATM   29  C   UNL     1      -8.416   7.214  68.855  1.00  0.00    -0.126 A  
ENDBRANCH  15  24
ENDBRANCH  10  13
ENDBRANCH   6   7
ENDBRANCH   5   6
ENDBRANCH   4   5
ENDBRANCH   2   4
TORSDOF 7
ENDMDL
MODEL      140
REMARK 921   NORMALIZED FREE ENERGY PREDICTED BY IDOCK:   -2.55 KCAL/MOL
REMARK 922        TOTAL FREE ENERGY PREDICTED BY IDOCK:   -5.66 KCAL/MOL
REMARK 923 INTER-LIGAND FREE ENERGY PREDICTED BY IDOCK:   -4.32 KCAL/MOL
REMARK 924 INTRA-LIGAND FREE ENERGY PREDICTED BY IDOCK:   -1.34 KCAL/MOL
REMARK 927      BINDING AFFINITY PREDICTED BY RF-SCORE:    0.00 PKD
ROOT
HETATM    1  C   UNL     1     -12.044   6.816  71.945  1.00  0.00    -0.334 C  
HETATM    2  N   UNL     1     -11.630   8.219  71.880  1.00  0.00    -0.293 NA 
HETATM    3  C   UNL     1     -10.190   8.315  72.134  1.00  0.00    -0.285 C  
ENDROOT
BRANCH   2   4
HETATM    4  C   UNL     1     -12.014   8.817  70.576  1.00  0.00     0.044 C  
BRANCH   4   5
HETATM    5  C   UNL     1     -11.656  10.312  70.470  1.00  0.00    -0.338 C  
BRANCH   5   6
HETATM    6  O   UNL     1     -10.743  10.589  69.398  1.00  0.00    -0.211 OA 
BRANCH   6   7
HETATM    7  C   UNL     1     -10.532  11.932  69.160  1.00  0.00     0.002 A  
HETATM    8  C   UNL     1     -11.297  12.970  69.706  1.00  0.00    -0.114 A  
HETATM    9  C   UNL     1     -11.106  14.292  69.296  1.00  0.00    -0.297 A  
HETATM   10  C   UNL     1     -10.151  14.607  68.328  1.00  0.00    -0.228 A  
HETATM   11  C   UNL     1      -9.305  13.588  67.864  1.00  0.00    -0.215 A  
HETATM   12  C   UNL     1      -9.497  12.259  68.281  1.00  0.00    -0.209 A  
BRANCH  10  13
HETATM   13  C   UNL     1     -10.197  15.945  67.658  1.00  0.00    -0.263 C  
HETATM   14 CL   UNL     1     -10.927  19.970  64.765  1.00  0.00     0.704 Cl 
HETATM   15  C   UNL     1     -10.747  16.109  66.423  1.00  0.00    -0.211 C  
HETATM   16  C   UNL     1     -10.576  18.767  66.047  1.00  0.00    -0.386 C  
HETATM   17  C   UNL     1     -10.933  17.368  65.560  1.00  0.00     0.133 C  
BRANCH  13  18
HETATM   18  C   UNL     1      -9.490  17.064  68.354  1.00  0.00    -0.269 A  
HETATM   19  C   UNL     1     -10.247  18.092  68.942  1.00  0.00    -0.304 A  
HETATM   20  C   UNL     1      -9.628  19.171  69.580  1.00  0.00     0.059 A  
HETATM   21  C   UNL     1      -7.473  18.220  69.061  1.00  0.00    -0.189 A  
HETATM   22  C   UNL     1      -8.238  19.224  69.656  1.00  0.00     0.389 A  
HETATM   23  C   UNL     1      -8.093  17.159  68.389  1.00  0.00    -0.255 A  
ENDBRANCH  13  18
BRANCH  15  24
HETATM   24  C   UNL     1     -11.232  14.944  65.619  1.00  0.00    -0.347 A  
HETATM   25  C   UNL     1     -12.599  14.661  65.508  1.00  0.00    -0.106 A  
HETATM   26  C   UNL     1     -12.139  13.037  63.771  1.00  0.00    -0.574 A  
HETATM   27  C   UNL     1     -10.775  13.295  63.889  1.00  0.00    -0.131 A  
HETATM   28  C   UNL     1     -13.049  13.712  64.583  1.00  0.00     0.287 A  
HETATM   29  C   UNL     1     -10.324  14.244  64.809  1.00  0.00    -0.373 A  
ENDBRANCH  15  24
ENDBRANCH  10  13
ENDBRANCH   6   7
ENDBRANCH   5   6
ENDBRANCH   4   5
ENDBRANCH   2   4
TORSDOF 7
ENDMDL
MODEL      141
REMARK 921   NORMALIZED FREE ENERGY PREDICTED BY IDOCK:   -2.55 KCAL/MOL
REMARK 922        TOTAL FREE ENERGY PREDICTED BY IDOCK:   -5.65 KCAL/MOL
REMARK 923 INTER-LIGAND FREE ENERGY PREDICTED BY IDOCK:   -4.40 KCAL/MOL
REMARK 924 INTRA-LIGAND FREE ENERGY PREDICTED BY IDOCK:   -1.25 KCAL/MOL
REMARK 927      BINDING AFFINITY PREDICTED BY RF-SCORE:    0.00 PKD
ROOT
HETATM    1  C   UNL     1     -10.623   1.467  72.404  1.00  0.00    -0.146 C  
HETATM    2  N   UNL     1     -11.595   2.414  72.952  1.00  0.00     0.252 NA 
HETATM    3  C   UNL     1     -12.578   1.691  73.764  1.00  0.00     0.144 C  
ENDROOT
BRANCH   2   4
HETATM    4  C   UNL     1     -10.908   3.485  73.718  1.00  0.00    -0.232 C  
BRANCH   4   5
HETATM    5  C   UNL     1     -10.566   4.717  72.858  1.00  0.00    -0.218 C  
BRANCH   5   6
HETATM    6  O   UNL     1     -11.734   5.417  72.404  1.00  0.00    -0.185 OA 
BRANCH   6   7
HETATM    7  C   UNL     1     -11.468   6.559  71.677  1.00  0.00    -0.297 A  
HETATM    8  C   UNL     1     -11.592   6.669  70.287  1.00  0.00    -0.454 A  
HETATM    9  C   UNL     1     -11.163   7.818  69.618  1.00  0.00     0.041 A  
HETATM   10  C   UNL     1     -10.594   8.882  70.322  1.00  0.00    -0.246 A  
HETATM   11  C   UNL     1     -10.574   8.824  71.724  1.00  0.00    -0.417 A  
HETATM   12  C   UNL     1     -11.010   7.668  72.395  1.00  0.00    -0.353 A  
BRANCH  10  13
HETATM   13  C   UNL     1      -9.834   9.935  69.576  1.00  0.00    -0.241 C  
HETATM   14 CL   UNL     1      -6.508  12.910  67.299  1.00  0.00    -0.125 Cl 
HETATM   15  C   UNL     1      -8.472   9.972  69.579  1.00  0.00    -0.186 C  
HETATM   16  C   UNL     1      -7.934  12.010  67.907  1.00  0.00    -0.147 C  
HETATM   17  C   UNL     1      -7.488  10.922  68.877  1.00  0.00    -0.116 C  
BRANCH  13  18
HETATM   18  C   UNL     1     -10.645  11.017  68.939  1.00  0.00    -0.239 A  
HETATM   19  C   UNL     1     -10.937  10.937  67.566  1.00  0.00    -0.352 A  
HETATM   20  C   UNL     1     -11.670  11.940  66.925  1.00  0.00    -0.291 A  
HETATM   21  C   UNL     1     -11.842  13.131  69.014  1.00  0.00    -0.358 A  
HETATM   22  C   UNL     1     -12.139  13.029  67.655  1.00  0.00    -0.262 A  
HETATM   23  C   UNL     1     -11.076  12.145  69.650  1.00  0.00    -0.046 A  
ENDBRANCH  13  18
BRANCH  15  24
HETATM   24  C   UNL     1      -7.664   9.036  70.419  1.00  0.00    -0.110 A  
HETATM   25  C   UNL     1      -6.845   8.063  69.834  1.00  0.00    -0.041 A  
HETATM   26  C   UNL     1      -5.837   7.591  71.986  1.00  0.00    -0.036 A  
HETATM   27  C   UNL     1      -6.662   8.542  72.582  1.00  0.00    -0.077 A  
HETATM   28  C   UNL     1      -5.932   7.347  70.617  1.00  0.00    -0.031 A  
HETATM   29  C   UNL     1      -7.572   9.261  71.802  1.00  0.00     0.368 A  
ENDBRANCH  15  24
ENDBRANCH  10  13
ENDBRANCH   6   7
ENDBRANCH   5   6
ENDBRANCH   4   5
ENDBRANCH   2   4
TORSDOF 7
ENDMDL
MODEL      142
REMARK 921   NORMALIZED FREE ENERGY PREDICTED BY IDOCK:   -2.52 KCAL/MOL
REMARK 922        TOTAL FREE ENERGY PREDICTED BY IDOCK:   -5.61 KCAL/MOL
REMARK 923 INTER-LIGAND FREE ENERGY PREDICTED BY IDOCK:   -5.16 KCAL/MOL
REMARK 924 INTRA-LIGAND FREE ENERGY PREDICTED BY IDOCK:   -0.45 KCAL/MOL
REMARK 927      BINDING AFFINITY PREDICTED BY RF-SCORE:    0.00 PKD
ROOT
HETATM    1  C   UNL     1     -13.355  15.208  73.472  1.00  0.00    -0.043 C  
HETATM    2  N   UNL     1     -13.085  14.688  72.130  1.00  0.00    -0.325 NA 
HETATM    3  C   UNL     1     -13.717  13.375  71.978  1.00  0.00    -0.451 C  
ENDROOT
BRANCH   2   4
HETATM    4  C   UNL     1     -13.535  15.654  71.095  1.00  0.00    -0.297 C  
BRANCH   4   5
HETATM    5  C   UNL     1     -12.475  15.905  70.004  1.00  0.00    -0.024 C  
BRANCH   5   6
HETATM    6  O   UNL     1     -11.168  15.451  70.385  1.00  0.00    -0.272 OA 
BRANCH   6   7
HETATM    7  C   UNL     1     -10.606  14.536  69.519  1.00  0.00    -0.107 A  
HETATM    8  C   UNL     1      -9.498  14.786  68.701  1.00  0.00    -0.213 A  
HETATM    9  C   UNL     1      -9.085  13.852  67.748  1.00  0.00    -0.191 A  
HETATM   10  C   UNL     1      -9.773  12.648  67.587  1.00  0.00    -0.197 A  
HETATM   11  C   UNL     1     -10.812  12.343  68.481  1.00  0.00    -0.270 A  
HETATM   12  C   UNL     1     -11.222  13.284  69.441  1.00  0.00    -0.220 A  
BRANCH  10  13
HETATM   13  C   UNL     1      -9.542  11.828  66.355  1.00  0.00    -0.234 C  
HETATM   14 CL   UNL     1      -8.123   8.603  62.793  1.00  0.00    -0.169 Cl 
HETATM   15  C   UNL     1      -8.523  10.928  66.276  1.00  0.00    -0.166 C  
HETATM   16  C   UNL     1      -8.917   9.802  63.864  1.00  0.00    -0.243 C  
HETATM   17  C   UNL     1      -8.111   9.968  65.147  1.00  0.00    -0.144 C  
BRANCH  13  18
HETATM   18  C   UNL     1     -10.402  12.143  65.173  1.00  0.00    -0.311 A  
HETATM   19  C   UNL     1     -10.605  13.487  64.813  1.00  0.00    -0.429 A  
HETATM   20  C   UNL     1     -11.422  13.828  63.731  1.00  0.00    -0.008 A  
HETATM   21  C   UNL     1     -11.855  11.488  63.339  1.00  0.00    -0.161 A  
HETATM   22  C   UNL     1     -12.032  12.825  62.981  1.00  0.00    -0.095 A  
HETATM   23  C   UNL     1     -11.066  11.147  64.445  1.00  0.00    -0.175 A  
ENDBRANCH  13  18
BRANCH  15  24
HETATM   24  C   UNL     1      -7.510  10.790  67.367  1.00  0.00    -0.098 A  
HETATM   25  C   UNL     1      -7.818  10.126  68.560  1.00  0.00    -0.095 A  
HETATM   26  C   UNL     1      -5.484  10.166  69.207  1.00  0.00    -0.038 A  
HETATM   27  C   UNL     1      -5.170  10.847  68.033  1.00  0.00    -0.036 A  
HETATM   28  C   UNL     1      -6.806   9.813  69.474  1.00  0.00    -0.060 A  
HETATM   29  C   UNL     1      -6.178  11.158  67.117  1.00  0.00    -0.083 A  
ENDBRANCH  15  24
ENDBRANCH  10  13
ENDBRANCH   6   7
ENDBRANCH   5   6
ENDBRANCH   4   5
ENDBRANCH   2   4
TORSDOF 7
ENDMDL
MODEL      143
REMARK 921   NORMALIZED FREE ENERGY PREDICTED BY IDOCK:   -2.44 KCAL/MOL
REMARK 922        TOTAL FREE ENERGY PREDICTED BY IDOCK:   -5.51 KCAL/MOL
REMARK 923 INTER-LIGAND FREE ENERGY PREDICTED BY IDOCK:   -3.72 KCAL/MOL
REMARK 924 INTRA-LIGAND FREE ENERGY PREDICTED BY IDOCK:   -1.79 KCAL/MOL
REMARK 927      BINDING AFFINITY PREDICTED BY RF-SCORE:    0.00 PKD
ROOT
HETATM    1  C   UNL     1     -11.570   1.470  63.478  1.00  0.00     0.342 C  
HETATM    2  N   UNL     1     -10.563   2.530  63.404  1.00  0.00    -0.200 NA 
HETATM    3  C   UNL     1     -11.119   3.771  63.951  1.00  0.00     0.099 C  
ENDROOT
BRANCH   2   4
HETATM    4  C   UNL     1      -9.316   2.116  64.097  1.00  0.00    -0.129 C  
BRANCH   4   5
HETATM    5  C   UNL     1      -9.159   2.757  65.489  1.00  0.00    -0.137 C  
BRANCH   5   6
HETATM    6  O   UNL     1      -7.962   3.541  65.606  1.00  0.00    -0.091 OA 
BRANCH   6   7
HETATM    7  C   UNL     1      -8.162   4.903  65.528  1.00  0.00    -0.116 A  
HETATM    8  C   UNL     1      -7.284   5.806  64.915  1.00  0.00    -0.066 A  
HETATM    9  C   UNL     1      -7.492   7.184  65.009  1.00  0.00    -0.093 A  
HETATM   10  C   UNL     1      -8.578   7.693  65.723  1.00  0.00    -0.156 A  
HETATM   11  C   UNL     1      -9.523   6.793  66.241  1.00  0.00    -0.116 A  
HETATM   12  C   UNL     1      -9.313   5.406  66.141  1.00  0.00    -0.167 A  
BRANCH  10  13
HETATM   13  C   UNL     1      -8.594   9.141  66.105  1.00  0.00    -0.149 C  
HETATM   14 CL   UNL     1      -8.161  13.682  68.177  1.00  0.00    -0.146 Cl 
HETATM   15  C   UNL     1      -8.196   9.561  67.338  1.00  0.00    -0.114 C  
HETATM   16  C   UNL     1      -8.371  12.238  67.136  1.00  0.00    -0.183 C  
HETATM   17  C   UNL     1      -8.098  10.972  67.940  1.00  0.00    -0.114 C  
BRANCH  13  18
HETATM   18  C   UNL     1      -9.193  10.086  65.113  1.00  0.00    -0.273 A  
HETATM   19  C   UNL     1     -10.520  10.517  65.292  1.00  0.00    -0.232 A  
HETATM   20  C   UNL     1     -11.128  11.379  64.376  1.00  0.00    -0.329 A  
HETATM   21  C   UNL     1      -9.098  11.405  63.075  1.00  0.00    -0.218 A  
HETATM   22  C   UNL     1     -10.409  11.839  63.276  1.00  0.00    -0.446 A  
HETATM   23  C   UNL     1      -8.500  10.512  63.973  1.00  0.00    -0.118 A  
ENDBRANCH  13  18
BRANCH  15  24
HETATM   24  C   UNL     1      -7.831   8.592  68.417  1.00  0.00    -0.106 A  
HETATM   25  C   UNL     1      -8.735   8.269  69.435  1.00  0.00    -0.142 A  
HETATM   26  C   UNL     1      -7.295   6.464  70.167  1.00  0.00    -0.086 A  
HETATM   27  C   UNL     1      -6.377   6.791  69.170  1.00  0.00    -0.035 A  
HETATM   28  C   UNL     1      -8.467   7.204  70.304  1.00  0.00    -0.138 A  
HETATM   29  C   UNL     1      -6.644   7.850  68.300  1.00  0.00    -0.059 A  
ENDBRANCH  15  24
ENDBRANCH  10  13
ENDBRANCH   6   7
ENDBRANCH   5   6
ENDBRANCH   4   5
ENDBRANCH   2   4
TORSDOF 7
ENDMDL
MODEL      144
REMARK 921   NORMALIZED FREE ENERGY PREDICTED BY IDOCK:   -2.31 KCAL/MOL
REMARK 922        TOTAL FREE ENERGY PREDICTED BY IDOCK:   -5.32 KCAL/MOL
REMARK 923 INTER-LIGAND FREE ENERGY PREDICTED BY IDOCK:   -4.01 KCAL/MOL
REMARK 924 INTRA-LIGAND FREE ENERGY PREDICTED BY IDOCK:   -1.31 KCAL/MOL
REMARK 927      BINDING AFFINITY PREDICTED BY RF-SCORE:    0.00 PKD
ROOT
HETATM    1  C   UNL     1      -6.811   4.866  63.018  1.00  0.00    -0.034 C  
HETATM    2  N   UNL     1      -6.750   3.502  63.547  1.00  0.00    -0.034 NA 
HETATM    3  C   UNL     1      -5.672   2.767  62.882  1.00  0.00    -0.009 C  
ENDROOT
BRANCH   2   4
HETATM    4  C   UNL     1      -6.594   3.521  65.024  1.00  0.00    -0.040 C  
BRANCH   4   5
HETATM    5  C   UNL     1      -5.410   4.389  65.494  1.00  0.00    -0.009 C  
BRANCH   5   6
HETATM    6  O   UNL     1      -5.333   4.494  66.923  1.00  0.00    -0.011 OA 
BRANCH   6   7
HETATM    7  C   UNL     1      -6.373   5.192  67.501  1.00  0.00    -0.040 A  
HETATM    8  C   UNL     1      -7.693   5.191  67.035  1.00  0.00    -0.092 A  
HETATM    9  C   UNL     1      -8.651   6.041  67.593  1.00  0.00    -0.106 A  
HETATM   10  C   UNL     1      -8.311   6.915  68.628  1.00  0.00    -0.121 A  
HETATM   11  C   UNL     1      -7.021   6.837  69.176  1.00  0.00    -0.078 A  
HETATM   12  C   UNL     1      -6.060   5.979  68.613  1.00  0.00    -0.024 A  
BRANCH  10  13
HETATM   13  C   UNL     1      -9.235   8.042  68.972  1.00  0.00    -0.148 C  
HETATM   14 CL   UNL     1     -11.909  12.261  69.357  1.00  0.00    -0.373 Cl 
HETATM   15  C   UNL     1      -9.126   9.264  68.379  1.00  0.00    -0.128 C  
HETATM   16  C   UNL     1     -11.213  10.610  69.412  1.00  0.00    -0.270 C  
HETATM   17  C   UNL     1      -9.962  10.543  68.544  1.00  0.00    -0.181 C  
BRANCH  13  18
HETATM   18  C   UNL     1     -10.195   7.799  70.092  1.00  0.00    -0.205 A  
HETATM   19  C   UNL     1     -11.390   7.107  69.831  1.00  0.00    -0.199 A  
HETATM   20  C   UNL     1     -12.328   6.880  70.843  1.00  0.00    -0.365 A  
HETATM   21  C   UNL     1     -10.898   8.031  72.406  1.00  0.00    -0.392 A  
HETATM   22  C   UNL     1     -12.072   7.326  72.137  1.00  0.00    -0.287 A  
HETATM   23  C   UNL     1      -9.975   8.291  71.385  1.00  0.00    -0.250 A  
ENDBRANCH  13  18
BRANCH  15  24
HETATM   24  C   UNL     1      -8.008   9.582  67.438  1.00  0.00    -0.106 A  
HETATM   25  C   UNL     1      -8.152   9.405  66.057  1.00  0.00    -0.111 A  
HETATM   26  C   UNL     1      -6.074  10.588  65.670  1.00  0.00    -0.131 A  
HETATM   27  C   UNL     1      -5.910  10.751  67.044  1.00  0.00    -0.058 A  
HETATM   28  C   UNL     1      -7.188   9.911  65.177  1.00  0.00    -0.133 A  
HETATM   29  C   UNL     1      -6.872  10.250  67.924  1.00  0.00    -0.074 A  
ENDBRANCH  15  24
ENDBRANCH  10  13
ENDBRANCH   6   7
ENDBRANCH   5   6
ENDBRANCH   4   5
ENDBRANCH   2   4
TORSDOF 7
ENDMDL
MODEL      145
REMARK 921   NORMALIZED FREE ENERGY PREDICTED BY IDOCK:   -2.15 KCAL/MOL
REMARK 922        TOTAL FREE ENERGY PREDICTED BY IDOCK:   -5.10 KCAL/MOL
REMARK 923 INTER-LIGAND FREE ENERGY PREDICTED BY IDOCK:   -4.35 KCAL/MOL
REMARK 924 INTRA-LIGAND FREE ENERGY PREDICTED BY IDOCK:   -0.75 KCAL/MOL
REMARK 927      BINDING AFFINITY PREDICTED BY RF-SCORE:    0.00 PKD
ROOT
HETATM    1  C   UNL     1      -7.298   5.099  62.681  1.00  0.00    -0.043 C  
HETATM    2  N   UNL     1      -6.823   4.145  63.684  1.00  0.00    -0.043 NA 
HETATM    3  C   UNL     1      -5.653   3.432  63.165  1.00  0.00    -0.009 C  
ENDROOT
BRANCH   2   4
HETATM    4  C   UNL     1      -6.540   4.834  64.969  1.00  0.00    -0.044 C  
BRANCH   4   5
HETATM    5  C   UNL     1      -5.856   6.203  64.781  1.00  0.00    -0.025 C  
BRANCH   5   6
HETATM    6  O   UNL     1      -5.262   6.697  65.990  1.00  0.00    -0.016 OA 
BRANCH   6   7
HETATM    7  C   UNL     1      -6.166   7.171  66.918  1.00  0.00    -0.045 A  
HETATM    8  C   UNL     1      -7.229   6.431  67.449  1.00  0.00    -0.082 A  
HETATM    9  C   UNL     1      -8.183   7.035  68.272  1.00  0.00    -0.124 A  
HETATM   10  C   UNL     1      -8.099   8.395  68.580  1.00  0.00    -0.123 A  
HETATM   11  C   UNL     1      -6.974   9.113  68.145  1.00  0.00    -0.076 A  
HETATM   12  C   UNL     1      -6.014   8.501  67.320  1.00  0.00    -0.051 A  
BRANCH  10  13
HETATM   13  C   UNL     1      -9.290   9.092  69.161  1.00  0.00    -0.152 C  
HETATM   14 CL   UNL     1     -13.071  10.899  71.907  1.00  0.00    -0.592 Cl 
HETATM   15  C   UNL     1      -9.820   8.724  70.360  1.00  0.00    -0.212 C  
HETATM   16  C   UNL     1     -11.768  10.543  70.728  1.00  0.00    -0.356 C  
HETATM   17  C   UNL     1     -11.001   9.298  71.160  1.00  0.00    -0.409 C  
BRANCH  13  18
HETATM   18  C   UNL     1      -9.947  10.121  68.298  1.00  0.00    -0.168 A  
HETATM   19  C   UNL     1     -10.589   9.715  67.115  1.00  0.00    -0.298 A  
HETATM   20  C   UNL     1     -11.194  10.646  66.266  1.00  0.00     0.241 A  
HETATM   21  C   UNL     1     -10.531  12.418  67.761  1.00  0.00    -0.231 A  
HETATM   22  C   UNL     1     -11.181  11.998  66.600  1.00  0.00    -0.380 A  
HETATM   23  C   UNL     1      -9.893  11.490  68.593  1.00  0.00    -0.184 A  
ENDBRANCH  13  18
BRANCH  15  24
HETATM   24  C   UNL     1      -9.316   7.531  71.108  1.00  0.00    -0.155 A  
HETATM   25  C   UNL     1      -8.303   7.654  72.066  1.00  0.00    -0.129 A  
HETATM   26  C   UNL     1      -8.693   5.378  72.797  1.00  0.00    -0.123 A  
HETATM   27  C   UNL     1      -9.688   5.238  71.832  1.00  0.00    -0.204 A  
HETATM   28  C   UNL     1      -7.997   6.580  72.910  1.00  0.00    -0.105 A  
HETATM   29  C   UNL     1      -9.998   6.309  70.991  1.00  0.00    -0.213 A  
ENDBRANCH  15  24
ENDBRANCH  10  13
ENDBRANCH   6   7
ENDBRANCH   5   6
ENDBRANCH   4   5
ENDBRANCH   2   4
TORSDOF 7
ENDMDL
MODEL      146
REMARK 921   NORMALIZED FREE ENERGY PREDICTED BY IDOCK:   -2.15 KCAL/MOL
REMARK 922        TOTAL FREE ENERGY PREDICTED BY IDOCK:   -5.10 KCAL/MOL
REMARK 923 INTER-LIGAND FREE ENERGY PREDICTED BY IDOCK:   -3.10 KCAL/MOL
REMARK 924 INTRA-LIGAND FREE ENERGY PREDICTED BY IDOCK:   -2.00 KCAL/MOL
REMARK 927      BINDING AFFINITY PREDICTED BY RF-SCORE:    0.00 PKD
ROOT
HETATM    1  C   UNL     1     -14.229   8.065  72.033  1.00  0.00    -0.370 C  
HETATM    2  N   UNL     1     -12.844   8.539  71.978  1.00  0.00    -0.354 NA 
HETATM    3  C   UNL     1     -11.958   7.420  71.648  1.00  0.00    -0.307 C  
ENDROOT
BRANCH   2   4
HETATM    4  C   UNL     1     -12.715   9.664  71.017  1.00  0.00    -0.271 C  
BRANCH   4   5
HETATM    5  C   UNL     1     -11.493   9.526  70.089  1.00  0.00    -0.162 C  
BRANCH   5   6
HETATM    6  O   UNL     1     -11.704  10.126  68.802  1.00  0.00    -0.060 OA 
BRANCH   6   7
HETATM    7  C   UNL     1     -11.179  11.395  68.671  1.00  0.00    -0.243 A  
HETATM    8  C   UNL     1     -10.021  11.852  69.312  1.00  0.00     0.339 A  
HETATM    9  C   UNL     1      -9.643  13.195  69.239  1.00  0.00     0.731 A  
HETATM   10  C   UNL     1     -10.417  14.114  68.528  1.00  0.00    -0.252 A  
HETATM   11  C   UNL     1     -11.513  13.641  67.789  1.00  0.00    -0.351 A  
HETATM   12  C   UNL     1     -11.888  12.288  67.862  1.00  0.00    -0.358 A  
BRANCH  10  13
HETATM   13  C   UNL     1     -10.199  15.580  68.743  1.00  0.00    -0.212 C  
HETATM   14 CL   UNL     1      -9.944  20.332  70.309  1.00  0.00     0.482 Cl 
HETATM   15  C   UNL     1     -10.796  16.249  69.768  1.00  0.00    -0.356 C  
HETATM   16  C   UNL     1      -9.767  18.724  69.536  1.00  0.00     0.216 C  
HETATM   17  C   UNL     1     -10.703  17.722  70.201  1.00  0.00     1.243 C  
BRANCH  13  18
HETATM   18  C   UNL     1      -9.403  16.296  67.700  1.00  0.00    -0.218 A  
HETATM   19  C   UNL     1      -8.004  16.157  67.691  1.00  0.00    -0.162 A  
HETATM   20  C   UNL     1      -7.217  16.829  66.750  1.00  0.00    -0.270 A  
HETATM   21  C   UNL     1      -9.210  17.797  65.799  1.00  0.00     0.292 A  
HETATM   22  C   UNL     1      -7.825  17.635  65.790  1.00  0.00     0.068 A  
HETATM   23  C   UNL     1      -9.995  17.154  66.764  1.00  0.00    -0.291 A  
ENDBRANCH  13  18
BRANCH  15  24
HETATM   24  C   UNL     1     -11.790  15.584  70.666  1.00  0.00    -0.400 A  
HETATM   25  C   UNL     1     -11.411  15.076  71.914  1.00  0.00    -0.368 A  
HETATM   26  C   UNL     1     -13.737  14.740  72.504  1.00  0.00    -0.572 A  
HETATM   27  C   UNL     1     -14.124  15.225  71.256  1.00  0.00    -0.527 A  
HETATM   28  C   UNL     1     -12.384  14.660  72.830  1.00  0.00    -0.321 A  
HETATM   29  C   UNL     1     -13.155  15.644  70.341  1.00  0.00    -0.043 A  
ENDBRANCH  15  24
ENDBRANCH  10  13
ENDBRANCH   6   7
ENDBRANCH   5   6
ENDBRANCH   4   5
ENDBRANCH   2   4
TORSDOF 7
ENDMDL
MODEL      147
REMARK 921   NORMALIZED FREE ENERGY PREDICTED BY IDOCK:   -2.10 KCAL/MOL
REMARK 922        TOTAL FREE ENERGY PREDICTED BY IDOCK:   -5.02 KCAL/MOL
REMARK 923 INTER-LIGAND FREE ENERGY PREDICTED BY IDOCK:   -3.17 KCAL/MOL
REMARK 924 INTRA-LIGAND FREE ENERGY PREDICTED BY IDOCK:   -1.85 KCAL/MOL
REMARK 927      BINDING AFFINITY PREDICTED BY RF-SCORE:    0.00 PKD
ROOT
HETATM    1  C   UNL     1      -6.393   2.146  73.478  1.00  0.00    -0.013 C  
HETATM    2  N   UNL     1      -6.566   1.991  72.032  1.00  0.00    -0.015 NA 
HETATM    3  C   UNL     1      -7.962   2.258  71.676  1.00  0.00    -0.044 C  
ENDROOT
BRANCH   2   4
HETATM    4  C   UNL     1      -5.618   2.864  71.296  1.00  0.00    -0.012 C  
BRANCH   4   5
HETATM    5  C   UNL     1      -6.321   3.985  70.505  1.00  0.00    -0.026 C  
BRANCH   5   6
HETATM    6  O   UNL     1      -6.558   5.158  71.299  1.00  0.00    -0.036 OA 
BRANCH   6   7
HETATM    7  C   UNL     1      -6.953   6.265  70.577  1.00  0.00    -0.064 A  
HETATM    8  C   UNL     1      -8.086   7.039  70.856  1.00  0.00    -0.109 A  
HETATM    9  C   UNL     1      -8.492   8.055  69.987  1.00  0.00    -0.129 A  
HETATM   10  C   UNL     1      -7.779   8.317  68.815  1.00  0.00    -0.114 A  
HETATM   11  C   UNL     1      -6.580   7.623  68.590  1.00  0.00    -0.053 A  
HETATM   12  C   UNL     1      -6.172   6.604  69.469  1.00  0.00    -0.037 A  
BRANCH  10  13
HETATM   13  C   UNL     1      -8.408   9.151  67.743  1.00  0.00    -0.117 C  
HETATM   14 CL   UNL     1     -10.927  11.098  63.874  1.00  0.00    -0.383 Cl 
HETATM   15  C   UNL     1      -9.094   8.589  66.709  1.00  0.00    -0.186 C  
HETATM   16  C   UNL     1     -10.012  10.736  65.373  1.00  0.00    -0.271 C  
HETATM   17  C   UNL     1      -9.839   9.230  65.526  1.00  0.00    -0.155 C  
BRANCH  13  18
HETATM   18  C   UNL     1      -8.131  10.620  67.791  1.00  0.00    -0.111 A  
HETATM   19  C   UNL     1      -8.866  11.426  68.678  1.00  0.00    -0.126 A  
HETATM   20  C   UNL     1      -8.659  12.807  68.739  1.00  0.00     0.172 A  
HETATM   21  C   UNL     1      -6.973  12.614  67.026  1.00  0.00     0.088 A  
HETATM   22  C   UNL     1      -7.696  13.398  67.925  1.00  0.00    -0.153 A  
HETATM   23  C   UNL     1      -7.206  11.235  66.939  1.00  0.00    -0.142 A  
ENDBRANCH  13  18
BRANCH  15  24
HETATM   24  C   UNL     1      -9.160   7.107  66.525  1.00  0.00    -0.182 A  
HETATM   25  C   UNL     1     -10.107   6.334  67.208  1.00  0.00    -0.203 A  
HETATM   26  C   UNL     1      -9.551   4.412  65.842  1.00  0.00    -0.188 A  
HETATM   27  C   UNL     1      -8.591   5.166  65.171  1.00  0.00    -0.150 A  
HETATM   28  C   UNL     1     -10.303   4.992  66.863  1.00  0.00    -0.267 A  
HETATM   29  C   UNL     1      -8.396   6.507  65.511  1.00  0.00    -0.146 A  
ENDBRANCH  15  24
ENDBRANCH  10  13
ENDBRANCH   6   7
ENDBRANCH   5   6
ENDBRANCH   4   5
ENDBRANCH   2   4
TORSDOF 7
ENDMDL
MODEL      148
REMARK 921   NORMALIZED FREE ENERGY PREDICTED BY IDOCK:   -1.86 KCAL/MOL
REMARK 922        TOTAL FREE ENERGY PREDICTED BY IDOCK:   -4.69 KCAL/MOL
REMARK 923 INTER-LIGAND FREE ENERGY PREDICTED BY IDOCK:   -3.19 KCAL/MOL
REMARK 924 INTRA-LIGAND FREE ENERGY PREDICTED BY IDOCK:   -1.50 KCAL/MOL
REMARK 927      BINDING AFFINITY PREDICTED BY RF-SCORE:    0.00 PKD
ROOT
HETATM    1  C   UNL     1     -11.104   3.649  73.480  1.00  0.00    -0.225 C  
HETATM    2  N   UNL     1     -10.078   4.609  73.068  1.00  0.00    -0.156 NA 
HETATM    3  C   UNL     1      -9.507   4.192  71.785  1.00  0.00    -0.147 C  
ENDROOT
BRANCH   2   4
HETATM    4  C   UNL     1     -10.639   5.983  73.016  1.00  0.00    -0.240 C  
BRANCH   4   5
HETATM    5  C   UNL     1     -10.887   6.480  71.578  1.00  0.00    -0.246 C  
BRANCH   5   6
HETATM    6  O   UNL     1     -11.191   7.881  71.521  1.00  0.00    -0.241 OA 
BRANCH   6   7
HETATM    7  C   UNL     1     -10.346   8.616  70.714  1.00  0.00    -0.204 A  
HETATM    8  C   UNL     1     -10.690   9.816  70.080  1.00  0.00    -0.339 A  
HETATM    9  C   UNL     1      -9.823  10.417  69.164  1.00  0.00    -0.237 A  
HETATM   10  C   UNL     1      -8.594   9.830  68.857  1.00  0.00    -0.134 A  
HETATM   11  C   UNL     1      -8.196   8.691  69.574  1.00  0.00    -0.115 A  
HETATM   12  C   UNL     1      -9.069   8.091  70.498  1.00  0.00    -0.153 A  
BRANCH  10  13
HETATM   13  C   UNL     1      -7.845  10.286  67.643  1.00  0.00    -0.098 C  
HETATM   14 CL   UNL     1      -5.676  10.981  63.181  1.00  0.00     0.041 Cl 
HETATM   15  C   UNL     1      -7.673   9.475  66.562  1.00  0.00    -0.097 C  
HETATM   16  C   UNL     1      -6.405  11.082  64.815  1.00  0.00     0.571 C  
HETATM   17  C   UNL     1      -6.979   9.727  65.213  1.00  0.00    -0.111 C  
BRANCH  13  18
HETATM   18  C   UNL     1      -7.182  11.623  67.731  1.00  0.00    -0.101 A  
HETATM   19  C   UNL     1      -7.785  12.729  67.108  1.00  0.00    -0.072 A  
HETATM   20  C   UNL     1      -7.188  13.993  67.143  1.00  0.00     0.215 A  
HETATM   21  C   UNL     1      -5.365  13.078  68.430  1.00  0.00    -0.070 A  
HETATM   22  C   UNL     1      -5.985  14.170  67.822  1.00  0.00    -0.111 A  
HETATM   23  C   UNL     1      -5.945  11.804  68.363  1.00  0.00    -0.049 A  
ENDBRANCH  13  18
BRANCH  15  24
HETATM   24  C   UNL     1      -8.123   8.049  66.571  1.00  0.00    -0.103 A  
HETATM   25  C   UNL     1      -7.207   7.003  66.734  1.00  0.00    -0.076 A  
HETATM   26  C   UNL     1      -9.027   5.430  67.019  1.00  0.00    -0.112 A  
HETATM   27  C   UNL     1      -9.947   6.460  66.836  1.00  0.00    -0.217 A  
HETATM   28  C   UNL     1      -7.660   5.699  66.961  1.00  0.00    -0.096 A  
HETATM   29  C   UNL     1      -9.497   7.764  66.612  1.00  0.00    -0.263 A  
ENDBRANCH  15  24
ENDBRANCH  10  13
ENDBRANCH   6   7
ENDBRANCH   5   6
ENDBRANCH   4   5
ENDBRANCH   2   4
TORSDOF 7
ENDMDL
MODEL      149
REMARK 921   NORMALIZED FREE ENERGY PREDICTED BY IDOCK:   -1.75 KCAL/MOL
REMARK 922        TOTAL FREE ENERGY PREDICTED BY IDOCK:   -4.53 KCAL/MOL
REMARK 923 INTER-LIGAND FREE ENERGY PREDICTED BY IDOCK:   -4.32 KCAL/MOL
REMARK 924 INTRA-LIGAND FREE ENERGY PREDICTED BY IDOCK:   -0.21 KCAL/MOL
REMARK 927      BINDING AFFINITY PREDICTED BY RF-SCORE:    0.00 PKD
ROOT
HETATM    1  C   UNL     1      -7.123   6.330  72.492  1.00  0.00    -0.083 C  
HETATM    2  N   UNL     1      -6.375   6.504  71.246  1.00  0.00    -0.041 NA 
HETATM    3  C   UNL     1      -5.414   7.598  71.401  1.00  0.00    -0.035 C  
ENDROOT
BRANCH   2   4
HETATM    4  C   UNL     1      -5.723   5.231  70.845  1.00  0.00    -0.016 C  
BRANCH   4   5
HETATM    5  C   UNL     1      -6.718   4.192  70.292  1.00  0.00    -0.033 C  
BRANCH   5   6
HETATM    6  O   UNL     1      -7.044   4.417  68.913  1.00  0.00    -0.050 OA 
BRANCH   6   7
HETATM    7  C   UNL     1      -7.761   5.572  68.677  1.00  0.00    -0.088 A  
HETATM    8  C   UNL     1      -7.261   6.701  68.018  1.00  0.00    -0.091 A  
HETATM    9  C   UNL     1      -8.007   7.881  67.951  1.00  0.00    -0.128 A  
HETATM   10  C   UNL     1      -9.268   7.961  68.547  1.00  0.00    -0.138 A  
HETATM   11  C   UNL     1      -9.820   6.798  69.106  1.00  0.00    -0.161 A  
HETATM   12  C   UNL     1      -9.069   5.612  69.168  1.00  0.00    -0.126 A  
BRANCH  10  13
HETATM   13  C   UNL     1      -9.893   9.303  68.768  1.00  0.00    -0.174 C  
HETATM   14 CL   UNL     1     -12.001  13.525  70.451  1.00  0.00    -0.392 Cl 
HETATM   15  C   UNL     1     -10.429   9.654  69.970  1.00  0.00    -0.301 C  
HETATM   16  C   UNL     1     -11.161  12.211  69.567  1.00  0.00    -0.131 C  
HETATM   17  C   UNL     1     -11.087  10.962  70.438  1.00  0.00    -0.080 C  
BRANCH  13  18
HETATM   18  C   UNL     1     -10.019  10.186  67.568  1.00  0.00    -0.231 A  
HETATM   19  C   UNL     1     -11.270  10.317  66.942  1.00  0.00     0.124 A  
HETATM   20  C   UNL     1     -11.428  11.111  65.802  1.00  0.00     0.286 A  
HETATM   21  C   UNL     1      -9.084  11.669  65.885  1.00  0.00    -0.155 A  
HETATM   22  C   UNL     1     -10.336  11.804  65.286  1.00  0.00    -0.317 A  
HETATM   23  C   UNL     1      -8.917  10.844  67.005  1.00  0.00    -0.148 A  
ENDBRANCH  13  18
BRANCH  15  24
HETATM   24  C   UNL     1     -10.526   8.679  71.100  1.00  0.00    -0.291 A  
HETATM   25  C   UNL     1      -9.617   8.712  72.164  1.00  0.00    -0.378 A  
HETATM   26  C   UNL     1     -10.982   7.141  73.403  1.00  0.00    -0.277 A  
HETATM   27  C   UNL     1     -11.882   7.084  72.341  1.00  0.00    -0.215 A  
HETATM   28  C   UNL     1      -9.849   7.948  73.313  1.00  0.00    -0.345 A  
HETATM   29  C   UNL     1     -11.654   7.849  71.195  1.00  0.00    -0.302 A  
ENDBRANCH  15  24
ENDBRANCH  10  13
ENDBRANCH   6   7
ENDBRANCH   5   6
ENDBRANCH   4   5
ENDBRANCH   2   4
TORSDOF 7
ENDMDL
MODEL      150
REMARK 921   NORMALIZED FREE ENERGY PREDICTED BY IDOCK:   -1.44 KCAL/MOL
REMARK 922        TOTAL FREE ENERGY PREDICTED BY IDOCK:   -4.09 KCAL/MOL
REMARK 923 INTER-LIGAND FREE ENERGY PREDICTED BY IDOCK:   -4.54 KCAL/MOL
REMARK 924 INTRA-LIGAND FREE ENERGY PREDICTED BY IDOCK:    0.46 KCAL/MOL
REMARK 927      BINDING AFFINITY PREDICTED BY RF-SCORE:    0.00 PKD
ROOT
HETATM    1  C   UNL     1     -13.614  11.535  63.452  1.00  0.00     1.542 C  
HETATM    2  N   UNL     1     -12.418  12.077  64.100  1.00  0.00    -0.368 NA 
HETATM    3  C   UNL     1     -11.785  11.033  64.908  1.00  0.00     0.838 C  
ENDROOT
BRANCH   2   4
HETATM    4  C   UNL     1     -11.491  12.651  63.091  1.00  0.00    -0.105 C  
BRANCH   4   5
HETATM    5  C   UNL     1     -10.024  12.668  63.562  1.00  0.00     0.251 C  
BRANCH   5   6
HETATM    6  O   UNL     1      -9.707  13.826  64.348  1.00  0.00     0.019 OA 
BRANCH   6   7
HETATM    7  C   UNL     1     -10.286  13.842  65.599  1.00  0.00    -0.325 A  
HETATM    8  C   UNL     1     -11.495  14.475  65.913  1.00  0.00    -0.345 A  
HETATM    9  C   UNL     1     -11.935  14.566  67.236  1.00  0.00    -0.375 A  
HETATM   10  C   UNL     1     -11.174  14.032  68.278  1.00  0.00    -0.293 A  
HETATM   11  C   UNL     1     -10.021  13.297  67.958  1.00  0.00    -0.233 A  
HETATM   12  C   UNL     1      -9.584  13.204  66.625  1.00  0.00    -0.260 A  
BRANCH  10  13
HETATM   13  C   UNL     1     -11.474  14.434  69.688  1.00  0.00    -0.331 C  
HETATM   14 CL   UNL     1     -12.077  16.638  74.147  1.00  0.00    -0.454 Cl 
HETATM   15  C   UNL     1     -11.003  15.599  70.216  1.00  0.00    -0.363 C  
HETATM   16  C   UNL     1     -12.112  15.628  72.666  1.00  0.00    -0.460 C  
HETATM   17  C   UNL     1     -11.199  16.229  71.605  1.00  0.00     0.016 C  
BRANCH  13  18
HETATM   18  C   UNL     1     -12.201  13.433  70.527  1.00  0.00    -0.425 A  
HETATM   19  C   UNL     1     -11.799  12.087  70.489  1.00  0.00    -0.215 A  
HETATM   20  C   UNL     1     -12.467  11.113  71.237  1.00  0.00    -0.466 A  
HETATM   21  C   UNL     1     -13.957  12.808  72.085  1.00  0.00    -0.186 A  
HETATM   22  C   UNL     1     -13.536  11.478  72.051  1.00  0.00    -0.298 A  
HETATM   23  C   UNL     1     -13.312  13.778  71.307  1.00  0.00    -0.282 A  
ENDBRANCH  13  18
BRANCH  15  24
HETATM   24  C   UNL     1     -10.068  16.484  69.455  1.00  0.00    -0.230 A  
HETATM   25  C   UNL     1     -10.474  17.743  68.998  1.00  0.00    -0.153 A  
HETATM   26  C   UNL     1      -8.187  18.292  68.421  1.00  0.00    -0.326 A  
HETATM   27  C   UNL     1      -7.774  17.033  68.853  1.00  0.00    -0.231 A  
HETATM   28  C   UNL     1      -9.534  18.644  68.486  1.00  0.00    -0.386 A  
HETATM   29  C   UNL     1      -8.711  16.133  69.367  1.00  0.00    -0.101 A  
ENDBRANCH  15  24
ENDBRANCH  10  13
ENDBRANCH   6   7
ENDBRANCH   5   6
ENDBRANCH   4   5
ENDBRANCH   2   4
TORSDOF 7
ENDMDL
MODEL      151
REMARK 921   NORMALIZED FREE ENERGY PREDICTED BY IDOCK:   -1.01 KCAL/MOL
REMARK 922        TOTAL FREE ENERGY PREDICTED BY IDOCK:   -3.48 KCAL/MOL
REMARK 923 INTER-LIGAND FREE ENERGY PREDICTED BY IDOCK:   -2.33 KCAL/MOL
REMARK 924 INTRA-LIGAND FREE ENERGY PREDICTED BY IDOCK:   -1.15 KCAL/MOL
REMARK 927      BINDING AFFINITY PREDICTED BY RF-SCORE:    0.00 PKD
ROOT
HETATM    1  C   UNL     1      -6.318   6.273  73.690  1.00  0.00    -0.065 C  
HETATM    2  N   UNL     1      -7.782   6.239  73.690  1.00  0.00    -0.094 NA 
HETATM    3  C   UNL     1      -8.284   6.803  72.435  1.00  0.00    -0.105 C  
ENDROOT
BRANCH   2   4
HETATM    4  C   UNL     1      -8.273   4.857  73.925  1.00  0.00    -0.105 C  
BRANCH   4   5
HETATM    5  C   UNL     1      -7.619   3.819  72.991  1.00  0.00    -0.069 C  
BRANCH   5   6
HETATM    6  O   UNL     1      -8.510   3.358  71.964  1.00  0.00    -0.079 OA 
BRANCH   6   7
HETATM    7  C   UNL     1      -8.340   3.975  70.742  1.00  0.00    -0.070 A  
HETATM    8  C   UNL     1      -9.255   3.918  69.684  1.00  0.00    -0.221 A  
HETATM    9  C   UNL     1      -8.936   4.450  68.432  1.00  0.00    -0.149 A  
HETATM   10  C   UNL     1      -7.694   5.047  68.206  1.00  0.00    -0.083 A  
HETATM   11  C   UNL     1      -6.821   5.210  69.293  1.00  0.00    -0.054 A  
HETATM   12  C   UNL     1      -7.146   4.677  70.553  1.00  0.00    -0.048 A  
BRANCH  10  13
HETATM   13  C   UNL     1      -7.240   5.292  66.801  1.00  0.00    -0.078 C  
HETATM   14 CL   UNL     1      -5.654   7.049  62.385  1.00  0.00    -0.036 Cl 
HETATM   15  C   UNL     1      -7.088   6.553  66.308  1.00  0.00    -0.067 C  
HETATM   16  C   UNL     1      -6.110   6.108  63.842  1.00  0.00    -0.025 C  
HETATM   17  C   UNL     1      -6.614   7.047  64.931  1.00  0.00    -0.043 C  
BRANCH  13  18
HETATM   18  C   UNL     1      -7.093   4.088  65.928  1.00  0.00    -0.067 A  
HETATM   19  C   UNL     1      -8.047   3.848  64.924  1.00  0.00    -0.093 A  
HETATM   20  C   UNL     1      -7.962   2.721  64.101  1.00  0.00    -0.082 A  
HETATM   21  C   UNL     1      -5.963   2.041  65.265  1.00  0.00    -0.018 A  
HETATM   22  C   UNL     1      -6.907   1.827  64.260  1.00  0.00    -0.031 A  
HETATM   23  C   UNL     1      -6.068   3.151  66.113  1.00  0.00    -0.024 A  
ENDBRANCH  13  18
BRANCH  15  24
HETATM   24  C   UNL     1      -7.474   7.759  67.104  1.00  0.00    -0.096 A  
HETATM   25  C   UNL     1      -6.556   8.786  67.351  1.00  0.00    -0.058 A  
HETATM   26  C   UNL     1      -8.332  10.190  68.214  1.00  0.00    -0.115 A  
HETATM   27  C   UNL     1      -9.251   9.166  67.991  1.00  0.00    -0.142 A  
HETATM   28  C   UNL     1      -6.988   9.999  67.901  1.00  0.00    -0.084 A  
HETATM   29  C   UNL     1      -8.823   7.955  67.439  1.00  0.00    -0.129 A  
ENDBRANCH  15  24
ENDBRANCH  10  13
ENDBRANCH   6   7
ENDBRANCH   5   6
ENDBRANCH   4   5
ENDBRANCH   2   4
TORSDOF 7
ENDMDL
MODEL      152
REMARK 921   NORMALIZED FREE ENERGY PREDICTED BY IDOCK:   -0.97 KCAL/MOL
REMARK 922        TOTAL FREE ENERGY PREDICTED BY IDOCK:   -3.44 KCAL/MOL
REMARK 923 INTER-LIGAND FREE ENERGY PREDICTED BY IDOCK:   -3.85 KCAL/MOL
REMARK 924 INTRA-LIGAND FREE ENERGY PREDICTED BY IDOCK:    0.41 KCAL/MOL
REMARK 927      BINDING AFFINITY PREDICTED BY RF-SCORE:    0.00 PKD
ROOT
HETATM    1  C   UNL     1     -13.296  11.930  63.807  1.00  0.00     0.396 C  
HETATM    2  N   UNL     1     -12.099  12.416  64.496  1.00  0.00    -0.411 NA 
HETATM    3  C   UNL     1     -11.081  11.362  64.509  1.00  0.00    -0.232 C  
ENDROOT
BRANCH   2   4
HETATM    4  C   UNL     1     -11.607  13.669  63.870  1.00  0.00    -0.255 C  
BRANCH   4   5
HETATM    5  C   UNL     1     -12.727  14.698  63.620  1.00  0.00     0.922 C  
BRANCH   5   6
HETATM    6  O   UNL     1     -12.407  16.001  64.130  1.00  0.00    -0.632 OA 
BRANCH   6   7
HETATM    7  C   UNL     1     -11.239  16.056  64.862  1.00  0.00    -0.312 A  
HETATM    8  C   UNL     1     -10.171  15.161  64.731  1.00  0.00    -0.085 A  
HETATM    9  C   UNL     1      -9.088  15.203  65.614  1.00  0.00     0.253 A  
HETATM   10  C   UNL     1      -9.051  16.137  66.651  1.00  0.00    -0.282 A  
HETATM   11  C   UNL     1     -10.061  17.109  66.715  1.00  0.00    -0.303 A  
HETATM   12  C   UNL     1     -11.147  17.066  65.824  1.00  0.00     0.272 A  
BRANCH  10  13
HETATM   13  C   UNL     1      -8.080  15.948  67.775  1.00  0.00    -0.155 C  
HETATM   14 CL   UNL     1      -5.275  14.450  71.647  1.00  0.00    -0.156 Cl 
HETATM   15  C   UNL     1      -8.185  14.904  68.644  1.00  0.00    -0.157 C  
HETATM   16  C   UNL     1      -6.012  15.211  70.200  1.00  0.00    -0.145 C  
HETATM   17  C   UNL     1      -7.306  14.493  69.837  1.00  0.00     0.110 C  
BRANCH  13  18
HETATM   18  C   UNL     1      -7.072  17.034  67.975  1.00  0.00    -0.168 A  
HETATM   19  C   UNL     1      -7.162  17.850  69.117  1.00  0.00    -0.153 A  
HETATM   20  C   UNL     1      -6.257  18.894  69.331  1.00  0.00    -0.292 A  
HETATM   21  C   UNL     1      -5.144  18.332  67.267  1.00  0.00    -0.136 A  
HETATM   22  C   UNL     1      -5.234  19.122  68.413  1.00  0.00    -0.188 A  
HETATM   23  C   UNL     1      -6.073  17.311  67.033  1.00  0.00    -0.202 A  
ENDBRANCH  13  18
BRANCH  15  24
HETATM   24  C   UNL     1      -9.339  13.955  68.595  1.00  0.00    -0.106 A  
HETATM   25  C   UNL     1     -10.649  14.397  68.816  1.00  0.00    -0.256 A  
HETATM   26  C   UNL     1     -11.515  12.261  68.071  1.00  0.00    -0.378 A  
HETATM   27  C   UNL     1     -10.215  11.804  67.868  1.00  0.00    -0.203 A  
HETATM   28  C   UNL     1     -11.732  13.552  68.551  1.00  0.00    -0.392 A  
HETATM   29  C   UNL     1      -9.132  12.647  68.129  1.00  0.00    -0.204 A  
ENDBRANCH  15  24
ENDBRANCH  10  13
ENDBRANCH   6   7
ENDBRANCH   5   6
ENDBRANCH   4   5
ENDBRANCH   2   4
TORSDOF 7
ENDMDL
MODEL      153
REMARK 921   NORMALIZED FREE ENERGY PREDICTED BY IDOCK:   -0.93 KCAL/MOL
REMARK 922        TOTAL FREE ENERGY PREDICTED BY IDOCK:   -3.37 KCAL/MOL
REMARK 923 INTER-LIGAND FREE ENERGY PREDICTED BY IDOCK:   -3.41 KCAL/MOL
REMARK 924 INTRA-LIGAND FREE ENERGY PREDICTED BY IDOCK:    0.04 KCAL/MOL
REMARK 927      BINDING AFFINITY PREDICTED BY RF-SCORE:    0.00 PKD
ROOT
HETATM    1  C   UNL     1      -6.330   1.939  73.473  1.00  0.00    -0.013 C  
HETATM    2  N   UNL     1      -6.607   1.664  72.062  1.00  0.00    -0.014 NA 
HETATM    3  C   UNL     1      -8.010   1.972  71.771  1.00  0.00    -0.044 C  
ENDROOT
BRANCH   2   4
HETATM    4  C   UNL     1      -5.671   2.418  71.189  1.00  0.00    -0.013 C  
BRANCH   4   5
HETATM    5  C   UNL     1      -6.327   3.636  70.511  1.00  0.00    -0.027 C  
BRANCH   5   6
HETATM    6  O   UNL     1      -5.367   4.590  70.036  1.00  0.00    -0.007 OA 
BRANCH   6   7
HETATM    7  C   UNL     1      -5.878   5.529  69.164  1.00  0.00    -0.023 A  
HETATM    8  C   UNL     1      -5.742   6.915  69.313  1.00  0.00    -0.018 A  
HETATM    9  C   UNL     1      -6.416   7.796  68.463  1.00  0.00    -0.052 A  
HETATM   10  C   UNL     1      -7.244   7.314  67.449  1.00  0.00    -0.090 A  
HETATM   11  C   UNL     1      -7.292   5.929  67.223  1.00  0.00    -0.077 A  
HETATM   12  C   UNL     1      -6.610   5.045  68.077  1.00  0.00    -0.050 A  
BRANCH  10  13
HETATM   13  C   UNL     1      -8.213   8.244  66.785  1.00  0.00    -0.103 C  
HETATM   14 CL   UNL     1     -11.779  11.510  65.478  1.00  0.00    -0.002 Cl 
HETATM   15  C   UNL     1      -9.253   8.799  67.467  1.00  0.00    -0.154 C  
HETATM   16  C   UNL     1     -10.362  10.423  65.631  1.00  0.00    -0.190 C  
HETATM   17  C   UNL     1     -10.341   9.787  67.016  1.00  0.00    -0.305 C  
BRANCH  13  18
HETATM   18  C   UNL     1      -8.058   8.426  65.309  1.00  0.00    -0.140 A  
HETATM   19  C   UNL     1      -8.078   9.725  64.774  1.00  0.00    -0.146 A  
HETATM   20  C   UNL     1      -7.963   9.941  63.397  1.00  0.00    -0.153 A  
HETATM   21  C   UNL     1      -7.803   7.560  63.054  1.00  0.00    -0.133 A  
HETATM   22  C   UNL     1      -7.805   8.856  62.539  1.00  0.00    -0.129 A  
HETATM   23  C   UNL     1      -7.955   7.341  64.429  1.00  0.00    -0.106 A  
ENDBRANCH  13  18
BRANCH  15  24
HETATM   24  C   UNL     1      -9.554   8.422  68.883  1.00  0.00    -0.153 A  
HETATM   25  C   UNL     1      -9.449   9.359  69.918  1.00  0.00    -0.235 A  
HETATM   26  C   UNL     1     -10.534   7.821  71.443  1.00  0.00    -0.237 A  
HETATM   27  C   UNL     1     -10.624   6.873  70.425  1.00  0.00    -0.247 A  
HETATM   28  C   UNL     1      -9.943   9.058  71.193  1.00  0.00    -0.365 A  
HETATM   29  C   UNL     1     -10.136   7.173  69.151  1.00  0.00    -0.183 A  
ENDBRANCH  15  24
ENDBRANCH  10  13
ENDBRANCH   6   7
ENDBRANCH   5   6
ENDBRANCH   4   5
ENDBRANCH   2   4
TORSDOF 7
ENDMDL
MODEL      154
REMARK 921   NORMALIZED FREE ENERGY PREDICTED BY IDOCK:   -0.73 KCAL/MOL
REMARK 922        TOTAL FREE ENERGY PREDICTED BY IDOCK:   -3.09 KCAL/MOL
REMARK 923 INTER-LIGAND FREE ENERGY PREDICTED BY IDOCK:   -2.85 KCAL/MOL
REMARK 924 INTRA-LIGAND FREE ENERGY PREDICTED BY IDOCK:   -0.24 KCAL/MOL
REMARK 927      BINDING AFFINITY PREDICTED BY RF-SCORE:    0.00 PKD
ROOT
HETATM    1  C   UNL     1      -7.132   7.189  71.455  1.00  0.00    -0.065 C  
HETATM    2  N   UNL     1      -6.340   7.383  70.239  1.00  0.00    -0.034 NA 
HETATM    3  C   UNL     1      -5.542   8.605  70.366  1.00  0.00    -0.027 C  
ENDROOT
BRANCH   2   4
HETATM    4  C   UNL     1      -5.504   6.188  69.963  1.00  0.00    -0.013 C  
BRANCH   4   5
HETATM    5  C   UNL     1      -6.295   5.036  69.313  1.00  0.00    -0.031 C  
BRANCH   5   6
HETATM    6  O   UNL     1      -6.250   5.073  67.879  1.00  0.00    -0.032 OA 
BRANCH   6   7
HETATM    7  C   UNL     1      -6.878   6.165  67.316  1.00  0.00    -0.063 A  
HETATM    8  C   UNL     1      -6.220   7.223  66.678  1.00  0.00    -0.043 A  
HETATM    9  C   UNL     1      -6.922   8.359  66.266  1.00  0.00    -0.073 A  
HETATM   10  C   UNL     1      -8.296   8.466  66.487  1.00  0.00    -0.111 A  
HETATM   11  C   UNL     1      -8.978   7.361  67.021  1.00  0.00    -0.142 A  
HETATM   12  C   UNL     1      -8.270   6.218  67.431  1.00  0.00    -0.109 A  
BRANCH  10  13
HETATM   13  C   UNL     1      -8.959   9.803  66.361  1.00  0.00    -0.176 C  
HETATM   14 CL   UNL     1     -11.289  14.203  66.914  1.00  0.00    -0.326 Cl 
HETATM   15  C   UNL     1      -9.622  10.373  67.406  1.00  0.00    -0.178 C  
HETATM   16  C   UNL     1     -10.343  12.766  66.410  1.00  0.00    -0.258 C  
HETATM   17  C   UNL     1     -10.344  11.726  67.524  1.00  0.00    -0.217 C  
BRANCH  13  18
HETATM   18  C   UNL     1      -8.971  10.416  64.998  1.00  0.00    -0.221 A  
HETATM   19  C   UNL     1     -10.202  10.627  64.352  1.00  0.00    -0.400 A  
HETATM   20  C   UNL     1     -10.258  11.174  63.067  1.00  0.00    -0.265 A  
HETATM   21  C   UNL     1      -7.852  11.317  63.039  1.00  0.00     0.510 A  
HETATM   22  C   UNL     1      -9.081  11.537  62.418  1.00  0.00     0.110 A  
HETATM   23  C   UNL     1      -7.792  10.734  64.311  1.00  0.00     0.248 A  
ENDBRANCH  13  18
BRANCH  15  24
HETATM   24  C   UNL     1      -9.823   9.648  68.698  1.00  0.00    -0.171 A  
HETATM   25  C   UNL     1      -9.080   9.979  69.836  1.00  0.00    -0.188 A  
HETATM   26  C   UNL     1     -10.515   8.585  71.202  1.00  0.00    -0.278 A  
HETATM   27  C   UNL     1     -11.248   8.232  70.071  1.00  0.00    -0.081 A  
HETATM   28  C   UNL     1      -9.429   9.451  71.085  1.00  0.00    -0.186 A  
HETATM   29  C   UNL     1     -10.904   8.760  68.825  1.00  0.00    -0.026 A  
ENDBRANCH  15  24
ENDBRANCH  10  13
ENDBRANCH   6   7
ENDBRANCH   5   6
ENDBRANCH   4   5
ENDBRANCH   2   4
TORSDOF 7
ENDMDL
MODEL      155
REMARK 921   NORMALIZED FREE ENERGY PREDICTED BY IDOCK:   -0.37 KCAL/MOL
REMARK 922        TOTAL FREE ENERGY PREDICTED BY IDOCK:   -2.58 KCAL/MOL
REMARK 923 INTER-LIGAND FREE ENERGY PREDICTED BY IDOCK:   -3.04 KCAL/MOL
REMARK 924 INTRA-LIGAND FREE ENERGY PREDICTED BY IDOCK:    0.46 KCAL/MOL
REMARK 927      BINDING AFFINITY PREDICTED BY RF-SCORE:    0.00 PKD
ROOT
HETATM    1  C   UNL     1      -9.187   7.648  68.865  1.00  0.00    -0.139 C  
HETATM    2  N   UNL     1     -10.120   6.635  68.367  1.00  0.00    -0.149 NA 
HETATM    3  C   UNL     1     -11.451   7.228  68.219  1.00  0.00     0.674 C  
ENDROOT
BRANCH   2   4
HETATM    4  C   UNL     1      -9.620   6.043  67.101  1.00  0.00    -0.123 C  
BRANCH   4   5
HETATM    5  C   UNL     1      -8.738   7.011  66.289  1.00  0.00    -0.146 C  
BRANCH   5   6
HETATM    6  O   UNL     1      -9.506   7.916  65.481  1.00  0.00     0.163 OA 
BRANCH   6   7
HETATM    7  C   UNL     1      -9.265   9.250  65.732  1.00  0.00    -0.224 A  
HETATM    8  C   UNL     1      -8.203   9.986  65.193  1.00  0.00    -0.146 A  
HETATM    9  C   UNL     1      -7.949  11.293  65.615  1.00  0.00     0.223 A  
HETATM   10  C   UNL     1      -8.748  11.895  66.589  1.00  0.00    -0.185 A  
HETATM   11  C   UNL     1      -9.881  11.205  67.047  1.00  0.00    -0.212 A  
HETATM   12  C   UNL     1     -10.136   9.891  66.618  1.00  0.00    -0.297 A  
BRANCH  10  13
HETATM   13  C   UNL     1      -8.265  13.138  67.271  1.00  0.00    -0.172 C  
HETATM   14 CL   UNL     1      -5.939  16.715  69.897  1.00  0.00    -0.220 Cl 
HETATM   15  C   UNL     1      -7.269  13.103  68.200  1.00  0.00    -0.117 C  
HETATM   16  C   UNL     1      -6.915  15.706  68.781  1.00  0.00    -0.121 C  
HETATM   17  C   UNL     1      -6.597  14.232  69.000  1.00  0.00    -0.105 C  
BRANCH  13  18
HETATM   18  C   UNL     1      -9.021  14.394  66.980  1.00  0.00    -0.257 A  
HETATM   19  C   UNL     1     -10.426  14.369  67.004  1.00  0.00    -0.268 A  
HETATM   20  C   UNL     1     -11.174  15.515  66.712  1.00  0.00    -0.139 A  
HETATM   21  C   UNL     1      -9.128  16.743  66.368  1.00  0.00    -0.321 A  
HETATM   22  C   UNL     1     -10.522  16.708  66.413  1.00  0.00    -0.266 A  
HETATM   23  C   UNL     1      -8.379  15.587  66.623  1.00  0.00    -0.286 A  
ENDBRANCH  13  18
BRANCH  15  24
HETATM   24  C   UNL     1      -6.682  11.813  68.674  1.00  0.00    -0.073 A  
HETATM   25  C   UNL     1      -5.894  11.023  67.829  1.00  0.00    -0.046 A  
HETATM   26  C   UNL     1      -5.242   9.634  69.703  1.00  0.00    -0.034 A  
HETATM   27  C   UNL     1      -6.041  10.400  70.550  1.00  0.00    -0.116 A  
HETATM   28  C   UNL     1      -5.174   9.940  68.345  1.00  0.00    -0.036 A  
HETATM   29  C   UNL     1      -6.758  11.484  70.037  1.00  0.00     0.099 A  
ENDBRANCH  15  24
ENDBRANCH  10  13
ENDBRANCH   6   7
ENDBRANCH   5   6
ENDBRANCH   4   5
ENDBRANCH   2   4
TORSDOF 7
ENDMDL
MODEL      156
REMARK 921   NORMALIZED FREE ENERGY PREDICTED BY IDOCK:   -0.25 KCAL/MOL
REMARK 922        TOTAL FREE ENERGY PREDICTED BY IDOCK:   -2.42 KCAL/MOL
REMARK 923 INTER-LIGAND FREE ENERGY PREDICTED BY IDOCK:   -4.42 KCAL/MOL
REMARK 924 INTRA-LIGAND FREE ENERGY PREDICTED BY IDOCK:    1.99 KCAL/MOL
REMARK 927      BINDING AFFINITY PREDICTED BY RF-SCORE:    0.00 PKD
ROOT
HETATM    1  C   UNL     1      -8.051  10.711  68.232  1.00  0.00    -0.118 C  
HETATM    2  N   UNL     1      -8.591  11.889  67.550  1.00  0.00    -0.153 NA 
HETATM    3  C   UNL     1      -9.343  11.466  66.366  1.00  0.00    -0.204 C  
ENDROOT
BRANCH   2   4
HETATM    4  C   UNL     1      -9.413  12.701  68.483  1.00  0.00    -0.091 C  
BRANCH   4   5
HETATM    5  C   UNL     1     -10.893  12.272  68.511  1.00  0.00    -0.237 C  
BRANCH   5   6
HETATM    6  O   UNL     1     -11.106  10.976  67.931  1.00  0.00    -0.243 OA 
BRANCH   6   7
HETATM    7  C   UNL     1     -10.772   9.921  68.755  1.00  0.00    -0.220 A  
HETATM    8  C   UNL     1     -10.319  10.048  70.073  1.00  0.00    -0.323 A  
HETATM    9  C   UNL     1      -9.865   8.936  70.786  1.00  0.00    -0.278 A  
HETATM   10  C   UNL     1      -9.848   7.670  70.196  1.00  0.00    -0.184 A  
HETATM   11  C   UNL     1     -10.408   7.518  68.918  1.00  0.00    -0.220 A  
HETATM   12  C   UNL     1     -10.868   8.640  68.205  1.00  0.00    -0.018 A  
BRANCH  10  13
HETATM   13  C   UNL     1      -9.051   6.573  70.830  1.00  0.00    -0.154 C  
HETATM   14 CL   UNL     1      -5.697   3.152  72.298  1.00  0.00    -0.008 Cl 
HETATM   15  C   UNL     1      -7.879   6.136  70.290  1.00  0.00    -0.102 C  
HETATM   16  C   UNL     1      -7.039   4.324  72.093  1.00  0.00    -0.059 C  
HETATM   17  C   UNL     1      -6.887   5.062  70.768  1.00  0.00    -0.040 C  
BRANCH  13  18
HETATM   18  C   UNL     1      -9.671   5.894  72.009  1.00  0.00    -0.174 A  
HETATM   19  C   UNL     1      -9.564   6.490  73.277  1.00  0.00    -0.168 A  
HETATM   20  C   UNL     1     -10.107   5.878  74.411  1.00  0.00    -0.302 A  
HETATM   21  C   UNL     1     -10.880   4.054  73.036  1.00  0.00    -0.234 A  
HETATM   22  C   UNL     1     -10.783   4.667  74.286  1.00  0.00    -0.277 A  
HETATM   23  C   UNL     1     -10.305   4.649  71.906  1.00  0.00    -0.220 A  
ENDBRANCH  13  18
BRANCH  15  24
HETATM   24  C   UNL     1      -7.382   6.645  68.975  1.00  0.00    -0.094 A  
HETATM   25  C   UNL     1      -6.258   7.475  68.899  1.00  0.00    -0.035 A  
HETATM   26  C   UNL     1      -6.217   7.229  66.489  1.00  0.00    -0.040 A  
HETATM   27  C   UNL     1      -7.349   6.419  66.552  1.00  0.00    -0.078 A  
HETATM   28  C   UNL     1      -5.676   7.762  67.659  1.00  0.00    -0.037 A  
HETATM   29  C   UNL     1      -7.929   6.129  67.789  1.00  0.00    -0.106 A  
ENDBRANCH  15  24
ENDBRANCH  10  13
ENDBRANCH   6   7
ENDBRANCH   5   6
ENDBRANCH   4   5
ENDBRANCH   2   4
TORSDOF 7
ENDMDL
MODEL      157
REMARK 921   NORMALIZED FREE ENERGY PREDICTED BY IDOCK:    0.14 KCAL/MOL
REMARK 922        TOTAL FREE ENERGY PREDICTED BY IDOCK:   -1.87 KCAL/MOL
REMARK 923 INTER-LIGAND FREE ENERGY PREDICTED BY IDOCK:   -1.85 KCAL/MOL
REMARK 924 INTRA-LIGAND FREE ENERGY PREDICTED BY IDOCK:   -0.02 KCAL/MOL
REMARK 927      BINDING AFFINITY PREDICTED BY RF-SCORE:    0.00 PKD
ROOT
HETATM    1  C   UNL     1     -11.960  12.918  72.296  1.00  0.00     2.202 C  
HETATM    2  N   UNL     1     -12.609  13.294  71.038  1.00  0.00    -0.354 NA 
HETATM    3  C   UNL     1     -13.389  12.161  70.534  1.00  0.00     1.046 C  
ENDROOT
BRANCH   2   4
HETATM    4  C   UNL     1     -13.436  14.513  71.221  1.00  0.00    -0.362 C  
BRANCH   4   5
HETATM    5  C   UNL     1     -13.102  15.625  70.207  1.00  0.00     0.137 C  
BRANCH   5   6
HETATM    6  O   UNL     1     -11.691  15.858  70.084  1.00  0.00    -0.332 OA 
BRANCH   6   7
HETATM    7  C   UNL     1     -11.051  15.023  69.192  1.00  0.00    -0.270 A  
HETATM    8  C   UNL     1     -11.695  14.112  68.346  1.00  0.00    -0.380 A  
HETATM    9  C   UNL     1     -10.961  13.203  67.580  1.00  0.00    -0.282 A  
HETATM   10  C   UNL     1      -9.567  13.180  67.645  1.00  0.00    -0.210 A  
HETATM   11  C   UNL     1      -8.913  14.165  68.401  1.00  0.00    -0.189 A  
HETATM   12  C   UNL     1      -9.655  15.081  69.168  1.00  0.00    -0.202 A  
BRANCH  10  13
HETATM   13  C   UNL     1      -8.825  11.998  67.101  1.00  0.00    -0.188 C  
HETATM   14 CL   UNL     1      -6.786   8.277  64.438  1.00  0.00    -0.065 Cl 
HETATM   15  C   UNL     1      -9.077  11.506  65.856  1.00  0.00    -0.186 C  
HETATM   16  C   UNL     1      -7.246   9.550  65.613  1.00  0.00    -0.094 C  
HETATM   17  C   UNL     1      -8.435  10.342  65.083  1.00  0.00    -0.173 C  
BRANCH  13  18
HETATM   18  C   UNL     1      -7.892  11.305  68.042  1.00  0.00    -0.115 A  
HETATM   19  C   UNL     1      -8.419  10.436  69.013  1.00  0.00    -0.155 A  
HETATM   20  C   UNL     1      -7.586   9.788  69.930  1.00  0.00    -0.154 A  
HETATM   21  C   UNL     1      -5.673  10.860  68.927  1.00  0.00    -0.040 A  
HETATM   22  C   UNL     1      -6.208   9.986  69.873  1.00  0.00    -0.060 A  
HETATM   23  C   UNL     1      -6.511  11.539  68.032  1.00  0.00    -0.054 A  
ENDBRANCH  13  18
BRANCH  15  24
HETATM   24  C   UNL     1     -10.185  12.045  65.009  1.00  0.00    -0.308 A  
HETATM   25  C   UNL     1     -11.356  11.308  64.795  1.00  0.00    -0.043 A  
HETATM   26  C   UNL     1     -12.411  13.242  63.788  1.00  0.00    -0.440 A  
HETATM   27  C   UNL     1     -11.243  13.978  63.976  1.00  0.00     0.038 A  
HETATM   28  C   UNL     1     -12.466  11.908  64.190  1.00  0.00    -0.358 A  
HETATM   29  C   UNL     1     -10.135  13.382  64.583  1.00  0.00    -0.256 A  
ENDBRANCH  15  24
ENDBRANCH  10  13
ENDBRANCH   6   7
ENDBRANCH   5   6
ENDBRANCH   4   5
ENDBRANCH   2   4
TORSDOF 7
ENDMDL
MODEL      158
REMARK 921   NORMALIZED FREE ENERGY PREDICTED BY IDOCK:    0.57 KCAL/MOL
REMARK 922        TOTAL FREE ENERGY PREDICTED BY IDOCK:   -1.26 KCAL/MOL
REMARK 923 INTER-LIGAND FREE ENERGY PREDICTED BY IDOCK:   -1.30 KCAL/MOL
REMARK 924 INTRA-LIGAND FREE ENERGY PREDICTED BY IDOCK:    0.04 KCAL/MOL
REMARK 927      BINDING AFFINITY PREDICTED BY RF-SCORE:    0.00 PKD
ROOT
HETATM    1  C   UNL     1      -5.572  13.483  66.712  1.00  0.00     1.853 C  
HETATM    2  N   UNL     1      -5.728  12.040  66.903  1.00  0.00    -0.256 NA 
HETATM    3  C   UNL     1      -5.146  11.330  65.761  1.00  0.00    -0.007 C  
ENDROOT
BRANCH   2   4
HETATM    4  C   UNL     1      -5.131  11.616  68.195  1.00  0.00    -0.044 C  
BRANCH   4   5
HETATM    5  C   UNL     1      -5.698  10.279  68.711  1.00  0.00    -0.041 C  
BRANCH   5   6
HETATM    6  O   UNL     1      -7.121  10.312  68.892  1.00  0.00    -0.068 OA 
BRANCH   6   7
HETATM    7  C   UNL     1      -7.663  11.580  68.922  1.00  0.00    -0.088 A  
HETATM    8  C   UNL     1      -8.658  12.045  68.053  1.00  0.00    -0.170 A  
HETATM    9  C   UNL     1      -9.044  13.388  68.060  1.00  0.00    -0.205 A  
HETATM   10  C   UNL     1      -8.442  14.299  68.930  1.00  0.00    -0.031 A  
HETATM   11  C   UNL     1      -7.529  13.815  69.880  1.00  0.00     0.734 A  
HETATM   12  C   UNL     1      -7.145  12.463  69.874  1.00  0.00     0.684 A  
BRANCH  10  13
HETATM   13  C   UNL     1      -8.611  15.767  68.690  1.00  0.00    -0.194 C  
HETATM   14 CL   UNL     1      -9.940  20.594  68.497  1.00  0.00    -0.024 Cl 
HETATM   15  C   UNL     1      -9.712  16.441  69.124  1.00  0.00    -0.260 C  
HETATM   16  C   UNL     1      -9.151  18.984  68.450  1.00  0.00    -0.347 C  
HETATM   17  C   UNL     1     -10.088  17.929  69.024  1.00  0.00    -0.292 C  
BRANCH  13  18
HETATM   18  C   UNL     1      -7.575  16.427  67.837  1.00  0.00    -0.158 A  
HETATM   19  C   UNL     1      -7.938  16.900  66.564  1.00  0.00    -0.329 A  
HETATM   20  C   UNL     1      -6.996  17.500  65.722  1.00  0.00    -0.081 A  
HETATM   21  C   UNL     1      -5.303  17.171  67.407  1.00  0.00    -0.157 A  
HETATM   22  C   UNL     1      -5.681  17.653  66.154  1.00  0.00    -0.245 A  
HETATM   23  C   UNL     1      -6.237  16.537  68.236  1.00  0.00    -0.125 A  
ENDBRANCH  13  18
BRANCH  15  24
HETATM   24  C   UNL     1     -10.865  15.734  69.762  1.00  0.00    -0.314 A  
HETATM   25  C   UNL     1     -11.834  15.086  68.986  1.00  0.00    -0.330 A  
HETATM   26  C   UNL     1     -12.762  14.057  70.973  1.00  0.00    -0.431 A  
HETATM   27  C   UNL     1     -11.816  14.714  71.757  1.00  0.00    -0.300 A  
HETATM   28  C   UNL     1     -12.776  14.247  69.592  1.00  0.00     0.070 A  
HETATM   29  C   UNL     1     -10.872  15.549  71.154  1.00  0.00    -0.147 A  
ENDBRANCH  15  24
ENDBRANCH  10  13
ENDBRANCH   6   7
ENDBRANCH   5   6
ENDBRANCH   4   5
ENDBRANCH   2   4
TORSDOF 7
ENDMDL
MODEL      159
REMARK 921   NORMALIZED FREE ENERGY PREDICTED BY IDOCK:    0.94 KCAL/MOL
REMARK 922        TOTAL FREE ENERGY PREDICTED BY IDOCK:   -0.74 KCAL/MOL
REMARK 923 INTER-LIGAND FREE ENERGY PREDICTED BY IDOCK:   -2.40 KCAL/MOL
REMARK 924 INTRA-LIGAND FREE ENERGY PREDICTED BY IDOCK:    1.66 KCAL/MOL
REMARK 927      BINDING AFFINITY PREDICTED BY RF-SCORE:    0.00 PKD
ROOT
HETATM    1  C   UNL     1     -10.535   4.791  73.914  1.00  0.00    -0.262 C  
HETATM    2  N   UNL     1      -9.676   5.869  73.422  1.00  0.00    -0.154 NA 
HETATM    3  C   UNL     1      -9.354   6.779  74.525  1.00  0.00    -0.218 C  
ENDROOT
BRANCH   2   4
HETATM    4  C   UNL     1      -8.460   5.314  72.774  1.00  0.00    -0.116 C  
BRANCH   4   5
HETATM    5  C   UNL     1      -8.533   5.339  71.235  1.00  0.00    -0.124 C  
BRANCH   5   6
HETATM    6  O   UNL     1      -7.685   6.342  70.656  1.00  0.00    -0.100 OA 
BRANCH   6   7
HETATM    7  C   UNL     1      -8.354   7.456  70.193  1.00  0.00    -0.136 A  
HETATM    8  C   UNL     1      -7.749   8.538  69.541  1.00  0.00    -0.091 A  
HETATM    9  C   UNL     1      -8.479   9.690  69.236  1.00  0.00    -0.150 A  
HETATM   10  C   UNL     1      -9.828   9.790  69.580  1.00  0.00    -0.241 A  
HETATM   11  C   UNL     1     -10.466   8.667  70.129  1.00  0.00    -0.228 A  
HETATM   12  C   UNL     1      -9.730   7.508  70.431  1.00  0.00    -0.179 A  
BRANCH  10  13
HETATM   13  C   UNL     1     -10.493  11.132  69.565  1.00  0.00    -0.080 C  
HETATM   14 CL   UNL     1     -13.319  15.223  70.180  1.00  0.00     0.042 Cl 
HETATM   15  C   UNL     1     -11.679  11.350  70.199  1.00  0.00    -0.414 C  
HETATM   16  C   UNL     1     -12.069  13.986  69.830  1.00  0.00    -0.348 C  
HETATM   17  C   UNL     1     -12.525  12.626  70.345  1.00  0.00    -0.219 C  
BRANCH  13  18
HETATM   18  C   UNL     1      -9.858  12.181  68.710  1.00  0.00    -0.034 A  
HETATM   19  C   UNL     1     -10.492  12.568  67.517  1.00  0.00    -0.231 A  
HETATM   20  C   UNL     1      -9.922  13.527  66.674  1.00  0.00    -0.282 A  
HETATM   21  C   UNL     1      -8.065  13.739  68.198  1.00  0.00    -0.155 A  
HETATM   22  C   UNL     1      -8.715  14.127  67.026  1.00  0.00    -0.222 A  
HETATM   23  C   UNL     1      -8.618  12.752  69.024  1.00  0.00     0.483 A  
ENDBRANCH  13  18
BRANCH  15  24
HETATM   24  C   UNL     1     -12.439  10.237  70.846  1.00  0.00    -0.466 A  
HETATM   25  C   UNL     1     -12.929   9.162  70.094  1.00  0.00     1.152 A  
HETATM   26  C   UNL     1     -13.473   7.964  72.127  1.00  0.00    -0.163 A  
HETATM   27  C   UNL     1     -13.009   9.037  72.885  1.00  0.00     0.057 A  
HETATM   28  C   UNL     1     -13.440   8.028  70.736  1.00  0.00     0.401 A  
HETATM   29  C   UNL     1     -12.495  10.168  72.247  1.00  0.00     0.083 A  
ENDBRANCH  15  24
ENDBRANCH  10  13
ENDBRANCH   6   7
ENDBRANCH   5   6
ENDBRANCH   4   5
ENDBRANCH   2   4
TORSDOF 7
ENDMDL
MODEL      160
REMARK 921   NORMALIZED FREE ENERGY PREDICTED BY IDOCK:    2.97 KCAL/MOL
REMARK 922        TOTAL FREE ENERGY PREDICTED BY IDOCK:    2.12 KCAL/MOL
REMARK 923 INTER-LIGAND FREE ENERGY PREDICTED BY IDOCK:    2.55 KCAL/MOL
REMARK 924 INTRA-LIGAND FREE ENERGY PREDICTED BY IDOCK:   -0.43 KCAL/MOL
REMARK 927      BINDING AFFINITY PREDICTED BY RF-SCORE:    0.00 PKD
ROOT
HETATM    1  C   UNL     1     -11.431  19.920  69.655  1.00  0.00     3.975 C  
HETATM    2  N   UNL     1     -11.450  19.153  68.408  1.00  0.00     1.354 NA 
HETATM    3  C   UNL     1     -11.701  20.057  67.283  1.00  0.00     1.644 C  
ENDROOT
BRANCH   2   4
HETATM    4  C   UNL     1     -10.188  18.387  68.247  1.00  0.00    -0.384 C  
BRANCH   4   5
HETATM    5  C   UNL     1     -10.424  16.901  67.911  1.00  0.00    -0.344 C  
BRANCH   5   6
HETATM    6  O   UNL     1     -10.606  16.090  69.081  1.00  0.00    -0.225 OA 
BRANCH   6   7
HETATM    7  C   UNL     1     -10.223  14.774  68.929  1.00  0.00    -0.237 A  
HETATM    8  C   UNL     1      -8.948  14.273  69.219  1.00  0.00     0.272 A  
HETATM    9  C   UNL     1      -8.604  12.958  68.898  1.00  0.00     0.309 A  
HETATM   10  C   UNL     1      -9.524  12.114  68.273  1.00  0.00    -0.204 A  
HETATM   11  C   UNL     1     -10.837  12.573  68.085  1.00  0.00    -0.248 A  
HETATM   12  C   UNL     1     -11.181  13.896  68.413  1.00  0.00    -0.291 A  
BRANCH  10  13
HETATM   13  C   UNL     1      -9.043  10.849  67.630  1.00  0.00    -0.148 C  
HETATM   14 CL   UNL     1      -7.646   7.080  64.640  1.00  0.00    -0.099 Cl 
HETATM   15  C   UNL     1      -9.199  10.621  66.296  1.00  0.00    -0.193 C  
HETATM   16  C   UNL     1      -7.944   8.266  65.951  1.00  0.00    -0.097 C  
HETATM   17  C   UNL     1      -8.769   9.432  65.420  1.00  0.00    -0.194 C  
BRANCH  13  18
HETATM   18  C   UNL     1      -8.505   9.798  68.547  1.00  0.00    -0.115 A  
HETATM   19  C   UNL     1      -7.117   9.585  68.604  1.00  0.00    -0.069 A  
HETATM   20  C   UNL     1      -6.572   8.595  69.428  1.00  0.00    -0.045 A  
HETATM   21  C   UNL     1      -8.792   8.005  70.161  1.00  0.00    -0.143 A  
HETATM   22  C   UNL     1      -7.411   7.818  70.222  1.00  0.00    -0.067 A  
HETATM   23  C   UNL     1      -9.341   8.972  69.309  1.00  0.00    -0.150 A  
ENDBRANCH  13  18
BRANCH  15  24
HETATM   24  C   UNL     1      -9.960  11.565  65.422  1.00  0.00    -0.288 A  
HETATM   25  C   UNL     1     -11.120  11.156  64.753  1.00  0.00    -0.136 A  
HETATM   26  C   UNL     1     -11.602  13.451  64.146  1.00  0.00    -0.440 A  
HETATM   27  C   UNL     1     -10.438  13.867  64.791  1.00  0.00    -0.451 A  
HETATM   28  C   UNL     1     -11.939  12.099  64.121  1.00  0.00    -0.497 A  
HETATM   29  C   UNL     1      -9.621  12.927  65.425  1.00  0.00     0.063 A  
ENDBRANCH  15  24
ENDBRANCH  10  13
ENDBRANCH   6   7
ENDBRANCH   5   6
ENDBRANCH   4   5
ENDBRANCH   2   4
TORSDOF 7
ENDMDL
MODEL      161
REMARK 921   NORMALIZED FREE ENERGY PREDICTED BY IDOCK:    3.95 KCAL/MOL
REMARK 922        TOTAL FREE ENERGY PREDICTED BY IDOCK:    3.51 KCAL/MOL
REMARK 923 INTER-LIGAND FREE ENERGY PREDICTED BY IDOCK:   -0.24 KCAL/MOL
REMARK 924 INTRA-LIGAND FREE ENERGY PREDICTED BY IDOCK:    3.75 KCAL/MOL
REMARK 927      BINDING AFFINITY PREDICTED BY RF-SCORE:    0.00 PKD
ROOT
HETATM    1  C   UNL     1      -7.878  21.062  70.618  1.00  0.00     3.834 C  
HETATM    2  N   UNL     1      -6.692  20.326  70.175  1.00  0.00    -0.234 NA 
HETATM    3  C   UNL     1      -6.088  19.640  71.320  1.00  0.00    -0.007 C  
ENDROOT
BRANCH   2   4
HETATM    4  C   UNL     1      -7.036  19.392  69.074  1.00  0.00    -0.362 C  
BRANCH   4   5
HETATM    5  C   UNL     1      -7.755  20.085  67.899  1.00  0.00    -0.280 C  
BRANCH   5   6
HETATM    6  O   UNL     1      -8.842  19.306  67.377  1.00  0.00    -0.289 OA 
BRANCH   6   7
HETATM    7  C   UNL     1      -8.809  17.972  67.729  1.00  0.00    -0.255 A  
HETATM    8  C   UNL     1      -7.642  17.209  67.858  1.00  0.00    -0.180 A  
HETATM    9  C   UNL     1      -7.708  15.830  68.074  1.00  0.00    -0.136 A  
HETATM   10  C   UNL     1      -8.942  15.181  68.161  1.00  0.00    -0.174 A  
HETATM   11  C   UNL     1     -10.111  15.957  68.147  1.00  0.00    -0.229 A  
HETATM   12  C   UNL     1     -10.041  17.345  67.933  1.00  0.00    -0.326 A  
BRANCH  10  13
HETATM   13  C   UNL     1      -8.997  13.689  68.043  1.00  0.00    -0.188 C  
HETATM   14 CL   UNL     1      -8.566   8.711  68.413  1.00  0.00    -0.134 Cl 
HETATM   15  C   UNL     1      -8.159  12.884  68.753  1.00  0.00     0.087 C  
HETATM   16  C   UNL     1      -9.017  10.419  68.103  1.00  0.00    -0.132 C  
HETATM   17  C   UNL     1      -8.049  11.352  68.820  1.00  0.00    -0.112 C  
BRANCH  13  18
HETATM   18  C   UNL     1      -9.927  13.136  67.011  1.00  0.00    -0.244 A  
HETATM   19  C   UNL     1      -9.509  13.086  65.670  1.00  0.00     0.080 A  
HETATM   20  C   UNL     1     -10.354  12.600  64.668  1.00  0.00    -0.354 A  
HETATM   21  C   UNL     1     -12.060  12.198  66.324  1.00  0.00    -0.037 A  
HETATM   22  C   UNL     1     -11.625  12.137  65.000  1.00  0.00    -0.365 A  
HETATM   23  C   UNL     1     -11.227  12.719  67.322  1.00  0.00    -0.339 A  
ENDBRANCH  13  18
BRANCH  15  24
HETATM   24  C   UNL     1      -7.061  13.445  69.600  1.00  0.00     0.311 A  
HETATM   25  C   UNL     1      -6.893  14.827  69.742  1.00  0.00    -0.173 A  
HETATM   26  C   UNL     1      -5.287  14.467  71.520  1.00  0.00    -0.173 A  
HETATM   27  C   UNL     1      -5.431  13.089  71.372  1.00  0.00    -0.102 A  
HETATM   28  C   UNL     1      -6.011  15.334  70.703  1.00  0.00     0.006 A  
HETATM   29  C   UNL     1      -6.314  12.581  70.415  1.00  0.00     0.268 A  
ENDBRANCH  15  24
ENDBRANCH  10  13
ENDBRANCH   6   7
ENDBRANCH   5   6
ENDBRANCH   4   5
ENDBRANCH   2   4
TORSDOF 7
ENDMDL
MODEL      162
REMARK 921   NORMALIZED FREE ENERGY PREDICTED BY IDOCK:    4.87 KCAL/MOL
REMARK 922        TOTAL FREE ENERGY PREDICTED BY IDOCK:    4.79 KCAL/MOL
REMARK 923 INTER-LIGAND FREE ENERGY PREDICTED BY IDOCK:    2.95 KCAL/MOL
REMARK 924 INTRA-LIGAND FREE ENERGY PREDICTED BY IDOCK:    1.85 KCAL/MOL
REMARK 927      BINDING AFFINITY PREDICTED BY RF-SCORE:    0.00 PKD
ROOT
HETATM    1  C   UNL     1     -10.899  13.176  64.473  1.00  0.00    -0.383 C  
HETATM    2  N   UNL     1     -11.801  12.023  64.428  1.00  0.00    -0.336 NA 
HETATM    3  C   UNL     1     -11.978  11.594  63.039  1.00  0.00     0.178 C  
ENDROOT
BRANCH   2   4
HETATM    4  C   UNL     1     -11.294  10.930  65.297  1.00  0.00     0.443 C  
BRANCH   4   5
HETATM    5  C   UNL     1     -10.150  10.126  64.649  1.00  0.00    -0.140 C  
BRANCH   5   6
HETATM    6  O   UNL     1      -9.018  10.943  64.316  1.00  0.00    -0.173 OA 
BRANCH   6   7
HETATM    7  C   UNL     1      -8.293  11.384  65.404  1.00  0.00     0.306 A  
HETATM    8  C   UNL     1      -7.829  10.565  66.440  1.00  0.00    -0.138 A  
HETATM    9  C   UNL     1      -7.229  11.116  67.575  1.00  0.00    -0.101 A  
HETATM   10  C   UNL     1      -7.085  12.499  67.705  1.00  0.00    -0.139 A  
HETATM   11  C   UNL     1      -7.443  13.315  66.620  1.00  0.00     0.977 A  
HETATM   12  C   UNL     1      -8.043  12.757  65.477  1.00  0.00     2.591 A  
BRANCH  10  13
HETATM   13  C   UNL     1      -6.770  13.084  69.047  1.00  0.00    -0.099 C  
HETATM   14 CL   UNL     1      -5.381  14.139  73.743  1.00  0.00    -0.379 Cl 
HETATM   15  C   UNL     1      -6.377  12.304  70.092  1.00  0.00     0.041 C  
HETATM   16  C   UNL     1      -5.863  14.112  72.017  1.00  0.00     0.003 C  
HETATM   17  C   UNL     1      -5.977  12.672  71.531  1.00  0.00     0.971 C  
BRANCH  13  18
HETATM   18  C   UNL     1      -7.035  14.545  69.217  1.00  0.00    -0.141 A  
HETATM   19  C   UNL     1      -8.364  14.993  69.311  1.00  0.00    -0.169 A  
HETATM   20  C   UNL     1      -8.660  16.353  69.445  1.00  0.00     0.018 A  
HETATM   21  C   UNL     1      -6.302  16.855  69.397  1.00  0.00    -0.231 A  
HETATM   22  C   UNL     1      -7.625  17.283  69.508  1.00  0.00     0.330 A  
HETATM   23  C   UNL     1      -6.007  15.496  69.225  1.00  0.00    -0.112 A  
ENDBRANCH  13  18
BRANCH  15  24
HETATM   24  C   UNL     1      -6.350  10.812  69.992  1.00  0.00    -0.137 A  
HETATM   25  C   UNL     1      -7.467  10.044  70.338  1.00  0.00    -0.069 A  
HETATM   26  C   UNL     1      -6.429   8.072  69.389  1.00  0.00    -0.035 A  
HETATM   27  C   UNL     1      -5.302   8.823  69.060  1.00  0.00    -0.036 A  
HETATM   28  C   UNL     1      -7.506   8.679  70.032  1.00  0.00    -0.056 A  
HETATM   29  C   UNL     1      -5.263  10.187  69.360  1.00  0.00    -0.038 A  
ENDBRANCH  15  24
ENDBRANCH  10  13
ENDBRANCH   6   7
ENDBRANCH   5   6
ENDBRANCH   4   5
ENDBRANCH   2   4
TORSDOF 7
ENDMDL
MODEL      163
REMARK 921   NORMALIZED FREE ENERGY PREDICTED BY IDOCK:    5.04 KCAL/MOL
REMARK 922        TOTAL FREE ENERGY PREDICTED BY IDOCK:    5.04 KCAL/MOL
REMARK 923 INTER-LIGAND FREE ENERGY PREDICTED BY IDOCK:    1.66 KCAL/MOL
REMARK 924 INTRA-LIGAND FREE ENERGY PREDICTED BY IDOCK:    3.37 KCAL/MOL
REMARK 927      BINDING AFFINITY PREDICTED BY RF-SCORE:    0.00 PKD
ROOT
HETATM    1  C   UNL     1     -11.655   2.386  64.593  1.00  0.00     3.384 C  
HETATM    2  N   UNL     1     -10.315   2.967  64.689  1.00  0.00     0.117 NA 
HETATM    3  C   UNL     1     -10.393   4.263  65.368  1.00  0.00    -0.197 C  
ENDROOT
BRANCH   2   4
HETATM    4  C   UNL     1      -9.386   2.029  65.369  1.00  0.00     0.020 C  
BRANCH   4   5
HETATM    5  C   UNL     1      -9.130   2.396  66.844  1.00  0.00    -0.106 C  
BRANCH   5   6
HETATM    6  O   UNL     1      -7.795   2.870  67.074  1.00  0.00    -0.074 OA 
BRANCH   6   7
HETATM    7  C   UNL     1      -7.694   4.236  67.231  1.00  0.00    -0.081 A  
HETATM    8  C   UNL     1      -6.563   4.996  66.911  1.00  0.00    -0.050 A  
HETATM    9  C   UNL     1      -6.494   6.353  67.240  1.00  0.00    -0.052 A  
HETATM   10  C   UNL     1      -7.552   6.980  67.900  1.00  0.00    -0.111 A  
HETATM   11  C   UNL     1      -8.732   6.253  68.119  1.00  0.00    -0.115 A  
HETATM   12  C   UNL     1      -8.800   4.889  67.784  1.00  0.00    -0.109 A  
BRANCH  10  13
HETATM   13  C   UNL     1      -7.329   8.313  68.545  1.00  0.00    -0.093 C  
HETATM   14 CL   UNL     1      -5.986  12.277  71.298  1.00  0.00     0.474 Cl 
HETATM   15  C   UNL     1      -6.648   8.436  69.718  1.00  0.00    -0.039 C  
HETATM   16  C   UNL     1      -6.560  11.102  70.073  1.00  0.00    -0.104 C  
HETATM   17  C   UNL     1      -6.275   9.680  70.542  1.00  0.00    -0.078 C  
BRANCH  13  18
HETATM   18  C   UNL     1      -8.006   9.484  67.906  1.00  0.00    -0.098 A  
HETATM   19  C   UNL     1      -7.305  10.696  67.783  1.00  0.00    -0.089 A  
HETATM   20  C   UNL     1      -7.907  11.823  67.216  1.00  0.00    -0.161 A  
HETATM   21  C   UNL     1      -9.929  10.555  66.878  1.00  0.00    -0.246 A  
HETATM   22  C   UNL     1      -9.215  11.746  66.745  1.00  0.00    -0.196 A  
HETATM   23  C   UNL     1      -9.339   9.436  67.480  1.00  0.00    -0.147 A  
ENDBRANCH  13  18
BRANCH  15  24
HETATM   24  C   UNL     1      -6.185   7.240  70.486  1.00  0.00    -0.031 A  
HETATM   25  C   UNL     1      -5.389   7.378  71.629  1.00  0.00    -0.035 A  
HETATM   26  C   UNL     1      -5.694   5.031  72.147  1.00  0.00    -0.016 A  
HETATM   27  C   UNL     1      -6.470   4.878  70.999  1.00  0.00    -0.023 A  
HETATM   28  C   UNL     1      -5.149   6.275  72.458  1.00  0.00    -0.027 A  
HETATM   29  C   UNL     1      -6.714   5.977  70.173  1.00  0.00    -0.052 A  
ENDBRANCH  15  24
ENDBRANCH  10  13
ENDBRANCH   6   7
ENDBRANCH   5   6
ENDBRANCH   4   5
ENDBRANCH   2   4
TORSDOF 7
ENDMDL
MODEL      164
REMARK 921   NORMALIZED FREE ENERGY PREDICTED BY IDOCK:    5.25 KCAL/MOL
REMARK 922        TOTAL FREE ENERGY PREDICTED BY IDOCK:    5.34 KCAL/MOL
REMARK 923 INTER-LIGAND FREE ENERGY PREDICTED BY IDOCK:   -1.46 KCAL/MOL
REMARK 924 INTRA-LIGAND FREE ENERGY PREDICTED BY IDOCK:    6.79 KCAL/MOL
REMARK 927      BINDING AFFINITY PREDICTED BY RF-SCORE:    0.00 PKD
ROOT
HETATM    1  C   UNL     1     -13.571  13.601  72.236  1.00  0.00    -0.571 C  
HETATM    2  N   UNL     1     -12.691  13.680  71.069  1.00  0.00    -0.343 NA 
HETATM    3  C   UNL     1     -13.422  13.244  69.876  1.00  0.00     2.014 C  
ENDROOT
BRANCH   2   4
HETATM    4  C   UNL     1     -12.139  15.051  70.923  1.00  0.00    -0.324 C  
BRANCH   4   5
HETATM    5  C   UNL     1     -12.833  15.866  69.814  1.00  0.00     0.608 C  
BRANCH   5   6
HETATM    6  O   UNL     1     -12.520  15.389  68.497  1.00  0.00     0.122 OA 
BRANCH   6   7
HETATM    7  C   UNL     1     -11.795  14.216  68.472  1.00  0.00    -0.355 A  
HETATM    8  C   UNL     1     -10.738  13.911  69.338  1.00  0.00    -0.051 A  
HETATM    9  C   UNL     1      -9.964  12.764  69.148  1.00  0.00     0.385 A  
HETATM   10  C   UNL     1     -10.224  11.897  68.084  1.00  0.00    -0.203 A  
HETATM   11  C   UNL     1     -11.352  12.136  67.284  1.00  0.00    -0.398 A  
HETATM   12  C   UNL     1     -12.131  13.290  67.480  1.00  0.00    -0.312 A  
BRANCH  10  13
HETATM   13  C   UNL     1      -9.194  10.883  67.693  1.00  0.00    -0.155 C  
HETATM   14 CL   UNL     1      -5.125   8.247  66.429  1.00  0.00    -0.027 Cl 
HETATM   15  C   UNL     1      -7.927  11.246  67.349  1.00  0.00    -0.132 C  
HETATM   16  C   UNL     1      -6.717   8.874  66.964  1.00  0.00    -0.069 C  
HETATM   17  C   UNL     1      -6.709  10.398  66.946  1.00  0.00    -0.083 C  
BRANCH  13  18
HETATM   18  C   UNL     1      -9.664   9.469  67.570  1.00  0.00    -0.194 A  
HETATM   19  C   UNL     1      -9.908   8.937  66.292  1.00  0.00    -0.355 A  
HETATM   20  C   UNL     1     -10.372   7.628  66.131  1.00  0.00     0.585 A  
HETATM   21  C   UNL     1     -10.358   7.345  68.526  1.00  0.00    -0.221 A  
HETATM   22  C   UNL     1     -10.579   6.825  67.250  1.00  0.00    -0.390 A  
HETATM   23  C   UNL     1      -9.928   8.669  68.689  1.00  0.00    -0.197 A  
ENDBRANCH  13  18
BRANCH  15  24
HETATM   24  C   UNL     1      -7.527  12.682  67.232  1.00  0.00    -0.111 A  
HETATM   25  C   UNL     1      -8.418  13.644  66.742  1.00  0.00     0.012 A  
HETATM   26  C   UNL     1      -6.913  15.414  67.427  1.00  0.00    -0.222 A  
HETATM   27  C   UNL     1      -6.009  14.464  67.898  1.00  0.00    -0.149 A  
HETATM   28  C   UNL     1      -8.112  15.005  66.844  1.00  0.00    -0.161 A  
HETATM   29  C   UNL     1      -6.314  13.105  67.800  1.00  0.00    -0.156 A  
ENDBRANCH  15  24
ENDBRANCH  10  13
ENDBRANCH   6   7
ENDBRANCH   5   6
ENDBRANCH   4   5
ENDBRANCH   2   4
TORSDOF 7
ENDMDL
MODEL      165
REMARK 921   NORMALIZED FREE ENERGY PREDICTED BY IDOCK:    6.54 KCAL/MOL
REMARK 922        TOTAL FREE ENERGY PREDICTED BY IDOCK:    7.15 KCAL/MOL
REMARK 923 INTER-LIGAND FREE ENERGY PREDICTED BY IDOCK:    4.64 KCAL/MOL
REMARK 924 INTRA-LIGAND FREE ENERGY PREDICTED BY IDOCK:    2.50 KCAL/MOL
REMARK 927      BINDING AFFINITY PREDICTED BY RF-SCORE:    0.00 PKD
ROOT
HETATM    1  C   UNL     1     -12.818  12.270  62.856  1.00  0.00     0.562 C  
HETATM    2  N   UNL     1     -11.869  12.141  63.964  1.00  0.00    -0.412 NA 
HETATM    3  C   UNL     1     -12.245  10.996  64.797  1.00  0.00     1.977 C  
ENDROOT
BRANCH   2   4
HETATM    4  C   UNL     1     -10.479  12.035  63.451  1.00  0.00    -0.433 C  
BRANCH   4   5
HETATM    5  C   UNL     1      -9.568  11.180  64.353  1.00  0.00    -0.250 C  
BRANCH   5   6
HETATM    6  O   UNL     1      -8.646  11.970  65.118  1.00  0.00     0.588 OA 
BRANCH   6   7
HETATM    7  C   UNL     1      -9.235  12.768  66.076  1.00  0.00     0.037 A  
HETATM    8  C   UNL     1     -10.247  13.702  65.826  1.00  0.00    -0.317 A  
HETATM    9  C   UNL     1     -10.685  14.571  66.828  1.00  0.00    -0.291 A  
HETATM   10  C   UNL     1     -10.117  14.531  68.103  1.00  0.00    -0.227 A  
HETATM   11  C   UNL     1      -9.186  13.521  68.391  1.00  0.00    -0.159 A  
HETATM   12  C   UNL     1      -8.750  12.645  67.381  1.00  0.00    -0.191 A  
BRANCH  10  13
HETATM   13  C   UNL     1     -10.341  15.673  69.045  1.00  0.00    -0.225 C  
HETATM   14 CL   UNL     1     -10.526  19.998  71.568  1.00  0.00     2.651 Cl 
HETATM   15  C   UNL     1      -9.650  16.842  68.929  1.00  0.00    -0.249 C  
HETATM   16  C   UNL     1     -10.752  18.371  70.850  1.00  0.00     2.657 C  
HETATM   17  C   UNL     1      -9.727  18.143  69.744  1.00  0.00     0.710 C  
BRANCH  13  18
HETATM   18  C   UNL     1     -11.262  15.419  70.195  1.00  0.00    -0.318 A  
HETATM   19  C   UNL     1     -12.595  15.054  69.937  1.00  0.00    -0.201 A  
HETATM   20  C   UNL     1     -13.497  14.832  70.982  1.00  0.00    -0.401 A  
HETATM   21  C   UNL     1     -11.756  15.333  72.572  1.00  0.00    -0.535 A  
HETATM   22  C   UNL     1     -13.071  14.953  72.302  1.00  0.00    -0.439 A  
HETATM   23  C   UNL     1     -10.862  15.592  71.526  1.00  0.00     0.032 A  
ENDBRANCH  13  18
BRANCH  15  24
HETATM   24  C   UNL     1      -8.550  17.008  67.930  1.00  0.00    -0.207 A  
HETATM   25  C   UNL     1      -8.202  15.969  67.059  1.00  0.00    -0.255 A  
HETATM   26  C   UNL     1      -6.796  17.480  65.791  1.00  0.00    -0.084 A  
HETATM   27  C   UNL     1      -7.119  18.516  66.665  1.00  0.00    -0.233 A  
HETATM   28  C   UNL     1      -7.330  16.208  65.991  1.00  0.00     1.107 A  
HETATM   29  C   UNL     1      -7.991  18.280  67.731  1.00  0.00    -0.250 A  
ENDBRANCH  15  24
ENDBRANCH  10  13
ENDBRANCH   6   7
ENDBRANCH   5   6
ENDBRANCH   4   5
ENDBRANCH   2   4
TORSDOF 7
ENDMDL
MODEL      166
REMARK 921   NORMALIZED FREE ENERGY PREDICTED BY IDOCK:    6.90 KCAL/MOL
REMARK 922        TOTAL FREE ENERGY PREDICTED BY IDOCK:    7.66 KCAL/MOL
REMARK 923 INTER-LIGAND FREE ENERGY PREDICTED BY IDOCK:    5.62 KCAL/MOL
REMARK 924 INTRA-LIGAND FREE ENERGY PREDICTED BY IDOCK:    2.04 KCAL/MOL
REMARK 927      BINDING AFFINITY PREDICTED BY RF-SCORE:    0.00 PKD
ROOT
HETATM    1  C   UNL     1     -10.174  12.608  64.849  1.00  0.00    -0.272 C  
HETATM    2  N   UNL     1      -8.859  12.055  64.520  1.00  0.00     0.758 NA 
HETATM    3  C   UNL     1      -8.540  12.352  63.121  1.00  0.00     2.840 C  
ENDROOT
BRANCH   2   4
HETATM    4  C   UNL     1      -7.827  12.570  65.455  1.00  0.00     2.684 C  
BRANCH   4   5
HETATM    5  C   UNL     1      -6.456  11.890  65.274  1.00  0.00     2.879 C  
BRANCH   5   6
HETATM    6  O   UNL     1      -6.081  11.087  66.403  1.00  0.00    -0.115 OA 
BRANCH   6   7
HETATM    7  C   UNL     1      -7.129  10.417  67.000  1.00  0.00    -0.092 A  
HETATM    8  C   UNL     1      -8.480  10.602  66.683  1.00  0.00    -0.137 A  
HETATM    9  C   UNL     1      -9.484   9.989  67.437  1.00  0.00    -0.176 A  
HETATM   10  C   UNL     1      -9.161   9.182  68.530  1.00  0.00    -0.136 A  
HETATM   11  C   UNL     1      -7.809   8.901  68.780  1.00  0.00    -0.101 A  
HETATM   12  C   UNL     1      -6.801   9.516  68.017  1.00  0.00    -0.074 A  
BRANCH  10  13
HETATM   13  C   UNL     1     -10.226   8.823  69.520  1.00  0.00    -0.208 C  
HETATM   14 CL   UNL     1     -14.191   8.480  72.563  1.00  0.00    -0.391 Cl 
HETATM   15  C   UNL     1     -11.189   9.714  69.888  1.00  0.00    -0.244 C  
HETATM   16  C   UNL     1     -12.751   8.252  71.520  1.00  0.00    -0.305 C  
HETATM   17  C   UNL     1     -12.382   9.569  70.847  1.00  0.00    -0.305 C  
BRANCH  13  18
HETATM   18  C   UNL     1     -10.101   7.488  70.181  1.00  0.00    -0.195 A  
HETATM   19  C   UNL     1      -9.330   7.374  71.351  1.00  0.00    -0.149 A  
HETATM   20  C   UNL     1      -9.165   6.140  71.988  1.00  0.00    -0.148 A  
HETATM   21  C   UNL     1     -10.538   5.101  70.300  1.00  0.00    -0.230 A  
HETATM   22  C   UNL     1      -9.786   5.006  71.472  1.00  0.00    -0.241 A  
HETATM   23  C   UNL     1     -10.674   6.330  69.641  1.00  0.00    -0.367 A  
ENDBRANCH  13  18
BRANCH  15  24
HETATM   24  C   UNL     1     -11.170  11.132  69.414  1.00  0.00    -0.334 A  
HETATM   25  C   UNL     1     -10.075  11.965  69.671  1.00  0.00     0.896 A  
HETATM   26  C   UNL     1     -10.964  13.631  68.153  1.00  0.00    -0.273 A  
HETATM   27  C   UNL     1     -12.069  12.819  67.907  1.00  0.00    -0.187 A  
HETATM   28  C   UNL     1      -9.973  13.209  69.038  1.00  0.00     0.204 A  
HETATM   29  C   UNL     1     -12.171  11.575  68.535  1.00  0.00     0.038 A  
ENDBRANCH  15  24
ENDBRANCH  10  13
ENDBRANCH   6   7
ENDBRANCH   5   6
ENDBRANCH   4   5
ENDBRANCH   2   4
TORSDOF 7
ENDMDL
MODEL      167
REMARK 921   NORMALIZED FREE ENERGY PREDICTED BY IDOCK:    7.62 KCAL/MOL
REMARK 922        TOTAL FREE ENERGY PREDICTED BY IDOCK:    8.67 KCAL/MOL
REMARK 923 INTER-LIGAND FREE ENERGY PREDICTED BY IDOCK:    0.81 KCAL/MOL
REMARK 924 INTRA-LIGAND FREE ENERGY PREDICTED BY IDOCK:    7.86 KCAL/MOL
REMARK 927      BINDING AFFINITY PREDICTED BY RF-SCORE:    0.00 PKD
ROOT
HETATM    1  C   UNL     1     -11.935  12.019  67.212  1.00  0.00    -0.039 C  
HETATM    2  N   UNL     1     -11.626  10.634  67.571  1.00  0.00    -0.417 NA 
HETATM    3  C   UNL     1     -10.593  10.115  66.672  1.00  0.00    -0.144 C  
ENDROOT
BRANCH   2   4
HETATM    4  C   UNL     1     -11.231  10.540  69.000  1.00  0.00    -0.259 C  
BRANCH   4   5
HETATM    5  C   UNL     1      -9.844   9.898  69.200  1.00  0.00    -0.198 C  
BRANCH   5   6
HETATM    6  O   UNL     1      -8.773  10.739  68.746  1.00  0.00    -0.150 OA 
BRANCH   6   7
HETATM    7  C   UNL     1      -8.963  12.084  68.986  1.00  0.00     0.358 A  
HETATM    8  C   UNL     1     -10.210  12.717  69.048  1.00  0.00     0.103 A  
HETATM    9  C   UNL     1     -10.304  14.107  69.149  1.00  0.00    -0.102 A  
HETATM   10  C   UNL     1      -9.154  14.898  69.185  1.00  0.00    -0.140 A  
HETATM   11  C   UNL     1      -7.904  14.263  69.240  1.00  0.00     0.085 A  
HETATM   12  C   UNL     1      -7.813  12.863  69.141  1.00  0.00     0.388 A  
BRANCH  10  13
HETATM   13  C   UNL     1      -9.268  16.372  68.945  1.00  0.00    -0.259 C  
HETATM   14 CL   UNL     1     -10.150  21.304  68.983  1.00  0.00     1.080 Cl 
HETATM   15  C   UNL     1     -10.079  17.160  69.704  1.00  0.00     0.098 C  
HETATM   16  C   UNL     1      -9.574  19.623  68.745  1.00  0.00    -0.368 C  
HETATM   17  C   UNL     1     -10.335  18.676  69.666  1.00  0.00     0.660 C  
BRANCH  13  18
HETATM   18  C   UNL     1      -8.550  16.910  67.749  1.00  0.00    -0.208 A  
HETATM   19  C   UNL     1      -8.702  18.266  67.412  1.00  0.00    -0.257 A  
HETATM   20  C   UNL     1      -8.069  18.806  66.287  1.00  0.00    -0.270 A  
HETATM   21  C   UNL     1      -7.113  16.645  65.807  1.00  0.00     1.154 A  
HETATM   22  C   UNL     1      -7.258  17.997  65.495  1.00  0.00     0.090 A  
HETATM   23  C   UNL     1      -7.776  16.095  66.912  1.00  0.00    -0.284 A  
ENDBRANCH  13  18
BRANCH  15  24
HETATM   24  C   UNL     1     -10.988  16.583  70.741  1.00  0.00     0.087 A  
HETATM   25  C   UNL     1     -10.921  17.002  72.075  1.00  0.00     1.684 A  
HETATM   26  C   UNL     1     -12.974  15.815  72.570  1.00  0.00    -0.556 A  
HETATM   27  C   UNL     1     -13.038  15.374  71.250  1.00  0.00    -0.564 A  
HETATM   28  C   UNL     1     -11.915  16.621  72.984  1.00  0.00    -0.364 A  
HETATM   29  C   UNL     1     -12.049  15.756  70.340  1.00  0.00    -0.399 A  
ENDBRANCH  15  24
ENDBRANCH  10  13
ENDBRANCH   6   7
ENDBRANCH   5   6
ENDBRANCH   4   5
ENDBRANCH   2   4
TORSDOF 7
ENDMDL
MODEL      168
REMARK 921   NORMALIZED FREE ENERGY PREDICTED BY IDOCK:    7.86 KCAL/MOL
REMARK 922        TOTAL FREE ENERGY PREDICTED BY IDOCK:    9.02 KCAL/MOL
REMARK 923 INTER-LIGAND FREE ENERGY PREDICTED BY IDOCK:    1.96 KCAL/MOL
REMARK 924 INTRA-LIGAND FREE ENERGY PREDICTED BY IDOCK:    7.06 KCAL/MOL
REMARK 927      BINDING AFFINITY PREDICTED BY RF-SCORE:    0.00 PKD
ROOT
HETATM    1  C   UNL     1     -11.405  19.252  67.842  1.00  0.00     0.636 C  
HETATM    2  N   UNL     1     -10.358  18.244  67.660  1.00  0.00    -0.378 NA 
HETATM    3  C   UNL     1     -10.805  16.969  68.226  1.00  0.00    -0.341 C  
ENDROOT
BRANCH   2   4
HETATM    4  C   UNL     1      -9.988  18.129  66.227  1.00  0.00    -0.342 C  
BRANCH   4   5
HETATM    5  C   UNL     1      -8.790  17.189  65.988  1.00  0.00    -0.107 C  
BRANCH   5   6
HETATM    6  O   UNL     1      -8.073  16.887  67.194  1.00  0.00    -0.173 OA 
BRANCH   6   7
HETATM    7  C   UNL     1      -7.742  15.556  67.343  1.00  0.00    -0.194 A  
HETATM    8  C   UNL     1      -7.471  14.677  66.287  1.00  0.00     2.349 A  
HETATM    9  C   UNL     1      -7.288  13.312  66.521  1.00  0.00     1.498 A  
HETATM   10  C   UNL     1      -7.376  12.792  67.814  1.00  0.00    -0.130 A  
HETATM   11  C   UNL     1      -7.532  13.684  68.886  1.00  0.00    -0.033 A  
HETATM   12  C   UNL     1      -7.713  15.058  68.648  1.00  0.00    -0.128 A  
BRANCH  10  13
HETATM   13  C   UNL     1      -7.523  11.314  68.004  1.00  0.00    -0.095 C  
HETATM   14 CL   UNL     1      -7.696   6.552  69.549  1.00  0.00    -0.098 Cl 
HETATM   15  C   UNL     1      -7.053  10.686  69.117  1.00  0.00    -0.095 C  
HETATM   16  C   UNL     1      -7.858   8.146  68.745  1.00  0.00    -0.113 C  
HETATM   17  C   UNL     1      -7.111   9.209  69.542  1.00  0.00    -0.059 C  
BRANCH  13  18
HETATM   18  C   UNL     1      -8.092  10.547  66.853  1.00  0.00    -0.120 A  
HETATM   19  C   UNL     1      -8.788  11.239  65.846  1.00  0.00    -0.174 A  
HETATM   20  C   UNL     1      -9.358  10.559  64.766  1.00  0.00    -0.285 A  
HETATM   21  C   UNL     1      -8.550   8.475  65.670  1.00  0.00    -0.200 A  
HETATM   22  C   UNL     1      -9.221   9.176  64.669  1.00  0.00    -0.029 A  
HETATM   23  C   UNL     1      -8.010   9.151  66.772  1.00  0.00    -0.104 A  
ENDBRANCH  13  18
BRANCH  15  24
HETATM   24  C   UNL     1      -6.262  11.416  70.156  1.00  0.00    -0.138 A  
HETATM   25  C   UNL     1      -6.018  12.789  70.045  1.00  0.00    -0.142 A  
HETATM   26  C   UNL     1      -5.163  12.838  72.311  1.00  0.00     0.161 A  
HETATM   27  C   UNL     1      -5.382  11.466  72.424  1.00  0.00     0.610 A  
HETATM   28  C   UNL     1      -5.474  13.497  71.123  1.00  0.00    -0.204 A  
HETATM   29  C   UNL     1      -5.929  10.758  71.351  1.00  0.00     0.391 A  
ENDBRANCH  15  24
ENDBRANCH  10  13
ENDBRANCH   6   7
ENDBRANCH   5   6
ENDBRANCH   4   5
ENDBRANCH   2   4
TORSDOF 7
ENDMDL
MODEL      169
REMARK 921   NORMALIZED FREE ENERGY PREDICTED BY IDOCK:    7.93 KCAL/MOL
REMARK 922        TOTAL FREE ENERGY PREDICTED BY IDOCK:    9.12 KCAL/MOL
REMARK 923 INTER-LIGAND FREE ENERGY PREDICTED BY IDOCK:    8.56 KCAL/MOL
REMARK 924 INTRA-LIGAND FREE ENERGY PREDICTED BY IDOCK:    0.56 KCAL/MOL
REMARK 927      BINDING AFFINITY PREDICTED BY RF-SCORE:    0.00 PKD
ROOT
HETATM    1  C   UNL     1      -7.209  16.982  64.569  1.00  0.00     7.152 C  
HETATM    2  N   UNL     1      -7.421  16.255  65.822  1.00  0.00     0.909 NA 
HETATM    3  C   UNL     1      -7.939  17.174  66.838  1.00  0.00    -0.217 C  
ENDROOT
BRANCH   2   4
HETATM    4  C   UNL     1      -8.315  15.089  65.605  1.00  0.00     2.245 C  
BRANCH   4   5
HETATM    5  C   UNL     1      -9.757  15.495  65.243  1.00  0.00    -0.084 C  
BRANCH   5   6
HETATM    6  O   UNL     1     -10.621  15.552  66.387  1.00  0.00    -0.301 OA 
BRANCH   6   7
HETATM    7  C   UNL     1     -10.528  14.462  67.228  1.00  0.00    -0.269 A  
HETATM    8  C   UNL     1     -10.280  13.149  66.809  1.00  0.00    -0.252 A  
HETATM    9  C   UNL     1     -10.346  12.085  67.712  1.00  0.00    -0.210 A  
HETATM   10  C   UNL     1     -10.668  12.307  69.053  1.00  0.00    -0.149 A  
HETATM   11  C   UNL     1     -10.803  13.630  69.500  1.00  0.00     0.030 A  
HETATM   12  C   UNL     1     -10.732  14.700  68.590  1.00  0.00    -0.252 A  
BRANCH  10  13
HETATM   13  C   UNL     1     -11.072  11.150  69.913  1.00  0.00    -0.234 C  
HETATM   14 CL   UNL     1     -13.090   7.904  73.152  1.00  0.00     0.956 Cl 
HETATM   15  C   UNL     1     -11.953  11.297  70.941  1.00  0.00    -0.319 C  
HETATM   16  C   UNL     1     -12.246   8.775  71.831  1.00  0.00    -0.361 C  
HETATM   17  C   UNL     1     -12.532  10.268  71.928  1.00  0.00    -0.336 C  
BRANCH  13  18
HETATM   18  C   UNL     1     -10.358   9.858  69.672  1.00  0.00    -0.265 A  
HETATM   19  C   UNL     1     -10.834   8.989  68.674  1.00  0.00    -0.061 A  
HETATM   20  C   UNL     1     -10.213   7.760  68.432  1.00  0.00    -0.230 A  
HETATM   21  C   UNL     1      -8.622   8.236  70.180  1.00  0.00    -0.128 A  
HETATM   22  C   UNL     1      -9.094   7.392  69.174  1.00  0.00    -0.134 A  
HETATM   23  C   UNL     1      -9.266   9.451  70.448  1.00  0.00    -0.305 A  
ENDBRANCH  13  18
BRANCH  15  24
HETATM   24  C   UNL     1     -12.478  12.639  71.340  1.00  0.00    -0.209 A  
HETATM   25  C   UNL     1     -13.809  12.997  71.094  1.00  0.00     0.876 A  
HETATM   26  C   UNL     1     -13.551  14.971  72.476  1.00  0.00    -0.569 A  
HETATM   27  C   UNL     1     -12.219  14.635  72.709  1.00  0.00    -0.264 A  
HETATM   28  C   UNL     1     -14.342  14.158  71.665  1.00  0.00    -0.375 A  
HETATM   29  C   UNL     1     -11.685  13.474  72.143  1.00  0.00     1.916 A  
ENDBRANCH  15  24
ENDBRANCH  10  13
ENDBRANCH   6   7
ENDBRANCH   5   6
ENDBRANCH   4   5
ENDBRANCH   2   4
TORSDOF 7
ENDMDL
MODEL      170
REMARK 921   NORMALIZED FREE ENERGY PREDICTED BY IDOCK:   10.31 KCAL/MOL
REMARK 922        TOTAL FREE ENERGY PREDICTED BY IDOCK:   12.47 KCAL/MOL
REMARK 923 INTER-LIGAND FREE ENERGY PREDICTED BY IDOCK:    1.95 KCAL/MOL
REMARK 924 INTRA-LIGAND FREE ENERGY PREDICTED BY IDOCK:   10.52 KCAL/MOL
REMARK 927      BINDING AFFINITY PREDICTED BY RF-SCORE:    0.00 PKD
ROOT
HETATM    1  C   UNL     1      -9.189   7.116  69.408  1.00  0.00    -0.148 C  
HETATM    2  N   UNL     1     -10.486   6.453  69.262  1.00  0.00    -0.208 NA 
HETATM    3  C   UNL     1     -11.558   7.444  69.391  1.00  0.00     0.412 C  
ENDROOT
BRANCH   2   4
HETATM    4  C   UNL     1     -10.553   5.713  67.976  1.00  0.00    -0.188 C  
BRANCH   4   5
HETATM    5  C   UNL     1      -9.854   6.451  66.818  1.00  0.00    -0.162 C  
BRANCH   5   6
HETATM    6  O   UNL     1     -10.519   7.670  66.457  1.00  0.00    -0.215 OA 
BRANCH   6   7
HETATM    7  C   UNL     1      -9.911   8.815  66.929  1.00  0.00    -0.229 A  
HETATM    8  C   UNL     1      -8.616   9.228  66.594  1.00  0.00    -0.135 A  
HETATM    9  C   UNL     1      -8.025  10.322  67.232  1.00  0.00    -0.107 A  
HETATM   10  C   UNL     1      -8.712  11.024  68.224  1.00  0.00    -0.144 A  
HETATM   11  C   UNL     1     -10.050  10.686  68.482  1.00  0.00    -0.185 A  
HETATM   12  C   UNL     1     -10.643   9.587  67.835  1.00  0.00    -0.299 A  
BRANCH  10  13
HETATM   13  C   UNL     1      -7.957  11.951  69.125  1.00  0.00     0.249 C  
HETATM   14 CL   UNL     1      -5.146  14.228  72.592  1.00  0.00    -0.227 Cl 
HETATM   15  C   UNL     1      -7.355  11.509  70.265  1.00  0.00     1.477 C  
HETATM   16  C   UNL     1      -6.115  13.717  71.173  1.00  0.00     0.106 C  
HETATM   17  C   UNL     1      -6.514  12.253  71.316  1.00  0.00     2.300 C  
BRANCH  13  18
HETATM   18  C   UNL     1      -8.009  13.405  68.782  1.00  0.00     0.019 A  
HETATM   19  C   UNL     1      -7.704  14.354  69.773  1.00  0.00     0.312 A  
HETATM   20  C   UNL     1      -7.765  15.725  69.503  1.00  0.00    -0.166 A  
HETATM   21  C   UNL     1      -8.436  15.234  67.240  1.00  0.00    -0.216 A  
HETATM   22  C   UNL     1      -8.113  16.164  68.228  1.00  0.00    -0.153 A  
HETATM   23  C   UNL     1      -8.411  13.861  67.520  1.00  0.00    -0.200 A  
ENDBRANCH  13  18
BRANCH  15  24
HETATM   24  C   UNL     1      -7.512  10.099  70.739  1.00  0.00     0.526 A  
HETATM   25  C   UNL     1      -8.769   9.483  70.773  1.00  0.00    -0.108 A  
HETATM   26  C   UNL     1      -7.727   7.341  71.213  1.00  0.00    -0.088 A  
HETATM   27  C   UNL     1      -6.473   7.948  71.203  1.00  0.00    -0.037 A  
HETATM   28  C   UNL     1      -8.873   8.107  71.005  1.00  0.00    -0.163 A  
HETATM   29  C   UNL     1      -6.366   9.321  70.968  1.00  0.00    -0.076 A  
ENDBRANCH  15  24
ENDBRANCH  10  13
ENDBRANCH   6   7
ENDBRANCH   5   6
ENDBRANCH   4   5
ENDBRANCH   2   4
TORSDOF 7
ENDMDL
MODEL      171
REMARK 921   NORMALIZED FREE ENERGY PREDICTED BY IDOCK:   10.81 KCAL/MOL
REMARK 922        TOTAL FREE ENERGY PREDICTED BY IDOCK:   13.17 KCAL/MOL
REMARK 923 INTER-LIGAND FREE ENERGY PREDICTED BY IDOCK:    8.00 KCAL/MOL
REMARK 924 INTRA-LIGAND FREE ENERGY PREDICTED BY IDOCK:    5.16 KCAL/MOL
REMARK 927      BINDING AFFINITY PREDICTED BY RF-SCORE:    0.00 PKD
ROOT
HETATM    1  C   UNL     1      -7.753  10.582  67.661  1.00  0.00    -0.097 C  
HETATM    2  N   UNL     1      -8.010  12.019  67.550  1.00  0.00    -0.149 NA 
HETATM    3  C   UNL     1      -9.281  12.235  66.855  1.00  0.00    -0.209 C  
ENDROOT
BRANCH   2   4
HETATM    4  C   UNL     1      -7.982  12.660  68.890  1.00  0.00     0.176 C  
BRANCH   4   5
HETATM    5  C   UNL     1      -9.353  12.645  69.593  1.00  0.00     1.975 C  
BRANCH   5   6
HETATM    6  O   UNL     1     -10.260  11.691  69.022  1.00  0.00    -0.164 OA 
BRANCH   6   7
HETATM    7  C   UNL     1      -9.870  10.376  69.166  1.00  0.00    -0.223 A  
HETATM    8  C   UNL     1      -9.864   9.426  68.137  1.00  0.00    -0.183 A  
HETATM    9  C   UNL     1      -9.593   8.082  68.404  1.00  0.00    -0.157 A  
HETATM   10  C   UNL     1      -9.328   7.653  69.706  1.00  0.00    -0.150 A  
HETATM   11  C   UNL     1      -9.219   8.617  70.721  1.00  0.00    -0.223 A  
HETATM   12  C   UNL     1      -9.488   9.970  70.448  1.00  0.00     0.062 A  
BRANCH  10  13
HETATM   13  C   UNL     1      -9.386   6.192  70.026  1.00  0.00    -0.166 C  
HETATM   14 CL   UNL     1     -10.228   1.574  71.778  1.00  0.00    -0.212 Cl 
HETATM   15  C   UNL     1     -10.039   5.725  71.126  1.00  0.00    -0.257 C  
HETATM   16  C   UNL     1      -9.806   3.058  70.864  1.00  0.00     0.021 C  
HETATM   17  C   UNL     1     -10.256   4.291  71.638  1.00  0.00    -0.160 C  
BRANCH  13  18
HETATM   18  C   UNL     1      -8.580   5.285  69.152  1.00  0.00    -0.102 A  
HETATM   19  C   UNL     1      -9.184   4.709  68.021  1.00  0.00    -0.158 A  
HETATM   20  C   UNL     1      -8.475   3.836  67.190  1.00  0.00    -0.102 A  
HETATM   21  C   UNL     1      -6.536   4.093  68.599  1.00  0.00    -0.037 A  
HETATM   22  C   UNL     1      -7.143   3.543  67.470  1.00  0.00    -0.058 A  
HETATM   23  C   UNL     1      -7.256   4.939  69.453  1.00  0.00    -0.056 A  
ENDBRANCH  13  18
BRANCH  15  24
HETATM   24  C   UNL     1     -10.636   6.652  72.137  1.00  0.00    -0.238 A  
HETATM   25  C   UNL     1     -12.004   6.946  72.129  1.00  0.00    -0.302 A  
HETATM   26  C   UNL     1     -11.801   8.034  74.284  1.00  0.00     6.496 A  
HETATM   27  C   UNL     1     -10.434   7.765  74.292  1.00  0.00     1.750 A  
HETATM   28  C   UNL     1     -12.583   7.632  73.203  1.00  0.00     1.174 A  
HETATM   29  C   UNL     1      -9.854   7.078  73.223  1.00  0.00    -0.248 A  
ENDBRANCH  15  24
ENDBRANCH  10  13
ENDBRANCH   6   7
ENDBRANCH   5   6
ENDBRANCH   4   5
ENDBRANCH   2   4
TORSDOF 7
ENDMDL
MODEL      172
REMARK 921   NORMALIZED FREE ENERGY PREDICTED BY IDOCK:   12.15 KCAL/MOL
REMARK 922        TOTAL FREE ENERGY PREDICTED BY IDOCK:   15.05 KCAL/MOL
REMARK 923 INTER-LIGAND FREE ENERGY PREDICTED BY IDOCK:   12.29 KCAL/MOL
REMARK 924 INTRA-LIGAND FREE ENERGY PREDICTED BY IDOCK:    2.77 KCAL/MOL
REMARK 927      BINDING AFFINITY PREDICTED BY RF-SCORE:    0.00 PKD
ROOT
HETATM    1  C   UNL     1     -13.542  15.599  74.029  1.00  0.00     1.144 C  
HETATM    2  N   UNL     1     -12.407  15.432  73.118  1.00  0.00    -0.405 NA 
HETATM    3  C   UNL     1     -12.327  14.034  72.690  1.00  0.00     0.127 C  
ENDROOT
BRANCH   2   4
HETATM    4  C   UNL     1     -12.516  16.370  71.971  1.00  0.00     0.047 C  
BRANCH   4   5
HETATM    5  C   UNL     1     -11.351  17.376  71.903  1.00  0.00     1.641 C  
BRANCH   5   6
HETATM    6  O   UNL     1     -10.066  16.736  71.869  1.00  0.00     3.930 OA 
BRANCH   6   7
HETATM    7  C   UNL     1      -9.796  16.061  70.698  1.00  0.00     1.179 A  
HETATM    8  C   UNL     1      -9.255  16.644  69.545  1.00  0.00     0.196 A  
HETATM    9  C   UNL     1      -9.150  15.918  68.356  1.00  0.00    -0.189 A  
HETATM   10  C   UNL     1      -9.588  14.594  68.289  1.00  0.00    -0.208 A  
HETATM   11  C   UNL     1     -10.023  13.970  69.469  1.00  0.00     0.448 A  
HETATM   12  C   UNL     1     -10.124  14.702  70.665  1.00  0.00     1.051 A  
BRANCH  10  13
HETATM   13  C   UNL     1      -9.791  13.953  66.951  1.00  0.00    -0.268 C  
HETATM   14 CL   UNL     1     -10.119  11.004  62.914  1.00  0.00    -0.274 Cl 
HETATM   15  C   UNL     1      -9.319  12.705  66.677  1.00  0.00    -0.236 C  
HETATM   16  C   UNL     1     -10.236  12.262  64.186  1.00  0.00    -0.349 C  
HETATM   17  C   UNL     1      -9.427  11.842  65.408  1.00  0.00    -0.157 C  
BRANCH  13  18
HETATM   18  C   UNL     1     -10.418  14.803  65.893  1.00  0.00    -0.324 A  
HETATM   19  C   UNL     1     -11.227  15.887  66.275  1.00  0.00     0.096 A  
HETATM   20  C   UNL     1     -11.854  16.692  65.319  1.00  0.00     1.391 A  
HETATM   21  C   UNL     1     -10.877  15.350  63.570  1.00  0.00     3.192 A  
HETATM   22  C   UNL     1     -11.662  16.434  63.965  1.00  0.00     0.662 A  
HETATM   23  C   UNL     1     -10.279  14.521  64.528  1.00  0.00     0.205 A  
ENDBRANCH  13  18
BRANCH  15  24
HETATM   24  C   UNL     1      -8.475  11.952  67.655  1.00  0.00    -0.156 A  
HETATM   25  C   UNL     1      -8.625  10.571  67.827  1.00  0.00    -0.118 A  
HETATM   26  C   UNL     1      -6.604  10.500  69.161  1.00  0.00    -0.057 A  
HETATM   27  C   UNL     1      -6.458  11.878  69.014  1.00  0.00    -0.086 A  
HETATM   28  C   UNL     1      -7.688   9.849  68.575  1.00  0.00    -0.081 A  
HETATM   29  C   UNL     1      -7.389  12.600  68.265  1.00  0.00    -0.116 A  
ENDBRANCH  15  24
ENDBRANCH  10  13
ENDBRANCH   6   7
ENDBRANCH   5   6
ENDBRANCH   4   5
ENDBRANCH   2   4
TORSDOF 7
ENDMDL
MODEL      173
REMARK 921   NORMALIZED FREE ENERGY PREDICTED BY IDOCK:   13.92 KCAL/MOL
REMARK 922        TOTAL FREE ENERGY PREDICTED BY IDOCK:   17.56 KCAL/MOL
REMARK 923 INTER-LIGAND FREE ENERGY PREDICTED BY IDOCK:   11.90 KCAL/MOL
REMARK 924 INTRA-LIGAND FREE ENERGY PREDICTED BY IDOCK:    5.65 KCAL/MOL
REMARK 927      BINDING AFFINITY PREDICTED BY RF-SCORE:    0.00 PKD
ROOT
HETATM    1  C   UNL     1      -5.932  16.955  70.349  1.00  0.00     0.089 C  
HETATM    2  N   UNL     1      -5.757  18.145  71.183  1.00  0.00     0.132 NA 
HETATM    3  C   UNL     1      -6.936  19.006  71.060  1.00  0.00     1.903 C  
ENDROOT
BRANCH   2   4
HETATM    4  C   UNL     1      -5.482  17.760  72.591  1.00  0.00     2.636 C  
BRANCH   4   5
HETATM    5  C   UNL     1      -5.139  16.266  72.751  1.00  0.00     1.983 C  
BRANCH   5   6
HETATM    6  O   UNL     1      -6.305  15.430  72.790  1.00  0.00     1.685 OA 
BRANCH   6   7
HETATM    7  C   UNL     1      -7.013  15.383  71.607  1.00  0.00     2.581 A  
HETATM    8  C   UNL     1      -8.385  15.632  71.487  1.00  0.00     5.187 A  
HETATM    9  C   UNL     1      -9.049  15.419  70.275  1.00  0.00     0.705 A  
HETATM   10  C   UNL     1      -8.357  14.948  69.157  1.00  0.00    -0.150 A  
HETATM   11  C   UNL     1      -6.963  14.809  69.241  1.00  0.00    -0.149 A  
HETATM   12  C   UNL     1      -6.298  15.027  70.460  1.00  0.00    -0.012 A  
BRANCH  10  13
HETATM   13  C   UNL     1      -9.125  14.403  67.993  1.00  0.00    -0.188 C  
HETATM   14 CL   UNL     1     -11.482  13.439  63.679  1.00  0.00    -0.289 Cl 
HETATM   15  C   UNL     1      -9.459  15.183  66.928  1.00  0.00    -0.253 C  
HETATM   16  C   UNL     1     -10.641  13.432  65.262  1.00  0.00    -0.325 C  
HETATM   17  C   UNL     1     -10.205  14.846  65.626  1.00  0.00    -0.382 C  
BRANCH  13  18
HETATM   18  C   UNL     1      -9.620  12.998  68.120  1.00  0.00    -0.227 A  
HETATM   19  C   UNL     1     -10.876  12.765  68.709  1.00  0.00    -0.270 A  
HETATM   20  C   UNL     1     -11.367  11.466  68.871  1.00  0.00    -0.334 A  
HETATM   21  C   UNL     1      -9.359  10.597  67.858  1.00  0.00    -0.154 A  
HETATM   22  C   UNL     1     -10.614  10.382  68.427  1.00  0.00    -0.238 A  
HETATM   23  C   UNL     1      -8.850  11.895  67.729  1.00  0.00    -0.166 A  
ENDBRANCH  13  18
BRANCH  15  24
HETATM   24  C   UNL     1      -9.179  16.652  66.912  1.00  0.00    -0.245 A  
HETATM   25  C   UNL     1      -7.868  17.139  66.970  1.00  0.00    -0.229 A  
HETATM   26  C   UNL     1      -8.654  19.370  66.445  1.00  0.00    -0.372 A  
HETATM   27  C   UNL     1      -9.965  18.899  66.406  1.00  0.00    -0.435 A  
HETATM   28  C   UNL     1      -7.609  18.494  66.733  1.00  0.00    -0.246 A  
HETATM   29  C   UNL     1     -10.226  17.547  66.639  1.00  0.00    -0.332 A  
ENDBRANCH  15  24
ENDBRANCH  10  13
ENDBRANCH   6   7
ENDBRANCH   5   6
ENDBRANCH   4   5
ENDBRANCH   2   4
TORSDOF 7
ENDMDL
MODEL      174
REMARK 921   NORMALIZED FREE ENERGY PREDICTED BY IDOCK:   17.43 KCAL/MOL
REMARK 922        TOTAL FREE ENERGY PREDICTED BY IDOCK:   22.50 KCAL/MOL
REMARK 923 INTER-LIGAND FREE ENERGY PREDICTED BY IDOCK:   11.28 KCAL/MOL
REMARK 924 INTRA-LIGAND FREE ENERGY PREDICTED BY IDOCK:   11.22 KCAL/MOL
REMARK 927      BINDING AFFINITY PREDICTED BY RF-SCORE:    0.00 PKD
ROOT
HETATM    1  C   UNL     1     -12.017   2.339  64.810  1.00  0.00     6.107 C  
HETATM    2  N   UNL     1     -10.727   2.697  65.404  1.00  0.00     1.831 NA 
HETATM    3  C   UNL     1     -10.897   3.863  66.275  1.00  0.00     1.716 C  
ENDROOT
BRANCH   2   4
HETATM    4  C   UNL     1     -10.142   1.536  66.122  1.00  0.00     1.381 C  
BRANCH   4   5
HETATM    5  C   UNL     1     -10.470   1.530  67.628  1.00  0.00     2.572 C  
BRANCH   5   6
HETATM    6  O   UNL     1      -9.382   2.007  68.434  1.00  0.00    -0.167 OA 
BRANCH   6   7
HETATM    7  C   UNL     1      -8.696   3.075  67.893  1.00  0.00    -0.111 A  
HETATM    8  C   UNL     1      -7.394   3.448  68.244  1.00  0.00    -0.050 A  
HETATM    9  C   UNL     1      -6.829   4.629  67.754  1.00  0.00    -0.056 A  
HETATM   10  C   UNL     1      -7.556   5.467  66.907  1.00  0.00    -0.089 A  
HETATM   11  C   UNL     1      -8.817   5.040  66.461  1.00  0.00    -0.112 A  
HETATM   12  C   UNL     1      -9.380   3.850  66.952  1.00  0.00    -0.208 A  
BRANCH  10  13
HETATM   13  C   UNL     1      -7.083   6.869  66.676  1.00  0.00    -0.071 C  
HETATM   14 CL   UNL     1      -5.662  11.669  66.864  1.00  0.00    -0.129 Cl 
HETATM   15  C   UNL     1      -7.189   7.827  67.638  1.00  0.00    -0.091 C  
HETATM   16  C   UNL     1      -5.984   9.944  66.496  1.00  0.00    -0.059 C  
HETATM   17  C   UNL     1      -6.754   9.302  67.644  1.00  0.00    -0.068 C  
BRANCH  13  18
HETATM   18  C   UNL     1      -6.612   7.195  65.294  1.00  0.00    -0.047 A  
HETATM   19  C   UNL     1      -6.075   8.468  65.037  1.00  0.00    -0.052 A  
HETATM   20  C   UNL     1      -5.646   8.825  63.755  1.00  0.00    -0.066 A  
HETATM   21  C   UNL     1      -6.281   6.641  62.952  1.00  0.00    -0.038 A  
HETATM   22  C   UNL     1      -5.732   7.902  62.715  1.00  0.00    -0.067 A  
HETATM   23  C   UNL     1      -6.745   6.296  64.228  1.00  0.00    -0.038 A  
ENDBRANCH  13  18
BRANCH  15  24
HETATM   24  C   UNL     1      -7.886   7.565  68.934  1.00  0.00    -0.124 A  
HETATM   25  C   UNL     1      -9.261   7.789  69.074  1.00  0.00    -0.143 A  
HETATM   26  C   UNL     1      -9.245   6.662  71.218  1.00  0.00    -0.155 A  
HETATM   27  C   UNL     1      -7.873   6.453  71.099  1.00  0.00    -0.114 A  
HETATM   28  C   UNL     1      -9.937   7.334  70.212  1.00  0.00    -0.188 A  
HETATM   29  C   UNL     1      -7.196   6.903  69.962  1.00  0.00    -0.080 A  
ENDBRANCH  15  24
ENDBRANCH  10  13
ENDBRANCH   6   7
ENDBRANCH   5   6
ENDBRANCH   4   5
ENDBRANCH   2   4
TORSDOF 7
ENDMDL
MODEL      175
REMARK 921   NORMALIZED FREE ENERGY PREDICTED BY IDOCK:   17.99 KCAL/MOL
REMARK 922        TOTAL FREE ENERGY PREDICTED BY IDOCK:   23.29 KCAL/MOL
REMARK 923 INTER-LIGAND FREE ENERGY PREDICTED BY IDOCK:   14.95 KCAL/MOL
REMARK 924 INTRA-LIGAND FREE ENERGY PREDICTED BY IDOCK:    8.34 KCAL/MOL
REMARK 927      BINDING AFFINITY PREDICTED BY RF-SCORE:    0.00 PKD
ROOT
HETATM    1  C   UNL     1     -12.037   2.337  64.818  1.00  0.00     7.010 C  
HETATM    2  N   UNL     1     -10.758   2.689  65.439  1.00  0.00     1.831 NA 
HETATM    3  C   UNL     1     -10.940   3.857  66.304  1.00  0.00     2.151 C  
ENDROOT
BRANCH   2   4
HETATM    4  C   UNL     1     -10.196   1.526  66.172  1.00  0.00     1.741 C  
BRANCH   4   5
HETATM    5  C   UNL     1     -10.568   1.518  67.667  1.00  0.00     3.201 C  
BRANCH   5   6
HETATM    6  O   UNL     1      -9.512   2.014  68.504  1.00  0.00    -0.180 OA 
BRANCH   6   7
HETATM    7  C   UNL     1      -8.828   3.092  67.981  1.00  0.00    -0.127 A  
HETATM    8  C   UNL     1      -7.544   3.489  68.372  1.00  0.00    -0.056 A  
HETATM    9  C   UNL     1      -6.985   4.677  67.896  1.00  0.00    -0.060 A  
HETATM   10  C   UNL     1      -7.699   5.500  67.022  1.00  0.00    -0.100 A  
HETATM   11  C   UNL     1      -8.937   5.050  66.538  1.00  0.00    -0.116 A  
HETATM   12  C   UNL     1      -9.495   3.851  67.016  1.00  0.00    -0.226 A  
BRANCH  10  13
HETATM   13  C   UNL     1      -7.242   6.909  66.800  1.00  0.00    -0.076 C  
HETATM   14 CL   UNL     1      -5.877  11.424  65.112  1.00  0.00     0.732 Cl 
HETATM   15  C   UNL     1      -7.001   7.395  65.551  1.00  0.00    -0.060 C  
HETATM   16  C   UNL     1      -6.405   9.975  66.026  1.00  0.00    -0.087 C  
HETATM   17  C   UNL     1      -6.562   8.791  65.079  1.00  0.00    -0.068 C  
BRANCH  13  18
HETATM   18  C   UNL     1      -6.938   7.711  68.024  1.00  0.00    -0.079 A  
HETATM   19  C   UNL     1      -5.602   8.048  68.308  1.00  0.00    -0.033 A  
HETATM   20  C   UNL     1      -5.269   8.775  69.454  1.00  0.00    -0.035 A  
HETATM   21  C   UNL     1      -7.600   8.851  70.066  1.00  0.00    -0.066 A  
HETATM   22  C   UNL     1      -6.273   9.193  70.324  1.00  0.00    -0.045 A  
HETATM   23  C   UNL     1      -7.931   8.090  68.937  1.00  0.00    -0.118 A  
ENDBRANCH  13  18
BRANCH  15  24
HETATM   24  C   UNL     1      -7.067   6.518  64.341  1.00  0.00    -0.064 A  
HETATM   25  C   UNL     1      -6.026   5.636  64.031  1.00  0.00    -0.025 A  
HETATM   26  C   UNL     1      -7.398   4.586  62.332  1.00  0.00    -0.039 A  
HETATM   27  C   UNL     1      -8.433   5.474  62.619  1.00  0.00    -0.075 A  
HETATM   28  C   UNL     1      -6.195   4.670  63.031  1.00  0.00    -0.021 A  
HETATM   29  C   UNL     1      -8.268   6.436  63.618  1.00  0.00     0.044 A  
ENDBRANCH  15  24
ENDBRANCH  10  13
ENDBRANCH   6   7
ENDBRANCH   5   6
ENDBRANCH   4   5
ENDBRANCH   2   4
TORSDOF 7
ENDMDL
MODEL      176
REMARK 921   NORMALIZED FREE ENERGY PREDICTED BY IDOCK:   27.10 KCAL/MOL
REMARK 922        TOTAL FREE ENERGY PREDICTED BY IDOCK:   36.13 KCAL/MOL
REMARK 923 INTER-LIGAND FREE ENERGY PREDICTED BY IDOCK:   32.69 KCAL/MOL
REMARK 924 INTRA-LIGAND FREE ENERGY PREDICTED BY IDOCK:    3.44 KCAL/MOL
REMARK 927      BINDING AFFINITY PREDICTED BY RF-SCORE:    0.00 PKD
ROOT
HETATM    1  C   UNL     1     -11.491  19.900  69.693  1.00  0.00     3.975 C  
HETATM    2  N   UNL     1     -11.670  18.980  68.568  1.00  0.00     2.289 NA 
HETATM    3  C   UNL     1     -11.923  19.746  67.345  1.00  0.00     2.199 C  
ENDROOT
BRANCH   2   4
HETATM    4  C   UNL     1     -10.497  18.079  68.438  1.00  0.00    -0.315 C  
BRANCH   4   5
HETATM    5  C   UNL     1     -10.879  16.586  68.452  1.00  0.00    -0.348 C  
BRANCH   5   6
HETATM    6  O   UNL     1     -10.962  16.047  69.780  1.00  0.00    -0.282 OA 
BRANCH   6   7
HETATM    7  C   UNL     1     -10.736  14.689  69.860  1.00  0.00    -0.057 A  
HETATM    8  C   UNL     1      -9.479  14.097  70.035  1.00  0.00     1.481 A  
HETATM    9  C   UNL     1      -9.322  12.711  69.959  1.00  0.00     3.428 A  
HETATM   10  C   UNL     1     -10.417  11.884  69.701  1.00  0.00     0.478 A  
HETATM   11  C   UNL     1     -11.695  12.461  69.641  1.00  0.00    -0.377 A  
HETATM   12  C   UNL     1     -11.850  13.856  69.722  1.00  0.00    -0.390 A  
BRANCH  10  13
HETATM   13  C   UNL     1     -10.185  10.465  69.283  1.00  0.00    -0.248 C  
HETATM   14 CL   UNL     1      -9.823   5.999  67.041  1.00  0.00    -0.162 Cl 
HETATM   15  C   UNL     1     -10.712   9.963  68.132  1.00  0.00    -0.279 C  
HETATM   16  C   UNL     1      -9.699   7.472  68.056  1.00  0.00    -0.146 C  
HETATM   17  C   UNL     1     -10.590   8.571  67.490  1.00  0.00    -0.284 C  
BRANCH  13  18
HETATM   18  C   UNL     1      -9.458   9.593  70.256  1.00  0.00    -0.300 A  
HETATM   19  C   UNL     1      -8.120   9.246  69.998  1.00  0.00    -0.140 A  
HETATM   20  C   UNL     1      -7.410   8.412  70.868  1.00  0.00    -0.064 A  
HETATM   21  C   UNL     1      -9.358   8.252  72.280  1.00  0.00    -0.323 A  
HETATM   22  C   UNL     1      -8.026   7.931  72.020  1.00  0.00    -0.135 A  
HETATM   23  C   UNL     1     -10.081   9.057  71.390  1.00  0.00    -0.399 A  
ENDBRANCH  13  18
BRANCH  15  24
HETATM   24  C   UNL     1     -11.646  10.763  67.282  1.00  0.00     0.167 A  
HETATM   25  C   UNL     1     -11.864  10.433  65.939  1.00  0.00     2.805 A  
HETATM   26  C   UNL     1     -13.711  11.998  65.836  1.00  0.00     7.172 A  
HETATM   27  C   UNL     1     -13.488  12.349  67.166  1.00  0.00     6.888 A  
HETATM   28  C   UNL     1     -12.898  11.047  65.222  1.00  0.00     4.897 A  
HETATM   29  C   UNL     1     -12.460  11.736  67.885  1.00  0.00     1.162 A  
ENDBRANCH  15  24
ENDBRANCH  10  13
ENDBRANCH   6   7
ENDBRANCH   5   6
ENDBRANCH   4   5
ENDBRANCH   2   4
TORSDOF 7
ENDMDL
MODEL      177
REMARK 921   NORMALIZED FREE ENERGY PREDICTED BY IDOCK:   34.72 KCAL/MOL
REMARK 922        TOTAL FREE ENERGY PREDICTED BY IDOCK:   46.87 KCAL/MOL
REMARK 923 INTER-LIGAND FREE ENERGY PREDICTED BY IDOCK:   11.93 KCAL/MOL
REMARK 924 INTRA-LIGAND FREE ENERGY PREDICTED BY IDOCK:   34.94 KCAL/MOL
REMARK 927      BINDING AFFINITY PREDICTED BY RF-SCORE:    0.00 PKD
ROOT
HETATM    1  C   UNL     1     -11.251  10.272  68.115  1.00  0.00    -0.229 C  
HETATM    2  N   UNL     1     -11.398   9.281  67.047  1.00  0.00     0.724 NA 
HETATM    3  C   UNL     1     -11.021   9.883  65.766  1.00  0.00     0.893 C  
ENDROOT
BRANCH   2   4
HETATM    4  C   UNL     1     -10.608   8.061  67.353  1.00  0.00    -0.267 C  
BRANCH   4   5
HETATM    5  C   UNL     1     -10.483   7.788  68.865  1.00  0.00    -0.194 C  
BRANCH   5   6
HETATM    6  O   UNL     1     -11.028   8.846  69.667  1.00  0.00    -0.216 OA 
BRANCH   6   7
HETATM    7  C   UNL     1     -10.778  10.114  69.185  1.00  0.00    -0.226 A  
HETATM    8  C   UNL     1      -9.952  11.057  69.809  1.00  0.00     0.367 A  
HETATM    9  C   UNL     1      -9.871  12.367  69.330  1.00  0.00     0.594 A  
HETATM   10  C   UNL     1     -10.616  12.767  68.219  1.00  0.00    -0.251 A  
HETATM   11  C   UNL     1     -11.354  11.797  67.522  1.00  0.00    -0.377 A  
HETATM   12  C   UNL     1     -11.431  10.479  68.005  1.00  0.00    -0.230 A  
BRANCH  10  13
HETATM   13  C   UNL     1     -10.787  14.227  67.934  1.00  0.00    -0.260 C  
HETATM   14 CL   UNL     1     -11.482  19.188  67.952  1.00  0.00     0.488 Cl 
HETATM   15  C   UNL     1     -11.212  15.098  68.892  1.00  0.00    -0.292 C  
HETATM   16  C   UNL     1     -11.082  17.470  67.630  1.00  0.00     0.047 C  
HETATM   17  C   UNL     1     -11.431  16.619  68.845  1.00  0.00    -0.023 C  
BRANCH  13  18
HETATM   18  C   UNL     1     -10.596  14.656  66.515  1.00  0.00    -0.300 A  
HETATM   19  C   UNL     1     -11.726  14.898  65.714  1.00  0.00    -0.179 A  
HETATM   20  C   UNL     1     -11.594  15.276  64.375  1.00  0.00    -0.265 A  
HETATM   21  C   UNL     1      -9.195  15.183  64.601  1.00  0.00     3.025 A  
HETATM   22  C   UNL     1     -10.325  15.438  63.824  1.00  0.00     3.795 A  
HETATM   23  C   UNL     1      -9.327  14.768  65.932  1.00  0.00    -0.189 A  
ENDBRANCH  13  18
BRANCH  15  24
HETATM   24  C   UNL     1     -11.642  14.628  70.245  1.00  0.00    -0.335 A  
HETATM   25  C   UNL     1     -12.917  14.090  70.452  1.00  0.00    -0.124 A  
HETATM   26  C   UNL     1     -12.270  13.362  72.670  1.00  0.00     0.992 A  
HETATM   27  C   UNL     1     -11.004  13.914  72.482  1.00  0.00     4.251 A  
HETATM   28  C   UNL     1     -13.226  13.455  71.660  1.00  0.00    -0.449 A  
HETATM   29  C   UNL     1     -10.692  14.545  71.275  1.00  0.00     1.161 A  
ENDBRANCH  15  24
ENDBRANCH  10  13
ENDBRANCH   6   7
ENDBRANCH   5   6
ENDBRANCH   4   5
ENDBRANCH   2   4
TORSDOF 7
ENDMDL
MODEL      178
REMARK 921   NORMALIZED FREE ENERGY PREDICTED BY IDOCK:   35.99 KCAL/MOL
REMARK 922        TOTAL FREE ENERGY PREDICTED BY IDOCK:   48.66 KCAL/MOL
REMARK 923 INTER-LIGAND FREE ENERGY PREDICTED BY IDOCK:   44.33 KCAL/MOL
REMARK 924 INTRA-LIGAND FREE ENERGY PREDICTED BY IDOCK:    4.33 KCAL/MOL
REMARK 927      BINDING AFFINITY PREDICTED BY RF-SCORE:    0.00 PKD
ROOT
HETATM    1  C   UNL     1     -11.735  13.922  63.122  1.00  0.00     0.848 C  
HETATM    2  N   UNL     1     -10.933  14.819  63.957  1.00  0.00     0.441 NA 
HETATM    3  C   UNL     1     -10.963  14.351  65.345  1.00  0.00    -0.339 C  
ENDROOT
BRANCH   2   4
HETATM    4  C   UNL     1      -9.550  14.929  63.427  1.00  0.00     9.651 C  
BRANCH   4   5
HETATM    5  C   UNL     1      -8.484  14.411  64.413  1.00  0.00     8.476 C  
BRANCH   5   6
HETATM    6  O   UNL     1      -7.875  15.464  65.174  1.00  0.00     4.161 OA 
BRANCH   6   7
HETATM    7  C   UNL     1      -8.364  15.598  66.457  1.00  0.00    -0.241 A  
HETATM    8  C   UNL     1      -9.547  15.016  66.926  1.00  0.00    -0.251 A  
HETATM    9  C   UNL     1     -10.044  15.324  68.195  1.00  0.00    -0.229 A  
HETATM   10  C   UNL     1      -9.372  16.225  69.023  1.00  0.00    -0.254 A  
HETATM   11  C   UNL     1      -8.127  16.721  68.605  1.00  0.00    -0.251 A  
HETATM   12  C   UNL     1      -7.629  16.407  67.328  1.00  0.00    -0.198 A  
BRANCH  10  13
HETATM   13  C   UNL     1     -10.079  16.802  70.210  1.00  0.00     0.854 C  
HETATM   14 CL   UNL     1     -12.623  17.795  74.411  1.00  0.00     1.281 Cl 
HETATM   15  C   UNL     1     -10.836  16.028  71.038  1.00  0.00     0.062 C  
HETATM   16  C   UNL     1     -11.586  17.767  72.949  1.00  0.00     1.918 C  
HETATM   17  C   UNL     1     -11.619  16.383  72.313  1.00  0.00    -0.325 C  
BRANCH  13  18
HETATM   18  C   UNL     1     -10.023  18.288  70.363  1.00  0.00     1.895 A  
HETATM   19  C   UNL     1      -9.018  18.856  71.165  1.00  0.00     5.124 A  
HETATM   20  C   UNL     1      -8.943  20.239  71.356  1.00  0.00     2.196 A  
HETATM   21  C   UNL     1     -10.878  20.524  69.946  1.00  0.00     1.252 A  
HETATM   22  C   UNL     1      -9.864  21.075  70.730  1.00  0.00     2.430 A  
HETATM   23  C   UNL     1     -10.976  19.136  69.784  1.00  0.00     2.271 A  
ENDBRANCH  13  18
BRANCH  15  24
HETATM   24  C   UNL     1     -11.095  14.585  70.744  1.00  0.00     0.117 A  
HETATM   25  C   UNL     1     -10.153  13.805  70.063  1.00  0.00     1.447 A  
HETATM   26  C   UNL     1     -11.407  11.800  70.588  1.00  0.00     0.717 A  
HETATM   27  C   UNL     1     -12.362  12.570  71.250  1.00  0.00    -0.152 A  
HETATM   28  C   UNL     1     -10.309  12.416  69.990  1.00  0.00     1.784 A  
HETATM   29  C   UNL     1     -12.207  13.956  71.327  1.00  0.00    -0.353 A  
ENDBRANCH  15  24
ENDBRANCH  10  13
ENDBRANCH   6   7
ENDBRANCH   5   6
ENDBRANCH   4   5
ENDBRANCH   2   4
TORSDOF 7
ENDMDL
MODEL      179
REMARK 921   NORMALIZED FREE ENERGY PREDICTED BY IDOCK:   36.28 KCAL/MOL
REMARK 922        TOTAL FREE ENERGY PREDICTED BY IDOCK:   49.07 KCAL/MOL
REMARK 923 INTER-LIGAND FREE ENERGY PREDICTED BY IDOCK:   44.16 KCAL/MOL
REMARK 924 INTRA-LIGAND FREE ENERGY PREDICTED BY IDOCK:    4.91 KCAL/MOL
REMARK 927      BINDING AFFINITY PREDICTED BY RF-SCORE:    0.00 PKD
ROOT
HETATM    1  C   UNL     1     -14.207   7.533  72.533  1.00  0.00     0.272 C  
HETATM    2  N   UNL     1     -13.676   8.605  71.689  1.00  0.00    -0.386 NA 
HETATM    3  C   UNL     1     -12.717   9.402  72.458  1.00  0.00    -0.192 C  
ENDROOT
BRANCH   2   4
HETATM    4  C   UNL     1     -13.081   8.048  70.448  1.00  0.00     1.094 C  
BRANCH   4   5
HETATM    5  C   UNL     1     -12.259   9.083  69.655  1.00  0.00     1.276 C  
BRANCH   5   6
HETATM    6  O   UNL     1     -10.913   9.209  70.137  1.00  0.00    -0.236 OA 
BRANCH   6   7
HETATM    7  C   UNL     1     -10.302  10.403  69.817  1.00  0.00    -0.208 A  
HETATM    8  C   UNL     1     -10.144  11.482  70.695  1.00  0.00     3.629 A  
HETATM    9  C   UNL     1      -9.644  12.706  70.244  1.00  0.00     4.403 A  
HETATM   10  C   UNL     1      -9.294  12.883  68.904  1.00  0.00     0.276 A  
HETATM   11  C   UNL     1      -9.341  11.773  68.047  1.00  0.00    -0.184 A  
HETATM   12  C   UNL     1      -9.841  10.541  68.504  1.00  0.00    -0.175 A  
BRANCH  10  13
HETATM   13  C   UNL     1      -9.096  14.269  68.372  1.00  0.00    -0.194 C  
HETATM   14 CL   UNL     1      -8.452  19.167  67.538  1.00  0.00    -0.309 Cl 
HETATM   15  C   UNL     1      -9.195  15.364  69.175  1.00  0.00    -0.242 C  
HETATM   16  C   UNL     1      -8.549  17.376  67.510  1.00  0.00    -0.218 C  
HETATM   17  C   UNL     1      -9.007  16.860  68.869  1.00  0.00    -0.215 C  
BRANCH  13  18
HETATM   18  C   UNL     1      -8.918  14.396  66.893  1.00  0.00    -0.263 A  
HETATM   19  C   UNL     1      -9.289  15.594  66.259  1.00  0.00    -0.358 A  
HETATM   20  C   UNL     1      -9.164  15.748  64.875  1.00  0.00     2.023 A  
HETATM   21  C   UNL     1      -8.288  13.507  64.721  1.00  0.00     5.709 A  
HETATM   22  C   UNL     1      -8.644  14.708  64.109  1.00  0.00     9.683 A  
HETATM   23  C   UNL     1      -8.448  13.339  66.103  1.00  0.00     0.866 A  
ENDBRANCH  13  18
BRANCH  15  24
HETATM   24  C   UNL     1      -9.619  15.254  70.605  1.00  0.00     0.991 A  
HETATM   25  C   UNL     1     -10.954  15.440  70.980  1.00  0.00    -0.309 A  
HETATM   26  C   UNL     1     -10.464  14.618  73.205  1.00  0.00     4.121 A  
HETATM   27  C   UNL     1      -9.127  14.450  72.849  1.00  0.00     9.119 A  
HETATM   28  C   UNL     1     -11.374  15.118  72.275  1.00  0.00    -0.306 A  
HETATM   29  C   UNL     1      -8.707  14.767  71.555  1.00  0.00     4.489 A  
ENDBRANCH  15  24
ENDBRANCH  10  13
ENDBRANCH   6   7
ENDBRANCH   5   6
ENDBRANCH   4   5
ENDBRANCH   2   4
TORSDOF 7
ENDMDL
MODEL      180
REMARK 921   NORMALIZED FREE ENERGY PREDICTED BY IDOCK:   41.59 KCAL/MOL
REMARK 922        TOTAL FREE ENERGY PREDICTED BY IDOCK:   56.55 KCAL/MOL
REMARK 923 INTER-LIGAND FREE ENERGY PREDICTED BY IDOCK:   51.00 KCAL/MOL
REMARK 924 INTRA-LIGAND FREE ENERGY PREDICTED BY IDOCK:    5.55 KCAL/MOL
REMARK 927      BINDING AFFINITY PREDICTED BY RF-SCORE:    0.00 PKD
ROOT
HETATM    1  C   UNL     1      -6.741   5.509  72.734  1.00  0.00    -0.072 C  
HETATM    2  N   UNL     1      -8.119   5.122  72.425  1.00  0.00    -0.108 NA 
HETATM    3  C   UNL     1      -8.460   5.571  71.073  1.00  0.00    -0.125 C  
ENDROOT
BRANCH   2   4
HETATM    4  C   UNL     1      -8.301   3.658  72.597  1.00  0.00    -0.086 C  
BRANCH   4   5
HETATM    5  C   UNL     1      -7.483   2.826  71.590  1.00  0.00    -0.040 C  
BRANCH   5   6
HETATM    6  O   UNL     1      -8.301   1.956  70.794  1.00  0.00    -0.048 OA 
BRANCH   6   7
HETATM    7  C   UNL     1      -9.058   2.601  69.839  1.00  0.00    -0.112 A  
HETATM    8  C   UNL     1     -10.030   1.987  69.040  1.00  0.00     0.451 A  
HETATM    9  C   UNL     1     -10.646   2.683  67.997  1.00  0.00     3.681 A  
HETATM   10  C   UNL     1     -10.302   4.009  67.725  1.00  0.00     0.644 A  
HETATM   11  C   UNL     1      -9.415   4.664  68.594  1.00  0.00    -0.213 A  
HETATM   12  C   UNL     1      -8.800   3.961  69.644  1.00  0.00    -0.144 A  
BRANCH  10  13
HETATM   13  C   UNL     1     -10.702   4.619  66.417  1.00  0.00     0.082 C  
HETATM   14 CL   UNL     1     -12.125   7.488  62.564  1.00  0.00    15.599 Cl 
HETATM   15  C   UNL     1     -11.201   5.885  66.341  1.00  0.00     0.290 C  
HETATM   16  C   UNL     1     -11.492   6.245  63.691  1.00  0.00    11.004 C  
HETATM   17  C   UNL     1     -11.646   6.722  65.131  1.00  0.00     8.051 C  
BRANCH  13  18
HETATM   18  C   UNL     1     -10.652   3.724  65.220  1.00  0.00     0.246 A  
HETATM   19  C   UNL     1     -11.565   3.933  64.171  1.00  0.00     1.186 A  
HETATM   20  C   UNL     1     -11.571   3.104  63.045  1.00  0.00     0.863 A  
HETATM   21  C   UNL     1      -9.749   1.836  63.987  1.00  0.00    -0.130 A  
HETATM   22  C   UNL     1     -10.648   2.066  62.945  1.00  0.00    -0.148 A  
HETATM   23  C   UNL     1      -9.767   2.643  65.132  1.00  0.00     0.133 A  
ENDBRANCH  13  18
BRANCH  15  24
HETATM   24  C   UNL     1     -11.484   6.692  67.568  1.00  0.00     0.166 A  
HETATM   25  C   UNL     1     -11.065   8.024  67.669  1.00  0.00     0.266 A  
HETATM   26  C   UNL     1     -12.395   8.308  69.674  1.00  0.00     1.868 A  
HETATM   27  C   UNL     1     -12.800   6.977  69.595  1.00  0.00     2.479 A  
HETATM   28  C   UNL     1     -11.525   8.828  68.718  1.00  0.00     0.809 A  
HETATM   29  C   UNL     1     -12.346   6.173  68.547  1.00  0.00     4.409 A  
ENDBRANCH  15  24
ENDBRANCH  10  13
ENDBRANCH   6   7
ENDBRANCH   5   6
ENDBRANCH   4   5
ENDBRANCH   2   4
TORSDOF 7
ENDMDL
MODEL      181
REMARK 921   NORMALIZED FREE ENERGY PREDICTED BY IDOCK:   43.17 KCAL/MOL
REMARK 922        TOTAL FREE ENERGY PREDICTED BY IDOCK:   58.77 KCAL/MOL
REMARK 923 INTER-LIGAND FREE ENERGY PREDICTED BY IDOCK:   58.79 KCAL/MOL
REMARK 924 INTRA-LIGAND FREE ENERGY PREDICTED BY IDOCK:   -0.02 KCAL/MOL
REMARK 927      BINDING AFFINITY PREDICTED BY RF-SCORE:    0.00 PKD
ROOT
HETATM    1  C   UNL     1     -12.249  19.796  70.288  1.00  0.00    12.178 C  
HETATM    2  N   UNL     1     -13.085  18.888  69.499  1.00  0.00    17.051 NA 
HETATM    3  C   UNL     1     -13.968  19.670  68.630  1.00  0.00    12.193 C  
ENDROOT
BRANCH   2   4
HETATM    4  C   UNL     1     -12.243  17.931  68.737  1.00  0.00     4.791 C  
BRANCH   4   5
HETATM    5  C   UNL     1     -12.852  16.517  68.667  1.00  0.00     2.850 C  
BRANCH   5   6
HETATM    6  O   UNL     1     -12.739  15.802  69.906  1.00  0.00    -0.182 OA 
BRANCH   6   7
HETATM    7  C   UNL     1     -12.125  14.572  69.802  1.00  0.00    -0.331 A  
HETATM    8  C   UNL     1     -10.960  14.199  70.483  1.00  0.00     0.457 A  
HETATM    9  C   UNL     1     -10.326  12.985  70.207  1.00  0.00     2.557 A  
HETATM   10  C   UNL     1     -10.837  12.118  69.239  1.00  0.00    -0.105 A  
HETATM   11  C   UNL     1     -12.065  12.433  68.637  1.00  0.00    -0.139 A  
HETATM   12  C   UNL     1     -12.703  13.654  68.920  1.00  0.00     0.802 A  
BRANCH  10  13
HETATM   13  C   UNL     1      -9.976  11.011  68.715  1.00  0.00    -0.215 C  
HETATM   14 CL   UNL     1      -7.608   6.744  67.581  1.00  0.00    -0.104 Cl 
HETATM   15  C   UNL     1      -9.974   9.774  69.286  1.00  0.00    -0.201 C  
HETATM   16  C   UNL     1      -8.330   8.382  67.675  1.00  0.00    -0.130 C  
HETATM   17  C   UNL     1      -9.211   8.492  68.913  1.00  0.00    -0.146 C  
BRANCH  13  18
HETATM   18  C   UNL     1      -9.023  11.368  67.620  1.00  0.00    -0.140 A  
HETATM   19  C   UNL     1      -9.264  10.893  66.319  1.00  0.00    -0.197 A  
HETATM   20  C   UNL     1      -8.386  11.182  65.271  1.00  0.00     0.147 A  
HETATM   21  C   UNL     1      -6.998  12.431  66.797  1.00  0.00     0.269 A  
HETATM   22  C   UNL     1      -7.261  11.968  65.507  1.00  0.00     2.227 A  
HETATM   23  C   UNL     1      -7.859  12.111  67.855  1.00  0.00    -0.147 A  
ENDBRANCH  13  18
BRANCH  15  24
HETATM   24  C   UNL     1     -10.743   9.485  70.536  1.00  0.00    -0.359 A  
HETATM   25  C   UNL     1     -11.069   8.173  70.898  1.00  0.00    -0.280 A  
HETATM   26  C   UNL     1     -11.794   8.936  73.080  1.00  0.00     0.889 A  
HETATM   27  C   UNL     1     -11.494  10.249  72.721  1.00  0.00     4.320 A  
HETATM   28  C   UNL     1     -11.589   7.902  72.169  1.00  0.00    -0.380 A  
HETATM   29  C   UNL     1     -10.972  10.522  71.455  1.00  0.00     1.115 A  
ENDBRANCH  15  24
ENDBRANCH  10  13
ENDBRANCH   6   7
ENDBRANCH   5   6
ENDBRANCH   4   5
ENDBRANCH   2   4
TORSDOF 7
ENDMDL
MODEL      182
REMARK 921   NORMALIZED FREE ENERGY PREDICTED BY IDOCK:   47.26 KCAL/MOL
REMARK 922        TOTAL FREE ENERGY PREDICTED BY IDOCK:   64.54 KCAL/MOL
REMARK 923 INTER-LIGAND FREE ENERGY PREDICTED BY IDOCK:   59.52 KCAL/MOL
REMARK 924 INTRA-LIGAND FREE ENERGY PREDICTED BY IDOCK:    5.01 KCAL/MOL
REMARK 927      BINDING AFFINITY PREDICTED BY RF-SCORE:    0.00 PKD
ROOT
HETATM    1  C   UNL     1     -14.207   7.533  72.533  1.00  0.00     0.272 C  
HETATM    2  N   UNL     1     -13.676   8.605  71.689  1.00  0.00    -0.386 NA 
HETATM    3  C   UNL     1     -12.717   9.402  72.458  1.00  0.00    -0.192 C  
ENDROOT
BRANCH   2   4
HETATM    4  C   UNL     1     -13.081   8.048  70.448  1.00  0.00     1.094 C  
BRANCH   4   5
HETATM    5  C   UNL     1     -12.259   9.083  69.655  1.00  0.00     1.276 C  
BRANCH   5   6
HETATM    6  O   UNL     1     -10.913   9.209  70.137  1.00  0.00    -0.236 OA 
BRANCH   6   7
HETATM    7  C   UNL     1     -10.058   9.866  69.277  1.00  0.00    -0.203 A  
HETATM    8  C   UNL     1      -9.659  11.201  69.411  1.00  0.00     0.187 A  
HETATM    9  C   UNL     1      -8.907  11.828  68.414  1.00  0.00    -0.161 A  
HETATM   10  C   UNL     1      -8.541  11.137  67.257  1.00  0.00    -0.140 A  
HETATM   11  C   UNL     1      -8.839   9.768  67.170  1.00  0.00    -0.141 A  
HETATM   12  C   UNL     1      -9.593   9.139  68.177  1.00  0.00    -0.160 A  
BRANCH  10  13
HETATM   13  C   UNL     1      -8.050  11.902  66.068  1.00  0.00     0.406 C  
HETATM   14 CL   UNL     1      -6.356  15.217  62.714  1.00  0.00    20.707 Cl 
HETATM   15  C   UNL     1      -7.897  13.255  66.101  1.00  0.00     1.927 C  
HETATM   16  C   UNL     1      -6.843  13.790  63.684  1.00  0.00    21.706 C  
HETATM   17  C   UNL     1      -7.389  14.239  65.034  1.00  0.00    12.198 C  
BRANCH  13  18
HETATM   18  C   UNL     1      -7.864  11.124  64.804  1.00  0.00     0.615 A  
HETATM   19  C   UNL     1      -7.970  11.788  63.570  1.00  0.00     1.891 A  
HETATM   20  C   UNL     1      -7.829  11.095  62.363  1.00  0.00    -0.073 A  
HETATM   21  C   UNL     1      -7.468   9.054  63.595  1.00  0.00    -0.103 A  
HETATM   22  C   UNL     1      -7.558   9.730  62.378  1.00  0.00    -0.121 A  
HETATM   23  C   UNL     1      -7.646   9.741  64.803  1.00  0.00    -0.129 A  
ENDBRANCH  13  18
BRANCH  15  24
HETATM   24  C   UNL     1      -8.319  14.064  67.286  1.00  0.00    -0.209 A  
HETATM   25  C   UNL     1      -9.577  14.675  67.332  1.00  0.00    -0.215 A  
HETATM   26  C   UNL     1      -9.255  15.202  69.675  1.00  0.00    -0.082 A  
HETATM   27  C   UNL     1      -7.992  14.615  69.634  1.00  0.00     0.138 A  
HETATM   28  C   UNL     1     -10.043  15.238  68.526  1.00  0.00    -0.222 A  
HETATM   29  C   UNL     1      -7.526  14.050  68.444  1.00  0.00    -0.119 A  
ENDBRANCH  15  24
ENDBRANCH  10  13
ENDBRANCH   6   7
ENDBRANCH   5   6
ENDBRANCH   4   5
ENDBRANCH   2   4
TORSDOF 7
ENDMDL
MODEL      183
REMARK 921   NORMALIZED FREE ENERGY PREDICTED BY IDOCK:   55.17 KCAL/MOL
REMARK 922        TOTAL FREE ENERGY PREDICTED BY IDOCK:   75.69 KCAL/MOL
REMARK 923 INTER-LIGAND FREE ENERGY PREDICTED BY IDOCK:   68.85 KCAL/MOL
REMARK 924 INTRA-LIGAND FREE ENERGY PREDICTED BY IDOCK:    6.84 KCAL/MOL
REMARK 927      BINDING AFFINITY PREDICTED BY RF-SCORE:    0.00 PKD
ROOT
HETATM    1  C   UNL     1     -11.625  13.967  63.034  1.00  0.00     1.643 C  
HETATM    2  N   UNL     1     -10.711  14.900  63.696  1.00  0.00     1.767 NA 
HETATM    3  C   UNL     1     -10.527  14.496  65.092  1.00  0.00    -0.416 C  
ENDROOT
BRANCH   2   4
HETATM    4  C   UNL     1      -9.425  14.985  62.958  1.00  0.00    14.330 C  
BRANCH   4   5
HETATM    5  C   UNL     1      -8.230  14.440  63.764  1.00  0.00    14.679 C  
BRANCH   5   6
HETATM    6  O   UNL     1      -7.587  15.451  64.554  1.00  0.00     8.926 OA 
BRANCH   6   7
HETATM    7  C   UNL     1      -8.019  15.514  65.862  1.00  0.00     1.613 A  
HETATM    8  C   UNL     1      -7.231  15.208  66.979  1.00  0.00     0.060 A  
HETATM    9  C   UNL     1      -7.791  15.156  68.258  1.00  0.00    -0.124 A  
HETATM   10  C   UNL     1      -9.151  15.405  68.451  1.00  0.00    -0.191 A  
HETATM   11  C   UNL     1      -9.919  15.825  67.354  1.00  0.00    -0.237 A  
HETATM   12  C   UNL     1      -9.352  15.879  66.068  1.00  0.00    -0.385 A  
BRANCH  10  13
HETATM   13  C   UNL     1      -9.794  15.012  69.745  1.00  0.00    -0.044 C  
HETATM   14 CL   UNL     1     -11.185  14.163  74.483  1.00  0.00     3.228 Cl 
HETATM   15  C   UNL     1      -9.161  15.180  70.939  1.00  0.00     2.159 C  
HETATM   16  C   UNL     1     -11.027  14.399  72.713  1.00  0.00     2.503 C  
HETATM   17  C   UNL     1      -9.622  14.885  72.376  1.00  0.00     5.547 C  
BRANCH  13  18
HETATM   18  C   UNL     1     -11.108  14.305  69.649  1.00  0.00    -0.218 A  
HETATM   19  C   UNL     1     -12.295  15.055  69.709  1.00  0.00    -0.278 A  
HETATM   20  C   UNL     1     -13.546  14.432  69.649  1.00  0.00     2.234 A  
HETATM   21  C   UNL     1     -12.454  12.290  69.466  1.00  0.00     0.174 A  
HETATM   22  C   UNL     1     -13.624  13.049  69.508  1.00  0.00     3.609 A  
HETATM   23  C   UNL     1     -11.202  12.910  69.564  1.00  0.00    -0.143 A  
ENDBRANCH  13  18
BRANCH  15  24
HETATM   24  C   UNL     1      -7.746  15.659  71.017  1.00  0.00     2.817 A  
HETATM   25  C   UNL     1      -7.225  16.533  70.056  1.00  0.00     0.743 A  
HETATM   26  C   UNL     1      -5.249  16.878  71.415  1.00  0.00     0.078 A  
HETATM   27  C   UNL     1      -5.749  15.992  72.368  1.00  0.00     1.271 A  
HETATM   28  C   UNL     1      -5.982  17.143  70.259  1.00  0.00    -0.017 A  
HETATM   29  C   UNL     1      -6.992  15.385  72.169  1.00  0.00     3.520 A  
ENDBRANCH  15  24
ENDBRANCH  10  13
ENDBRANCH   6   7
ENDBRANCH   5   6
ENDBRANCH   4   5
ENDBRANCH   2   4
TORSDOF 7
ENDMDL
MODEL      184
REMARK 921   NORMALIZED FREE ENERGY PREDICTED BY IDOCK:   57.51 KCAL/MOL
REMARK 922        TOTAL FREE ENERGY PREDICTED BY IDOCK:   78.98 KCAL/MOL
REMARK 923 INTER-LIGAND FREE ENERGY PREDICTED BY IDOCK:   60.97 KCAL/MOL
REMARK 924 INTRA-LIGAND FREE ENERGY PREDICTED BY IDOCK:   18.01 KCAL/MOL
REMARK 927      BINDING AFFINITY PREDICTED BY RF-SCORE:    0.00 PKD
ROOT
HETATM    1  C   UNL     1      -7.234   7.405  70.260  1.00  0.00    -0.066 C  
HETATM    2  N   UNL     1      -6.675   7.733  68.947  1.00  0.00    -0.048 NA 
HETATM    3  C   UNL     1      -6.575   9.188  68.809  1.00  0.00    -0.053 C  
ENDROOT
BRANCH   2   4
HETATM    4  C   UNL     1      -5.367   7.056  68.752  1.00  0.00    -0.017 C  
BRANCH   4   5
HETATM    5  C   UNL     1      -5.252   5.732  69.532  1.00  0.00    -0.004 C  
BRANCH   5   6
HETATM    6  O   UNL     1      -6.128   4.713  69.026  1.00  0.00    -0.027 OA 
BRANCH   6   7
HETATM    7  C   UNL     1      -7.309   5.188  68.494  1.00  0.00    -0.070 A  
HETATM    8  C   UNL     1      -7.926   4.684  67.343  1.00  0.00    -0.101 A  
HETATM    9  C   UNL     1      -9.042   5.319  66.791  1.00  0.00    -0.118 A  
HETATM   10  C   UNL     1      -9.563   6.476  67.374  1.00  0.00    -0.142 A  
HETATM   11  C   UNL     1      -9.020   6.918  68.590  1.00  0.00    -0.129 A  
HETATM   12  C   UNL     1      -7.900   6.275  69.145  1.00  0.00    -0.105 A  
BRANCH  10  13
HETATM   13  C   UNL     1     -10.518   7.326  66.594  1.00  0.00    -0.204 C  
HETATM   14 CL   UNL     1     -13.222  10.919  64.385  1.00  0.00     3.692 Cl 
HETATM   15  C   UNL     1     -10.590   8.674  66.777  1.00  0.00    -0.223 C  
HETATM   16  C   UNL     1     -12.382   9.428  64.917  1.00  0.00    13.214 C  
HETATM   17  C   UNL     1     -11.455   9.741  66.086  1.00  0.00     2.197 C  
BRANCH  13  18
HETATM   18  C   UNL     1     -11.479   6.605  65.704  1.00  0.00     4.368 A  
HETATM   19  C   UNL     1     -12.772   7.127  65.527  1.00  0.00    12.660 A  
HETATM   20  C   UNL     1     -13.711   6.472  64.724  1.00  0.00    11.696 A  
HETATM   21  C   UNL     1     -12.085   4.755  64.250  1.00  0.00     3.314 A  
HETATM   22  C   UNL     1     -13.359   5.294  64.070  1.00  0.00     9.721 A  
HETATM   23  C   UNL     1     -11.157   5.391  65.084  1.00  0.00     1.475 A  
ENDBRANCH  13  18
BRANCH  15  24
HETATM   24  C   UNL     1      -9.803   9.364  67.846  1.00  0.00    -0.197 A  
HETATM   25  C   UNL     1      -8.808  10.295  67.524  1.00  0.00    -0.128 A  
HETATM   26  C   UNL     1      -8.650  10.956  69.849  1.00  0.00     0.777 A  
HETATM   27  C   UNL     1      -9.625  10.017  70.183  1.00  0.00    -0.151 A  
HETATM   28  C   UNL     1      -8.238  11.090  68.525  1.00  0.00    -0.146 A  
HETATM   29  C   UNL     1     -10.198   9.225  69.186  1.00  0.00    -0.214 A  
ENDBRANCH  15  24
ENDBRANCH  10  13
ENDBRANCH   6   7
ENDBRANCH   5   6
ENDBRANCH   4   5
ENDBRANCH   2   4
TORSDOF 7
ENDMDL
