MODEL        1
REMARK 921   NORMALIZED FREE ENERGY PREDICTED BY IDOCK:   -8.44 KCAL/MOL
REMARK 922        TOTAL FREE ENERGY PREDICTED BY IDOCK:  -11.12 KCAL/MOL
REMARK 923 INTER-LIGAND FREE ENERGY PREDICTED BY IDOCK:  -10.91 KCAL/MOL
REMARK 924 INTRA-LIGAND FREE ENERGY PREDICTED BY IDOCK:   -0.21 KCAL/MOL
REMARK 927      BINDING AFFINITY PREDICTED BY RF-SCORE:    0.00 PKD
ROOT
HETATM    1  C   UNL     1     -10.512   8.059  68.505  1.00  0.00    -0.164 C  
HETATM    2  N   UNL     1     -10.575   9.512  68.600  1.00  0.00    -0.217 N  
HETATM    3  C   UNL     1      -9.875  10.205  67.629  1.00  0.00    -0.172 C  
HETATM    4  O   UNL     1      -9.062   9.667  66.876  1.00  0.00    -0.136 OA 
HETATM    5  C   UNL     1     -10.202  11.654  67.457  1.00  0.00    -0.216 C  
HETATM    6  C   UNL     1     -10.886  12.311  68.428  1.00  0.00    -0.230 C  
HETATM    7  C   UNL     1      -9.780  12.138  66.092  1.00  0.00    -0.254 C  
HETATM    8  N   UNL     1     -11.169  13.689  68.413  1.00  0.00    -0.261 N  
HETATM    9  C   UNL     1     -12.028  14.307  69.359  1.00  0.00    -0.337 C  
HETATM   10  C   UNL     1     -11.326  10.134  69.607  1.00  0.00    -0.235 C  
HETATM   11  O   UNL     1     -12.354  15.500  69.292  1.00  0.00    -0.243 OA 
HETATM   12  O   UNL     1     -13.112  11.514  71.266  1.00  0.00    -0.336 OA 
HETATM   13  N   UNL     1     -12.500  13.535  70.410  1.00  0.00    -0.305 N  
HETATM   14  C   UNL     1     -11.478  11.489  69.518  1.00  0.00    -0.378 C  
HETATM   15  C   UNL     1     -12.407  12.157  70.485  1.00  0.00    -0.272 C  
ENDROOT
BRANCH   8  16
HETATM   16  C   UNL     1     -10.464  14.671  67.598  1.00  0.00    -0.243 A  
HETATM   17  C   UNL     1     -10.941  14.980  66.314  1.00  0.00    -0.338 A  
HETATM   18  C   UNL     1      -9.598  16.978  66.260  1.00  0.00    -0.289 A  
HETATM   19  C   UNL     1      -9.019  16.639  67.488  1.00  0.00    -0.200 A  
HETATM   20  C   UNL     1      -9.451  15.476  68.152  1.00  0.00    -0.198 A  
HETATM   21  C   UNL     1     -10.525  16.134  65.656  1.00  0.00    -0.402 A  
BRANCH  19  22
HETATM   22  N   UNL     1      -8.053  17.538  67.998  1.00  0.00    -0.230 N  
HETATM   23  H   UNL     1      -7.077  17.283  67.852  1.00  0.00     0.000 HD 
HETATM   24  C   UNL     1      -7.007  19.437  69.074  1.00  0.00    -0.390 C  
HETATM   25  O   UNL     1      -9.375  19.208  68.926  1.00  0.00    -0.369 OA 
HETATM   26  C   UNL     1      -8.283  18.720  68.671  1.00  0.00    -0.329 C  
ENDBRANCH  19  22
ENDBRANCH   8  16
BRANCH  13  27
HETATM   27  C   UNL     1     -13.394  14.180  71.372  1.00  0.00    -0.331 C  
HETATM   28  C   UNL     1     -12.953  14.382  72.804  1.00  0.00    -0.555 C  
HETATM   29  C   UNL     1     -13.190  15.572  71.931  1.00  0.00    -0.553 C  
ENDBRANCH  13  27
BRANCH  10  30
HETATM   30  N   UNL     1     -11.903   9.317  70.570  1.00  0.00    -0.442 NA 
HETATM   31  H   UNL     1     -12.924   9.305  70.572  1.00  0.00     0.000 HD 
BRANCH  30  32
HETATM   32  C   UNL     1     -11.291   8.502  71.545  1.00  0.00    -0.283 A  
HETATM   33  C   UNL     1     -10.061   8.801  72.140  1.00  0.00    -0.362 A  
HETATM   34  C   UNL     1      -9.414   7.863  72.961  1.00  0.00    -0.336 A  
HETATM   35  C   UNL     1      -9.999   6.620  73.210  1.00  0.00    -0.191 A  
HETATM   36  C   UNL     1     -11.258   6.330  72.700  1.00  0.00    -0.302 A  
HETATM   37  I   UNL     1      -8.958   5.178  74.288  1.00  0.00    -0.117 I  
HETATM   38  C   UNL     1     -11.883   7.266  71.876  1.00  0.00    -0.297 A  
HETATM   39  F   UNL     1     -13.086   6.956  71.364  1.00  0.00    -0.393 F  
ENDBRANCH  30  32
ENDBRANCH  10  30
TORSDOF 5
ENDMDL
MODEL        2
REMARK 921   NORMALIZED FREE ENERGY PREDICTED BY IDOCK:   -8.36 KCAL/MOL
REMARK 922        TOTAL FREE ENERGY PREDICTED BY IDOCK:  -11.02 KCAL/MOL
REMARK 923 INTER-LIGAND FREE ENERGY PREDICTED BY IDOCK:  -10.40 KCAL/MOL
REMARK 924 INTRA-LIGAND FREE ENERGY PREDICTED BY IDOCK:   -0.62 KCAL/MOL
REMARK 927      BINDING AFFINITY PREDICTED BY RF-SCORE:    0.00 PKD
ROOT
HETATM    1  C   UNL     1     -10.883   9.265  67.631  1.00  0.00    -0.119 C  
HETATM    2  N   UNL     1     -10.792  10.678  67.983  1.00  0.00    -0.239 N  
HETATM    3  C   UNL     1     -10.059  11.463  67.111  1.00  0.00    -0.198 C  
HETATM    4  O   UNL     1      -9.332  10.994  66.235  1.00  0.00    -0.173 OA 
HETATM    5  C   UNL     1     -10.241  12.944  67.212  1.00  0.00    -0.234 C  
HETATM    6  C   UNL     1     -10.820  13.479  68.318  1.00  0.00    -0.259 C  
HETATM    7  C   UNL     1      -9.819  13.622  65.933  1.00  0.00    -0.263 C  
HETATM    8  N   UNL     1     -10.960  14.858  68.559  1.00  0.00    -0.246 N  
HETATM    9  C   UNL     1     -11.717  15.375  69.642  1.00  0.00    -0.338 C  
HETATM   10  C   UNL     1     -11.440  11.178  69.120  1.00  0.00    -0.298 C  
HETATM   11  O   UNL     1     -11.921  16.586  69.802  1.00  0.00     0.182 OA 
HETATM   12  O   UNL     1     -13.016  12.402  71.086  1.00  0.00    -0.268 OA 
HETATM   13  N   UNL     1     -12.228  14.476  70.566  1.00  0.00    -0.309 N  
HETATM   14  C   UNL     1     -11.455  12.535  69.278  1.00  0.00    -0.353 C  
HETATM   15  C   UNL     1     -12.276  13.104  70.393  1.00  0.00    -0.316 C  
ENDROOT
BRANCH   8  16
HETATM   16  C   UNL     1     -10.186  15.898  67.892  1.00  0.00    -0.251 A  
HETATM   17  C   UNL     1     -10.819  16.762  66.983  1.00  0.00    -0.066 A  
HETATM   18  C   UNL     1      -8.966  18.296  67.099  1.00  0.00    -0.264 A  
HETATM   19  C   UNL     1      -8.261  17.404  67.915  1.00  0.00    -0.225 A  
HETATM   20  C   UNL     1      -8.874  16.198  68.305  1.00  0.00    -0.188 A  
HETATM   21  C   UNL     1     -10.223  17.960  66.602  1.00  0.00    -0.371 A  
BRANCH  19  22
HETATM   22  N   UNL     1      -6.973  17.816  68.331  1.00  0.00    -0.219 N  
HETATM   23  H   UNL     1      -6.188  17.269  67.978  1.00  0.00     0.000 HD 
HETATM   24  C   UNL     1      -5.168  19.029  69.392  1.00  0.00    -0.197 C  
HETATM   25  O   UNL     1      -7.451  19.656  69.665  1.00  0.00    -0.208 OA 
HETATM   26  C   UNL     1      -6.659  18.874  69.160  1.00  0.00    -0.291 C  
ENDBRANCH  19  22
ENDBRANCH   8  16
BRANCH  13  27
HETATM   27  C   UNL     1     -13.017  15.021  71.671  1.00  0.00    -0.353 C  
HETATM   28  C   UNL     1     -12.702  14.628  73.096  1.00  0.00    -0.549 C  
HETATM   29  C   UNL     1     -12.510  16.046  72.662  1.00  0.00    -0.572 C  
ENDBRANCH  13  27
BRANCH  10  30
HETATM   30  N   UNL     1     -12.064  10.261  69.954  1.00  0.00    -0.476 NA 
HETATM   31  H   UNL     1     -13.059  10.117  69.774  1.00  0.00     0.000 HD 
BRANCH  30  32
HETATM   32  C   UNL     1     -11.531   9.497  71.015  1.00  0.00    -0.349 A  
HETATM   33  C   UNL     1     -10.168   9.451  71.324  1.00  0.00    -0.340 A  
HETATM   34  C   UNL     1      -9.676   8.532  72.264  1.00  0.00    -0.380 A  
HETATM   35  C   UNL     1     -10.545   7.658  72.919  1.00  0.00    -0.354 A  
HETATM   36  C   UNL     1     -11.913   7.739  72.693  1.00  0.00    -0.257 A  
HETATM   37  I   UNL     1      -9.787   6.190  74.183  1.00  0.00    -0.351 I  
HETATM   38  C   UNL     1     -12.387   8.648  71.747  1.00  0.00    -0.346 A  
HETATM   39  F   UNL     1     -13.709   8.691  71.515  1.00  0.00    -0.361 F  
ENDBRANCH  30  32
ENDBRANCH  10  30
TORSDOF 5
ENDMDL
MODEL        3
REMARK 921   NORMALIZED FREE ENERGY PREDICTED BY IDOCK:   -8.31 KCAL/MOL
REMARK 922        TOTAL FREE ENERGY PREDICTED BY IDOCK:  -10.96 KCAL/MOL
REMARK 923 INTER-LIGAND FREE ENERGY PREDICTED BY IDOCK:  -11.30 KCAL/MOL
REMARK 924 INTRA-LIGAND FREE ENERGY PREDICTED BY IDOCK:    0.34 KCAL/MOL
REMARK 927      BINDING AFFINITY PREDICTED BY RF-SCORE:    0.00 PKD
ROOT
HETATM    1  C   UNL     1     -10.600   8.914  67.694  1.00  0.00    -0.224 C  
HETATM    2  N   UNL     1     -10.617  10.257  68.262  1.00  0.00    -0.206 N  
HETATM    3  C   UNL     1      -9.841  11.193  67.602  1.00  0.00    -0.174 C  
HETATM    4  O   UNL     1      -9.008  10.892  66.747  1.00  0.00    -0.146 OA 
HETATM    5  C   UNL     1     -10.109  12.633  67.904  1.00  0.00    -0.222 C  
HETATM    6  C   UNL     1     -10.822  12.969  69.010  1.00  0.00    -0.155 C  
HETATM    7  C   UNL     1      -9.596  13.515  66.794  1.00  0.00    -0.268 C  
HETATM    8  N   UNL     1     -11.056  14.289  69.439  1.00  0.00    -0.260 N  
HETATM    9  C   UNL     1     -11.943  14.605  70.501  1.00  0.00    -0.310 C  
HETATM   10  C   UNL     1     -11.399  10.552  69.386  1.00  0.00    -0.269 C  
HETATM   11  O   UNL     1     -12.224  15.769  70.818  1.00  0.00    -0.391 OA 
HETATM   12  O   UNL     1     -13.225  11.400  71.335  1.00  0.00    -0.326 OA 
HETATM   13  N   UNL     1     -12.497  13.556  71.219  1.00  0.00    -0.335 N  
HETATM   14  C   UNL     1     -11.500  11.867  69.743  1.00  0.00    -0.303 C  
HETATM   15  C   UNL     1     -12.457  12.227  70.838  1.00  0.00    -0.276 C  
ENDROOT
BRANCH   8  16
HETATM   16  C   UNL     1     -10.274  15.446  69.022  1.00  0.00    -0.233 A  
HETATM   17  C   UNL     1      -8.920  15.538  69.385  1.00  0.00    -0.275 A  
HETATM   18  C   UNL     1      -8.556  17.246  67.727  1.00  0.00    -0.225 A  
HETATM   19  C   UNL     1      -9.922  17.259  67.422  1.00  0.00    -0.278 A  
HETATM   20  C   UNL     1     -10.781  16.360  68.080  1.00  0.00    -0.334 A  
HETATM   21  C   UNL     1      -8.062  16.418  68.732  1.00  0.00    -0.234 A  
BRANCH  19  22
HETATM   22  N   UNL     1     -10.333  18.169  66.419  1.00  0.00    -0.394 N  
HETATM   23  H   UNL     1     -10.612  17.762  65.526  1.00  0.00     0.000 HD 
HETATM   24  C   UNL     1     -10.890  20.206  65.238  1.00  0.00     0.104 C  
HETATM   25  O   UNL     1     -10.131  20.216  67.498  1.00  0.00    -0.401 OA 
HETATM   26  C   UNL     1     -10.400  19.544  66.512  1.00  0.00    -0.482 C  
ENDBRANCH  19  22
ENDBRANCH   8  16
BRANCH  13  27
HETATM   27  C   UNL     1     -13.420  13.895  72.303  1.00  0.00    -0.526 C  
HETATM   28  C   UNL     1     -13.029  14.923  73.340  1.00  0.00    -0.597 C  
HETATM   29  C   UNL     1     -14.167  15.206  72.413  1.00  0.00    -0.540 C  
ENDBRANCH  13  27
BRANCH  10  30
HETATM   30  N   UNL     1     -12.057   9.495  70.002  1.00  0.00    -0.433 NA 
HETATM   31  H   UNL     1     -12.973   9.270  69.615  1.00  0.00     0.000 HD 
BRANCH  30  32
HETATM   32  C   UNL     1     -11.647   8.685  71.083  1.00  0.00    -0.281 A  
HETATM   33  C   UNL     1     -10.490   8.924  71.830  1.00  0.00    -0.415 A  
HETATM   34  C   UNL     1     -10.034   7.982  72.768  1.00  0.00    -0.364 A  
HETATM   35  C   UNL     1     -10.740   6.798  72.979  1.00  0.00    -0.285 A  
HETATM   36  C   UNL     1     -11.937   6.574  72.311  1.00  0.00    -0.272 A  
HETATM   37  I   UNL     1      -9.969   5.338  74.244  1.00  0.00    -0.320 I  
HETATM   38  C   UNL     1     -12.372   7.511  71.374  1.00  0.00    -0.345 A  
HETATM   39  F   UNL     1     -13.514   7.264  70.712  1.00  0.00    -0.301 F  
ENDBRANCH  30  32
ENDBRANCH  10  30
TORSDOF 5
ENDMDL
MODEL        4
REMARK 921   NORMALIZED FREE ENERGY PREDICTED BY IDOCK:   -8.09 KCAL/MOL
REMARK 922        TOTAL FREE ENERGY PREDICTED BY IDOCK:  -10.67 KCAL/MOL
REMARK 923 INTER-LIGAND FREE ENERGY PREDICTED BY IDOCK:  -10.74 KCAL/MOL
REMARK 924 INTRA-LIGAND FREE ENERGY PREDICTED BY IDOCK:    0.06 KCAL/MOL
REMARK 927      BINDING AFFINITY PREDICTED BY RF-SCORE:    0.00 PKD
ROOT
HETATM    1  C   UNL     1     -12.395  14.240  72.093  1.00  0.00    -0.157 C  
HETATM    2  N   UNL     1     -12.060  14.726  70.759  1.00  0.00    -0.288 N  
HETATM    3  C   UNL     1     -11.578  16.022  70.700  1.00  0.00    -0.383 C  
HETATM    4  O   UNL     1     -11.642  16.805  71.648  1.00  0.00    -0.206 OA 
HETATM    5  C   UNL     1     -10.883  16.432  69.442  1.00  0.00    -0.327 C  
HETATM    6  C   UNL     1     -11.032  15.689  68.315  1.00  0.00    -0.315 C  
HETATM    7  C   UNL     1      -9.989  17.621  69.690  1.00  0.00     0.299 C  
HETATM    8  N   UNL     1     -10.499  16.029  67.057  1.00  0.00    -0.304 N  
HETATM    9  C   UNL     1     -10.533  15.147  65.946  1.00  0.00    -0.336 C  
HETATM   10  C   UNL     1     -12.204  13.900  69.637  1.00  0.00    -0.321 C  
HETATM   11  O   UNL     1      -9.982  15.404  64.867  1.00  0.00    -0.274 OA 
HETATM   12  O   UNL     1     -12.018  12.256  67.376  1.00  0.00    -0.530 OA 
HETATM   13  N   UNL     1     -11.234  13.958  66.081  1.00  0.00    -0.299 N  
HETATM   14  C   UNL     1     -11.701  14.368  68.455  1.00  0.00    -0.370 C  
HETATM   15  C   UNL     1     -11.695  13.442  67.278  1.00  0.00    -0.380 C  
ENDROOT
BRANCH   8  16
HETATM   16  C   UNL     1     -10.065  17.367  66.676  1.00  0.00    -0.317 A  
HETATM   17  C   UNL     1     -11.018  18.324  66.289  1.00  0.00     0.228 A  
HETATM   18  C   UNL     1      -9.412  20.093  66.586  1.00  0.00    -0.517 A  
HETATM   19  C   UNL     1      -8.411  19.156  66.864  1.00  0.00    -0.285 A  
HETATM   20  C   UNL     1      -8.741  17.789  66.901  1.00  0.00    -0.262 A  
HETATM   21  C   UNL     1     -10.701  19.679  66.261  1.00  0.00    -0.524 A  
BRANCH  19  22
HETATM   22  N   UNL     1      -7.123  19.674  67.137  1.00  0.00    -0.203 N  
HETATM   23  H   UNL     1      -6.529  19.859  66.329  1.00  0.00     0.000 HD 
HETATM   24  C   UNL     1      -5.167  20.507  68.293  1.00  0.00    -0.261 C  
HETATM   25  O   UNL     1      -7.134  19.827  69.455  1.00  0.00    -0.351 OA 
HETATM   26  C   UNL     1      -6.579  19.958  68.373  1.00  0.00    -0.286 C  
ENDBRANCH  19  22
ENDBRANCH   8  16
BRANCH  13  27
HETATM   27  C   UNL     1     -11.251  13.053  64.931  1.00  0.00    -0.302 C  
HETATM   28  C   UNL     1     -12.494  12.255  64.611  1.00  0.00    -0.424 C  
HETATM   29  C   UNL     1     -12.024  13.303  63.654  1.00  0.00    -0.547 C  
ENDBRANCH  13  27
BRANCH  10  30
HETATM   30  N   UNL     1     -12.785  12.655  69.830  1.00  0.00     0.269 NA 
HETATM   31  H   UNL     1     -13.733  12.556  69.465  1.00  0.00     0.000 HD 
BRANCH  30  32
HETATM   32  C   UNL     1     -12.262  11.504  70.458  1.00  0.00    -0.377 A  
HETATM   33  C   UNL     1     -11.135  10.818  69.997  1.00  0.00    -0.327 A  
HETATM   34  C   UNL     1     -10.773   9.577  70.547  1.00  0.00    -0.359 A  
HETATM   35  C   UNL     1     -11.528   9.016  71.578  1.00  0.00    -0.337 A  
HETATM   36  C   UNL     1     -12.604   9.715  72.112  1.00  0.00    -0.388 A  
HETATM   37  I   UNL     1     -11.085   7.106  72.271  1.00  0.00    -0.360 I  
HETATM   38  C   UNL     1     -12.959  10.940  71.547  1.00  0.00    -0.451 A  
HETATM   39  F   UNL     1     -14.021  11.587  72.053  1.00  0.00    -0.162 F  
ENDBRANCH  30  32
ENDBRANCH  10  30
TORSDOF 5
ENDMDL
MODEL        5
REMARK 921   NORMALIZED FREE ENERGY PREDICTED BY IDOCK:   -7.99 KCAL/MOL
REMARK 922        TOTAL FREE ENERGY PREDICTED BY IDOCK:  -10.54 KCAL/MOL
REMARK 923 INTER-LIGAND FREE ENERGY PREDICTED BY IDOCK:  -10.22 KCAL/MOL
REMARK 924 INTRA-LIGAND FREE ENERGY PREDICTED BY IDOCK:   -0.32 KCAL/MOL
REMARK 927      BINDING AFFINITY PREDICTED BY RF-SCORE:    0.00 PKD
ROOT
HETATM    1  C   UNL     1     -13.406  15.198  70.469  1.00  0.00    -0.160 C  
HETATM    2  N   UNL     1     -12.739  13.922  70.236  1.00  0.00    -0.251 N  
HETATM    3  C   UNL     1     -12.759  13.036  71.298  1.00  0.00    -0.293 C  
HETATM    4  O   UNL     1     -13.095  13.361  72.437  1.00  0.00    -0.408 OA 
HETATM    5  C   UNL     1     -12.430  11.608  71.000  1.00  0.00    -0.436 C  
HETATM    6  C   UNL     1     -11.815  11.288  69.833  1.00  0.00    -0.360 C  
HETATM    7  C   UNL     1     -12.974  10.700  72.073  1.00  0.00    -0.466 C  
HETATM    8  N   UNL     1     -11.379   9.995  69.487  1.00  0.00    -0.206 N  
HETATM    9  C   UNL     1     -10.894   9.667  68.195  1.00  0.00    -0.190 C  
HETATM   10  C   UNL     1     -12.150  13.635  68.998  1.00  0.00    -0.309 C  
HETATM   11  O   UNL     1     -10.600   8.512  67.860  1.00  0.00    -0.220 OA 
HETATM   12  O   UNL     1     -11.321  12.745  66.474  1.00  0.00    -0.291 OA 
HETATM   13  N   UNL     1     -10.727  10.699  67.283  1.00  0.00    -0.270 N  
HETATM   14  C   UNL     1     -11.707  12.358  68.804  1.00  0.00    -0.379 C  
HETATM   15  C   UNL     1     -11.223  11.981  67.437  1.00  0.00    -0.307 C  
ENDROOT
BRANCH   8  16
HETATM   16  C   UNL     1     -11.158   8.914  70.440  1.00  0.00    -0.239 A  
HETATM   17  C   UNL     1     -12.137   7.920  70.604  1.00  0.00    -0.003 A  
HETATM   18  C   UNL     1     -10.547   6.489  71.711  1.00  0.00    -0.245 A  
HETATM   19  C   UNL     1      -9.583   7.503  71.664  1.00  0.00    -0.150 A  
HETATM   20  C   UNL     1      -9.896   8.720  71.033  1.00  0.00    -0.293 A  
HETATM   21  C   UNL     1     -11.830   6.709  71.219  1.00  0.00    -0.403 A  
BRANCH  19  22
HETATM   22  N   UNL     1      -8.323   7.198  72.232  1.00  0.00    -0.109 N  
HETATM   23  H   UNL     1      -7.659   6.714  71.627  1.00  0.00     0.000 HD 
HETATM   24  C   UNL     1      -6.473   7.011  73.782  1.00  0.00    -0.066 C  
HETATM   25  O   UNL     1      -8.524   8.071  74.375  1.00  0.00    -0.240 OA 
HETATM   26  C   UNL     1      -7.890   7.482  73.512  1.00  0.00    -0.118 C  
ENDBRANCH  19  22
ENDBRANCH   8  16
BRANCH  13  27
HETATM   27  C   UNL     1     -10.238  10.346  65.950  1.00  0.00    -0.234 C  
HETATM   28  C   UNL     1      -8.939  10.927  65.439  1.00  0.00    -0.209 C  
HETATM   29  C   UNL     1      -9.043   9.456  65.683  1.00  0.00    -0.258 C  
ENDBRANCH  13  27
BRANCH  10  30
HETATM   30  N   UNL     1     -12.124  14.651  68.052  1.00  0.00    -0.582 NA 
HETATM   31  H   UNL     1     -12.888  14.635  67.377  1.00  0.00     0.000 HD 
BRANCH  30  32
HETATM   32  C   UNL     1     -11.198  15.704  67.885  1.00  0.00    -0.328 A  
HETATM   33  C   UNL     1     -10.679  16.451  68.946  1.00  0.00    -0.319 A  
HETATM   34  C   UNL     1      -9.911  17.603  68.706  1.00  0.00    -0.358 A  
HETATM   35  C   UNL     1      -9.642  18.011  67.399  1.00  0.00    -0.272 A  
HETATM   36  C   UNL     1     -10.074  17.241  66.327  1.00  0.00    -0.323 A  
HETATM   37  I   UNL     1      -8.649  19.806  67.053  1.00  0.00    -0.452 I  
HETATM   38  C   UNL     1     -10.846  16.106  66.580  1.00  0.00    -0.149 A  
HETATM   39  F   UNL     1     -11.285  15.391  65.531  1.00  0.00    -0.325 F  
ENDBRANCH  30  32
ENDBRANCH  10  30
TORSDOF 5
ENDMDL
MODEL        6
REMARK 921   NORMALIZED FREE ENERGY PREDICTED BY IDOCK:   -7.96 KCAL/MOL
REMARK 922        TOTAL FREE ENERGY PREDICTED BY IDOCK:  -10.50 KCAL/MOL
REMARK 923 INTER-LIGAND FREE ENERGY PREDICTED BY IDOCK:  -10.26 KCAL/MOL
REMARK 924 INTRA-LIGAND FREE ENERGY PREDICTED BY IDOCK:   -0.24 KCAL/MOL
REMARK 927      BINDING AFFINITY PREDICTED BY RF-SCORE:    0.00 PKD
ROOT
HETATM    1  C   UNL     1     -13.472  12.463  72.257  1.00  0.00    -0.323 C  
HETATM    2  N   UNL     1     -12.754  13.016  71.115  1.00  0.00    -0.336 N  
HETATM    3  C   UNL     1     -12.571  14.387  71.132  1.00  0.00    -0.352 C  
HETATM    4  O   UNL     1     -13.163  15.133  71.912  1.00  0.00    -0.331 OA 
HETATM    5  C   UNL     1     -11.543  14.948  70.202  1.00  0.00    -0.333 C  
HETATM    6  C   UNL     1     -11.080  14.194  69.173  1.00  0.00    -0.262 C  
HETATM    7  C   UNL     1     -11.089  16.309  70.668  1.00  0.00    -0.265 C  
HETATM    8  N   UNL     1     -10.184  14.648  68.188  1.00  0.00    -0.227 N  
HETATM    9  C   UNL     1      -9.595  13.785  67.228  1.00  0.00    -0.237 C  
HETATM   10  C   UNL     1     -12.271  12.182  70.098  1.00  0.00    -0.231 C  
HETATM   11  O   UNL     1      -8.734  14.164  66.422  1.00  0.00    -0.051 OA 
HETATM   12  O   UNL     1     -10.876  10.628  68.230  1.00  0.00    -0.204 OA 
HETATM   13  N   UNL     1     -10.025  12.467  67.188  1.00  0.00    -0.214 N  
HETATM   14  C   UNL     1     -11.457  12.754  69.161  1.00  0.00    -0.361 C  
HETATM   15  C   UNL     1     -10.798  11.857  68.160  1.00  0.00    -0.221 C  
ENDROOT
BRANCH   8  16
HETATM   16  C   UNL     1      -9.927  16.051  67.886  1.00  0.00    -0.233 A  
HETATM   17  C   UNL     1     -10.932  16.828  67.285  1.00  0.00    -0.040 A  
HETATM   18  C   UNL     1      -9.776  18.852  67.891  1.00  0.00    -0.376 A  
HETATM   19  C   UNL     1      -8.706  18.105  68.397  1.00  0.00    -0.291 A  
HETATM   20  C   UNL     1      -8.783  16.700  68.385  1.00  0.00    -0.225 A  
HETATM   21  C   UNL     1     -10.867  18.219  67.302  1.00  0.00    -0.269 A  
BRANCH  19  22
HETATM   22  N   UNL     1      -7.623  18.842  68.934  1.00  0.00    -0.306 N  
HETATM   23  H   UNL     1      -7.615  18.960  69.947  1.00  0.00     0.000 HD 
HETATM   24  C   UNL     1      -5.588  20.134  69.141  1.00  0.00    -0.285 C  
HETATM   25  O   UNL     1      -6.398  19.372  67.033  1.00  0.00    -0.189 OA 
HETATM   26  C   UNL     1      -6.578  19.418  68.241  1.00  0.00    -0.251 C  
ENDBRANCH  19  22
ENDBRANCH   8  16
BRANCH  13  27
HETATM   27  C   UNL     1      -9.402  11.585  66.202  1.00  0.00    -0.215 C  
HETATM   28  C   UNL     1     -10.205  10.481  65.554  1.00  0.00    -0.325 C  
HETATM   29  C   UNL     1      -9.699  11.612  64.718  1.00  0.00    -0.217 C  
ENDBRANCH  13  27
BRANCH  10  30
HETATM   30  N   UNL     1     -12.605  10.836  70.163  1.00  0.00    -0.395 NA 
HETATM   31  H   UNL     1     -13.320  10.534  69.500  1.00  0.00     0.000 HD 
BRANCH  30  32
HETATM   32  C   UNL     1     -12.105   9.823  71.009  1.00  0.00    -0.346 A  
HETATM   33  C   UNL     1     -10.749   9.668  71.309  1.00  0.00    -0.317 A  
HETATM   34  C   UNL     1     -10.291   8.534  72.001  1.00  0.00    -0.408 A  
HETATM   35  C   UNL     1     -11.189   7.549  72.413  1.00  0.00    -0.308 A  
HETATM   36  C   UNL     1     -12.551   7.718  72.202  1.00  0.00    -0.250 A  
HETATM   37  I   UNL     1     -10.483   5.798  73.287  1.00  0.00    -0.320 I  
HETATM   38  C   UNL     1     -12.991   8.843  71.503  1.00  0.00    -0.332 A  
HETATM   39  F   UNL     1     -14.308   8.975  71.277  1.00  0.00    -0.412 F  
ENDBRANCH  30  32
ENDBRANCH  10  30
TORSDOF 5
ENDMDL
MODEL        7
REMARK 921   NORMALIZED FREE ENERGY PREDICTED BY IDOCK:   -7.87 KCAL/MOL
REMARK 922        TOTAL FREE ENERGY PREDICTED BY IDOCK:  -10.38 KCAL/MOL
REMARK 923 INTER-LIGAND FREE ENERGY PREDICTED BY IDOCK:  -10.71 KCAL/MOL
REMARK 924 INTRA-LIGAND FREE ENERGY PREDICTED BY IDOCK:    0.33 KCAL/MOL
REMARK 927      BINDING AFFINITY PREDICTED BY RF-SCORE:    0.00 PKD
ROOT
HETATM    1  C   UNL     1      -9.680  12.392  65.949  1.00  0.00    -0.228 C  
HETATM    2  N   UNL     1     -10.537  12.154  67.105  1.00  0.00    -0.222 N  
HETATM    3  C   UNL     1     -10.693  10.828  67.468  1.00  0.00    -0.264 C  
HETATM    4  O   UNL     1     -10.346   9.890  66.750  1.00  0.00    -0.229 OA 
HETATM    5  C   UNL     1     -11.239  10.556  68.833  1.00  0.00    -0.323 C  
HETATM    6  C   UNL     1     -11.860  11.548  69.522  1.00  0.00    -0.351 C  
HETATM    7  C   UNL     1     -10.883   9.161  69.282  1.00  0.00    -0.150 C  
HETATM    8  N   UNL     1     -12.487  11.382  70.771  1.00  0.00    -0.372 N  
HETATM    9  C   UNL     1     -12.978  12.473  71.534  1.00  0.00    -0.280 C  
HETATM   10  C   UNL     1     -11.124  13.222  67.796  1.00  0.00    -0.265 C  
HETATM   11  O   UNL     1     -13.443  12.341  72.674  1.00  0.00    -0.271 OA 
HETATM   12  O   UNL     1     -12.005  15.239  69.529  1.00  0.00    -0.320 OA 
HETATM   13  N   UNL     1     -12.946  13.735  70.959  1.00  0.00    -0.286 N  
HETATM   14  C   UNL     1     -11.761  12.926  68.968  1.00  0.00    -0.375 C  
HETATM   15  C   UNL     1     -12.255  14.064  69.807  1.00  0.00    -0.341 C  
ENDROOT
BRANCH   8  16
HETATM   16  C   UNL     1     -12.910  10.101  71.321  1.00  0.00    -0.410 A  
HETATM   17  C   UNL     1     -14.131   9.538  70.915  1.00  0.00     0.274 A  
HETATM   18  C   UNL     1     -13.472   7.393  71.790  1.00  0.00    -0.383 A  
HETATM   19  C   UNL     1     -12.297   7.950  72.307  1.00  0.00    -0.256 A  
HETATM   20  C   UNL     1     -12.023   9.311  72.076  1.00  0.00    -0.391 A  
HETATM   21  C   UNL     1     -14.404   8.190  71.131  1.00  0.00    -0.270 A  
BRANCH  19  22
HETATM   22  N   UNL     1     -11.435   7.068  73.001  1.00  0.00    -0.540 N  
HETATM   23  H   UNL     1     -11.359   7.210  74.008  1.00  0.00     0.000 HD 
HETATM   24  C   UNL     1      -9.874   5.290  73.510  1.00  0.00    -0.173 C  
HETATM   25  O   UNL     1     -10.658   5.696  71.296  1.00  0.00    -0.242 OA 
HETATM   26  C   UNL     1     -10.687   6.038  72.469  1.00  0.00    -0.227 C  
ENDBRANCH  19  22
ENDBRANCH   8  16
BRANCH  13  27
HETATM   27  C   UNL     1     -13.444  14.853  71.761  1.00  0.00    -0.388 C  
HETATM   28  C   UNL     1     -13.049  14.981  73.215  1.00  0.00    -0.607 C  
HETATM   29  C   UNL     1     -12.595  16.014  72.234  1.00  0.00    -0.505 C  
ENDBRANCH  13  27
BRANCH  10  30
HETATM   30  N   UNL     1     -10.956  14.494  67.267  1.00  0.00    -0.297 NA 
HETATM   31  H   UNL     1     -11.715  14.818  66.667  1.00  0.00     0.000 HD 
BRANCH  30  32
HETATM   32  C   UNL     1      -9.893  15.407  67.436  1.00  0.00    -0.216 A  
HETATM   33  C   UNL     1      -8.905  15.269  68.415  1.00  0.00    -0.179 A  
HETATM   34  C   UNL     1      -7.984  16.302  68.658  1.00  0.00    -0.215 A  
HETATM   35  C   UNL     1      -8.033  17.480  67.911  1.00  0.00    -0.227 A  
HETATM   36  C   UNL     1      -8.951  17.610  66.877  1.00  0.00    -0.258 A  
HETATM   37  I   UNL     1      -6.776  19.067  68.390  1.00  0.00    -0.317 I  
HETATM   38  C   UNL     1      -9.867  16.582  66.656  1.00  0.00    -0.268 A  
HETATM   39  F   UNL     1     -10.770  16.737  65.673  1.00  0.00    -0.344 F  
ENDBRANCH  30  32
ENDBRANCH  10  30
TORSDOF 5
ENDMDL
MODEL        8
REMARK 921   NORMALIZED FREE ENERGY PREDICTED BY IDOCK:   -7.72 KCAL/MOL
REMARK 922        TOTAL FREE ENERGY PREDICTED BY IDOCK:  -10.19 KCAL/MOL
REMARK 923 INTER-LIGAND FREE ENERGY PREDICTED BY IDOCK:  -10.26 KCAL/MOL
REMARK 924 INTRA-LIGAND FREE ENERGY PREDICTED BY IDOCK:    0.07 KCAL/MOL
REMARK 927      BINDING AFFINITY PREDICTED BY RF-SCORE:    0.00 PKD
ROOT
HETATM    1  C   UNL     1     -13.057  11.658  71.967  1.00  0.00    -0.328 C  
HETATM    2  N   UNL     1     -12.500  11.849  70.633  1.00  0.00    -0.296 N  
HETATM    3  C   UNL     1     -12.364  13.164  70.226  1.00  0.00    -0.249 C  
HETATM    4  O   UNL     1     -12.884  14.108  70.822  1.00  0.00    -0.331 OA 
HETATM    5  C   UNL     1     -11.474  13.426  69.054  1.00  0.00    -0.348 C  
HETATM    6  C   UNL     1     -11.111  12.401  68.240  1.00  0.00    -0.243 C  
HETATM    7  C   UNL     1     -11.015  14.862  69.042  1.00  0.00    -0.251 C  
HETATM    8  N   UNL     1     -10.354  12.545  67.063  1.00  0.00    -0.224 N  
HETATM    9  C   UNL     1      -9.854  11.437  66.331  1.00  0.00    -0.211 C  
HETATM   10  C   UNL     1     -12.113  10.752  69.852  1.00  0.00    -0.337 C  
HETATM   11  O   UNL     1      -9.109  11.560  65.350  1.00  0.00    -0.167 OA 
HETATM   12  O   UNL     1     -10.897   8.715  68.361  1.00  0.00    -0.094 OA 
HETATM   13  N   UNL     1     -10.241  10.166  66.731  1.00  0.00    -0.221 N  
HETATM   14  C   UNL     1     -11.437  11.022  68.696  1.00  0.00    -0.375 C  
HETATM   15  C   UNL     1     -10.870   9.869  67.926  1.00  0.00    -0.258 C  
ENDROOT
BRANCH   8  16
HETATM   16  C   UNL     1     -10.184  13.797  66.335  1.00  0.00    -0.292 A  
HETATM   17  C   UNL     1     -11.222  14.272  65.517  1.00  0.00    -0.320 A  
HETATM   18  C   UNL     1     -10.220  16.461  65.459  1.00  0.00    -0.296 A  
HETATM   19  C   UNL     1      -9.115  15.989  66.178  1.00  0.00    -0.351 A  
HETATM   20  C   UNL     1      -9.098  14.649  66.608  1.00  0.00    -0.285 A  
HETATM   21  C   UNL     1     -11.250  15.599  65.096  1.00  0.00    -0.286 A  
BRANCH  19  22
HETATM   22  N   UNL     1      -8.098  16.932  66.459  1.00  0.00    -0.262 N  
HETATM   23  H   UNL     1      -7.283  16.913  65.847  1.00  0.00     0.000 HD 
HETATM   24  C   UNL     1      -6.830  18.726  67.473  1.00  0.00    -0.208 C  
HETATM   25  O   UNL     1      -8.972  18.069  68.286  1.00  0.00    -0.268 OA 
HETATM   26  C   UNL     1      -8.086  17.874  67.467  1.00  0.00    -0.225 C  
ENDBRANCH  19  22
ENDBRANCH   8  16
BRANCH  13  27
HETATM   27  C   UNL     1      -9.709   9.032  65.976  1.00  0.00    -0.269 C  
HETATM   28  C   UNL     1      -8.310   8.526  66.247  1.00  0.00    -0.118 C  
HETATM   29  C   UNL     1      -9.483   7.650  66.550  1.00  0.00    -0.250 C  
ENDBRANCH  13  27
BRANCH  10  30
HETATM   30  N   UNL     1     -12.390   9.485  70.348  1.00  0.00    -0.477 NA 
HETATM   31  H   UNL     1     -13.252   9.063  70.000  1.00  0.00     0.000 HD 
BRANCH  30  32
HETATM   32  C   UNL     1     -11.660   8.695  71.260  1.00  0.00    -0.284 A  
HETATM   33  C   UNL     1     -10.435   9.083  71.810  1.00  0.00    -0.418 A  
HETATM   34  C   UNL     1      -9.665   8.179  72.561  1.00  0.00    -0.357 A  
HETATM   35  C   UNL     1     -10.123   6.880  72.785  1.00  0.00    -0.177 A  
HETATM   36  C   UNL     1     -11.374   6.494  72.322  1.00  0.00    -0.318 A  
HETATM   37  I   UNL     1      -8.904   5.500  73.754  1.00  0.00    -0.122 I  
HETATM   38  C   UNL     1     -12.121   7.397  71.566  1.00  0.00    -0.327 A  
HETATM   39  F   UNL     1     -13.315   6.998  71.097  1.00  0.00    -0.415 F  
ENDBRANCH  30  32
ENDBRANCH  10  30
TORSDOF 5
ENDMDL
MODEL        9
REMARK 921   NORMALIZED FREE ENERGY PREDICTED BY IDOCK:   -7.63 KCAL/MOL
REMARK 922        TOTAL FREE ENERGY PREDICTED BY IDOCK:  -10.08 KCAL/MOL
REMARK 923 INTER-LIGAND FREE ENERGY PREDICTED BY IDOCK:   -9.75 KCAL/MOL
REMARK 924 INTRA-LIGAND FREE ENERGY PREDICTED BY IDOCK:   -0.32 KCAL/MOL
REMARK 927      BINDING AFFINITY PREDICTED BY RF-SCORE:    0.00 PKD
ROOT
HETATM    1  C   UNL     1      -6.239  12.187  69.903  1.00  0.00    -0.120 C  
HETATM    2  N   UNL     1      -7.118  13.095  69.175  1.00  0.00    -0.035 N  
HETATM    3  C   UNL     1      -6.929  14.441  69.432  1.00  0.00    -0.129 C  
HETATM    4  O   UNL     1      -6.247  14.856  70.370  1.00  0.00    -0.162 OA 
HETATM    5  C   UNL     1      -7.526  15.409  68.462  1.00  0.00    -0.117 C  
HETATM    6  C   UNL     1      -8.480  14.990  67.591  1.00  0.00    -0.160 C  
HETATM    7  C   UNL     1      -6.839  16.749  68.553  1.00  0.00    -0.164 C  
HETATM    8  N   UNL     1      -9.172  15.830  66.699  1.00  0.00    -0.233 N  
HETATM    9  C   UNL     1     -10.039  15.332  65.692  1.00  0.00    -0.371 C  
HETATM   10  C   UNL     1      -8.062  12.604  68.264  1.00  0.00    -0.161 C  
HETATM   11  O   UNL     1     -10.574  16.061  64.845  1.00  0.00    -0.587 OA 
HETATM   12  O   UNL     1      -9.676  11.824  66.111  1.00  0.00    -0.217 OA 
HETATM   13  N   UNL     1     -10.305  13.971  65.677  1.00  0.00    -0.315 N  
HETATM   14  C   UNL     1      -8.717  13.524  67.495  1.00  0.00    -0.208 C  
HETATM   15  C   UNL     1      -9.609  13.021  66.403  1.00  0.00    -0.257 C  
ENDROOT
BRANCH   8  16
HETATM   16  C   UNL     1      -9.271  17.278  66.833  1.00  0.00    -0.254 A  
HETATM   17  C   UNL     1     -10.036  17.830  67.873  1.00  0.00    -0.322 A  
HETATM   18  C   UNL     1      -8.974  19.970  67.564  1.00  0.00    -0.437 A  
HETATM   19  C   UNL     1      -8.281  19.480  66.451  1.00  0.00    -0.333 A  
HETATM   20  C   UNL     1      -8.439  18.131  66.083  1.00  0.00    -0.142 A  
HETATM   21  C   UNL     1      -9.877  19.161  68.249  1.00  0.00    -0.462 A  
BRANCH  19  22
HETATM   22  N   UNL     1      -7.421  20.392  65.794  1.00  0.00    -0.520 N  
HETATM   23  H   UNL     1      -7.492  21.367  66.082  1.00  0.00     0.000 HD 
HETATM   24  C   UNL     1      -5.742  21.336  64.329  1.00  0.00    -0.195 C  
HETATM   25  O   UNL     1      -6.249  19.006  64.344  1.00  0.00    -0.475 OA 
HETATM   26  C   UNL     1      -6.498  20.110  64.808  1.00  0.00    -0.270 C  
ENDBRANCH  19  22
ENDBRANCH   8  16
BRANCH  13  27
HETATM   27  C   UNL     1     -11.190  13.469  64.626  1.00  0.00    -0.363 C  
HETATM   28  C   UNL     1     -12.473  12.757  64.989  1.00  0.00    -0.572 C  
HETATM   29  C   UNL     1     -12.534  14.070  64.278  1.00  0.00    -0.303 C  
ENDBRANCH  13  27
BRANCH  10  30
HETATM   30  N   UNL     1      -8.206  11.226  68.173  1.00  0.00    -0.133 NA 
HETATM   31  H   UNL     1      -7.660  10.781  67.434  1.00  0.00     0.000 HD 
BRANCH  30  32
HETATM   32  C   UNL     1      -8.993  10.349  68.949  1.00  0.00    -0.169 A  
HETATM   33  C   UNL     1     -10.256  10.681  69.448  1.00  0.00    -0.218 A  
HETATM   34  C   UNL     1     -10.909   9.843  70.367  1.00  0.00    -0.380 A  
HETATM   35  C   UNL     1     -10.311   8.654  70.785  1.00  0.00    -0.204 A  
HETATM   36  C   UNL     1      -9.095   8.258  70.242  1.00  0.00    -0.150 A  
HETATM   37  I   UNL     1     -11.207   7.505  72.270  1.00  0.00    -0.416 I  
HETATM   38  C   UNL     1      -8.452   9.106  69.340  1.00  0.00    -0.130 A  
HETATM   39  F   UNL     1      -7.261   8.725  68.849  1.00  0.00    -0.068 F  
ENDBRANCH  30  32
ENDBRANCH  10  30
TORSDOF 5
ENDMDL
MODEL       10
REMARK 921   NORMALIZED FREE ENERGY PREDICTED BY IDOCK:   -7.45 KCAL/MOL
REMARK 922        TOTAL FREE ENERGY PREDICTED BY IDOCK:   -9.85 KCAL/MOL
REMARK 923 INTER-LIGAND FREE ENERGY PREDICTED BY IDOCK:   -9.36 KCAL/MOL
REMARK 924 INTRA-LIGAND FREE ENERGY PREDICTED BY IDOCK:   -0.48 KCAL/MOL
REMARK 927      BINDING AFFINITY PREDICTED BY RF-SCORE:    0.00 PKD
ROOT
HETATM    1  C   UNL     1     -10.269   7.210  67.589  1.00  0.00    -0.198 C  
HETATM    2  N   UNL     1     -10.427   8.659  67.642  1.00  0.00    -0.253 N  
HETATM    3  C   UNL     1      -9.986   9.348  66.527  1.00  0.00    -0.269 C  
HETATM    4  O   UNL     1      -9.294   8.832  65.649  1.00  0.00    -0.214 OA 
HETATM    5  C   UNL     1     -10.454  10.759  66.370  1.00  0.00    -0.293 C  
HETATM    6  C   UNL     1     -10.987  11.415  67.432  1.00  0.00    -0.273 C  
HETATM    7  C   UNL     1     -10.344  11.201  64.932  1.00  0.00    -0.375 C  
HETATM    8  N   UNL     1     -11.376  12.768  67.423  1.00  0.00    -0.294 N  
HETATM    9  C   UNL     1     -12.082  13.371  68.497  1.00  0.00    -0.248 C  
HETATM   10  C   UNL     1     -11.015   9.276  68.753  1.00  0.00    -0.007 C  
HETATM   11  O   UNL     1     -12.508  14.533  68.452  1.00  0.00    -0.064 OA 
HETATM   12  O   UNL     1     -12.550  10.610  70.681  1.00  0.00    -0.328 OA 
HETATM   13  N   UNL     1     -12.277  12.622  69.648  1.00  0.00    -0.177 N  
HETATM   14  C   UNL     1     -11.289  10.611  68.647  1.00  0.00    -0.345 C  
HETATM   15  C   UNL     1     -12.063  11.260  69.753  1.00  0.00    -0.325 C  
ENDROOT
BRANCH   8  16
HETATM   16  C   UNL     1     -10.922  13.753  66.450  1.00  0.00    -0.298 A  
HETATM   17  C   UNL     1     -11.767  14.125  65.391  1.00  0.00    -0.347 A  
HETATM   18  C   UNL     1     -10.423  16.077  64.961  1.00  0.00    -0.250 A  
HETATM   19  C   UNL     1      -9.502  15.674  65.934  1.00  0.00    -0.341 A  
HETATM   20  C   UNL     1      -9.752  14.503  66.673  1.00  0.00    -0.285 A  
HETATM   21  C   UNL     1     -11.530  15.287  64.662  1.00  0.00    -0.356 A  
BRANCH  19  22
HETATM   22  N   UNL     1      -8.386  16.521  66.132  1.00  0.00    -0.321 N  
HETATM   23  H   UNL     1      -7.521  16.245  65.668  1.00  0.00     0.000 HD 
HETATM   24  C   UNL     1      -6.970  18.339  66.872  1.00  0.00    -0.213 C  
HETATM   25  O   UNL     1      -9.266  18.185  67.493  1.00  0.00    -0.255 OA 
HETATM   26  C   UNL     1      -8.336  17.679  66.882  1.00  0.00    -0.236 C  
ENDBRANCH  19  22
ENDBRANCH   8  16
BRANCH  13  27
HETATM   27  C   UNL     1     -13.016  13.252  70.743  1.00  0.00    -0.026 C  
HETATM   28  C   UNL     1     -12.929  12.688  72.142  1.00  0.00    -0.333 C  
HETATM   29  C   UNL     1     -12.379  14.049  71.860  1.00  0.00    -0.226 C  
ENDBRANCH  13  27
BRANCH  10  30
HETATM   30  N   UNL     1     -11.329   8.472  69.840  1.00  0.00    -0.456 NA 
HETATM   31  H   UNL     1     -12.295   8.146  69.875  1.00  0.00     0.000 HD 
BRANCH  30  32
HETATM   32  C   UNL     1     -10.511   8.036  70.905  1.00  0.00    -0.202 A  
HETATM   33  C   UNL     1      -9.495   8.815  71.467  1.00  0.00    -0.341 A  
HETATM   34  C   UNL     1      -8.594   8.262  72.392  1.00  0.00    -0.270 A  
HETATM   35  C   UNL     1      -8.710   6.925  72.777  1.00  0.00    -0.120 A  
HETATM   36  C   UNL     1      -9.760   6.152  72.298  1.00  0.00    -0.168 A  
HETATM   37  I   UNL     1      -7.274   6.072  74.016  1.00  0.00    -0.086 I  
HETATM   38  C   UNL     1     -10.640   6.711  71.371  1.00  0.00    -0.224 A  
HETATM   39  F   UNL     1     -11.630   5.940  70.892  1.00  0.00    -0.344 F  
ENDBRANCH  30  32
ENDBRANCH  10  30
TORSDOF 5
ENDMDL
MODEL       11
REMARK 921   NORMALIZED FREE ENERGY PREDICTED BY IDOCK:   -7.26 KCAL/MOL
REMARK 922        TOTAL FREE ENERGY PREDICTED BY IDOCK:   -9.59 KCAL/MOL
REMARK 923 INTER-LIGAND FREE ENERGY PREDICTED BY IDOCK:   -9.18 KCAL/MOL
REMARK 924 INTRA-LIGAND FREE ENERGY PREDICTED BY IDOCK:   -0.41 KCAL/MOL
REMARK 927      BINDING AFFINITY PREDICTED BY RF-SCORE:    0.00 PKD
ROOT
HETATM    1  C   UNL     1     -11.780  16.578  69.148  1.00  0.00     0.130 C  
HETATM    2  N   UNL     1     -11.570  15.137  69.238  1.00  0.00    -0.304 N  
HETATM    3  C   UNL     1     -11.941  14.553  70.436  1.00  0.00    -0.318 C  
HETATM    4  O   UNL     1     -12.205  15.205  71.446  1.00  0.00    -0.292 OA 
HETATM    5  C   UNL     1     -12.096  13.066  70.449  1.00  0.00    -0.391 C  
HETATM    6  C   UNL     1     -11.566  12.324  69.443  1.00  0.00    -0.314 C  
HETATM    7  C   UNL     1     -12.968  12.631  71.599  1.00  0.00    -0.400 C  
HETATM    8  N   UNL     1     -11.573  10.917  69.398  1.00  0.00    -0.289 N  
HETATM    9  C   UNL     1     -11.161  10.183  68.256  1.00  0.00    -0.227 C  
HETATM   10  C   UNL     1     -11.049  14.419  68.153  1.00  0.00    -0.264 C  
HETATM   11  O   UNL     1     -11.256   8.951  68.179  1.00  0.00     0.160 OA 
HETATM   12  O   UNL     1     -10.441  12.791  65.956  1.00  0.00    -0.265 OA 
HETATM   13  N   UNL     1     -10.611  10.887  67.195  1.00  0.00    -0.240 N  
HETATM   14  C   UNL     1     -11.052  13.057  68.254  1.00  0.00    -0.293 C  
HETATM   15  C   UNL     1     -10.655  12.262  67.049  1.00  0.00    -0.223 C  
ENDROOT
BRANCH   8  16
HETATM   16  C   UNL     1     -11.777  10.053  70.555  1.00  0.00    -0.318 A  
HETATM   17  C   UNL     1     -13.077   9.649  70.901  1.00  0.00    -0.228 A  
HETATM   18  C   UNL     1     -12.196   7.900  72.302  1.00  0.00    -0.333 A  
HETATM   19  C   UNL     1     -10.892   8.350  72.067  1.00  0.00    -0.320 A  
HETATM   20  C   UNL     1     -10.687   9.436  71.196  1.00  0.00    -0.417 A  
HETATM   21  C   UNL     1     -13.287   8.570  71.754  1.00  0.00    -0.396 A  
BRANCH  19  22
HETATM   22  N   UNL     1      -9.854   7.631  72.706  1.00  0.00    -0.204 N  
HETATM   23  H   UNL     1      -9.430   8.076  73.520  1.00  0.00     0.000 HD 
HETATM   24  C   UNL     1      -8.237   5.920  73.266  1.00  0.00    -0.116 C  
HETATM   25  O   UNL     1      -9.737   5.695  71.428  1.00  0.00    -0.157 OA 
HETATM   26  C   UNL     1      -9.352   6.395  72.353  1.00  0.00    -0.140 C  
ENDBRANCH  19  22
ENDBRANCH   8  16
BRANCH  13  27
HETATM   27  C   UNL     1     -10.201  10.119  66.019  1.00  0.00    -0.218 C  
HETATM   28  C   UNL     1      -8.829  10.322  65.419  1.00  0.00    -0.192 C  
HETATM   29  C   UNL     1      -9.177   9.005  66.036  1.00  0.00    -0.284 C  
ENDBRANCH  13  27
BRANCH  10  30
HETATM   30  N   UNL     1     -10.635  15.146  67.045  1.00  0.00    -0.293 NA 
HETATM   31  H   UNL     1     -11.315  15.207  66.287  1.00  0.00     0.000 HD 
BRANCH  30  32
HETATM   32  C   UNL     1      -9.414  15.814  66.810  1.00  0.00    -0.240 A  
HETATM   33  C   UNL     1      -8.162  15.238  67.041  1.00  0.00    -0.267 A  
HETATM   34  C   UNL     1      -6.991  16.011  66.970  1.00  0.00    -0.209 A  
HETATM   35  C   UNL     1      -7.060  17.367  66.650  1.00  0.00    -0.240 A  
HETATM   36  C   UNL     1      -8.282  17.946  66.334  1.00  0.00    -0.287 A  
HETATM   37  I   UNL     1      -5.342  18.539  66.710  1.00  0.00    -0.172 I  
HETATM   38  C   UNL     1      -9.438  17.170  66.421  1.00  0.00    -0.269 A  
HETATM   39  F   UNL     1     -10.616  17.753  66.145  1.00  0.00    -0.355 F  
ENDBRANCH  30  32
ENDBRANCH  10  30
TORSDOF 5
ENDMDL
MODEL       12
REMARK 921   NORMALIZED FREE ENERGY PREDICTED BY IDOCK:   -7.25 KCAL/MOL
REMARK 922        TOTAL FREE ENERGY PREDICTED BY IDOCK:   -9.59 KCAL/MOL
REMARK 923 INTER-LIGAND FREE ENERGY PREDICTED BY IDOCK:   -9.82 KCAL/MOL
REMARK 924 INTRA-LIGAND FREE ENERGY PREDICTED BY IDOCK:    0.24 KCAL/MOL
REMARK 927      BINDING AFFINITY PREDICTED BY RF-SCORE:    0.00 PKD
ROOT
HETATM    1  C   UNL     1      -6.680  11.812  69.332  1.00  0.00    -0.098 C  
HETATM    2  N   UNL     1      -7.602  12.802  68.787  1.00  0.00    -0.074 N  
HETATM    3  C   UNL     1      -7.275  14.123  69.034  1.00  0.00    -0.110 C  
HETATM    4  O   UNL     1      -6.414  14.459  69.848  1.00  0.00    -0.142 OA 
HETATM    5  C   UNL     1      -7.958  15.161  68.203  1.00  0.00    -0.125 C  
HETATM    6  C   UNL     1      -9.075  14.836  67.503  1.00  0.00    -0.189 C  
HETATM    7  C   UNL     1      -7.170  16.446  68.201  1.00  0.00    -0.148 C  
HETATM    8  N   UNL     1      -9.848  15.750  66.762  1.00  0.00    -0.238 N  
HETATM    9  C   UNL     1     -10.909  15.346  65.911  1.00  0.00    -0.325 C  
HETATM   10  C   UNL     1      -8.722  12.406  68.044  1.00  0.00    -0.186 C  
HETATM   11  O   UNL     1     -11.527  16.136  65.186  1.00  0.00    -0.067 OA 
HETATM   12  O   UNL     1     -10.735  11.809  66.188  1.00  0.00    -0.257 OA 
HETATM   13  N   UNL     1     -11.271  14.007  65.915  1.00  0.00    -0.305 N  
HETATM   14  C   UNL     1      -9.431  13.394  67.419  1.00  0.00    -0.222 C  
HETATM   15  C   UNL     1     -10.532  12.988  66.489  1.00  0.00    -0.277 C  
ENDROOT
BRANCH   8  16
HETATM   16  C   UNL     1      -9.816  17.196  66.941  1.00  0.00    -0.285 A  
HETATM   17  C   UNL     1     -10.444  17.773  68.057  1.00  0.00    -0.399 A  
HETATM   18  C   UNL     1      -9.241  19.831  67.712  1.00  0.00    -0.427 A  
HETATM   19  C   UNL     1      -8.686  19.324  66.531  1.00  0.00    -0.345 A  
HETATM   20  C   UNL     1      -8.984  18.004  66.144  1.00  0.00    -0.117 A  
HETATM   21  C   UNL     1     -10.146  19.075  68.452  1.00  0.00    -0.471 A  
BRANCH  19  22
HETATM   22  N   UNL     1      -7.813  20.186  65.826  1.00  0.00    -0.516 N  
HETATM   23  H   UNL     1      -8.002  21.185  65.906  1.00  0.00     0.000 HD 
HETATM   24  C   UNL     1      -6.015  21.017  64.436  1.00  0.00    -0.310 C  
HETATM   25  O   UNL     1      -6.334  18.690  64.840  1.00  0.00    -0.457 OA 
HETATM   26  C   UNL     1      -6.735  19.827  65.043  1.00  0.00    -0.194 C  
ENDBRANCH  19  22
ENDBRANCH   8  16
BRANCH  13  27
HETATM   27  C   UNL     1     -12.358  13.601  65.024  1.00  0.00    -0.427 C  
HETATM   28  C   UNL     1     -12.092  13.377  63.553  1.00  0.00    -0.497 C  
HETATM   29  C   UNL     1     -12.497  12.223  64.413  1.00  0.00    -0.484 C  
ENDBRANCH  13  27
BRANCH  10  30
HETATM   30  N   UNL     1      -8.979  11.045  67.950  1.00  0.00    -0.140 NA 
HETATM   31  H   UNL     1      -8.717  10.614  67.064  1.00  0.00     0.000 HD 
BRANCH  30  32
HETATM   32  C   UNL     1      -9.550  10.169  68.898  1.00  0.00    -0.184 A  
HETATM   33  C   UNL     1      -9.042   8.897  69.177  1.00  0.00    -0.141 A  
HETATM   34  C   UNL     1      -9.756   7.999  69.988  1.00  0.00    -0.173 A  
HETATM   35  C   UNL     1     -10.982   8.372  70.541  1.00  0.00    -0.242 A  
HETATM   36  C   UNL     1     -11.469   9.658  70.350  1.00  0.00    -0.325 A  
HETATM   37  I   UNL     1     -12.110   6.981  71.600  1.00  0.00    -0.414 I  
HETATM   38  C   UNL     1     -10.755  10.534  69.532  1.00  0.00    -0.255 A  
HETATM   39  F   UNL     1     -11.257  11.764  69.330  1.00  0.00    -0.257 F  
ENDBRANCH  30  32
ENDBRANCH  10  30
TORSDOF 5
ENDMDL
MODEL       13
REMARK 921   NORMALIZED FREE ENERGY PREDICTED BY IDOCK:   -7.04 KCAL/MOL
REMARK 922        TOTAL FREE ENERGY PREDICTED BY IDOCK:   -9.31 KCAL/MOL
REMARK 923 INTER-LIGAND FREE ENERGY PREDICTED BY IDOCK:   -9.31 KCAL/MOL
REMARK 924 INTRA-LIGAND FREE ENERGY PREDICTED BY IDOCK:   -0.00 KCAL/MOL
REMARK 927      BINDING AFFINITY PREDICTED BY RF-SCORE:    0.00 PKD
ROOT
HETATM    1  C   UNL     1     -10.677  13.241  65.165  1.00  0.00    -0.322 C  
HETATM    2  N   UNL     1     -10.758  12.004  65.933  1.00  0.00    -0.266 N  
HETATM    3  C   UNL     1     -10.315  10.867  65.282  1.00  0.00    -0.268 C  
HETATM    4  O   UNL     1     -10.091  10.831  64.072  1.00  0.00    -0.314 OA 
HETATM    5  C   UNL     1     -10.029   9.667  66.127  1.00  0.00    -0.346 C  
HETATM    6  C   UNL     1     -10.510   9.604  67.395  1.00  0.00    -0.257 C  
HETATM    7  C   UNL     1      -9.102   8.718  65.409  1.00  0.00    -0.194 C  
HETATM    8  N   UNL     1     -10.380   8.490  68.245  1.00  0.00    -0.209 N  
HETATM    9  C   UNL     1     -10.746   8.523  69.616  1.00  0.00    -0.197 C  
HETATM   10  C   UNL     1     -11.233  12.008  67.251  1.00  0.00    -0.311 C  
HETATM   11  O   UNL     1     -10.544   7.577  70.388  1.00  0.00    -0.220 OA 
HETATM   12  O   UNL     1     -11.735  11.912  70.006  1.00  0.00    -0.317 OA 
HETATM   13  N   UNL     1     -11.375   9.664  70.093  1.00  0.00    -0.243 N  
HETATM   14  C   UNL     1     -11.108  10.845  67.958  1.00  0.00    -0.351 C  
HETATM   15  C   UNL     1     -11.456  10.867  69.414  1.00  0.00    -0.302 C  
ENDROOT
BRANCH   8  16
HETATM   16  C   UNL     1     -10.079   7.136  67.796  1.00  0.00    -0.172 A  
HETATM   17  C   UNL     1     -11.012   6.443  67.006  1.00  0.00    -0.463 A  
HETATM   18  C   UNL     1      -9.325   4.853  66.352  1.00  0.00    -0.145 A  
HETATM   19  C   UNL     1      -8.404   5.454  67.217  1.00  0.00    -0.107 A  
HETATM   20  C   UNL     1      -8.789   6.595  67.946  1.00  0.00    -0.115 A  
HETATM   21  C   UNL     1     -10.635   5.320  66.275  1.00  0.00    -0.308 A  
BRANCH  19  22
HETATM   22  N   UNL     1      -7.112   4.879  67.259  1.00  0.00    -0.065 N  
HETATM   23  H   UNL     1      -6.429   5.252  66.600  1.00  0.00     0.000 HD 
HETATM   24  C   UNL     1      -5.218   3.498  67.862  1.00  0.00    -0.012 C  
HETATM   25  O   UNL     1      -7.327   3.308  68.957  1.00  0.00    -0.049 OA 
HETATM   26  C   UNL     1      -6.672   3.869  68.090  1.00  0.00    -0.046 C  
ENDBRANCH  19  22
ENDBRANCH   8  16
BRANCH  13  27
HETATM   27  C   UNL     1     -11.737   9.690  71.510  1.00  0.00    -0.400 C  
HETATM   28  C   UNL     1     -12.952  10.462  71.971  1.00  0.00    -0.499 C  
HETATM   29  C   UNL     1     -12.931   8.973  72.103  1.00  0.00    -0.490 C  
ENDBRANCH  13  27
BRANCH  10  30
HETATM   30  N   UNL     1     -11.729  13.205  67.748  1.00  0.00    -0.343 NA 
HETATM   31  H   UNL     1     -12.730  13.210  67.950  1.00  0.00     0.000 HD 
BRANCH  30  32
HETATM   32  C   UNL     1     -11.058  14.418  68.015  1.00  0.00    -0.272 A  
HETATM   33  C   UNL     1     -11.645  15.676  67.854  1.00  0.00    -0.195 A  
HETATM   34  C   UNL     1     -10.874  16.847  67.953  1.00  0.00    -0.310 A  
HETATM   35  C   UNL     1      -9.508  16.770  68.230  1.00  0.00    -0.240 A  
HETATM   36  C   UNL     1      -8.917  15.538  68.478  1.00  0.00    -0.191 A  
HETATM   37  I   UNL     1      -8.344  18.494  68.209  1.00  0.00    -0.357 I  
HETATM   38  C   UNL     1      -9.692  14.383  68.364  1.00  0.00    -0.226 A  
HETATM   39  F   UNL     1      -9.098  13.197  68.574  1.00  0.00    -0.185 F  
ENDBRANCH  30  32
ENDBRANCH  10  30
TORSDOF 5
ENDMDL
MODEL       14
REMARK 921   NORMALIZED FREE ENERGY PREDICTED BY IDOCK:   -6.93 KCAL/MOL
REMARK 922        TOTAL FREE ENERGY PREDICTED BY IDOCK:   -9.16 KCAL/MOL
REMARK 923 INTER-LIGAND FREE ENERGY PREDICTED BY IDOCK:   -9.21 KCAL/MOL
REMARK 924 INTRA-LIGAND FREE ENERGY PREDICTED BY IDOCK:    0.05 KCAL/MOL
REMARK 927      BINDING AFFINITY PREDICTED BY RF-SCORE:    0.00 PKD
ROOT
HETATM    1  C   UNL     1     -10.635  11.104  64.675  1.00  0.00    -0.318 C  
HETATM    2  N   UNL     1     -10.097  12.319  65.275  1.00  0.00    -0.276 N  
HETATM    3  C   UNL     1     -10.587  13.506  64.761  1.00  0.00    -0.417 C  
HETATM    4  O   UNL     1     -11.243  13.566  63.720  1.00  0.00    -0.223 OA 
HETATM    5  C   UNL     1     -10.361  14.743  65.570  1.00  0.00    -0.387 C  
HETATM    6  C   UNL     1      -9.434  14.740  66.562  1.00  0.00    -0.293 C  
HETATM    7  C   UNL     1     -11.346  15.818  65.187  1.00  0.00    -0.155 C  
HETATM    8  N   UNL     1      -9.076  15.868  67.325  1.00  0.00    -0.202 N  
HETATM    9  C   UNL     1      -8.229  15.790  68.460  1.00  0.00    -0.166 C  
HETATM   10  C   UNL     1      -9.166  12.252  66.320  1.00  0.00    -0.171 C  
HETATM   11  O   UNL     1      -7.989  16.762  69.188  1.00  0.00    -0.223 OA 
HETATM   12  O   UNL     1      -7.655  12.291  68.679  1.00  0.00    -0.117 OA 
HETATM   13  N   UNL     1      -7.635  14.569  68.745  1.00  0.00    -0.126 N  
HETATM   14  C   UNL     1      -8.850  13.426  66.944  1.00  0.00    -0.185 C  
HETATM   15  C   UNL     1      -7.986  13.363  68.166  1.00  0.00    -0.150 C  
ENDROOT
BRANCH   8  16
HETATM   16  C   UNL     1      -9.329  17.248  66.930  1.00  0.00    -0.255 A  
HETATM   17  C   UNL     1     -10.478  17.907  67.400  1.00  0.00    -0.390 A  
HETATM   18  C   UNL     1      -9.546  20.041  66.786  1.00  0.00    -0.543 A  
HETATM   19  C   UNL     1      -8.441  19.407  66.207  1.00  0.00    -0.334 A  
HETATM   20  C   UNL     1      -8.340  18.005  66.275  1.00  0.00    -0.229 A  
HETATM   21  C   UNL     1     -10.579  19.294  67.345  1.00  0.00    -0.594 A  
BRANCH  19  22
HETATM   22  N   UNL     1      -7.467  20.251  65.623  1.00  0.00    -0.514 N  
HETATM   23  H   UNL     1      -7.588  21.252  65.773  1.00  0.00     0.000 HD 
HETATM   24  C   UNL     1      -5.532  21.046  64.406  1.00  0.00    -0.259 C  
HETATM   25  O   UNL     1      -6.042  18.726  64.603  1.00  0.00    -0.395 OA 
HETATM   26  C   UNL     1      -6.371  19.871  64.875  1.00  0.00    -0.283 C  
ENDBRANCH  19  22
ENDBRANCH   8  16
BRANCH  13  27
HETATM   27  C   UNL     1      -6.773  14.499  69.925  1.00  0.00    -0.132 C  
HETATM   28  C   UNL     1      -5.422  13.826  69.841  1.00  0.00    -0.103 C  
HETATM   29  C   UNL     1      -5.499  15.295  70.105  1.00  0.00    -0.129 C  
ENDBRANCH  13  27
BRANCH  10  30
HETATM   30  N   UNL     1      -8.693  10.996  66.675  1.00  0.00    -0.155 NA 
HETATM   31  H   UNL     1      -7.740  10.790  66.374  1.00  0.00     0.000 HD 
BRANCH  30  32
HETATM   32  C   UNL     1      -9.333   9.961  67.390  1.00  0.00    -0.137 A  
HETATM   33  C   UNL     1     -10.406  10.173  68.260  1.00  0.00    -0.215 A  
HETATM   34  C   UNL     1     -10.878   9.138  69.085  1.00  0.00    -0.131 A  
HETATM   35  C   UNL     1     -10.289   7.874  69.036  1.00  0.00    -0.214 A  
HETATM   36  C   UNL     1      -9.277   7.613  68.121  1.00  0.00    -0.138 A  
HETATM   37  I   UNL     1     -10.883   6.398  70.377  1.00  0.00    -0.433 I  
HETATM   38  C   UNL     1      -8.810   8.653  67.318  1.00  0.00    -0.133 A  
HETATM   39  F   UNL     1      -7.808   8.393  66.462  1.00  0.00    -0.088 F  
ENDBRANCH  30  32
ENDBRANCH  10  30
TORSDOF 5
ENDMDL
MODEL       15
REMARK 921   NORMALIZED FREE ENERGY PREDICTED BY IDOCK:   -6.90 KCAL/MOL
REMARK 922        TOTAL FREE ENERGY PREDICTED BY IDOCK:   -9.13 KCAL/MOL
REMARK 923 INTER-LIGAND FREE ENERGY PREDICTED BY IDOCK:   -8.61 KCAL/MOL
REMARK 924 INTRA-LIGAND FREE ENERGY PREDICTED BY IDOCK:   -0.52 KCAL/MOL
REMARK 927      BINDING AFFINITY PREDICTED BY RF-SCORE:    0.00 PKD
ROOT
HETATM    1  C   UNL     1     -11.822   8.412  72.637  1.00  0.00    -0.290 C  
HETATM    2  N   UNL     1     -11.279   9.097  71.469  1.00  0.00    -0.335 N  
HETATM    3  C   UNL     1     -12.092  10.072  70.919  1.00  0.00    -0.355 C  
HETATM    4  O   UNL     1     -13.278  10.207  71.221  1.00  0.00    -0.374 OA 
HETATM    5  C   UNL     1     -11.450  11.041  69.978  1.00  0.00    -0.398 C  
HETATM    6  C   UNL     1     -10.236  10.756  69.440  1.00  0.00    -0.160 C  
HETATM    7  C   UNL     1     -12.271  12.301  69.868  1.00  0.00    -0.234 C  
HETATM    8  N   UNL     1      -9.582  11.549  68.479  1.00  0.00    -0.188 N  
HETATM    9  C   UNL     1      -8.246  11.308  68.066  1.00  0.00    -0.134 C  
HETATM   10  C   UNL     1     -10.005   8.782  70.980  1.00  0.00    -0.234 C  
HETATM   11  O   UNL     1      -7.636  12.059  67.292  1.00  0.00    -0.141 OA 
HETATM   12  O   UNL     1      -7.335   8.583  70.154  1.00  0.00    -0.049 OA 
HETATM   13  N   UNL     1      -7.614  10.169  68.541  1.00  0.00    -0.086 N  
HETATM   14  C   UNL     1      -9.501   9.590  70.000  1.00  0.00    -0.265 C  
HETATM   15  C   UNL     1      -8.081   9.376  69.574  1.00  0.00    -0.114 C  
ENDROOT
BRANCH   8  16
HETATM   16  C   UNL     1     -10.239  12.543  67.639  1.00  0.00    -0.219 A  
HETATM   17  C   UNL     1     -11.168  12.129  66.669  1.00  0.00    -0.375 A  
HETATM   18  C   UNL     1     -12.015  14.376  66.475  1.00  0.00    -0.406 A  
HETATM   19  C   UNL     1     -11.028  14.838  67.353  1.00  0.00    -0.313 A  
HETATM   20  C   UNL     1     -10.134  13.916  67.928  1.00  0.00    -0.242 A  
HETATM   21  C   UNL     1     -12.061  13.035  66.103  1.00  0.00    -0.473 A  
BRANCH  19  22
HETATM   22  N   UNL     1     -11.035  16.225  67.633  1.00  0.00    -0.288 N  
HETATM   23  H   UNL     1     -11.580  16.520  68.442  1.00  0.00     0.000 HD 
HETATM   24  C   UNL     1     -10.613  18.605  67.518  1.00  0.00    -0.472 C  
HETATM   25  O   UNL     1      -9.672  17.073  65.954  1.00  0.00    -0.479 OA 
HETATM   26  C   UNL     1     -10.387  17.223  66.933  1.00  0.00    -0.310 C  
ENDBRANCH  19  22
ENDBRANCH   8  16
BRANCH  13  27
HETATM   27  C   UNL     1      -6.232   9.939  68.117  1.00  0.00    -0.054 C  
HETATM   28  C   UNL     1      -5.838   8.620  67.494  1.00  0.00    -0.043 C  
HETATM   29  C   UNL     1      -5.778   9.869  66.675  1.00  0.00    -0.050 C  
ENDBRANCH  13  27
BRANCH  10  30
HETATM   30  N   UNL     1      -9.338   7.719  71.573  1.00  0.00    -0.135 NA 
HETATM   31  H   UNL     1      -8.572   7.981  72.195  1.00  0.00     0.000 HD 
BRANCH  30  32
HETATM   32  C   UNL     1      -9.559   6.331  71.446  1.00  0.00    -0.155 A  
HETATM   33  C   UNL     1      -9.720   5.472  72.536  1.00  0.00    -0.173 A  
HETATM   34  C   UNL     1      -9.749   4.079  72.355  1.00  0.00    -0.210 A  
HETATM   35  C   UNL     1      -9.632   3.531  71.077  1.00  0.00    -0.173 A  
HETATM   36  C   UNL     1      -9.555   4.364  69.968  1.00  0.00    -0.273 A  
HETATM   37  I   UNL     1      -9.507   1.469  70.837  1.00  0.00    -0.116 I  
HETATM   38  C   UNL     1      -9.515   5.744  70.164  1.00  0.00    -0.160 A  
HETATM   39  F   UNL     1      -9.407   6.535  69.083  1.00  0.00    -0.134 F  
ENDBRANCH  30  32
ENDBRANCH  10  30
TORSDOF 5
ENDMDL
MODEL       16
REMARK 921   NORMALIZED FREE ENERGY PREDICTED BY IDOCK:   -6.77 KCAL/MOL
REMARK 922        TOTAL FREE ENERGY PREDICTED BY IDOCK:   -8.97 KCAL/MOL
REMARK 923 INTER-LIGAND FREE ENERGY PREDICTED BY IDOCK:   -8.99 KCAL/MOL
REMARK 924 INTRA-LIGAND FREE ENERGY PREDICTED BY IDOCK:    0.02 KCAL/MOL
REMARK 927      BINDING AFFINITY PREDICTED BY RF-SCORE:    0.00 PKD
ROOT
HETATM    1  C   UNL     1     -11.777   8.837  71.872  1.00  0.00    -0.359 C  
HETATM    2  N   UNL     1     -11.493   9.308  70.521  1.00  0.00    -0.265 N  
HETATM    3  C   UNL     1     -12.052  10.528  70.185  1.00  0.00    -0.300 C  
HETATM    4  O   UNL     1     -12.919  11.079  70.864  1.00  0.00    -0.316 OA 
HETATM    5  C   UNL     1     -11.501  11.220  68.979  1.00  0.00    -0.369 C  
HETATM    6  C   UNL     1     -10.749  10.525  68.088  1.00  0.00    -0.233 C  
HETATM    7  C   UNL     1     -11.807  12.695  69.024  1.00  0.00    -0.341 C  
HETATM    8  N   UNL     1     -10.255  11.049  66.878  1.00  0.00    -0.213 N  
HETATM    9  C   UNL     1      -9.337  10.347  66.055  1.00  0.00    -0.178 C  
HETATM   10  C   UNL     1     -10.682   8.561  69.657  1.00  0.00    -0.197 C  
HETATM   11  O   UNL     1      -8.828  10.843  65.041  1.00  0.00    -0.194 OA 
HETATM   12  O   UNL     1      -8.747   7.421  67.981  1.00  0.00    -0.125 OA 
HETATM   13  N   UNL     1      -9.018   9.043  66.403  1.00  0.00    -0.147 N  
HETATM   14  C   UNL     1     -10.320   9.155  68.481  1.00  0.00    -0.236 C  
HETATM   15  C   UNL     1      -9.324   8.448  67.614  1.00  0.00    -0.137 C  
ENDROOT
BRANCH   8  16
HETATM   16  C   UNL     1     -10.779  12.237  66.216  1.00  0.00    -0.259 A  
HETATM   17  C   UNL     1     -11.971  12.153  65.477  1.00  0.00    -0.290 A  
HETATM   18  C   UNL     1     -12.191  14.552  65.496  1.00  0.00    -0.284 A  
HETATM   19  C   UNL     1     -10.951  14.673  66.133  1.00  0.00    -0.329 A  
HETATM   20  C   UNL     1     -10.242  13.510  66.485  1.00  0.00    -0.283 A  
HETATM   21  C   UNL     1     -12.681  13.300  65.134  1.00  0.00    -0.464 A  
BRANCH  19  22
HETATM   22  N   UNL     1     -10.517  15.990  66.419  1.00  0.00    -0.307 N  
HETATM   23  H   UNL     1     -10.098  16.139  67.336  1.00  0.00     0.000 HD 
HETATM   24  C   UNL     1     -10.031  18.353  66.226  1.00  0.00    -0.378 C  
HETATM   25  O   UNL     1     -11.044  17.118  64.458  1.00  0.00    -1.105 OA 
HETATM   26  C   UNL     1     -10.598  17.095  65.595  1.00  0.00    -0.179 C  
ENDBRANCH  19  22
ENDBRANCH   8  16
BRANCH  13  27
HETATM   27  C   UNL     1      -8.060   8.334  65.553  1.00  0.00    -0.128 C  
HETATM   28  C   UNL     1      -8.346   6.922  65.099  1.00  0.00    -0.080 C  
HETATM   29  C   UNL     1      -8.281   8.022  64.089  1.00  0.00    -0.060 C  
ENDBRANCH  13  27
BRANCH  10  30
HETATM   30  N   UNL     1     -10.263   7.312  70.093  1.00  0.00    -0.200 NA 
HETATM   31  H   UNL     1     -10.665   6.520  69.592  1.00  0.00     0.000 HD 
BRANCH  30  32
HETATM   32  C   UNL     1      -9.364   6.973  71.128  1.00  0.00    -0.158 A  
HETATM   33  C   UNL     1      -8.270   7.765  71.490  1.00  0.00    -0.113 A  
HETATM   34  C   UNL     1      -7.307   7.288  72.394  1.00  0.00    -0.075 A  
HETATM   35  C   UNL     1      -7.436   6.019  72.958  1.00  0.00    -0.094 A  
HETATM   36  C   UNL     1      -8.556   5.245  72.681  1.00  0.00    -0.117 A  
HETATM   37  I   UNL     1      -5.921   5.257  74.164  1.00  0.00    -0.056 I  
HETATM   38  C   UNL     1      -9.498   5.726  71.772  1.00  0.00    -0.148 A  
HETATM   39  F   UNL     1     -10.559   4.951  71.488  1.00  0.00    -0.267 F  
ENDBRANCH  30  32
ENDBRANCH  10  30
TORSDOF 5
ENDMDL
MODEL       17
REMARK 921   NORMALIZED FREE ENERGY PREDICTED BY IDOCK:   -6.77 KCAL/MOL
REMARK 922        TOTAL FREE ENERGY PREDICTED BY IDOCK:   -8.96 KCAL/MOL
REMARK 923 INTER-LIGAND FREE ENERGY PREDICTED BY IDOCK:   -9.10 KCAL/MOL
REMARK 924 INTRA-LIGAND FREE ENERGY PREDICTED BY IDOCK:    0.14 KCAL/MOL
REMARK 927      BINDING AFFINITY PREDICTED BY RF-SCORE:    0.00 PKD
ROOT
HETATM    1  C   UNL     1     -11.374   8.885  70.503  1.00  0.00    -0.234 C  
HETATM    2  N   UNL     1     -10.675   9.225  69.269  1.00  0.00    -0.219 N  
HETATM    3  C   UNL     1      -9.572   8.444  68.973  1.00  0.00    -0.160 C  
HETATM    4  O   UNL     1      -9.057   7.675  69.785  1.00  0.00    -0.147 OA 
HETATM    5  C   UNL     1      -9.055   8.500  67.572  1.00  0.00    -0.146 C  
HETATM    6  C   UNL     1      -9.434   9.515  66.753  1.00  0.00    -0.167 C  
HETATM    7  C   UNL     1      -8.232   7.276  67.257  1.00  0.00    -0.115 C  
HETATM    8  N   UNL     1      -8.941   9.716  65.450  1.00  0.00    -0.176 N  
HETATM    9  C   UNL     1      -9.482  10.686  64.566  1.00  0.00    -0.264 C  
HETATM   10  C   UNL     1     -11.133  10.263  68.447  1.00  0.00    -0.247 C  
HETATM   11  O   UNL     1      -9.116  10.801  63.389  1.00  0.00    -0.202 OA 
HETATM   12  O   UNL     1     -12.161  11.993  66.498  1.00  0.00    -0.617 OA 
HETATM   13  N   UNL     1     -10.449  11.549  65.061  1.00  0.00    -0.277 N  
HETATM   14  C   UNL     1     -10.533  10.398  67.227  1.00  0.00    -0.304 C  
HETATM   15  C   UNL     1     -11.110  11.391  66.266  1.00  0.00    -0.221 C  
ENDROOT
BRANCH   8  16
HETATM   16  C   UNL     1      -7.706   9.140  64.933  1.00  0.00    -0.110 A  
HETATM   17  C   UNL     1      -6.469   9.621  65.391  1.00  0.00    -0.080 A  
HETATM   18  C   UNL     1      -5.352   7.672  64.523  1.00  0.00    -0.029 A  
HETATM   19  C   UNL     1      -6.549   7.222  63.956  1.00  0.00    -0.044 A  
HETATM   20  C   UNL     1      -7.727   7.965  64.158  1.00  0.00    -0.132 A  
HETATM   21  C   UNL     1      -5.302   8.885  65.204  1.00  0.00    -0.038 A  
BRANCH  19  22
HETATM   22  N   UNL     1      -6.488   6.001  63.244  1.00  0.00    -0.028 N  
HETATM   23  H   UNL     1      -6.232   6.064  62.259  1.00  0.00     0.000 HD 
HETATM   24  C   UNL     1      -6.572   3.647  62.685  1.00  0.00    -0.026 C  
HETATM   25  O   UNL     1      -7.033   4.447  64.882  1.00  0.00    -0.055 OA 
HETATM   26  C   UNL     1      -6.735   4.734  63.732  1.00  0.00    -0.042 C  
ENDBRANCH  19  22
ENDBRANCH   8  16
BRANCH  13  27
HETATM   27  C   UNL     1     -11.007  12.536  64.137  1.00  0.00    -0.381 C  
HETATM   28  C   UNL     1     -12.274  12.230  63.371  1.00  0.00    -0.630 C  
HETATM   29  C   UNL     1     -12.274  13.326  64.388  1.00  0.00    -0.449 C  
ENDBRANCH  13  27
BRANCH  10  30
HETATM   30  N   UNL     1     -12.198  11.023  68.912  1.00  0.00    -0.712 NA 
HETATM   31  H   UNL     1     -13.080  10.882  68.418  1.00  0.00     0.000 HD 
BRANCH  30  32
HETATM   32  C   UNL     1     -12.244  11.961  69.965  1.00  0.00    -0.217 A  
HETATM   33  C   UNL     1     -12.915  11.736  71.171  1.00  0.00    -0.282 A  
HETATM   34  C   UNL     1     -13.085  12.774  72.103  1.00  0.00    -0.454 A  
HETATM   35  C   UNL     1     -12.571  14.045  71.844  1.00  0.00    -0.258 A  
HETATM   36  C   UNL     1     -11.829  14.274  70.693  1.00  0.00    -0.349 A  
HETATM   37  I   UNL     1     -12.973  15.614  73.150  1.00  0.00    -0.759 I  
HETATM   38  C   UNL     1     -11.678  13.239  69.771  1.00  0.00    -0.284 A  
HETATM   39  F   UNL     1     -10.986  13.486  68.647  1.00  0.00    -0.239 F  
ENDBRANCH  30  32
ENDBRANCH  10  30
TORSDOF 5
ENDMDL
MODEL       18
REMARK 921   NORMALIZED FREE ENERGY PREDICTED BY IDOCK:   -6.76 KCAL/MOL
REMARK 922        TOTAL FREE ENERGY PREDICTED BY IDOCK:   -8.95 KCAL/MOL
REMARK 923 INTER-LIGAND FREE ENERGY PREDICTED BY IDOCK:   -8.54 KCAL/MOL
REMARK 924 INTRA-LIGAND FREE ENERGY PREDICTED BY IDOCK:   -0.41 KCAL/MOL
REMARK 927      BINDING AFFINITY PREDICTED BY RF-SCORE:    0.00 PKD
ROOT
HETATM    1  C   UNL     1      -5.874   9.381  67.637  1.00  0.00    -0.045 C  
HETATM    2  N   UNL     1      -6.963  10.333  67.450  1.00  0.00    -0.081 N  
HETATM    3  C   UNL     1      -7.095  11.291  68.439  1.00  0.00    -0.081 C  
HETATM    4  O   UNL     1      -6.508  11.225  69.520  1.00  0.00    -0.091 OA 
HETATM    5  C   UNL     1      -7.931  12.488  68.120  1.00  0.00    -0.157 C  
HETATM    6  C   UNL     1      -8.779  12.456  67.060  1.00  0.00    -0.207 C  
HETATM    7  C   UNL     1      -7.582  13.641  69.028  1.00  0.00     0.056 C  
HETATM    8  N   UNL     1      -9.675  13.487  66.721  1.00  0.00    -0.263 N  
HETATM    9  C   UNL     1     -10.424  13.489  65.516  1.00  0.00    -0.299 C  
HETATM   10  C   UNL     1      -7.786  10.269  66.318  1.00  0.00    -0.116 C  
HETATM   11  O   UNL     1     -11.139  14.438  65.170  1.00  0.00    -0.325 OA 
HETATM   12  O   UNL     1      -9.222  10.547  63.928  1.00  0.00    -0.212 OA 
HETATM   13  N   UNL     1     -10.356  12.363  64.708  1.00  0.00    -0.291 N  
HETATM   14  C   UNL     1      -8.661  11.301  66.130  1.00  0.00    -0.179 C  
HETATM   15  C   UNL     1      -9.435  11.341  64.848  1.00  0.00    -0.196 C  
ENDROOT
BRANCH   8  16
HETATM   16  C   UNL     1     -10.113  14.536  67.634  1.00  0.00    -0.228 A  
HETATM   17  C   UNL     1      -9.623  15.843  67.478  1.00  0.00    -0.221 A  
HETATM   18  C   UNL     1     -11.385  16.706  68.876  1.00  0.00    -0.123 A  
HETATM   19  C   UNL     1     -11.828  15.406  69.142  1.00  0.00    -0.335 A  
HETATM   20  C   UNL     1     -11.182  14.319  68.523  1.00  0.00    -0.289 A  
HETATM   21  C   UNL     1     -10.264  16.923  68.079  1.00  0.00    -0.310 A  
BRANCH  19  22
HETATM   22  N   UNL     1     -12.947  15.287  70.001  1.00  0.00    -0.646 N  
HETATM   23  H   UNL     1     -13.802  14.924  69.581  1.00  0.00     0.000 HD 
HETATM   24  C   UNL     1     -14.375  15.348  71.954  1.00  0.00    -0.649 C  
HETATM   25  O   UNL     1     -12.092  16.031  72.029  1.00  0.00    -0.450 OA 
HETATM   26  C   UNL     1     -13.010  15.606  71.342  1.00  0.00    -0.487 C  
ENDBRANCH  19  22
ENDBRANCH   8  16
BRANCH  13  27
HETATM   27  C   UNL     1     -11.123  12.383  63.462  1.00  0.00    -0.458 C  
HETATM   28  C   UNL     1     -12.493  11.747  63.402  1.00  0.00    -0.490 C  
HETATM   29  C   UNL     1     -12.358  13.226  63.228  1.00  0.00    -0.317 C  
ENDBRANCH  13  27
BRANCH  10  30
HETATM   30  N   UNL     1      -7.598   9.200  65.452  1.00  0.00    -0.096 NA 
HETATM   31  H   UNL     1      -7.046   9.409  64.619  1.00  0.00     0.000 HD 
BRANCH  30  32
HETATM   32  C   UNL     1      -8.056   7.869  65.550  1.00  0.00    -0.130 A  
HETATM   33  C   UNL     1      -9.184   7.493  66.285  1.00  0.00    -0.194 A  
HETATM   34  C   UNL     1      -9.481   6.137  66.501  1.00  0.00    -0.178 A  
HETATM   35  C   UNL     1      -8.661   5.142  65.969  1.00  0.00    -0.124 A  
HETATM   36  C   UNL     1      -7.582   5.486  65.165  1.00  0.00    -0.080 A  
HETATM   37  I   UNL     1      -9.014   3.145  66.434  1.00  0.00    -0.128 I  
HETATM   38  C   UNL     1      -7.291   6.836  64.970  1.00  0.00    -0.082 A  
HETATM   39  F   UNL     1      -6.225   7.152  64.217  1.00  0.00    -0.035 F  
ENDBRANCH  30  32
ENDBRANCH  10  30
TORSDOF 5
ENDMDL
MODEL       19
REMARK 921   NORMALIZED FREE ENERGY PREDICTED BY IDOCK:   -6.75 KCAL/MOL
REMARK 922        TOTAL FREE ENERGY PREDICTED BY IDOCK:   -8.93 KCAL/MOL
REMARK 923 INTER-LIGAND FREE ENERGY PREDICTED BY IDOCK:   -8.40 KCAL/MOL
REMARK 924 INTRA-LIGAND FREE ENERGY PREDICTED BY IDOCK:   -0.53 KCAL/MOL
REMARK 927      BINDING AFFINITY PREDICTED BY RF-SCORE:    0.00 PKD
ROOT
HETATM    1  C   UNL     1      -7.960   6.686  64.897  1.00  0.00    -0.121 C  
HETATM    2  N   UNL     1      -8.571   7.934  65.339  1.00  0.00    -0.132 N  
HETATM    3  C   UNL     1      -8.518   8.978  64.433  1.00  0.00    -0.174 C  
HETATM    4  O   UNL     1      -7.810   8.957  63.425  1.00  0.00    -0.129 OA 
HETATM    5  C   UNL     1      -9.434  10.135  64.674  1.00  0.00    -0.357 C  
HETATM    6  C   UNL     1     -10.015  10.294  65.891  1.00  0.00    -0.256 C  
HETATM    7  C   UNL     1      -9.652  10.917  63.403  1.00  0.00    -0.364 C  
HETATM    8  N   UNL     1     -10.819  11.390  66.256  1.00  0.00    -0.276 N  
HETATM    9  C   UNL     1     -11.544  11.438  67.475  1.00  0.00    -0.219 C  
HETATM   10  C   UNL     1      -9.185   8.027  66.595  1.00  0.00    -0.180 C  
HETATM   11  O   UNL     1     -12.326  12.356  67.756  1.00  0.00    -0.281 OA 
HETATM   12  O   UNL     1     -10.819   8.249  68.860  1.00  0.00    -0.116 OA 
HETATM   13  N   UNL     1     -11.343  10.417  68.391  1.00  0.00    -0.262 N  
HETATM   14  C   UNL     1      -9.888   9.170  66.857  1.00  0.00    -0.280 C  
HETATM   15  C   UNL     1     -10.687   9.228  68.122  1.00  0.00    -0.151 C  
ENDROOT
BRANCH   8  16
HETATM   16  C   UNL     1     -10.833  12.673  65.565  1.00  0.00    -0.279 A  
HETATM   17  C   UNL     1     -11.881  12.975  64.679  1.00  0.00    -0.422 A  
HETATM   18  C   UNL     1     -11.299  15.311  64.734  1.00  0.00    -0.396 A  
HETATM   19  C   UNL     1     -10.180  15.027  65.525  1.00  0.00    -0.378 A  
HETATM   20  C   UNL     1      -9.945  13.701  65.933  1.00  0.00    -0.304 A  
HETATM   21  C   UNL     1     -12.124  14.286  64.280  1.00  0.00    -0.467 A  
BRANCH  19  22
HETATM   22  N   UNL     1      -9.376  16.131  65.897  1.00  0.00    -0.321 N  
HETATM   23  H   UNL     1      -8.525  16.274  65.354  1.00  0.00     0.000 HD 
HETATM   24  C   UNL     1      -8.540  18.101  67.028  1.00  0.00    -0.260 C  
HETATM   25  O   UNL     1     -10.585  17.049  67.655  1.00  0.00    -0.339 OA 
HETATM   26  C   UNL     1      -9.616  17.036  66.911  1.00  0.00    -0.257 C  
ENDBRANCH  19  22
ENDBRANCH   8  16
BRANCH  13  27
HETATM   27  C   UNL     1     -12.104  10.472  69.639  1.00  0.00    -0.170 C  
HETATM   28  C   UNL     1     -11.398  10.331  70.968  1.00  0.00    -0.306 C  
HETATM   29  C   UNL     1     -12.062  11.625  70.619  1.00  0.00    -0.432 C  
ENDBRANCH  13  27
BRANCH  10  30
HETATM   30  N   UNL     1      -9.084   6.930  67.438  1.00  0.00    -0.122 NA 
HETATM   31  H   UNL     1      -9.685   6.141  67.197  1.00  0.00     0.000 HD 
BRANCH  30  32
HETATM   32  C   UNL     1      -8.276   6.741  68.580  1.00  0.00    -0.120 A  
HETATM   33  C   UNL     1      -7.114   7.477  68.833  1.00  0.00    -0.080 A  
HETATM   34  C   UNL     1      -6.251   7.119  69.882  1.00  0.00    -0.027 A  
HETATM   35  C   UNL     1      -6.551   6.029  70.700  1.00  0.00    -0.048 A  
HETATM   36  C   UNL     1      -7.739   5.333  70.524  1.00  0.00    -0.079 A  
HETATM   37  I   UNL     1      -5.187   5.405  72.142  1.00  0.00    -0.014 I  
HETATM   38  C   UNL     1      -8.580   5.691  69.470  1.00  0.00    -0.110 A  
HETATM   39  F   UNL     1      -9.710   4.987  69.293  1.00  0.00    -0.171 F  
ENDBRANCH  30  32
ENDBRANCH  10  30
TORSDOF 5
ENDMDL
MODEL       20
REMARK 921   NORMALIZED FREE ENERGY PREDICTED BY IDOCK:   -6.72 KCAL/MOL
REMARK 922        TOTAL FREE ENERGY PREDICTED BY IDOCK:   -8.90 KCAL/MOL
REMARK 923 INTER-LIGAND FREE ENERGY PREDICTED BY IDOCK:   -8.46 KCAL/MOL
REMARK 924 INTRA-LIGAND FREE ENERGY PREDICTED BY IDOCK:   -0.43 KCAL/MOL
REMARK 927      BINDING AFFINITY PREDICTED BY RF-SCORE:    0.00 PKD
ROOT
HETATM    1  C   UNL     1     -12.660  14.436  65.412  1.00  0.00    -0.330 C  
HETATM    2  N   UNL     1     -11.613  13.433  65.572  1.00  0.00    -0.317 N  
HETATM    3  C   UNL     1     -11.683  12.355  64.707  1.00  0.00    -0.368 C  
HETATM    4  O   UNL     1     -12.669  12.116  64.010  1.00  0.00    -0.587 OA 
HETATM    5  C   UNL     1     -10.457  11.509  64.575  1.00  0.00    -0.369 C  
HETATM    6  C   UNL     1      -9.474  11.596  65.507  1.00  0.00    -0.195 C  
HETATM    7  C   UNL     1     -10.482  10.732  63.283  1.00  0.00    -0.019 C  
HETATM    8  N   UNL     1      -8.323  10.786  65.533  1.00  0.00    -0.158 N  
HETATM    9  C   UNL     1      -7.240  11.018  66.421  1.00  0.00    -0.127 C  
HETATM   10  C   UNL     1     -10.605  13.594  66.531  1.00  0.00    -0.282 C  
HETATM   11  O   UNL     1      -6.187  10.367  66.381  1.00  0.00    -0.072 OA 
HETATM   12  O   UNL     1      -8.299  13.976  68.076  1.00  0.00    -0.142 OA 
HETATM   13  N   UNL     1      -7.389  12.005  67.383  1.00  0.00    -0.139 N  
HETATM   14  C   UNL     1      -9.568  12.705  66.494  1.00  0.00    -0.248 C  
HETATM   15  C   UNL     1      -8.399  12.951  67.398  1.00  0.00    -0.190 C  
ENDROOT
BRANCH   8  16
HETATM   16  C   UNL     1      -8.192   9.511  64.838  1.00  0.00    -0.140 A  
HETATM   17  C   UNL     1      -7.288   9.391  63.769  1.00  0.00    -0.108 A  
HETATM   18  C   UNL     1      -7.392   6.989  63.908  1.00  0.00    -0.084 A  
HETATM   19  C   UNL     1      -8.379   7.075  64.897  1.00  0.00    -0.010 A  
HETATM   20  C   UNL     1      -8.783   8.343  65.354  1.00  0.00    -0.175 A  
HETATM   21  C   UNL     1      -6.876   8.140  63.318  1.00  0.00    -0.084 A  
BRANCH  19  22
HETATM   22  N   UNL     1      -8.873   5.849  65.401  1.00  0.00    -0.304 N  
HETATM   23  H   UNL     1      -9.194   5.172  64.709  1.00  0.00     0.000 HD 
HETATM   24  C   UNL     1      -9.547   4.073  66.901  1.00  0.00    -0.232 C  
HETATM   25  O   UNL     1      -8.620   6.121  67.694  1.00  0.00    -0.108 OA 
HETATM   26  C   UNL     1      -8.970   5.466  66.723  1.00  0.00    -0.112 C  
ENDBRANCH  19  22
ENDBRANCH   8  16
BRANCH  13  27
HETATM   27  C   UNL     1      -6.262  12.242  68.285  1.00  0.00    -0.054 C  
HETATM   28  C   UNL     1      -6.487  12.329  69.777  1.00  0.00    -0.038 C  
HETATM   29  C   UNL     1      -5.677  11.204  69.218  1.00  0.00    -0.042 C  
ENDBRANCH  13  27
BRANCH  10  30
HETATM   30  N   UNL     1     -10.710  14.677  67.393  1.00  0.00    -0.276 NA 
HETATM   31  H   UNL     1     -10.473  15.582  66.984  1.00  0.00     0.000 HD 
BRANCH  30  32
HETATM   32  C   UNL     1     -11.096  14.715  68.750  1.00  0.00    -0.260 A  
HETATM   33  C   UNL     1     -11.825  13.699  69.374  1.00  0.00    -0.392 A  
HETATM   34  C   UNL     1     -12.341  13.876  70.669  1.00  0.00    -0.451 A  
HETATM   35  C   UNL     1     -12.118  15.068  71.359  1.00  0.00    -0.339 A  
HETATM   36  C   UNL     1     -11.327  16.060  70.797  1.00  0.00    -0.427 A  
HETATM   37  I   UNL     1     -13.025  15.385  73.205  1.00  0.00    -0.739 I  
HETATM   38  C   UNL     1     -10.832  15.876  69.506  1.00  0.00    -0.305 A  
HETATM   39  F   UNL     1     -10.096  16.860  68.962  1.00  0.00    -0.241 F  
ENDBRANCH  30  32
ENDBRANCH  10  30
TORSDOF 5
ENDMDL
MODEL       21
REMARK 921   NORMALIZED FREE ENERGY PREDICTED BY IDOCK:   -6.64 KCAL/MOL
REMARK 922        TOTAL FREE ENERGY PREDICTED BY IDOCK:   -8.79 KCAL/MOL
REMARK 923 INTER-LIGAND FREE ENERGY PREDICTED BY IDOCK:   -8.12 KCAL/MOL
REMARK 924 INTRA-LIGAND FREE ENERGY PREDICTED BY IDOCK:   -0.67 KCAL/MOL
REMARK 927      BINDING AFFINITY PREDICTED BY RF-SCORE:    0.00 PKD
ROOT
HETATM    1  C   UNL     1      -6.165  15.414  69.690  1.00  0.00    -0.153 C  
HETATM    2  N   UNL     1      -7.076  14.584  68.911  1.00  0.00    -0.111 N  
HETATM    3  C   UNL     1      -6.859  13.220  68.992  1.00  0.00    -0.096 C  
HETATM    4  O   UNL     1      -5.840  12.731  69.482  1.00  0.00    -0.088 OA 
HETATM    5  C   UNL     1      -7.964  12.326  68.530  1.00  0.00    -0.107 C  
HETATM    6  C   UNL     1      -8.964  12.830  67.762  1.00  0.00    -0.190 C  
HETATM    7  C   UNL     1      -7.824  10.949  69.130  1.00  0.00    -0.119 C  
HETATM    8  N   UNL     1     -10.002  12.066  67.198  1.00  0.00    -0.195 N  
HETATM    9  C   UNL     1     -11.117  12.650  66.542  1.00  0.00    -0.280 C  
HETATM   10  C   UNL     1      -8.110  15.161  68.162  1.00  0.00    -0.137 C  
HETATM   11  O   UNL     1     -12.078  11.986  66.130  1.00  0.00    -0.582 OA 
HETATM   12  O   UNL     1     -10.467  16.114  66.983  1.00  0.00    -0.302 OA 
HETATM   13  N   UNL     1     -11.108  14.023  66.344  1.00  0.00    -0.312 N  
HETATM   14  C   UNL     1      -9.025  14.309  67.610  1.00  0.00    -0.194 C  
HETATM   15  C   UNL     1     -10.228  14.904  66.944  1.00  0.00    -0.254 C  
ENDROOT
BRANCH   8  16
HETATM   16  C   UNL     1      -9.960  10.620  67.013  1.00  0.00    -0.202 A  
HETATM   17  C   UNL     1      -9.066  10.063  66.084  1.00  0.00    -0.188 A  
HETATM   18  C   UNL     1      -9.337   7.886  67.077  1.00  0.00    -0.200 A  
HETATM   19  C   UNL     1     -10.316   8.388  67.942  1.00  0.00    -0.221 A  
HETATM   20  C   UNL     1     -10.631   9.759  67.901  1.00  0.00    -0.310 A  
HETATM   21  C   UNL     1      -8.743   8.710  66.125  1.00  0.00    -0.180 A  
BRANCH  19  22
HETATM   22  N   UNL     1     -10.894   7.462  68.842  1.00  0.00    -0.396 N  
HETATM   23  H   UNL     1     -11.577   6.815  68.448  1.00  0.00     0.000 HD 
HETATM   24  C   UNL     1     -11.440   6.228  70.851  1.00  0.00    -0.377 C  
HETATM   25  O   UNL     1      -9.843   7.997  70.843  1.00  0.00    -0.174 OA 
HETATM   26  C   UNL     1     -10.638   7.335  70.192  1.00  0.00    -0.232 C  
ENDBRANCH  19  22
ENDBRANCH   8  16
BRANCH  13  27
HETATM   27  C   UNL     1     -12.269  14.614  65.678  1.00  0.00    -0.182 C  
HETATM   28  C   UNL     1     -12.081  15.514  64.479  1.00  0.00    -0.124 C  
HETATM   29  C   UNL     1     -12.776  14.201  64.313  1.00  0.00     0.025 C  
ENDBRANCH  13  27
BRANCH  10  30
HETATM   30  N   UNL     1      -8.156  16.547  68.098  1.00  0.00    -0.167 NA 
HETATM   31  H   UNL     1      -8.632  17.002  68.877  1.00  0.00     0.000 HD 
BRANCH  30  32
HETATM   32  C   UNL     1      -7.642  17.421  67.116  1.00  0.00    -0.200 A  
HETATM   33  C   UNL     1      -6.523  17.128  66.331  1.00  0.00    -0.236 A  
HETATM   34  C   UNL     1      -5.947  18.109  65.508  1.00  0.00    -0.236 A  
HETATM   35  C   UNL     1      -6.495  19.391  65.448  1.00  0.00    -0.270 A  
HETATM   36  C   UNL     1      -7.655  19.685  66.153  1.00  0.00    -0.326 A  
HETATM   37  I   UNL     1      -5.538  20.882  64.357  1.00  0.00    -0.252 I  
HETATM   38  C   UNL     1      -8.209  18.705  66.977  1.00  0.00    -0.253 A  
HETATM   39  F   UNL     1      -9.312  19.015  67.677  1.00  0.00    -0.300 F  
ENDBRANCH  30  32
ENDBRANCH  10  30
TORSDOF 5
ENDMDL
MODEL       22
REMARK 921   NORMALIZED FREE ENERGY PREDICTED BY IDOCK:   -6.55 KCAL/MOL
REMARK 922        TOTAL FREE ENERGY PREDICTED BY IDOCK:   -8.68 KCAL/MOL
REMARK 923 INTER-LIGAND FREE ENERGY PREDICTED BY IDOCK:   -8.12 KCAL/MOL
REMARK 924 INTRA-LIGAND FREE ENERGY PREDICTED BY IDOCK:   -0.56 KCAL/MOL
REMARK 927      BINDING AFFINITY PREDICTED BY RF-SCORE:    0.00 PKD
ROOT
HETATM    1  C   UNL     1      -5.892  15.284  70.082  1.00  0.00    -0.140 C  
HETATM    2  N   UNL     1      -6.773  14.416  69.309  1.00  0.00    -0.119 N  
HETATM    3  C   UNL     1      -6.466  13.068  69.347  1.00  0.00    -0.094 C  
HETATM    4  O   UNL     1      -5.403  12.634  69.793  1.00  0.00    -0.075 OA 
HETATM    5  C   UNL     1      -7.526  12.115  68.894  1.00  0.00    -0.027 C  
HETATM    6  C   UNL     1      -8.579  12.572  68.169  1.00  0.00    -0.189 C  
HETATM    7  C   UNL     1      -7.279  10.737  69.453  1.00  0.00    -0.132 C  
HETATM    8  N   UNL     1      -9.583  11.756  67.616  1.00  0.00    -0.180 N  
HETATM    9  C   UNL     1     -10.753  12.283  67.010  1.00  0.00    -0.231 C  
HETATM   10  C   UNL     1      -7.865  14.943  68.606  1.00  0.00    -0.134 C  
HETATM   11  O   UNL     1     -11.682  11.568  66.609  1.00  0.00    -0.486 OA 
HETATM   12  O   UNL     1     -10.312  15.770  67.522  1.00  0.00    -0.267 OA 
HETATM   13  N   UNL     1     -10.839  13.658  66.848  1.00  0.00    -0.282 N  
HETATM   14  C   UNL     1      -8.740  14.048  68.059  1.00  0.00    -0.180 C  
HETATM   15  C   UNL     1      -9.998  14.580  67.445  1.00  0.00    -0.227 C  
ENDROOT
BRANCH   8  16
HETATM   16  C   UNL     1      -9.454  10.322  67.393  1.00  0.00    -0.153 A  
HETATM   17  C   UNL     1     -10.122   9.423  68.241  1.00  0.00    -0.210 A  
HETATM   18  C   UNL     1      -9.812   7.640  66.651  1.00  0.00    -0.283 A  
HETATM   19  C   UNL     1      -9.045   8.482  65.837  1.00  0.00    -0.183 A  
HETATM   20  C   UNL     1      -8.862   9.824  66.217  1.00  0.00    -0.165 A  
HETATM   21  C   UNL     1     -10.315   8.096  67.867  1.00  0.00    -0.280 A  
BRANCH  19  22
HETATM   22  N   UNL     1      -8.540   7.913  64.644  1.00  0.00    -0.381 N  
HETATM   23  H   UNL     1      -9.195   7.834  63.867  1.00  0.00     0.000 HD 
HETATM   24  C   UNL     1      -7.064   6.905  63.012  1.00  0.00    -0.059 C  
HETATM   25  O   UNL     1      -6.328   7.477  65.206  1.00  0.00    -0.038 OA 
HETATM   26  C   UNL     1      -7.259   7.452  64.414  1.00  0.00    -0.078 C  
ENDBRANCH  19  22
ENDBRANCH   8  16
BRANCH  13  27
HETATM   27  C   UNL     1     -12.055  14.189  66.232  1.00  0.00    -0.442 C  
HETATM   28  C   UNL     1     -12.015  14.747  64.828  1.00  0.00    -0.408 C  
HETATM   29  C   UNL     1     -12.812  13.514  65.109  1.00  0.00    -0.381 C  
ENDBRANCH  13  27
BRANCH  10  30
HETATM   30  N   UNL     1      -8.001  16.324  68.580  1.00  0.00    -0.174 NA 
HETATM   31  H   UNL     1      -8.407  16.736  69.420  1.00  0.00     0.000 HD 
BRANCH  30  32
HETATM   32  C   UNL     1      -7.661  17.245  67.565  1.00  0.00    -0.178 A  
HETATM   33  C   UNL     1      -6.729  16.975  66.559  1.00  0.00    -0.267 A  
HETATM   34  C   UNL     1      -6.293  17.991  65.692  1.00  0.00    -0.256 A  
HETATM   35  C   UNL     1      -6.799  19.286  65.813  1.00  0.00    -0.278 A  
HETATM   36  C   UNL     1      -7.788  19.562  66.749  1.00  0.00    -0.291 A  
HETATM   37  I   UNL     1      -6.026  20.818  64.637  1.00  0.00    -0.278 I  
HETATM   38  C   UNL     1      -8.201  18.547  67.611  1.00  0.00    -0.255 A  
HETATM   39  F   UNL     1      -9.134  18.838  68.532  1.00  0.00    -0.321 F  
ENDBRANCH  30  32
ENDBRANCH  10  30
TORSDOF 5
ENDMDL
MODEL       23
REMARK 921   NORMALIZED FREE ENERGY PREDICTED BY IDOCK:   -6.53 KCAL/MOL
REMARK 922        TOTAL FREE ENERGY PREDICTED BY IDOCK:   -8.65 KCAL/MOL
REMARK 923 INTER-LIGAND FREE ENERGY PREDICTED BY IDOCK:   -8.76 KCAL/MOL
REMARK 924 INTRA-LIGAND FREE ENERGY PREDICTED BY IDOCK:    0.11 KCAL/MOL
REMARK 927      BINDING AFFINITY PREDICTED BY RF-SCORE:    0.00 PKD
ROOT
HETATM    1  C   UNL     1      -5.659   8.400  70.379  1.00  0.00    -0.025 C  
HETATM    2  N   UNL     1      -6.742   9.215  69.840  1.00  0.00    -0.045 N  
HETATM    3  C   UNL     1      -6.479   9.832  68.630  1.00  0.00    -0.047 C  
HETATM    4  O   UNL     1      -5.349   9.900  68.143  1.00  0.00    -0.039 OA 
HETATM    5  C   UNL     1      -7.650  10.358  67.865  1.00  0.00    -0.088 C  
HETATM    6  C   UNL     1      -8.844  10.525  68.490  1.00  0.00    -0.144 C  
HETATM    7  C   UNL     1      -7.306  10.520  66.406  1.00  0.00    -0.129 C  
HETATM    8  N   UNL     1      -9.986  11.094  67.895  1.00  0.00    -0.170 N  
HETATM    9  C   UNL     1     -11.258  11.098  68.522  1.00  0.00    -0.258 C  
HETATM   10  C   UNL     1      -7.965   9.322  70.515  1.00  0.00    -0.167 C  
HETATM   11  O   UNL     1     -12.282  11.512  67.963  1.00  0.00    -0.582 OA 
HETATM   12  O   UNL     1     -10.586   9.287  71.503  1.00  0.00    -0.333 OA 
HETATM   13  N   UNL     1     -11.341  10.634  69.827  1.00  0.00    -0.278 N  
HETATM   14  C   UNL     1      -8.982   9.953  69.857  1.00  0.00    -0.231 C  
HETATM   15  C   UNL     1     -10.342   9.939  70.485  1.00  0.00    -0.232 C  
ENDROOT
BRANCH   8  16
HETATM   16  C   UNL     1      -9.967  11.930  66.700  1.00  0.00    -0.199 A  
HETATM   17  C   UNL     1     -10.440  11.414  65.483  1.00  0.00    -0.322 A  
HETATM   18  C   UNL     1     -10.590  13.635  64.562  1.00  0.00    -0.428 A  
HETATM   19  C   UNL     1     -10.014  14.168  65.721  1.00  0.00    -0.309 A  
HETATM   20  C   UNL     1      -9.695  13.308  66.788  1.00  0.00    -0.258 A  
HETATM   21  C   UNL     1     -10.767  12.260  64.426  1.00  0.00    -0.369 A  
BRANCH  19  22
HETATM   22  N   UNL     1      -9.833  15.571  65.744  1.00  0.00    -0.344 N  
HETATM   23  H   UNL     1      -9.270  15.967  64.992  1.00  0.00     0.000 HD 
HETATM   24  C   UNL     1      -9.943  17.903  66.384  1.00  0.00    -0.358 C  
HETATM   25  O   UNL     1     -11.044  16.192  67.626  1.00  0.00    -0.301 OA 
HETATM   26  C   UNL     1     -10.334  16.464  66.670  1.00  0.00    -0.292 C  
ENDBRANCH  19  22
ENDBRANCH   8  16
BRANCH  13  27
HETATM   27  C   UNL     1     -12.660  10.632  70.459  1.00  0.00    -0.348 C  
HETATM   28  C   UNL     1     -12.802  10.280  71.922  1.00  0.00    -0.528 C  
HETATM   29  C   UNL     1     -13.132  11.664  71.461  1.00  0.00    -0.405 C  
ENDBRANCH  13  27
BRANCH  10  30
HETATM   30  N   UNL     1      -8.059   8.724  71.764  1.00  0.00    -0.310 NA 
HETATM   31  H   UNL     1      -7.862   9.338  72.555  1.00  0.00     0.000 HD 
BRANCH  30  32
HETATM   32  C   UNL     1      -8.387   7.394  72.104  1.00  0.00    -0.109 A  
HETATM   33  C   UNL     1      -8.890   6.464  71.189  1.00  0.00    -0.138 A  
HETATM   34  C   UNL     1      -9.374   5.219  71.623  1.00  0.00    -0.178 A  
HETATM   35  C   UNL     1      -9.345   4.884  72.977  1.00  0.00    -0.129 A  
HETATM   36  C   UNL     1      -8.774   5.754  73.897  1.00  0.00    -0.117 A  
HETATM   37  I   UNL     1     -10.215   3.110  73.628  1.00  0.00    -0.272 I  
HETATM   38  C   UNL     1      -8.309   6.992  73.454  1.00  0.00    -0.119 A  
HETATM   39  F   UNL     1      -7.790   7.836  74.361  1.00  0.00    -0.164 F  
ENDBRANCH  30  32
ENDBRANCH  10  30
TORSDOF 5
ENDMDL
MODEL       24
REMARK 921   NORMALIZED FREE ENERGY PREDICTED BY IDOCK:   -6.51 KCAL/MOL
REMARK 922        TOTAL FREE ENERGY PREDICTED BY IDOCK:   -8.62 KCAL/MOL
REMARK 923 INTER-LIGAND FREE ENERGY PREDICTED BY IDOCK:   -8.39 KCAL/MOL
REMARK 924 INTRA-LIGAND FREE ENERGY PREDICTED BY IDOCK:   -0.24 KCAL/MOL
REMARK 927      BINDING AFFINITY PREDICTED BY RF-SCORE:    0.00 PKD
ROOT
HETATM    1  C   UNL     1     -10.799  12.685  65.019  1.00  0.00    -0.290 C  
HETATM    2  N   UNL     1     -10.579  11.346  65.552  1.00  0.00    -0.274 N  
HETATM    3  C   UNL     1      -9.938  10.463  64.702  1.00  0.00    -0.338 C  
HETATM    4  O   UNL     1      -9.769  10.688  63.503  1.00  0.00    -0.291 OA 
HETATM    5  C   UNL     1      -9.364   9.225  65.313  1.00  0.00    -0.269 C  
HETATM    6  C   UNL     1      -9.759   8.840  66.554  1.00  0.00    -0.259 C  
HETATM    7  C   UNL     1      -8.292   8.640  64.428  1.00  0.00    -0.148 C  
HETATM    8  N   UNL     1      -9.355   7.650  67.188  1.00  0.00    -0.140 N  
HETATM    9  C   UNL     1      -9.654   7.363  68.545  1.00  0.00    -0.146 C  
HETATM   10  C   UNL     1     -10.980  11.017  66.854  1.00  0.00    -0.249 C  
HETATM   11  O   UNL     1      -9.219   6.363  69.132  1.00  0.00    -0.134 OA 
HETATM   12  O   UNL     1     -11.317  10.336  69.551  1.00  0.00    -0.243 OA 
HETATM   13  N   UNL     1     -10.486   8.239  69.227  1.00  0.00    -0.219 N  
HETATM   14  C   UNL     1     -10.578   9.804  67.338  1.00  0.00    -0.330 C  
HETATM   15  C   UNL     1     -10.852   9.495  68.777  1.00  0.00    -0.142 C  
ENDROOT
BRANCH   8  16
HETATM   16  C   UNL     1      -8.797   6.493  66.499  1.00  0.00    -0.138 A  
HETATM   17  C   UNL     1      -7.444   6.161  66.679  1.00  0.00    -0.090 A  
HETATM   18  C   UNL     1      -7.828   3.961  65.777  1.00  0.00    -0.090 A  
HETATM   19  C   UNL     1      -9.153   4.300  65.481  1.00  0.00    -0.138 A  
HETATM   20  C   UNL     1      -9.633   5.574  65.838  1.00  0.00    -0.085 A  
HETATM   21  C   UNL     1      -6.965   4.900  66.338  1.00  0.00    -0.067 A  
BRANCH  19  22
HETATM   22  N   UNL     1      -9.938   3.293  64.871  1.00  0.00    -0.362 N  
HETATM   23  H   UNL     1     -10.275   2.549  65.482  1.00  0.00     0.000 HD 
HETATM   24  C   UNL     1     -11.151   1.986  63.234  1.00  0.00    -0.210 C  
HETATM   25  O   UNL     1     -10.014   4.001  62.660  1.00  0.00    -0.152 OA 
HETATM   26  C   UNL     1     -10.298   3.203  63.541  1.00  0.00    -0.212 C  
ENDBRANCH  19  22
ENDBRANCH   8  16
BRANCH  13  27
HETATM   27  C   UNL     1     -10.776   7.939  70.629  1.00  0.00    -0.228 C  
HETATM   28  C   UNL     1     -12.194   8.023  71.146  1.00  0.00    -0.262 C  
HETATM   29  C   UNL     1     -11.501   6.699  71.107  1.00  0.00    -0.370 C  
ENDBRANCH  13  27
BRANCH  10  30
HETATM   30  N   UNL     1     -11.694  11.973  67.563  1.00  0.00    -0.517 NA 
HETATM   31  H   UNL     1     -12.630  11.688  67.855  1.00  0.00     0.000 HD 
BRANCH  30  32
HETATM   32  C   UNL     1     -11.321  13.280  67.942  1.00  0.00    -0.284 A  
HETATM   33  C   UNL     1     -12.147  14.396  67.781  1.00  0.00    -0.304 A  
HETATM   34  C   UNL     1     -11.653  15.693  68.000  1.00  0.00    -0.245 A  
HETATM   35  C   UNL     1     -10.330  15.886  68.398  1.00  0.00    -0.240 A  
HETATM   36  C   UNL     1      -9.511  14.791  68.646  1.00  0.00    -0.213 A  
HETATM   37  I   UNL     1      -9.562  17.813  68.556  1.00  0.00    -0.295 I  
HETATM   38  C   UNL     1     -10.011  13.510  68.412  1.00  0.00    -0.232 A  
HETATM   39  F   UNL     1      -9.197  12.463  68.625  1.00  0.00    -0.185 F  
ENDBRANCH  30  32
ENDBRANCH  10  30
TORSDOF 5
ENDMDL
MODEL       25
REMARK 921   NORMALIZED FREE ENERGY PREDICTED BY IDOCK:   -6.49 KCAL/MOL
REMARK 922        TOTAL FREE ENERGY PREDICTED BY IDOCK:   -8.60 KCAL/MOL
REMARK 923 INTER-LIGAND FREE ENERGY PREDICTED BY IDOCK:   -8.81 KCAL/MOL
REMARK 924 INTRA-LIGAND FREE ENERGY PREDICTED BY IDOCK:    0.20 KCAL/MOL
REMARK 927      BINDING AFFINITY PREDICTED BY RF-SCORE:    0.00 PKD
ROOT
HETATM    1  C   UNL     1     -12.437  11.457  70.838  1.00  0.00    -0.379 C  
HETATM    2  N   UNL     1     -11.557  10.859  69.840  1.00  0.00    -0.301 N  
HETATM    3  C   UNL     1     -10.799   9.788  70.279  1.00  0.00    -0.301 C  
HETATM    4  O   UNL     1     -10.679   9.493  71.468  1.00  0.00    -0.340 OA 
HETATM    5  C   UNL     1     -10.177   8.920  69.231  1.00  0.00    -0.214 C  
HETATM    6  C   UNL     1     -10.081   9.369  67.954  1.00  0.00    -0.194 C  
HETATM    7  C   UNL     1      -9.841   7.562  69.794  1.00  0.00    -0.180 C  
HETATM    8  N   UNL     1      -9.437   8.679  66.910  1.00  0.00    -0.167 N  
HETATM    9  C   UNL     1      -9.501   9.099  65.556  1.00  0.00    -0.206 C  
HETATM   10  C   UNL     1     -11.525  11.346  68.527  1.00  0.00    -0.297 C  
HETATM   11  O   UNL     1      -9.017   8.442  64.625  1.00  0.00     0.068 OA 
HETATM   12  O   UNL     1     -11.665  11.907  65.786  1.00  0.00    -0.390 OA 
HETATM   13  N   UNL     1     -10.120  10.309  65.280  1.00  0.00    -0.308 N  
HETATM   14  C   UNL     1     -10.813  10.620  67.614  1.00  0.00    -0.346 C  
HETATM   15  C   UNL     1     -10.895  11.025  66.175  1.00  0.00    -0.146 C  
ENDROOT
BRANCH   8  16
HETATM   16  C   UNL     1      -8.462   7.612  67.101  1.00  0.00    -0.121 A  
HETATM   17  C   UNL     1      -7.174   7.921  67.568  1.00  0.00    -0.088 A  
HETATM   18  C   UNL     1      -6.784   5.611  68.124  1.00  0.00    -0.054 A  
HETATM   19  C   UNL     1      -8.015   5.254  67.564  1.00  0.00    -0.100 A  
HETATM   20  C   UNL     1      -8.851   6.260  67.044  1.00  0.00    -0.108 A  
HETATM   21  C   UNL     1      -6.346   6.932  68.092  1.00  0.00    -0.035 A  
BRANCH  19  22
HETATM   22  N   UNL     1      -8.350   3.880  67.604  1.00  0.00    -0.093 N  
HETATM   23  H   UNL     1      -7.921   3.289  66.892  1.00  0.00     0.000 HD 
HETATM   24  C   UNL     1      -9.319   1.757  68.248  1.00  0.00    -0.246 C  
HETATM   25  O   UNL     1      -9.781   3.775  69.431  1.00  0.00    -0.181 OA 
HETATM   26  C   UNL     1      -9.191   3.249  68.498  1.00  0.00    -0.175 C  
ENDBRANCH  19  22
ENDBRANCH   8  16
BRANCH  13  27
HETATM   27  C   UNL     1     -10.190  10.726  63.879  1.00  0.00    -0.309 C  
HETATM   28  C   UNL     1     -10.199  12.194  63.522  1.00  0.00    -0.453 C  
HETATM   29  C   UNL     1      -9.042  11.342  63.110  1.00  0.00    -0.209 C  
ENDBRANCH  13  27
BRANCH  10  30
HETATM   30  N   UNL     1     -12.269  12.484  68.249  1.00  0.00    -0.174 NA 
HETATM   31  H   UNL     1     -13.263  12.323  68.084  1.00  0.00     0.000 HD 
BRANCH  30  32
HETATM   32  C   UNL     1     -11.858  13.831  68.162  1.00  0.00    -0.376 A  
HETATM   33  C   UNL     1     -11.077  14.334  67.116  1.00  0.00    -0.318 A  
HETATM   34  C   UNL     1     -10.542  15.631  67.178  1.00  0.00    -0.308 A  
HETATM   35  C   UNL     1     -10.796  16.446  68.282  1.00  0.00    -0.347 A  
HETATM   36  C   UNL     1     -11.636  16.004  69.295  1.00  0.00    -0.331 A  
HETATM   37  I   UNL     1      -9.864  18.300  68.442  1.00  0.00    -0.424 I  
HETATM   38  C   UNL     1     -12.150  14.709  69.226  1.00  0.00    -0.272 A  
HETATM   39  F   UNL     1     -12.934  14.284  70.231  1.00  0.00    -0.386 F  
ENDBRANCH  30  32
ENDBRANCH  10  30
TORSDOF 5
ENDMDL
MODEL       26
REMARK 921   NORMALIZED FREE ENERGY PREDICTED BY IDOCK:   -6.47 KCAL/MOL
REMARK 922        TOTAL FREE ENERGY PREDICTED BY IDOCK:   -8.58 KCAL/MOL
REMARK 923 INTER-LIGAND FREE ENERGY PREDICTED BY IDOCK:   -9.17 KCAL/MOL
REMARK 924 INTRA-LIGAND FREE ENERGY PREDICTED BY IDOCK:    0.59 KCAL/MOL
REMARK 927      BINDING AFFINITY PREDICTED BY RF-SCORE:    0.00 PKD
ROOT
HETATM    1  C   UNL     1      -6.906  11.963  69.163  1.00  0.00    -0.099 C  
HETATM    2  N   UNL     1      -7.778  12.975  68.579  1.00  0.00    -0.128 N  
HETATM    3  C   UNL     1      -7.426  14.288  68.837  1.00  0.00    -0.123 C  
HETATM    4  O   UNL     1      -6.590  14.604  69.684  1.00  0.00    -0.133 OA 
HETATM    5  C   UNL     1      -8.046  15.341  67.976  1.00  0.00    -0.141 C  
HETATM    6  C   UNL     1      -9.142  15.045  67.232  1.00  0.00    -0.201 C  
HETATM    7  C   UNL     1      -7.225  16.606  68.004  1.00  0.00    -0.162 C  
HETATM    8  N   UNL     1      -9.859  15.977  66.458  1.00  0.00    -0.252 N  
HETATM    9  C   UNL     1     -10.895  15.599  65.565  1.00  0.00    -0.346 C  
HETATM   10  C   UNL     1      -8.877  12.608  67.791  1.00  0.00    -0.179 C  
HETATM   11  O   UNL     1     -11.462  16.403  64.814  1.00  0.00    -0.255 OA 
HETATM   12  O   UNL     1     -10.828  12.059  65.857  1.00  0.00    -0.268 OA 
HETATM   13  N   UNL     1     -11.293  14.270  65.557  1.00  0.00    -0.318 N  
HETATM   14  C   UNL     1      -9.533  13.612  67.137  1.00  0.00    -0.244 C  
HETATM   15  C   UNL     1     -10.606  13.233  66.163  1.00  0.00    -0.287 C  
ENDROOT
BRANCH   8  16
HETATM   16  C   UNL     1      -9.796  17.422  66.635  1.00  0.00    -0.297 A  
HETATM   17  C   UNL     1     -10.548  18.032  67.653  1.00  0.00    -0.413 A  
HETATM   18  C   UNL     1      -9.229  20.039  67.471  1.00  0.00    -0.475 A  
HETATM   19  C   UNL     1      -8.537  19.502  66.379  1.00  0.00    -0.360 A  
HETATM   20  C   UNL     1      -8.831  18.191  65.959  1.00  0.00     0.011 A  
HETATM   21  C   UNL     1     -10.257  19.325  68.081  1.00  0.00    -0.515 A  
BRANCH  19  22
HETATM   22  N   UNL     1      -7.543  20.324  65.799  1.00  0.00    -0.520 N  
HETATM   23  H   UNL     1      -7.579  21.314  66.037  1.00  0.00     0.000 HD 
HETATM   24  C   UNL     1      -5.636  21.085  64.517  1.00  0.00    -0.267 C  
HETATM   25  O   UNL     1      -6.304  18.797  64.561  1.00  0.00    -0.462 OA 
HETATM   26  C   UNL     1      -6.529  19.935  64.947  1.00  0.00    -0.268 C  
ENDBRANCH  19  22
ENDBRANCH   8  16
BRANCH  13  27
HETATM   27  C   UNL     1     -12.353  13.891  64.623  1.00  0.00    -0.388 C  
HETATM   28  C   UNL     1     -12.008  13.443  63.222  1.00  0.00    -0.289 C  
HETATM   29  C   UNL     1     -12.632  12.473  64.173  1.00  0.00    -0.474 C  
ENDBRANCH  13  27
BRANCH  10  30
HETATM   30  N   UNL     1      -9.167  11.254  67.691  1.00  0.00    -0.154 NA 
HETATM   31  H   UNL     1      -9.871  10.911  68.345  1.00  0.00     0.000 HD 
BRANCH  30  32
HETATM   32  C   UNL     1      -8.634  10.281  66.819  1.00  0.00    -0.127 A  
HETATM   33  C   UNL     1      -7.664  10.559  65.851  1.00  0.00    -0.148 A  
HETATM   34  C   UNL     1      -7.310   9.597  64.891  1.00  0.00    -0.118 A  
HETATM   35  C   UNL     1      -7.913   8.339  64.898  1.00  0.00    -0.144 A  
HETATM   36  C   UNL     1      -8.818   8.007  65.898  1.00  0.00    -0.189 A  
HETATM   37  I   UNL     1      -7.507   6.982  63.374  1.00  0.00    -0.098 I  
HETATM   38  C   UNL     1      -9.169   8.976  66.837  1.00  0.00    -0.142 A  
HETATM   39  F   UNL     1     -10.071   8.650  67.778  1.00  0.00    -0.196 F  
ENDBRANCH  30  32
ENDBRANCH  10  30
TORSDOF 5
ENDMDL
MODEL       27
REMARK 921   NORMALIZED FREE ENERGY PREDICTED BY IDOCK:   -6.45 KCAL/MOL
REMARK 922        TOTAL FREE ENERGY PREDICTED BY IDOCK:   -8.54 KCAL/MOL
REMARK 923 INTER-LIGAND FREE ENERGY PREDICTED BY IDOCK:   -8.03 KCAL/MOL
REMARK 924 INTRA-LIGAND FREE ENERGY PREDICTED BY IDOCK:   -0.51 KCAL/MOL
REMARK 927      BINDING AFFINITY PREDICTED BY RF-SCORE:    0.00 PKD
ROOT
HETATM    1  C   UNL     1      -5.989  10.640  68.562  1.00  0.00    -0.039 C  
HETATM    2  N   UNL     1      -7.028  11.563  68.119  1.00  0.00    -0.067 N  
HETATM    3  C   UNL     1      -7.078  12.772  68.790  1.00  0.00    -0.089 C  
HETATM    4  O   UNL     1      -6.466  12.983  69.837  1.00  0.00    -0.073 OA 
HETATM    5  C   UNL     1      -7.854  13.876  68.146  1.00  0.00    -0.147 C  
HETATM    6  C   UNL     1      -8.732  13.592  67.151  1.00  0.00    -0.215 C  
HETATM    7  C   UNL     1      -7.415  15.217  68.679  1.00  0.00    -0.124 C  
HETATM    8  N   UNL     1      -9.578  14.535  66.537  1.00  0.00    -0.280 N  
HETATM    9  C   UNL     1     -10.358  14.236  65.391  1.00  0.00    -0.370 C  
HETATM   10  C   UNL     1      -7.884  11.226  67.062  1.00  0.00    -0.150 C  
HETATM   11  O   UNL     1     -11.029  15.088  64.793  1.00  0.00    -0.392 OA 
HETATM   12  O   UNL     1      -9.369  10.893  64.710  1.00  0.00    -0.210 OA 
HETATM   13  N   UNL     1     -10.377  12.923  64.942  1.00  0.00    -0.309 N  
HETATM   14  C   UNL     1      -8.706  12.212  66.593  1.00  0.00    -0.153 C  
HETATM   15  C   UNL     1      -9.512  11.930  65.363  1.00  0.00    -0.108 C  
ENDROOT
BRANCH   8  16
HETATM   16  C   UNL     1      -9.930  15.827  67.112  1.00  0.00    -0.242 A  
HETATM   17  C   UNL     1     -10.788  15.884  68.223  1.00  0.00    -0.315 A  
HETATM   18  C   UNL     1     -10.117  18.154  68.667  1.00  0.00    -0.406 A  
HETATM   19  C   UNL     1      -9.341  18.167  67.503  1.00  0.00    -0.258 A  
HETATM   20  C   UNL     1      -9.257  17.000  66.721  1.00  0.00    -0.270 A  
HETATM   21  C   UNL     1     -10.868  17.032  69.007  1.00  0.00    -0.206 A  
BRANCH  19  22
HETATM   22  N   UNL     1      -8.651  19.369  67.220  1.00  0.00    -0.289 N  
HETATM   23  H   UNL     1      -9.158  20.063  66.671  1.00  0.00     0.000 HD 
HETATM   24  C   UNL     1      -6.948  21.086  67.126  1.00  0.00    -0.411 C  
HETATM   25  O   UNL     1      -6.612  19.028  68.279  1.00  0.00    -0.233 OA 
HETATM   26  C   UNL     1      -7.370  19.709  67.604  1.00  0.00    -0.254 C  
ENDBRANCH  19  22
ENDBRANCH   8  16
BRANCH  13  27
HETATM   27  C   UNL     1     -11.176  12.630  63.752  1.00  0.00    -0.463 C  
HETATM   28  C   UNL     1     -12.529  11.971  63.888  1.00  0.00    -0.543 C  
HETATM   29  C   UNL     1     -12.439  13.368  63.364  1.00  0.00    -0.229 C  
ENDBRANCH  13  27
BRANCH  10  30
HETATM   30  N   UNL     1      -7.782   9.944  66.540  1.00  0.00    -0.105 NA 
HETATM   31  H   UNL     1      -7.236   9.868  65.681  1.00  0.00     0.000 HD 
BRANCH  30  32
HETATM   32  C   UNL     1      -8.319   8.730  67.019  1.00  0.00    -0.103 A  
HETATM   33  C   UNL     1      -9.677   8.539  67.287  1.00  0.00    -0.239 A  
HETATM   34  C   UNL     1     -10.125   7.377  67.937  1.00  0.00    -0.220 A  
HETATM   35  C   UNL     1      -9.218   6.386  68.314  1.00  0.00    -0.112 A  
HETATM   36  C   UNL     1      -7.875   6.512  67.987  1.00  0.00    -0.105 A  
HETATM   37  I   UNL     1      -9.867   4.750  69.424  1.00  0.00    -0.157 I  
HETATM   38  C   UNL     1      -7.442   7.676  67.351  1.00  0.00    -0.100 A  
HETATM   39  F   UNL     1      -6.134   7.797  67.071  1.00  0.00    -0.045 F  
ENDBRANCH  30  32
ENDBRANCH  10  30
TORSDOF 5
ENDMDL
MODEL       28
REMARK 921   NORMALIZED FREE ENERGY PREDICTED BY IDOCK:   -6.44 KCAL/MOL
REMARK 922        TOTAL FREE ENERGY PREDICTED BY IDOCK:   -8.54 KCAL/MOL
REMARK 923 INTER-LIGAND FREE ENERGY PREDICTED BY IDOCK:   -8.28 KCAL/MOL
REMARK 924 INTRA-LIGAND FREE ENERGY PREDICTED BY IDOCK:   -0.26 KCAL/MOL
REMARK 927      BINDING AFFINITY PREDICTED BY RF-SCORE:    0.00 PKD
ROOT
HETATM    1  C   UNL     1      -8.800   6.100  65.934  1.00  0.00    -0.143 C  
HETATM    2  N   UNL     1      -9.209   7.390  66.479  1.00  0.00    -0.161 N  
HETATM    3  C   UNL     1      -9.117   8.461  65.608  1.00  0.00    -0.097 C  
HETATM    4  O   UNL     1      -8.516   8.403  64.535  1.00  0.00    -0.149 OA 
HETATM    5  C   UNL     1      -9.857   9.705  65.980  1.00  0.00    -0.345 C  
HETATM    6  C   UNL     1     -10.296   9.875  67.254  1.00  0.00    -0.245 C  
HETATM    7  C   UNL     1     -10.099  10.565  64.765  1.00  0.00    -0.406 C  
HETATM    8  N   UNL     1     -10.922  11.039  67.735  1.00  0.00    -0.247 N  
HETATM    9  C   UNL     1     -11.515  11.116  69.022  1.00  0.00    -0.296 C  
HETATM   10  C   UNL     1      -9.685   7.496  67.792  1.00  0.00    -0.146 C  
HETATM   11  O   UNL     1     -12.149  12.106  69.412  1.00  0.00    -0.268 OA 
HETATM   12  O   UNL     1     -11.054   7.803  70.217  1.00  0.00    -0.257 OA 
HETATM   13  N   UNL     1     -11.353  10.037  69.878  1.00  0.00    -0.254 N  
HETATM   14  C   UNL     1     -10.214   8.700  68.163  1.00  0.00    -0.250 C  
HETATM   15  C   UNL     1     -10.876   8.794  69.503  1.00  0.00    -0.142 C  
ENDROOT
BRANCH   8  16
HETATM   16  C   UNL     1     -10.845  12.346  67.094  1.00  0.00    -0.245 A  
HETATM   17  C   UNL     1     -11.919  12.801  66.311  1.00  0.00    -0.460 A  
HETATM   18  C   UNL     1     -11.074  15.054  66.399  1.00  0.00    -0.329 A  
HETATM   19  C   UNL     1      -9.935  14.614  67.083  1.00  0.00    -0.240 A  
HETATM   20  C   UNL     1      -9.821  13.253  67.422  1.00  0.00    -0.227 A  
HETATM   21  C   UNL     1     -12.044  14.147  65.980  1.00  0.00    -0.449 A  
BRANCH  19  22
HETATM   22  N   UNL     1      -8.985  15.606  67.425  1.00  0.00    -0.190 N  
HETATM   23  H   UNL     1      -8.424  15.978  66.660  1.00  0.00     0.000 HD 
HETATM   24  C   UNL     1      -7.643  17.181  68.679  1.00  0.00    -0.258 C  
HETATM   25  O   UNL     1      -9.310  15.828  69.715  1.00  0.00    -0.241 OA 
HETATM   26  C   UNL     1      -8.733  16.126  68.679  1.00  0.00    -0.214 C  
ENDBRANCH  19  22
ENDBRANCH   8  16
BRANCH  13  27
HETATM   27  C   UNL     1     -11.979  10.124  71.198  1.00  0.00    -0.386 C  
HETATM   28  C   UNL     1     -13.484  10.092  71.328  1.00  0.00    -0.331 C  
HETATM   29  C   UNL     1     -12.671   8.973  71.896  1.00  0.00    -0.450 C  
ENDBRANCH  13  27
BRANCH  10  30
HETATM   30  N   UNL     1      -9.638   6.356  68.583  1.00  0.00    -0.121 NA 
HETATM   31  H   UNL     1     -10.463   5.758  68.531  1.00  0.00     0.000 HD 
BRANCH  30  32
HETATM   32  C   UNL     1      -8.620   5.900  69.448  1.00  0.00    -0.113 A  
HETATM   33  C   UNL     1      -7.277   6.268  69.322  1.00  0.00    -0.086 A  
HETATM   34  C   UNL     1      -6.284   5.639  70.090  1.00  0.00    -0.026 A  
HETATM   35  C   UNL     1      -6.627   4.643  71.006  1.00  0.00    -0.031 A  
HETATM   36  C   UNL     1      -7.961   4.317  71.212  1.00  0.00    -0.077 A  
HETATM   37  I   UNL     1      -5.136   3.602  72.016  1.00  0.00     0.000 I  
HETATM   38  C   UNL     1      -8.935   4.942  70.433  1.00  0.00    -0.112 A  
HETATM   39  F   UNL     1     -10.218   4.591  70.621  1.00  0.00    -0.286 F  
ENDBRANCH  30  32
ENDBRANCH  10  30
TORSDOF 5
ENDMDL
MODEL       29
REMARK 921   NORMALIZED FREE ENERGY PREDICTED BY IDOCK:   -6.41 KCAL/MOL
REMARK 922        TOTAL FREE ENERGY PREDICTED BY IDOCK:   -8.49 KCAL/MOL
REMARK 923 INTER-LIGAND FREE ENERGY PREDICTED BY IDOCK:   -8.01 KCAL/MOL
REMARK 924 INTRA-LIGAND FREE ENERGY PREDICTED BY IDOCK:   -0.48 KCAL/MOL
REMARK 927      BINDING AFFINITY PREDICTED BY RF-SCORE:    0.00 PKD
ROOT
HETATM    1  C   UNL     1     -12.395  13.250  68.684  1.00  0.00     0.116 C  
HETATM    2  N   UNL     1     -11.549  12.118  69.045  1.00  0.00    -0.296 N  
HETATM    3  C   UNL     1     -11.794  11.562  70.288  1.00  0.00    -0.342 C  
HETATM    4  O   UNL     1     -12.499  12.106  71.139  1.00  0.00    -0.343 OA 
HETATM    5  C   UNL     1     -11.230  10.203  70.549  1.00  0.00    -0.411 C  
HETATM    6  C   UNL     1     -10.253   9.712  69.744  1.00  0.00    -0.237 C  
HETATM    7  C   UNL     1     -11.972   9.523  71.672  1.00  0.00    -0.474 C  
HETATM    8  N   UNL     1      -9.589   8.488  69.947  1.00  0.00    -0.170 N  
HETATM    9  C   UNL     1      -8.695   7.931  68.996  1.00  0.00    -0.138 C  
HETATM   10  C   UNL     1     -10.578  11.635  68.158  1.00  0.00    -0.201 C  
HETATM   11  O   UNL     1      -8.183   6.812  69.129  1.00  0.00    -0.118 OA 
HETATM   12  O   UNL     1      -8.917  10.288  66.348  1.00  0.00    -0.145 OA 
HETATM   13  N   UNL     1      -8.373   8.694  67.883  1.00  0.00    -0.122 N  
HETATM   14  C   UNL     1      -9.955  10.467  68.497  1.00  0.00    -0.181 C  
HETATM   15  C   UNL     1      -9.035   9.845  67.493  1.00  0.00    -0.134 C  
ENDROOT
BRANCH   8  16
HETATM   16  C   UNL     1      -9.551   7.768  71.214  1.00  0.00    -0.157 A  
HETATM   17  C   UNL     1      -9.016   8.392  72.354  1.00  0.00    -0.309 A  
HETATM   18  C   UNL     1     -10.045   6.745  73.779  1.00  0.00    -0.349 A  
HETATM   19  C   UNL     1     -10.496   6.038  72.659  1.00  0.00    -0.205 A  
HETATM   20  C   UNL     1     -10.239   6.550  71.374  1.00  0.00    -0.221 A  
HETATM   21  C   UNL     1      -9.275   7.896  73.628  1.00  0.00    -0.320 A  
BRANCH  19  22
HETATM   22  N   UNL     1     -11.231   4.856  72.915  1.00  0.00    -0.258 N  
HETATM   23  H   UNL     1     -12.247   4.946  72.912  1.00  0.00     0.000 HD 
HETATM   24  C   UNL     1     -11.809   2.556  73.399  1.00  0.00    -0.013 C  
HETATM   25  O   UNL     1      -9.547   3.281  73.196  1.00  0.00    -0.103 OA 
HETATM   26  C   UNL     1     -10.728   3.596  73.170  1.00  0.00    -0.175 C  
ENDBRANCH  19  22
ENDBRANCH   8  16
BRANCH  13  27
HETATM   27  C   UNL     1      -7.460   8.104  66.904  1.00  0.00    -0.091 C  
HETATM   28  C   UNL     1      -6.222   8.854  66.471  1.00  0.00    -0.061 C  
HETATM   29  C   UNL     1      -6.081   7.573  67.229  1.00  0.00    -0.047 C  
ENDBRANCH  13  27
BRANCH  10  30
HETATM   30  N   UNL     1     -10.377  12.346  66.982  1.00  0.00    -0.219 NA 
HETATM   31  H   UNL     1     -10.861  11.977  66.164  1.00  0.00     0.000 HD 
BRANCH  30  32
HETATM   32  C   UNL     1      -9.604  13.504  66.750  1.00  0.00    -0.267 A  
HETATM   33  C   UNL     1      -8.385  13.758  67.385  1.00  0.00    -0.201 A  
HETATM   34  C   UNL     1      -7.755  15.007  67.257  1.00  0.00    -0.233 A  
HETATM   35  C   UNL     1      -8.332  16.011  66.478  1.00  0.00    -0.313 A  
HETATM   36  C   UNL     1      -9.499  15.758  65.769  1.00  0.00    -0.334 A  
HETATM   37  I   UNL     1      -7.480  17.909  66.430  1.00  0.00    -0.309 I  
HETATM   38  C   UNL     1     -10.120  14.517  65.915  1.00  0.00    -0.326 A  
HETATM   39  F   UNL     1     -11.265  14.299  65.249  1.00  0.00    -0.302 F  
ENDBRANCH  30  32
ENDBRANCH  10  30
TORSDOF 5
ENDMDL
MODEL       30
REMARK 921   NORMALIZED FREE ENERGY PREDICTED BY IDOCK:   -6.38 KCAL/MOL
REMARK 922        TOTAL FREE ENERGY PREDICTED BY IDOCK:   -8.46 KCAL/MOL
REMARK 923 INTER-LIGAND FREE ENERGY PREDICTED BY IDOCK:   -8.02 KCAL/MOL
REMARK 924 INTRA-LIGAND FREE ENERGY PREDICTED BY IDOCK:   -0.43 KCAL/MOL
REMARK 927      BINDING AFFINITY PREDICTED BY RF-SCORE:    0.00 PKD
ROOT
HETATM    1  C   UNL     1     -11.007  16.605  66.841  1.00  0.00     0.050 C  
HETATM    2  N   UNL     1     -10.512  15.296  67.253  1.00  0.00    -0.270 N  
HETATM    3  C   UNL     1     -11.296  14.219  66.881  1.00  0.00    -0.343 C  
HETATM    4  O   UNL     1     -12.443  14.340  66.449  1.00  0.00    -0.441 OA 
HETATM    5  C   UNL     1     -10.666  12.864  66.944  1.00  0.00    -0.272 C  
HETATM    6  C   UNL     1      -9.521  12.686  67.652  1.00  0.00    -0.189 C  
HETATM    7  C   UNL     1     -11.404  11.890  66.061  1.00  0.00    -0.375 C  
HETATM    8  N   UNL     1      -8.891  11.443  67.853  1.00  0.00    -0.144 N  
HETATM    9  C   UNL     1      -7.611  11.319  68.453  1.00  0.00    -0.120 C  
HETATM   10  C   UNL     1      -9.305  15.172  67.953  1.00  0.00    -0.185 C  
HETATM   11  O   UNL     1      -7.014  10.238  68.545  1.00  0.00    -0.064 OA 
HETATM   12  O   UNL     1      -6.729  14.722  68.957  1.00  0.00    -0.093 OA 
HETATM   13  N   UNL     1      -7.024  12.463  68.973  1.00  0.00    -0.096 N  
HETATM   14  C   UNL     1      -8.825  13.907  68.141  1.00  0.00    -0.184 C  
HETATM   15  C   UNL     1      -7.462  13.754  68.741  1.00  0.00    -0.098 C  
ENDROOT
BRANCH   8  16
HETATM   16  C   UNL     1      -9.543  10.149  67.691  1.00  0.00    -0.148 A  
HETATM   17  C   UNL     1      -9.176   9.315  66.622  1.00  0.00    -0.190 A  
HETATM   18  C   UNL     1     -10.229   7.430  67.688  1.00  0.00    -0.261 A  
HETATM   19  C   UNL     1     -10.706   8.258  68.710  1.00  0.00    -0.042 A  
HETATM   20  C   UNL     1     -10.366   9.623  68.703  1.00  0.00    -0.226 A  
HETATM   21  C   UNL     1      -9.500   7.961  66.627  1.00  0.00    -0.270 A  
BRANCH  19  22
HETATM   22  N   UNL     1     -11.476   7.631  69.719  1.00  0.00    -0.459 N  
HETATM   23  H   UNL     1     -12.425   7.360  69.461  1.00  0.00     0.000 HD 
HETATM   24  C   UNL     1     -12.173   6.662  71.824  1.00  0.00    -0.400 C  
HETATM   25  O   UNL     1      -9.992   7.569  71.504  1.00  0.00    -0.177 OA 
HETATM   26  C   UNL     1     -11.088   7.345  71.012  1.00  0.00    -0.258 C  
ENDBRANCH  19  22
ENDBRANCH   8  16
BRANCH  13  27
HETATM   27  C   UNL     1      -5.699  12.323  69.578  1.00  0.00    -0.088 C  
HETATM   28  C   UNL     1      -5.424  12.901  70.948  1.00  0.00    -0.185 C  
HETATM   29  C   UNL     1      -5.383  11.420  70.751  1.00  0.00    -0.131 C  
ENDBRANCH  13  27
BRANCH  10  30
HETATM   30  N   UNL     1      -8.668  16.344  68.339  1.00  0.00    -0.205 NA 
HETATM   31  H   UNL     1      -8.617  16.498  69.347  1.00  0.00     0.000 HD 
BRANCH  30  32
HETATM   32  C   UNL     1      -8.079  17.353  67.547  1.00  0.00    -0.196 A  
HETATM   33  C   UNL     1      -7.221  17.091  66.475  1.00  0.00    -0.311 A  
HETATM   34  C   UNL     1      -6.519  18.132  65.846  1.00  0.00    -0.304 A  
HETATM   35  C   UNL     1      -6.681  19.451  66.273  1.00  0.00    -0.206 A  
HETATM   36  C   UNL     1      -7.590  19.749  67.280  1.00  0.00    -0.290 A  
HETATM   37  I   UNL     1      -5.514  20.962  65.447  1.00  0.00    -0.221 I  
HETATM   38  C   UNL     1      -8.271  18.704  67.904  1.00  0.00    -0.265 A  
HETATM   39  F   UNL     1      -9.121  19.006  68.899  1.00  0.00    -0.369 F  
ENDBRANCH  30  32
ENDBRANCH  10  30
TORSDOF 5
ENDMDL
MODEL       31
REMARK 921   NORMALIZED FREE ENERGY PREDICTED BY IDOCK:   -6.37 KCAL/MOL
REMARK 922        TOTAL FREE ENERGY PREDICTED BY IDOCK:   -8.45 KCAL/MOL
REMARK 923 INTER-LIGAND FREE ENERGY PREDICTED BY IDOCK:   -8.07 KCAL/MOL
REMARK 924 INTRA-LIGAND FREE ENERGY PREDICTED BY IDOCK:   -0.38 KCAL/MOL
REMARK 927      BINDING AFFINITY PREDICTED BY RF-SCORE:    0.00 PKD
ROOT
HETATM    1  C   UNL     1      -9.276   9.566  64.778  1.00  0.00    -0.205 C  
HETATM    2  N   UNL     1      -9.465   9.026  66.119  1.00  0.00    -0.233 N  
HETATM    3  C   UNL     1      -8.676   7.936  66.439  1.00  0.00    -0.153 C  
HETATM    4  O   UNL     1      -8.032   7.304  65.601  1.00  0.00    -0.107 OA 
HETATM    5  C   UNL     1      -8.557   7.584  67.888  1.00  0.00    -0.121 C  
HETATM    6  C   UNL     1      -9.445   8.091  68.780  1.00  0.00    -0.147 C  
HETATM    7  C   UNL     1      -7.320   6.758  68.136  1.00  0.00    -0.097 C  
HETATM    8  N   UNL     1      -9.483   7.759  70.147  1.00  0.00    -0.161 N  
HETATM    9  C   UNL     1     -10.315   8.432  71.079  1.00  0.00    -0.198 C  
HETATM   10  C   UNL     1     -10.375   9.613  67.008  1.00  0.00    -0.248 C  
HETATM   11  O   UNL     1     -10.281   8.207  72.296  1.00  0.00    -0.229 OA 
HETATM   12  O   UNL     1     -11.809  10.920  69.029  1.00  0.00    -0.314 OA 
HETATM   13  N   UNL     1     -11.215   9.368  70.589  1.00  0.00    -0.265 N  
HETATM   14  C   UNL     1     -10.360   9.161  68.297  1.00  0.00    -0.256 C  
HETATM   15  C   UNL     1     -11.204   9.880  69.304  1.00  0.00    -0.130 C  
ENDROOT
BRANCH   8  16
HETATM   16  C   UNL     1      -8.870   6.570  70.727  1.00  0.00    -0.144 A  
HETATM   17  C   UNL     1      -7.612   6.668  71.345  1.00  0.00    -0.093 A  
HETATM   18  C   UNL     1      -7.942   4.541  72.427  1.00  0.00    -0.094 A  
HETATM   19  C   UNL     1      -9.147   4.363  71.739  1.00  0.00    -0.127 A  
HETATM   20  C   UNL     1      -9.605   5.380  70.881  1.00  0.00    -0.226 A  
HETATM   21  C   UNL     1      -7.158   5.670  72.203  1.00  0.00    -0.087 A  
BRANCH  19  22
HETATM   22  N   UNL     1      -9.849   3.162  72.001  1.00  0.00    -0.165 N  
HETATM   23  H   UNL     1      -9.741   2.417  71.314  1.00  0.00     0.000 HD 
HETATM   24  C   UNL     1     -11.255   1.490  73.042  1.00  0.00    -0.245 C  
HETATM   25  O   UNL     1     -10.901   3.637  74.017  1.00  0.00    -0.210 OA 
HETATM   26  C   UNL     1     -10.662   2.887  73.081  1.00  0.00    -0.157 C  
ENDBRANCH  19  22
ENDBRANCH   8  16
BRANCH  13  27
HETATM   27  C   UNL     1     -12.058  10.064  71.561  1.00  0.00    -0.387 C  
HETATM   28  C   UNL     1     -13.533  10.256  71.288  1.00  0.00    -0.267 C  
HETATM   29  C   UNL     1     -13.100   9.392  72.429  1.00  0.00    -0.458 C  
ENDBRANCH  13  27
BRANCH  10  30
HETATM   30  N   UNL     1     -11.166  10.645  66.523  1.00  0.00    -0.055 NA 
HETATM   31  H   UNL     1     -12.133  10.391  66.318  1.00  0.00     0.000 HD 
BRANCH  30  32
HETATM   32  C   UNL     1     -10.835  11.994  66.271  1.00  0.00    -0.279 A  
HETATM   33  C   UNL     1      -9.689  12.615  66.777  1.00  0.00    -0.240 A  
HETATM   34  C   UNL     1      -9.508  14.002  66.651  1.00  0.00    -0.300 A  
HETATM   35  C   UNL     1     -10.466  14.782  66.002  1.00  0.00    -0.303 A  
HETATM   36  C   UNL     1     -11.573  14.180  65.417  1.00  0.00    -0.334 A  
HETATM   37  I   UNL     1     -10.272  16.853  65.967  1.00  0.00    -0.146 I  
HETATM   38  C   UNL     1     -11.746  12.803  65.561  1.00  0.00    -0.395 A  
HETATM   39  F   UNL     1     -12.838  12.241  65.018  1.00  0.00    -0.498 F  
ENDBRANCH  30  32
ENDBRANCH  10  30
TORSDOF 5
ENDMDL
MODEL       32
REMARK 921   NORMALIZED FREE ENERGY PREDICTED BY IDOCK:   -6.37 KCAL/MOL
REMARK 922        TOTAL FREE ENERGY PREDICTED BY IDOCK:   -8.44 KCAL/MOL
REMARK 923 INTER-LIGAND FREE ENERGY PREDICTED BY IDOCK:   -7.75 KCAL/MOL
REMARK 924 INTRA-LIGAND FREE ENERGY PREDICTED BY IDOCK:   -0.69 KCAL/MOL
REMARK 927      BINDING AFFINITY PREDICTED BY RF-SCORE:    0.00 PKD
ROOT
HETATM    1  C   UNL     1     -12.657  11.439  69.723  1.00  0.00     0.010 C  
HETATM    2  N   UNL     1     -11.661  10.384  69.572  1.00  0.00    -0.239 N  
HETATM    3  C   UNL     1     -11.414   9.630  70.705  1.00  0.00    -0.328 C  
HETATM    4  O   UNL     1     -11.810   9.952  71.826  1.00  0.00    -0.362 OA 
HETATM    5  C   UNL     1     -10.700   8.330  70.515  1.00  0.00    -0.238 C  
HETATM    6  C   UNL     1     -10.038   8.087  69.355  1.00  0.00    -0.197 C  
HETATM    7  C   UNL     1     -10.950   7.409  71.683  1.00  0.00    -0.252 C  
HETATM    8  N   UNL     1      -9.261   6.941  69.103  1.00  0.00    -0.142 N  
HETATM    9  C   UNL     1      -8.722   6.645  67.824  1.00  0.00    -0.116 C  
HETATM   10  C   UNL     1     -11.034  10.161  68.339  1.00  0.00    -0.244 C  
HETATM   11  O   UNL     1      -8.120   5.592  67.576  1.00  0.00    -0.101 OA 
HETATM   12  O   UNL     1     -10.027   9.308  65.868  1.00  0.00    -0.307 OA 
HETATM   13  N   UNL     1      -8.868   7.593  66.822  1.00  0.00    -0.130 N  
HETATM   14  C   UNL     1     -10.252   9.045  68.236  1.00  0.00    -0.241 C  
HETATM   15  C   UNL     1      -9.702   8.694  66.888  1.00  0.00    -0.214 C  
ENDROOT
BRANCH   8  16
HETATM   16  C   UNL     1      -8.729   6.058  70.134  1.00  0.00    -0.139 A  
HETATM   17  C   UNL     1      -7.632   6.473  70.907  1.00  0.00    -0.089 A  
HETATM   18  C   UNL     1      -8.085   4.754  72.531  1.00  0.00    -0.111 A  
HETATM   19  C   UNL     1      -9.112   4.246  71.728  1.00  0.00    -0.123 A  
HETATM   20  C   UNL     1      -9.426   4.899  70.522  1.00  0.00    -0.232 A  
HETATM   21  C   UNL     1      -7.322   5.838  72.106  1.00  0.00    -0.094 A  
BRANCH  19  22
HETATM   22  N   UNL     1      -9.798   3.113  72.226  1.00  0.00    -0.154 N  
HETATM   23  H   UNL     1      -9.453   2.204  71.918  1.00  0.00     0.000 HD 
HETATM   24  C   UNL     1     -11.365   1.700  73.411  1.00  0.00    -0.292 C  
HETATM   25  O   UNL     1     -11.426   4.078  73.574  1.00  0.00    -0.244 OA 
HETATM   26  C   UNL     1     -10.882   3.100  73.080  1.00  0.00    -0.139 C  
ENDBRANCH  19  22
ENDBRANCH   8  16
BRANCH  13  27
HETATM   27  C   UNL     1      -8.319   7.269  65.504  1.00  0.00    -0.133 C  
HETATM   28  C   UNL     1      -7.188   8.091  64.930  1.00  0.00    -0.073 C  
HETATM   29  C   UNL     1      -6.956   6.654  65.271  1.00  0.00    -0.052 C  
ENDBRANCH  13  27
BRANCH  10  30
HETATM   30  N   UNL     1     -11.310  11.051  67.311  1.00  0.00    -0.452 NA 
HETATM   31  H   UNL     1     -12.083  10.784  66.701  1.00  0.00     0.000 HD 
BRANCH  30  32
HETATM   32  C   UNL     1     -10.682  12.272  66.983  1.00  0.00    -0.231 A  
HETATM   33  C   UNL     1      -9.360  12.576  67.321  1.00  0.00    -0.190 A  
HETATM   34  C   UNL     1      -8.851  13.872  67.137  1.00  0.00    -0.236 A  
HETATM   35  C   UNL     1      -9.655  14.875  66.596  1.00  0.00    -0.266 A  
HETATM   36  C   UNL     1     -10.945  14.580  66.174  1.00  0.00    -0.322 A  
HETATM   37  I   UNL     1      -8.947  16.828  66.481  1.00  0.00    -0.327 I  
HETATM   38  C   UNL     1     -11.442  13.292  66.375  1.00  0.00    -0.329 A  
HETATM   39  F   UNL     1     -12.703  13.032  65.991  1.00  0.00    -0.425 F  
ENDBRANCH  30  32
ENDBRANCH  10  30
TORSDOF 5
ENDMDL
MODEL       33
REMARK 921   NORMALIZED FREE ENERGY PREDICTED BY IDOCK:   -6.29 KCAL/MOL
REMARK 922        TOTAL FREE ENERGY PREDICTED BY IDOCK:   -8.34 KCAL/MOL
REMARK 923 INTER-LIGAND FREE ENERGY PREDICTED BY IDOCK:   -9.64 KCAL/MOL
REMARK 924 INTRA-LIGAND FREE ENERGY PREDICTED BY IDOCK:    1.30 KCAL/MOL
REMARK 927      BINDING AFFINITY PREDICTED BY RF-SCORE:    0.00 PKD
ROOT
HETATM    1  C   UNL     1     -11.263  13.024  64.262  1.00  0.00    -0.373 C  
HETATM    2  N   UNL     1     -10.985  11.836  65.060  1.00  0.00    -0.306 N  
HETATM    3  C   UNL     1     -10.327  10.814  64.400  1.00  0.00    -0.335 C  
HETATM    4  O   UNL     1     -10.189  10.785  63.177  1.00  0.00    -0.299 OA 
HETATM    5  C   UNL     1      -9.698   9.752  65.244  1.00  0.00    -0.371 C  
HETATM    6  C   UNL     1     -10.056   9.626  66.548  1.00  0.00    -0.244 C  
HETATM    7  C   UNL     1      -8.622   9.027  64.475  1.00  0.00    -0.181 C  
HETATM    8  N   UNL     1      -9.597   8.611  67.408  1.00  0.00    -0.152 N  
HETATM    9  C   UNL     1      -9.861   8.609  68.802  1.00  0.00    -0.172 C  
HETATM   10  C   UNL     1     -11.350  11.778  66.412  1.00  0.00    -0.297 C  
HETATM   11  O   UNL     1      -9.380   7.771  69.576  1.00  0.00    -0.150 OA 
HETATM   12  O   UNL     1     -11.613  11.673  69.199  1.00  0.00    -0.258 OA 
HETATM   13  N   UNL     1     -10.712   9.583  69.304  1.00  0.00    -0.228 N  
HETATM   14  C   UNL     1     -10.895  10.708  67.131  1.00  0.00    -0.328 C  
HETATM   15  C   UNL     1     -11.132  10.703  68.609  1.00  0.00    -0.263 C  
ENDROOT
BRANCH   8  16
HETATM   16  C   UNL     1      -9.010   7.353  66.965  1.00  0.00    -0.130 A  
HETATM   17  C   UNL     1      -7.742   6.973  67.435  1.00  0.00    -0.110 A  
HETATM   18  C   UNL     1      -8.118   4.705  66.714  1.00  0.00    -0.103 A  
HETATM   19  C   UNL     1      -9.336   5.077  66.135  1.00  0.00    -0.153 A  
HETATM   20  C   UNL     1      -9.776   6.408  66.256  1.00  0.00    -0.082 A  
HETATM   21  C   UNL     1      -7.305   5.655  67.328  1.00  0.00    -0.077 A  
BRANCH  19  22
HETATM   22  N   UNL     1     -10.068   4.049  65.495  1.00  0.00    -0.380 N  
HETATM   23  H   UNL     1     -10.647   3.464  66.097  1.00  0.00     0.000 HD 
HETATM   24  C   UNL     1     -10.989   2.577  63.809  1.00  0.00     0.050 C  
HETATM   25  O   UNL     1      -9.481   4.342  63.266  1.00  0.00    -0.147 OA 
HETATM   26  C   UNL     1     -10.086   3.749  64.148  1.00  0.00    -0.213 C  
ENDBRANCH  19  22
ENDBRANCH   8  16
BRANCH  13  27
HETATM   27  C   UNL     1     -10.966   9.577  70.745  1.00  0.00    -0.321 C  
HETATM   28  C   UNL     1     -12.330   9.952  71.278  1.00  0.00    -0.478 C  
HETATM   29  C   UNL     1     -11.824   8.557  71.460  1.00  0.00    -0.353 C  
ENDBRANCH  13  27
BRANCH  10  30
HETATM   30  N   UNL     1     -12.085  12.839  66.921  1.00  0.00    -0.468 NA 
HETATM   31  H   UNL     1     -13.049  12.618  67.173  1.00  0.00     0.000 HD 
BRANCH  30  32
HETATM   32  C   UNL     1     -11.700  14.178  67.143  1.00  0.00    -0.403 A  
HETATM   33  C   UNL     1     -10.934  14.921  66.241  1.00  0.00    -0.338 A  
HETATM   34  C   UNL     1     -10.423  16.180  66.598  1.00  0.00    -0.300 A  
HETATM   35  C   UNL     1     -10.689  16.717  67.858  1.00  0.00    -0.347 A  
HETATM   36  C   UNL     1     -11.516  16.038  68.743  1.00  0.00    -0.375 A  
HETATM   37  I   UNL     1      -9.792  18.503  68.437  1.00  0.00    -0.439 I  
HETATM   38  C   UNL     1     -12.005  14.784  68.380  1.00  0.00    -0.235 A  
HETATM   39  F   UNL     1     -12.777  14.125  69.261  1.00  0.00    -0.285 F  
ENDBRANCH  30  32
ENDBRANCH  10  30
TORSDOF 5
ENDMDL
MODEL       34
REMARK 921   NORMALIZED FREE ENERGY PREDICTED BY IDOCK:   -6.19 KCAL/MOL
REMARK 922        TOTAL FREE ENERGY PREDICTED BY IDOCK:   -8.21 KCAL/MOL
REMARK 923 INTER-LIGAND FREE ENERGY PREDICTED BY IDOCK:   -7.56 KCAL/MOL
REMARK 924 INTRA-LIGAND FREE ENERGY PREDICTED BY IDOCK:   -0.66 KCAL/MOL
REMARK 927      BINDING AFFINITY PREDICTED BY RF-SCORE:    0.00 PKD
ROOT
HETATM    1  C   UNL     1     -10.612  13.719  65.010  1.00  0.00    -0.389 C  
HETATM    2  N   UNL     1     -10.145  12.992  66.184  1.00  0.00    -0.281 N  
HETATM    3  C   UNL     1     -10.883  11.873  66.527  1.00  0.00    -0.278 C  
HETATM    4  O   UNL     1     -11.987  11.624  66.042  1.00  0.00    -0.341 OA 
HETATM    5  C   UNL     1     -10.249  10.902  67.470  1.00  0.00    -0.224 C  
HETATM    6  C   UNL     1      -9.170  11.279  68.203  1.00  0.00    -0.170 C  
HETATM    7  C   UNL     1     -10.896   9.545  67.353  1.00  0.00    -0.215 C  
HETATM    8  N   UNL     1      -8.551  10.481  69.183  1.00  0.00    -0.160 N  
HETATM    9  C   UNL     1      -7.329  10.843  69.807  1.00  0.00    -0.007 C  
HETATM   10  C   UNL     1      -9.005  13.412  66.882  1.00  0.00    -0.209 C  
HETATM   11  O   UNL     1      -6.733  10.099  70.598  1.00  0.00    -0.249 OA 
HETATM   12  O   UNL     1      -6.525  13.856  68.107  1.00  0.00    -0.096 OA 
HETATM   13  N   UNL     1      -6.800  12.094  69.526  1.00  0.00    -0.020 N  
HETATM   14  C   UNL     1      -8.532  12.578  67.856  1.00  0.00    -0.171 C  
HETATM   15  C   UNL     1      -7.227  12.922  68.504  1.00  0.00    -0.107 C  
ENDROOT
BRANCH   8  16
HETATM   16  C   UNL     1      -9.173   9.334  69.831  1.00  0.00    -0.195 A  
HETATM   17  C   UNL     1     -10.210   9.537  70.757  1.00  0.00    -0.363 A  
HETATM   18  C   UNL     1     -10.851   7.220  70.597  1.00  0.00    -0.261 A  
HETATM   19  C   UNL     1      -9.758   6.962  69.762  1.00  0.00    -0.164 A  
HETATM   20  C   UNL     1      -8.915   8.024  69.386  1.00  0.00    -0.148 A  
HETATM   21  C   UNL     1     -11.055   8.493  71.125  1.00  0.00    -0.312 A  
BRANCH  19  22
HETATM   22  N   UNL     1      -9.610   5.628  69.314  1.00  0.00    -0.132 N  
HETATM   23  H   UNL     1      -9.213   4.969  69.983  1.00  0.00     0.000 HD 
HETATM   24  C   UNL     1      -9.651   3.636  67.941  1.00  0.00    -0.180 C  
HETATM   25  O   UNL     1     -10.449   5.738  67.151  1.00  0.00    -0.215 OA 
HETATM   26  C   UNL     1      -9.944   5.119  68.076  1.00  0.00    -0.145 C  
ENDBRANCH  19  22
ENDBRANCH   8  16
BRANCH  13  27
HETATM   27  C   UNL     1      -5.534  12.449  70.167  1.00  0.00    -0.127 C  
HETATM   28  C   UNL     1      -5.468  13.615  71.126  1.00  0.00    -0.203 C  
HETATM   29  C   UNL     1      -5.223  12.230  71.632  1.00  0.00     0.028 C  
ENDBRANCH  13  27
BRANCH  10  30
HETATM   30  N   UNL     1      -8.414  14.604  66.483  1.00  0.00    -0.416 NA 
HETATM   31  H   UNL     1      -7.663  14.508  65.799  1.00  0.00     0.000 HD 
BRANCH  30  32
HETATM   32  C   UNL     1      -8.698  15.928  66.881  1.00  0.00    -0.241 A  
HETATM   33  C   UNL     1      -9.960  16.353  67.303  1.00  0.00    -0.258 A  
HETATM   34  C   UNL     1     -10.228  17.717  67.506  1.00  0.00    -0.356 A  
HETATM   35  C   UNL     1      -9.229  18.670  67.303  1.00  0.00    -0.287 A  
HETATM   36  C   UNL     1      -7.943  18.268  66.965  1.00  0.00    -0.237 A  
HETATM   37  I   UNL     1      -9.679  20.696  67.443  1.00  0.00     0.021 I  
HETATM   38  C   UNL     1      -7.695  16.911  66.755  1.00  0.00    -0.248 A  
HETATM   39  F   UNL     1      -6.454  16.542  66.396  1.00  0.00    -0.203 F  
ENDBRANCH  30  32
ENDBRANCH  10  30
TORSDOF 5
ENDMDL
MODEL       35
REMARK 921   NORMALIZED FREE ENERGY PREDICTED BY IDOCK:   -6.19 KCAL/MOL
REMARK 922        TOTAL FREE ENERGY PREDICTED BY IDOCK:   -8.21 KCAL/MOL
REMARK 923 INTER-LIGAND FREE ENERGY PREDICTED BY IDOCK:   -7.80 KCAL/MOL
REMARK 924 INTRA-LIGAND FREE ENERGY PREDICTED BY IDOCK:   -0.41 KCAL/MOL
REMARK 927      BINDING AFFINITY PREDICTED BY RF-SCORE:    0.00 PKD
ROOT
HETATM    1  C   UNL     1     -12.246  13.899  64.903  1.00  0.00    -0.422 C  
HETATM    2  N   UNL     1     -11.237  12.875  65.147  1.00  0.00    -0.283 N  
HETATM    3  C   UNL     1     -11.165  11.871  64.199  1.00  0.00    -0.376 C  
HETATM    4  O   UNL     1     -12.028  11.698  63.337  1.00  0.00    -0.424 OA 
HETATM    5  C   UNL     1      -9.933  11.024  64.196  1.00  0.00    -0.385 C  
HETATM    6  C   UNL     1      -9.111  11.026  65.277  1.00  0.00    -0.189 C  
HETATM    7  C   UNL     1      -9.749  10.353  62.859  1.00  0.00    -0.266 C  
HETATM    8  N   UNL     1      -7.977  10.205  65.420  1.00  0.00    -0.139 N  
HETATM    9  C   UNL     1      -7.051  10.353  66.485  1.00  0.00    -0.114 C  
HETATM   10  C   UNL     1     -10.394  12.949  66.264  1.00  0.00    -0.268 C  
HETATM   11  O   UNL     1      -6.003   9.696  66.562  1.00  0.00    -0.057 OA 
HETATM   12  O   UNL     1      -8.366  13.182  68.182  1.00  0.00    -0.148 OA 
HETATM   13  N   UNL     1      -7.353  11.263  67.487  1.00  0.00    -0.100 N  
HETATM   14  C   UNL     1      -9.363  12.055  66.322  1.00  0.00    -0.228 C  
HETATM   15  C   UNL     1      -8.354  12.215  67.417  1.00  0.00    -0.174 C  
ENDROOT
BRANCH   8  16
HETATM   16  C   UNL     1      -7.734   8.987  64.656  1.00  0.00    -0.115 A  
HETATM   17  C   UNL     1      -6.744   8.977  63.660  1.00  0.00    -0.089 A  
HETATM   18  C   UNL     1      -6.752   6.569  63.629  1.00  0.00    -0.048 A  
HETATM   19  C   UNL     1      -7.817   6.548  64.537  1.00  0.00    -0.112 A  
HETATM   20  C   UNL     1      -8.312   7.764  65.043  1.00  0.00    -0.094 A  
HETATM   21  C   UNL     1      -6.243   7.778  63.162  1.00  0.00    -0.067 A  
BRANCH  19  22
HETATM   22  N   UNL     1      -8.295   5.271  64.916  1.00  0.00    -0.139 N  
HETATM   23  H   UNL     1      -8.071   4.967  65.863  1.00  0.00     0.000 HD 
HETATM   24  C   UNL     1      -9.376   3.106  64.879  1.00  0.00    -0.149 C  
HETATM   25  O   UNL     1      -9.414   4.576  63.003  1.00  0.00    -0.125 OA 
HETATM   26  C   UNL     1      -9.029   4.390  64.148  1.00  0.00    -0.151 C  
ENDBRANCH  19  22
ENDBRANCH   8  16
BRANCH  13  27
HETATM   27  C   UNL     1      -6.384  11.415  68.573  1.00  0.00    -0.047 C  
HETATM   28  C   UNL     1      -6.779  11.093  69.996  1.00  0.00    -0.058 C  
HETATM   29  C   UNL     1      -5.739  10.264  69.314  1.00  0.00    -0.037 C  
ENDBRANCH  13  27
BRANCH  10  30
HETATM   30  N   UNL     1     -10.638  13.962  67.182  1.00  0.00    -0.276 NA 
HETATM   31  H   UNL     1     -11.058  13.659  68.061  1.00  0.00     0.000 HD 
BRANCH  30  32
HETATM   32  C   UNL     1     -10.391  15.348  67.082  1.00  0.00    -0.271 A  
HETATM   33  C   UNL     1      -9.455  15.904  66.205  1.00  0.00    -0.375 A  
HETATM   34  C   UNL     1      -9.118  17.265  66.282  1.00  0.00    -0.245 A  
HETATM   35  C   UNL     1      -9.727  18.090  67.229  1.00  0.00    -0.297 A  
HETATM   36  C   UNL     1     -10.721  17.582  68.057  1.00  0.00    -0.342 A  
HETATM   37  I   UNL     1      -9.102  20.062  67.447  1.00  0.00    -0.487 I  
HETATM   38  C   UNL     1     -11.036  16.226  67.978  1.00  0.00    -0.328 A  
HETATM   39  F   UNL     1     -11.975  15.743  68.808  1.00  0.00    -0.374 F  
ENDBRANCH  30  32
ENDBRANCH  10  30
TORSDOF 5
ENDMDL
MODEL       36
REMARK 921   NORMALIZED FREE ENERGY PREDICTED BY IDOCK:   -6.16 KCAL/MOL
REMARK 922        TOTAL FREE ENERGY PREDICTED BY IDOCK:   -8.17 KCAL/MOL
REMARK 923 INTER-LIGAND FREE ENERGY PREDICTED BY IDOCK:   -8.24 KCAL/MOL
REMARK 924 INTRA-LIGAND FREE ENERGY PREDICTED BY IDOCK:    0.07 KCAL/MOL
REMARK 927      BINDING AFFINITY PREDICTED BY RF-SCORE:    0.00 PKD
ROOT
HETATM    1  C   UNL     1      -6.901   6.968  66.582  1.00  0.00    -0.068 C  
HETATM    2  N   UNL     1      -7.747   8.143  66.760  1.00  0.00    -0.094 N  
HETATM    3  C   UNL     1      -7.926   8.925  65.633  1.00  0.00    -0.098 C  
HETATM    4  O   UNL     1      -7.248   8.799  64.614  1.00  0.00    -0.092 OA 
HETATM    5  C   UNL     1      -9.055   9.905  65.658  1.00  0.00    -0.220 C  
HETATM    6  C   UNL     1      -9.634  10.238  66.841  1.00  0.00    -0.173 C  
HETATM    7  C   UNL     1      -9.452  10.297  64.257  1.00  0.00    -0.365 C  
HETATM    8  N   UNL     1     -10.639  11.211  66.993  1.00  0.00    -0.239 N  
HETATM    9  C   UNL     1     -11.335  11.413  68.213  1.00  0.00    -0.286 C  
HETATM   10  C   UNL     1      -8.344   8.416  67.998  1.00  0.00    -0.128 C  
HETATM   11  O   UNL     1     -12.283  12.201  68.323  1.00  0.00    -0.356 OA 
HETATM   12  O   UNL     1      -9.945   8.859  70.253  1.00  0.00    -0.172 OA 
HETATM   13  N   UNL     1     -10.911  10.703  69.327  1.00  0.00    -0.227 N  
HETATM   14  C   UNL     1      -9.260   9.429  68.033  1.00  0.00    -0.137 C  
HETATM   15  C   UNL     1     -10.032   9.636  69.300  1.00  0.00    -0.191 C  
ENDROOT
BRANCH   8  16
HETATM   16  C   UNL     1     -10.928  12.261  66.023  1.00  0.00    -0.292 A  
HETATM   17  C   UNL     1     -11.981  12.091  65.108  1.00  0.00    -0.230 A  
HETATM   18  C   UNL     1     -11.972  14.448  64.610  1.00  0.00    -0.475 A  
HETATM   19  C   UNL     1     -10.851  14.630  65.428  1.00  0.00    -0.356 A  
HETATM   20  C   UNL     1     -10.326  13.528  66.129  1.00  0.00    -0.296 A  
HETATM   21  C   UNL     1     -12.512  13.178  64.419  1.00  0.00    -0.378 A  
BRANCH  19  22
HETATM   22  N   UNL     1     -10.349  15.949  65.522  1.00  0.00    -0.384 N  
HETATM   23  H   UNL     1      -9.927  16.333  64.677  1.00  0.00     0.000 HD 
HETATM   24  C   UNL     1      -9.741  18.133  66.369  1.00  0.00    -0.329 C  
HETATM   25  O   UNL     1     -10.845  16.510  67.721  1.00  0.00    -0.341 OA 
HETATM   26  C   UNL     1     -10.367  16.775  66.627  1.00  0.00    -0.297 C  
ENDBRANCH  19  22
ENDBRANCH   8  16
BRANCH  13  27
HETATM   27  C   UNL     1     -11.645  10.911  70.576  1.00  0.00    -0.300 C  
HETATM   28  C   UNL     1     -13.130  10.634  70.640  1.00  0.00    -0.242 C  
HETATM   29  C   UNL     1     -12.188   9.798  71.446  1.00  0.00    -0.486 C  
ENDBRANCH  13  27
BRANCH  10  30
HETATM   30  N   UNL     1      -8.004   7.598  69.066  1.00  0.00    -0.119 NA 
HETATM   31  H   UNL     1      -7.447   8.044  69.795  1.00  0.00     0.000 HD 
BRANCH  30  32
HETATM   32  C   UNL     1      -8.313   6.240  69.295  1.00  0.00    -0.117 A  
HETATM   33  C   UNL     1      -9.563   5.676  69.023  1.00  0.00    -0.174 A  
HETATM   34  C   UNL     1      -9.871   4.372  69.445  1.00  0.00    -0.239 A  
HETATM   35  C   UNL     1      -8.923   3.611  70.131  1.00  0.00    -0.111 A  
HETATM   36  C   UNL     1      -7.646   4.115  70.341  1.00  0.00    -0.045 A  
HETATM   37  I   UNL     1      -9.443   1.748  70.898  1.00  0.00    -0.099 I  
HETATM   38  C   UNL     1      -7.359   5.416  69.927  1.00  0.00    -0.065 A  
HETATM   39  F   UNL     1      -6.130   5.901  70.167  1.00  0.00    -0.022 F  
ENDBRANCH  30  32
ENDBRANCH  10  30
TORSDOF 5
ENDMDL
MODEL       37
REMARK 921   NORMALIZED FREE ENERGY PREDICTED BY IDOCK:   -6.13 KCAL/MOL
REMARK 922        TOTAL FREE ENERGY PREDICTED BY IDOCK:   -8.14 KCAL/MOL
REMARK 923 INTER-LIGAND FREE ENERGY PREDICTED BY IDOCK:   -8.31 KCAL/MOL
REMARK 924 INTRA-LIGAND FREE ENERGY PREDICTED BY IDOCK:    0.18 KCAL/MOL
REMARK 927      BINDING AFFINITY PREDICTED BY RF-SCORE:    0.00 PKD
ROOT
HETATM    1  C   UNL     1      -5.143  14.617  68.139  1.00  0.00    -0.117 C  
HETATM    2  N   UNL     1      -6.315  13.771  67.949  1.00  0.00    -0.144 N  
HETATM    3  C   UNL     1      -6.206  12.481  68.438  1.00  0.00    -0.058 C  
HETATM    4  O   UNL     1      -5.136  11.987  68.793  1.00  0.00    -0.051 OA 
HETATM    5  C   UNL     1      -7.474  11.707  68.605  1.00  0.00    -0.117 C  
HETATM    6  C   UNL     1      -8.607  12.127  67.986  1.00  0.00    -0.175 C  
HETATM    7  C   UNL     1      -7.284  10.578  69.586  1.00  0.00    -0.148 C  
HETATM    8  N   UNL     1      -9.831  11.431  68.000  1.00  0.00    -0.179 N  
HETATM    9  C   UNL     1     -11.033  11.981  67.486  1.00  0.00    -0.253 C  
HETATM   10  C   UNL     1      -7.469  14.272  67.332  1.00  0.00    -0.149 C  
HETATM   11  O   UNL     1     -12.128  11.411  67.582  1.00  0.00    -0.630 OA 
HETATM   12  O   UNL     1      -9.975  15.234  66.528  1.00  0.00    -0.246 OA 
HETATM   13  N   UNL     1     -10.962  13.202  66.832  1.00  0.00    -0.272 N  
HETATM   14  C   UNL     1      -8.579  13.475  67.356  1.00  0.00    -0.209 C  
HETATM   15  C   UNL     1      -9.867  14.048  66.850  1.00  0.00    -0.267 C  
ENDROOT
BRANCH   8  16
HETATM   16  C   UNL     1      -9.974  10.016  68.321  1.00  0.00    -0.153 A  
HETATM   17  C   UNL     1      -9.526   9.047  67.408  1.00  0.00    -0.179 A  
HETATM   18  C   UNL     1      -9.593   7.355  69.120  1.00  0.00    -0.156 A  
HETATM   19  C   UNL     1     -10.148   8.270  70.021  1.00  0.00    -0.196 A  
HETATM   20  C   UNL     1     -10.345   9.602  69.614  1.00  0.00    -0.245 A  
HETATM   21  C   UNL     1      -9.319   7.730  67.807  1.00  0.00    -0.155 A  
BRANCH  19  22
HETATM   22  N   UNL     1     -10.433   7.781  71.318  1.00  0.00    -0.206 N  
HETATM   23  H   UNL     1     -11.235   7.156  71.399  1.00  0.00     0.000 HD 
HETATM   24  C   UNL     1     -10.333   7.353  73.698  1.00  0.00    -0.367 C  
HETATM   25  O   UNL     1      -8.756   8.759  72.594  1.00  0.00    -0.408 OA 
HETATM   26  C   UNL     1      -9.749   8.055  72.485  1.00  0.00    -0.258 C  
ENDBRANCH  19  22
ENDBRANCH   8  16
BRANCH  13  27
HETATM   27  C   UNL     1     -12.210  13.764  66.316  1.00  0.00    -0.447 C  
HETATM   28  C   UNL     1     -12.247  14.409  64.950  1.00  0.00    -0.440 C  
HETATM   29  C   UNL     1     -13.026  13.157  65.195  1.00  0.00    -0.199 C  
ENDBRANCH  13  27
BRANCH  10  30
HETATM   30  N   UNL     1      -7.408  15.556  66.808  1.00  0.00    -0.260 NA 
HETATM   31  H   UNL     1      -7.656  15.634  65.821  1.00  0.00     0.000 HD 
BRANCH  30  32
HETATM   32  C   UNL     1      -7.054  16.769  67.435  1.00  0.00    -0.156 A  
HETATM   33  C   UNL     1      -6.350  17.793  66.794  1.00  0.00    -0.209 A  
HETATM   34  C   UNL     1      -5.862  18.893  67.519  1.00  0.00    -0.175 A  
HETATM   35  C   UNL     1      -6.088  18.988  68.893  1.00  0.00    -0.231 A  
HETATM   36  C   UNL     1      -6.856  18.028  69.540  1.00  0.00    -0.038 A  
HETATM   37  I   UNL     1      -5.221  20.532  69.985  1.00  0.00    -0.365 I  
HETATM   38  C   UNL     1      -7.323  16.935  68.810  1.00  0.00    -0.227 A  
HETATM   39  F   UNL     1      -8.036  15.998  69.457  1.00  0.00    -0.230 F  
ENDBRANCH  30  32
ENDBRANCH  10  30
TORSDOF 5
ENDMDL
MODEL       38
REMARK 921   NORMALIZED FREE ENERGY PREDICTED BY IDOCK:   -6.12 KCAL/MOL
REMARK 922        TOTAL FREE ENERGY PREDICTED BY IDOCK:   -8.12 KCAL/MOL
REMARK 923 INTER-LIGAND FREE ENERGY PREDICTED BY IDOCK:   -8.71 KCAL/MOL
REMARK 924 INTRA-LIGAND FREE ENERGY PREDICTED BY IDOCK:    0.58 KCAL/MOL
REMARK 927      BINDING AFFINITY PREDICTED BY RF-SCORE:    0.00 PKD
ROOT
HETATM    1  C   UNL     1     -13.164  15.286  70.792  1.00  0.00    -0.390 C  
HETATM    2  N   UNL     1     -12.432  14.191  70.165  1.00  0.00    -0.350 N  
HETATM    3  C   UNL     1     -12.342  13.030  70.911  1.00  0.00    -0.288 C  
HETATM    4  O   UNL     1     -12.638  12.975  72.105  1.00  0.00    -0.040 OA 
HETATM    5  C   UNL     1     -11.940  11.785  70.187  1.00  0.00    -0.421 C  
HETATM    6  C   UNL     1     -11.368  11.874  68.959  1.00  0.00    -0.279 C  
HETATM    7  C   UNL     1     -12.370  10.560  70.953  1.00  0.00    -0.490 C  
HETATM    8  N   UNL     1     -10.871  10.779  68.227  1.00  0.00    -0.210 N  
HETATM    9  C   UNL     1     -10.434  10.889  66.882  1.00  0.00    -0.249 C  
HETATM   10  C   UNL     1     -11.891  14.332  68.880  1.00  0.00    -0.336 C  
HETATM   11  O   UNL     1     -10.087   9.912  66.205  1.00  0.00    -0.237 OA 
HETATM   12  O   UNL     1     -11.141  14.299  66.181  1.00  0.00    -0.314 OA 
HETATM   13  N   UNL     1     -10.380  12.155  66.317  1.00  0.00    -0.217 N  
HETATM   14  C   UNL     1     -11.381  13.207  68.297  1.00  0.00    -0.333 C  
HETATM   15  C   UNL     1     -10.946  13.292  66.866  1.00  0.00    -0.283 C  
ENDROOT
BRANCH   8  16
HETATM   16  C   UNL     1     -10.534   9.483  68.803  1.00  0.00    -0.219 A  
HETATM   17  C   UNL     1     -11.145   8.320  68.305  1.00  0.00     0.335 A  
HETATM   18  C   UNL     1      -9.473   6.948  69.365  1.00  0.00    -0.148 A  
HETATM   19  C   UNL     1      -8.909   8.078  69.968  1.00  0.00    -0.143 A  
HETATM   20  C   UNL     1      -9.450   9.347  69.690  1.00  0.00    -0.200 A  
HETATM   21  C   UNL     1     -10.610   7.063  68.568  1.00  0.00    -0.235 A  
BRANCH  19  22
HETATM   22  N   UNL     1      -7.784   7.853  70.797  1.00  0.00    -0.081 N  
HETATM   23  H   UNL     1      -7.963   7.382  71.683  1.00  0.00     0.000 HD 
HETATM   24  C   UNL     1      -5.521   7.799  71.653  1.00  0.00    -0.035 C  
HETATM   25  O   UNL     1      -6.054   8.745  69.530  1.00  0.00    -0.036 OA 
HETATM   26  C   UNL     1      -6.473   8.198  70.540  1.00  0.00    -0.036 C  
ENDBRANCH  19  22
ENDBRANCH   8  16
BRANCH  13  27
HETATM   27  C   UNL     1      -9.939  12.254  64.926  1.00  0.00    -0.195 C  
HETATM   28  C   UNL     1      -9.989  11.042  64.025  1.00  0.00    -0.390 C  
HETATM   29  C   UNL     1     -10.865  12.217  63.729  1.00  0.00    -0.490 C  
ENDBRANCH  13  27
BRANCH  10  30
HETATM   30  N   UNL     1     -11.978  15.583  68.284  1.00  0.00    -0.463 NA 
HETATM   31  H   UNL     1     -12.879  15.798  67.857  1.00  0.00     0.000 HD 
BRANCH  30  32
HETATM   32  C   UNL     1     -11.006  16.601  68.180  1.00  0.00    -0.327 A  
HETATM   33  C   UNL     1     -11.139  17.713  67.344  1.00  0.00     0.103 A  
HETATM   34  C   UNL     1     -10.063  18.592  67.140  1.00  0.00    -0.391 A  
HETATM   35  C   UNL     1      -8.845  18.377  67.786  1.00  0.00    -0.278 A  
HETATM   36  C   UNL     1      -8.711  17.328  68.687  1.00  0.00    -0.268 A  
HETATM   37  I   UNL     1      -7.209  19.586  67.350  1.00  0.00    -0.264 I  
HETATM   38  C   UNL     1      -9.784  16.456  68.869  1.00  0.00    -0.257 A  
HETATM   39  F   UNL     1      -9.628  15.427  69.719  1.00  0.00    -0.249 F  
ENDBRANCH  30  32
ENDBRANCH  10  30
TORSDOF 5
ENDMDL
MODEL       39
REMARK 921   NORMALIZED FREE ENERGY PREDICTED BY IDOCK:   -6.08 KCAL/MOL
REMARK 922        TOTAL FREE ENERGY PREDICTED BY IDOCK:   -8.08 KCAL/MOL
REMARK 923 INTER-LIGAND FREE ENERGY PREDICTED BY IDOCK:   -7.65 KCAL/MOL
REMARK 924 INTRA-LIGAND FREE ENERGY PREDICTED BY IDOCK:   -0.43 KCAL/MOL
REMARK 927      BINDING AFFINITY PREDICTED BY RF-SCORE:    0.00 PKD
ROOT
HETATM    1  C   UNL     1     -12.617  14.170  69.442  1.00  0.00     0.100 C  
HETATM    2  N   UNL     1     -12.029  12.836  69.393  1.00  0.00    -0.291 N  
HETATM    3  C   UNL     1     -12.169  12.080  70.542  1.00  0.00    -0.325 C  
HETATM    4  O   UNL     1     -12.543  12.553  71.616  1.00  0.00    -0.216 OA 
HETATM    5  C   UNL     1     -11.925  10.609  70.423  1.00  0.00    -0.436 C  
HETATM    6  C   UNL     1     -11.271  10.120  69.339  1.00  0.00    -0.215 C  
HETATM    7  C   UNL     1     -12.588   9.865  71.554  1.00  0.00    -0.513 C  
HETATM    8  N   UNL     1     -10.909   8.771  69.165  1.00  0.00    -0.121 N  
HETATM    9  C   UNL     1     -10.378   8.268  67.949  1.00  0.00    -0.219 C  
HETATM   10  C   UNL     1     -11.395  12.374  68.232  1.00  0.00    -0.284 C  
HETATM   11  O   UNL     1     -10.148   7.066  67.762  1.00  0.00    -0.148 OA 
HETATM   12  O   UNL     1     -10.495  11.151  65.877  1.00  0.00    -0.252 OA 
HETATM   13  N   UNL     1     -10.091   9.177  66.941  1.00  0.00    -0.236 N  
HETATM   14  C   UNL     1     -11.033  11.057  68.207  1.00  0.00    -0.287 C  
HETATM   15  C   UNL     1     -10.503  10.497  66.923  1.00  0.00    -0.246 C  
ENDROOT
BRANCH   8  16
HETATM   16  C   UNL     1     -10.816   7.794  70.243  1.00  0.00    -0.249 A  
HETATM   17  C   UNL     1     -11.748   6.745  70.314  1.00  0.00    -0.397 A  
HETATM   18  C   UNL     1     -10.324   5.538  71.835  1.00  0.00    -0.270 A  
HETATM   19  C   UNL     1      -9.431   6.614  71.874  1.00  0.00    -0.150 A  
HETATM   20  C   UNL     1      -9.685   7.747  71.080  1.00  0.00    -0.174 A  
HETATM   21  C   UNL     1     -11.498   5.617  71.090  1.00  0.00     0.100 A  
BRANCH  19  22
HETATM   22  N   UNL     1      -8.290   6.455  72.697  1.00  0.00    -0.122 N  
HETATM   23  H   UNL     1      -8.462   6.394  73.700  1.00  0.00     0.000 HD 
HETATM   24  C   UNL     1      -6.005   6.200  73.451  1.00  0.00    -0.057 C  
HETATM   25  O   UNL     1      -6.565   6.402  71.143  1.00  0.00    -0.048 OA 
HETATM   26  C   UNL     1      -6.973   6.372  72.295  1.00  0.00    -0.074 C  
ENDBRANCH  19  22
ENDBRANCH   8  16
BRANCH  13  27
HETATM   27  C   UNL     1      -9.555   8.645  65.688  1.00  0.00     0.039 C  
HETATM   28  C   UNL     1      -8.326   9.263  65.063  1.00  0.00    -0.160 C  
HETATM   29  C   UNL     1      -8.267   7.859  65.571  1.00  0.00    -0.140 C  
ENDBRANCH  13  27
BRANCH  10  30
HETATM   30  N   UNL     1     -11.247  13.272  67.184  1.00  0.00    -0.289 NA 
HETATM   31  H   UNL     1     -11.879  13.127  66.395  1.00  0.00     0.000 HD 
BRANCH  30  32
HETATM   32  C   UNL     1     -10.355  14.356  67.045  1.00  0.00    -0.263 A  
HETATM   33  C   UNL     1     -10.592  15.450  66.207  1.00  0.00    -0.311 A  
HETATM   34  C   UNL     1      -9.588  16.402  65.967  1.00  0.00    -0.352 A  
HETATM   35  C   UNL     1      -8.339  16.279  66.576  1.00  0.00    -0.308 A  
HETATM   36  C   UNL     1      -8.104  15.250  67.478  1.00  0.00    -0.192 A  
HETATM   37  I   UNL     1      -6.807  17.598  66.084  1.00  0.00    -0.174 I  
HETATM   38  C   UNL     1      -9.105  14.304  67.698  1.00  0.00    -0.192 A  
HETATM   39  F   UNL     1      -8.850  13.296  68.548  1.00  0.00    -0.174 F  
ENDBRANCH  30  32
ENDBRANCH  10  30
TORSDOF 5
ENDMDL
MODEL       40
REMARK 921   NORMALIZED FREE ENERGY PREDICTED BY IDOCK:   -6.07 KCAL/MOL
REMARK 922        TOTAL FREE ENERGY PREDICTED BY IDOCK:   -8.05 KCAL/MOL
REMARK 923 INTER-LIGAND FREE ENERGY PREDICTED BY IDOCK:   -8.17 KCAL/MOL
REMARK 924 INTRA-LIGAND FREE ENERGY PREDICTED BY IDOCK:    0.12 KCAL/MOL
REMARK 927      BINDING AFFINITY PREDICTED BY RF-SCORE:    0.00 PKD
ROOT
HETATM    1  C   UNL     1     -11.706  12.604  65.600  1.00  0.00    -0.412 C  
HETATM    2  N   UNL     1     -10.603  13.455  66.030  1.00  0.00    -0.283 N  
HETATM    3  C   UNL     1     -10.706  14.789  65.677  1.00  0.00    -0.336 C  
HETATM    4  O   UNL     1     -11.529  15.206  64.862  1.00  0.00    -0.385 OA 
HETATM    5  C   UNL     1      -9.817  15.753  66.395  1.00  0.00    -0.296 C  
HETATM    6  C   UNL     1      -8.744  15.294  67.089  1.00  0.00    -0.211 C  
HETATM    7  C   UNL     1     -10.367  17.154  66.306  1.00  0.00    -0.315 C  
HETATM    8  N   UNL     1      -7.792  16.113  67.725  1.00  0.00    -0.139 N  
HETATM    9  C   UNL     1      -6.783  15.597  68.578  1.00  0.00    -0.114 C  
HETATM   10  C   UNL     1      -9.538  12.929  66.773  1.00  0.00    -0.246 C  
HETATM   11  O   UNL     1      -6.005  16.322  69.214  1.00  0.00    -0.130 OA 
HETATM   12  O   UNL     1      -7.582  12.137  68.616  1.00  0.00    -0.117 OA 
HETATM   13  N   UNL     1      -6.660  14.219  68.681  1.00  0.00    -0.084 N  
HETATM   14  C   UNL     1      -8.641  13.822  67.288  1.00  0.00    -0.221 C  
HETATM   15  C   UNL     1      -7.589  13.305  68.219  1.00  0.00    -0.139 C  
ENDROOT
BRANCH   8  16
HETATM   16  C   UNL     1      -7.579  17.523  67.422  1.00  0.00    -0.196 A  
HETATM   17  C   UNL     1      -7.806  18.490  68.415  1.00  0.00    -0.332 A  
HETATM   18  C   UNL     1      -6.569  20.125  67.152  1.00  0.00    -0.247 A  
HETATM   19  C   UNL     1      -6.424  19.219  66.095  1.00  0.00    -0.197 A  
HETATM   20  C   UNL     1      -6.939  17.917  66.232  1.00  0.00    -0.310 A  
HETATM   21  C   UNL     1      -7.290  19.777  68.291  1.00  0.00    -0.349 A  
BRANCH  19  22
HETATM   22  N   UNL     1      -5.714  19.683  64.962  1.00  0.00    -0.183 N  
HETATM   23  H   UNL     1      -4.760  19.338  64.854  1.00  0.00     0.000 HD 
HETATM   24  C   UNL     1      -5.135  20.828  62.911  1.00  0.00    -0.209 C  
HETATM   25  O   UNL     1      -7.279  21.051  63.927  1.00  0.00     0.241 OA 
HETATM   26  C   UNL     1      -6.167  20.548  63.988  1.00  0.00    -0.256 C  
ENDBRANCH  19  22
ENDBRANCH   8  16
BRANCH  13  27
HETATM   27  C   UNL     1      -5.623  13.701  69.573  1.00  0.00    -0.091 C  
HETATM   28  C   UNL     1      -5.777  13.825  71.072  1.00  0.00    -0.210 C  
HETATM   29  C   UNL     1      -5.776  12.470  70.441  1.00  0.00    -0.170 C  
ENDBRANCH  13  27
BRANCH  10  30
HETATM   30  N   UNL     1      -9.518  11.556  66.977  1.00  0.00    -0.180 NA 
HETATM   31  H   UNL     1      -8.958  11.026  66.309  1.00  0.00     0.000 HD 
BRANCH  30  32
HETATM   32  C   UNL     1     -10.158  10.784  67.970  1.00  0.00    -0.176 A  
HETATM   33  C   UNL     1     -10.875  11.336  69.036  1.00  0.00    -0.268 A  
HETATM   34  C   UNL     1     -11.327  10.528  70.092  1.00  0.00    -0.400 A  
HETATM   35  C   UNL     1     -11.080   9.155  70.087  1.00  0.00    -0.222 A  
HETATM   36  C   UNL     1     -10.443   8.568  69.001  1.00  0.00    -0.216 A  
HETATM   37  I   UNL     1     -11.606   7.997  71.733  1.00  0.00    -0.432 I  
HETATM   38  C   UNL     1      -9.988   9.383  67.965  1.00  0.00    -0.176 A  
HETATM   39  F   UNL     1      -9.345   8.804  66.938  1.00  0.00    -0.159 F  
ENDBRANCH  30  32
ENDBRANCH  10  30
TORSDOF 5
ENDMDL
MODEL       41
REMARK 921   NORMALIZED FREE ENERGY PREDICTED BY IDOCK:   -6.05 KCAL/MOL
REMARK 922        TOTAL FREE ENERGY PREDICTED BY IDOCK:   -8.03 KCAL/MOL
REMARK 923 INTER-LIGAND FREE ENERGY PREDICTED BY IDOCK:   -7.63 KCAL/MOL
REMARK 924 INTRA-LIGAND FREE ENERGY PREDICTED BY IDOCK:   -0.40 KCAL/MOL
REMARK 927      BINDING AFFINITY PREDICTED BY RF-SCORE:    0.00 PKD
ROOT
HETATM    1  C   UNL     1     -12.356   9.923  71.906  1.00  0.00    -0.305 C  
HETATM    2  N   UNL     1     -11.528  10.055  70.712  1.00  0.00    -0.330 N  
HETATM    3  C   UNL     1     -12.123  10.699  69.642  1.00  0.00    -0.240 C  
HETATM    4  O   UNL     1     -13.330  10.938  69.590  1.00  0.00     0.223 OA 
HETATM    5  C   UNL     1     -11.221  11.185  68.554  1.00  0.00    -0.318 C  
HETATM    6  C   UNL     1      -9.952  10.711  68.467  1.00  0.00    -0.167 C  
HETATM    7  C   UNL     1     -11.891  12.273  67.752  1.00  0.00    -0.341 C  
HETATM    8  N   UNL     1      -9.048  11.030  67.436  1.00  0.00    -0.141 N  
HETATM    9  C   UNL     1      -7.682  10.650  67.468  1.00  0.00    -0.101 C  
HETATM   10  C   UNL     1     -10.212   9.575  70.694  1.00  0.00    -0.297 C  
HETATM   11  O   UNL     1      -6.864  11.009  66.610  1.00  0.00    -0.119 OA 
HETATM   12  O   UNL     1      -7.457   9.071  70.642  1.00  0.00    -0.083 OA 
HETATM   13  N   UNL     1      -7.261   9.824  68.500  1.00  0.00    -0.069 N  
HETATM   14  C   UNL     1      -9.450   9.898  69.607  1.00  0.00    -0.252 C  
HETATM   15  C   UNL     1      -7.997   9.537  69.636  1.00  0.00    -0.120 C  
ENDROOT
BRANCH   8  16
HETATM   16  C   UNL     1      -9.431  11.570  66.137  1.00  0.00    -0.220 A  
HETATM   17  C   UNL     1      -9.928  10.708  65.145  1.00  0.00    -0.366 A  
HETATM   18  C   UNL     1     -10.799  12.582  63.907  1.00  0.00    -0.472 A  
HETATM   19  C   UNL     1     -10.218  13.471  64.819  1.00  0.00    -0.332 A  
HETATM   20  C   UNL     1      -9.526  12.959  65.932  1.00  0.00    -0.061 A  
HETATM   21  C   UNL     1     -10.622  11.208  64.046  1.00  0.00    -0.436 A  
BRANCH  19  22
HETATM   22  N   UNL     1     -10.415  14.849  64.565  1.00  0.00    -0.491 N  
HETATM   23  H   UNL     1     -10.320  15.149  63.595  1.00  0.00     0.000 HD 
HETATM   24  C   UNL     1     -10.864  17.209  64.859  1.00  0.00     0.196 C  
HETATM   25  O   UNL     1     -10.895  15.675  66.683  1.00  0.00    -0.313 OA 
HETATM   26  C   UNL     1     -10.720  15.833  65.483  1.00  0.00    -0.383 C  
ENDBRANCH  19  22
ENDBRANCH   8  16
BRANCH  13  27
HETATM   27  C   UNL     1      -5.847   9.450  68.529  1.00  0.00    -0.041 C  
HETATM   28  C   UNL     1      -5.438   8.050  68.926  1.00  0.00    -0.030 C  
HETATM   29  C   UNL     1      -5.185   8.524  67.531  1.00  0.00    -0.034 C  
ENDBRANCH  13  27
BRANCH  10  30
HETATM   30  N   UNL     1      -9.775   8.869  71.807  1.00  0.00    -0.304 NA 
HETATM   31  H   UNL     1      -9.326   9.432  72.529  1.00  0.00     0.000 HD 
BRANCH  30  32
HETATM   32  C   UNL     1      -9.857   7.488  72.088  1.00  0.00    -0.169 A  
HETATM   33  C   UNL     1     -10.538   6.574  71.278  1.00  0.00    -0.268 A  
HETATM   34  C   UNL     1     -10.745   5.252  71.704  1.00  0.00    -0.227 A  
HETATM   35  C   UNL     1     -10.259   4.825  72.940  1.00  0.00    -0.174 A  
HETATM   36  C   UNL     1      -9.507   5.687  73.727  1.00  0.00    -0.139 A  
HETATM   37  I   UNL     1     -10.715   2.917  73.634  1.00  0.00    -0.324 I  
HETATM   38  C   UNL     1      -9.320   7.001  73.297  1.00  0.00    -0.153 A  
HETATM   39  F   UNL     1      -8.618   7.832  74.086  1.00  0.00    -0.233 F  
ENDBRANCH  30  32
ENDBRANCH  10  30
TORSDOF 5
ENDMDL
MODEL       42
REMARK 921   NORMALIZED FREE ENERGY PREDICTED BY IDOCK:   -6.04 KCAL/MOL
REMARK 922        TOTAL FREE ENERGY PREDICTED BY IDOCK:   -8.02 KCAL/MOL
REMARK 923 INTER-LIGAND FREE ENERGY PREDICTED BY IDOCK:   -8.54 KCAL/MOL
REMARK 924 INTRA-LIGAND FREE ENERGY PREDICTED BY IDOCK:    0.52 KCAL/MOL
REMARK 927      BINDING AFFINITY PREDICTED BY RF-SCORE:    0.00 PKD
ROOT
HETATM    1  C   UNL     1      -9.171  10.902  64.316  1.00  0.00    -0.197 C  
HETATM    2  N   UNL     1      -9.703  10.383  65.571  1.00  0.00    -0.229 N  
HETATM    3  C   UNL     1      -9.180   9.171  65.985  1.00  0.00    -0.215 C  
HETATM    4  O   UNL     1      -8.498   8.451  65.256  1.00  0.00    -0.165 OA 
HETATM    5  C   UNL     1      -9.404   8.785  67.412  1.00  0.00    -0.166 C  
HETATM    6  C   UNL     1     -10.354   9.422  68.142  1.00  0.00    -0.211 C  
HETATM    7  C   UNL     1      -8.391   7.758  67.852  1.00  0.00    -0.123 C  
HETATM    8  N   UNL     1     -10.711   9.083  69.460  1.00  0.00    -0.227 N  
HETATM    9  C   UNL     1     -11.587   9.875  70.247  1.00  0.00    -0.250 C  
HETATM   10  C   UNL     1     -10.660  11.104  66.298  1.00  0.00    -0.253 C  
HETATM   11  O   UNL     1     -11.828   9.630  71.437  1.00  0.00    -0.350 OA 
HETATM   12  O   UNL     1     -12.227  12.606  68.069  1.00  0.00    -0.268 OA 
HETATM   13  N   UNL     1     -12.210  10.955  69.639  1.00  0.00    -0.323 N  
HETATM   14  C   UNL     1     -10.970  10.638  67.544  1.00  0.00    -0.371 C  
HETATM   15  C   UNL     1     -11.865  11.476  68.405  1.00  0.00    -0.283 C  
ENDROOT
BRANCH   8  16
HETATM   16  C   UNL     1     -10.425   7.800  70.091  1.00  0.00    -0.231 A  
HETATM   17  C   UNL     1     -11.128   6.653  69.685  1.00  0.00    -0.390 A  
HETATM   18  C   UNL     1      -9.492   5.236  70.743  1.00  0.00    -0.221 A  
HETATM   19  C   UNL     1      -8.834   6.358  71.257  1.00  0.00    -0.138 A  
HETATM   20  C   UNL     1      -9.310   7.642  70.934  1.00  0.00    -0.158 A  
HETATM   21  C   UNL     1     -10.657   5.380  69.992  1.00  0.00    -0.354 A  
BRANCH  19  22
HETATM   22  N   UNL     1      -7.686   6.107  72.046  1.00  0.00    -0.097 N  
HETATM   23  H   UNL     1      -7.445   5.127  72.193  1.00  0.00     0.000 HD 
HETATM   24  C   UNL     1      -5.713   6.411  73.414  1.00  0.00    -0.046 C  
HETATM   25  O   UNL     1      -6.964   8.253  72.564  1.00  0.00    -0.087 OA 
HETATM   26  C   UNL     1      -6.857   7.038  72.639  1.00  0.00    -0.068 C  
ENDBRANCH  19  22
ENDBRANCH   8  16
BRANCH  13  27
HETATM   27  C   UNL     1     -13.101  11.770  70.464  1.00  0.00     0.394 C  
HETATM   28  C   UNL     1     -12.862  11.890  71.952  1.00  0.00    -0.341 C  
HETATM   29  C   UNL     1     -12.720  13.098  71.084  1.00  0.00    -0.386 C  
ENDBRANCH  13  27
BRANCH  10  30
HETATM   30  N   UNL     1     -11.163  12.261  65.719  1.00  0.00    -0.323 NA 
HETATM   31  H   UNL     1     -12.024  12.141  65.185  1.00  0.00     0.000 HD 
BRANCH  30  32
HETATM   32  C   UNL     1     -10.661  13.580  65.759  1.00  0.00    -0.275 A  
HETATM   33  C   UNL     1      -9.512  13.948  66.464  1.00  0.00    -0.288 A  
HETATM   34  C   UNL     1      -9.168  15.301  66.623  1.00  0.00    -0.302 A  
HETATM   35  C   UNL     1      -9.964  16.301  66.062  1.00  0.00    -0.345 A  
HETATM   36  C   UNL     1     -11.065  15.960  65.287  1.00  0.00    -0.255 A  
HETATM   37  I   UNL     1      -9.542  18.302  66.443  1.00  0.00    -0.185 I  
HETATM   38  C   UNL     1     -11.401  14.614  65.148  1.00  0.00    -0.375 A  
HETATM   39  F   UNL     1     -12.488  14.303  64.422  1.00  0.00    -0.441 F  
ENDBRANCH  30  32
ENDBRANCH  10  30
TORSDOF 5
ENDMDL
MODEL       43
REMARK 921   NORMALIZED FREE ENERGY PREDICTED BY IDOCK:   -6.03 KCAL/MOL
REMARK 922        TOTAL FREE ENERGY PREDICTED BY IDOCK:   -8.01 KCAL/MOL
REMARK 923 INTER-LIGAND FREE ENERGY PREDICTED BY IDOCK:   -8.32 KCAL/MOL
REMARK 924 INTRA-LIGAND FREE ENERGY PREDICTED BY IDOCK:    0.31 KCAL/MOL
REMARK 927      BINDING AFFINITY PREDICTED BY RF-SCORE:    0.00 PKD
ROOT
HETATM    1  C   UNL     1      -6.974  11.803  66.836  1.00  0.00    -0.101 C  
HETATM    2  N   UNL     1      -7.661  10.988  67.830  1.00  0.00    -0.102 N  
HETATM    3  C   UNL     1      -6.862  10.103  68.532  1.00  0.00    -0.058 C  
HETATM    4  O   UNL     1      -5.708   9.833  68.200  1.00  0.00    -0.040 OA 
HETATM    5  C   UNL     1      -7.427   9.526  69.790  1.00  0.00    -0.098 C  
HETATM    6  C   UNL     1      -8.762   9.602  70.027  1.00  0.00    -0.231 C  
HETATM    7  C   UNL     1      -6.326   9.022  70.688  1.00  0.00    -0.049 C  
HETATM    8  N   UNL     1      -9.413   9.018  71.130  1.00  0.00    -0.265 N  
HETATM    9  C   UNL     1     -10.778   9.259  71.432  1.00  0.00    -0.362 C  
HETATM   10  C   UNL     1      -9.037  11.135  68.053  1.00  0.00    -0.153 C  
HETATM   11  O   UNL     1     -11.328   8.824  72.453  1.00  0.00    -0.338 OA 
HETATM   12  O   UNL     1     -11.659  11.610  68.919  1.00  0.00    -0.258 OA 
HETATM   13  N   UNL     1     -11.523  10.001  70.527  1.00  0.00    -0.306 N  
HETATM   14  C   UNL     1      -9.566  10.466  69.121  1.00  0.00    -0.226 C  
HETATM   15  C   UNL     1     -10.996  10.733  69.479  1.00  0.00    -0.266 C  
ENDROOT
BRANCH   8  16
HETATM   16  C   UNL     1      -8.858   7.944  71.945  1.00  0.00    -0.129 A  
HETATM   17  C   UNL     1      -8.311   8.239  73.205  1.00  0.00    -0.253 A  
HETATM   18  C   UNL     1      -8.400   5.913  73.824  1.00  0.00    -0.115 A  
HETATM   19  C   UNL     1      -8.838   5.574  72.539  1.00  0.00    -0.130 A  
HETATM   20  C   UNL     1      -9.059   6.595  71.597  1.00  0.00    -0.142 A  
HETATM   21  C   UNL     1      -8.100   7.234  74.145  1.00  0.00    -0.177 A  
BRANCH  19  22
HETATM   22  N   UNL     1      -9.072   4.199  72.298  1.00  0.00    -0.114 N  
HETATM   23  H   UNL     1      -8.351   3.703  71.775  1.00  0.00     0.000 HD 
HETATM   24  C   UNL     1     -10.085   2.002  72.260  1.00  0.00    -0.230 C  
HETATM   25  O   UNL     1     -11.121   3.858  73.338  1.00  0.00    -0.229 OA 
HETATM   26  C   UNL     1     -10.166   3.455  72.689  1.00  0.00    -0.159 C  
ENDBRANCH  19  22
ENDBRANCH   8  16
BRANCH  13  27
HETATM   27  C   UNL     1     -12.926  10.253  70.857  1.00  0.00    -0.371 C  
HETATM   28  C   UNL     1     -13.486   9.808  72.189  1.00  0.00    -0.491 C  
HETATM   29  C   UNL     1     -13.398  11.268  71.876  1.00  0.00    -0.413 C  
ENDBRANCH  13  27
BRANCH  10  30
HETATM   30  N   UNL     1      -9.731  11.996  67.214  1.00  0.00    -0.184 NA 
HETATM   31  H   UNL     1     -10.386  11.544  66.575  1.00  0.00     0.000 HD 
BRANCH  30  32
HETATM   32  C   UNL     1      -9.668  13.402  67.113  1.00  0.00    -0.237 A  
HETATM   33  C   UNL     1      -9.409  14.244  68.199  1.00  0.00    -0.206 A  
HETATM   34  C   UNL     1      -9.545  15.636  68.077  1.00  0.00    -0.203 A  
HETATM   35  C   UNL     1      -9.926  16.204  66.860  1.00  0.00    -0.254 A  
HETATM   36  C   UNL     1     -10.108  15.398  65.744  1.00  0.00    -0.391 A  
HETATM   37  I   UNL     1     -10.286  18.249  66.734  1.00  0.00    -0.405 I  
HETATM   38  C   UNL     1      -9.982  14.016  65.883  1.00  0.00    -0.307 A  
HETATM   39  F   UNL     1     -10.193  13.248  64.801  1.00  0.00    -0.323 F  
ENDBRANCH  30  32
ENDBRANCH  10  30
TORSDOF 5
ENDMDL
MODEL       44
REMARK 921   NORMALIZED FREE ENERGY PREDICTED BY IDOCK:   -6.00 KCAL/MOL
REMARK 922        TOTAL FREE ENERGY PREDICTED BY IDOCK:   -7.97 KCAL/MOL
REMARK 923 INTER-LIGAND FREE ENERGY PREDICTED BY IDOCK:   -8.09 KCAL/MOL
REMARK 924 INTRA-LIGAND FREE ENERGY PREDICTED BY IDOCK:    0.12 KCAL/MOL
REMARK 927      BINDING AFFINITY PREDICTED BY RF-SCORE:    0.00 PKD
ROOT
HETATM    1  C   UNL     1      -5.179  14.458  68.083  1.00  0.00    -0.118 C  
HETATM    2  N   UNL     1      -6.354  13.602  67.963  1.00  0.00    -0.122 N  
HETATM    3  C   UNL     1      -6.268  12.379  68.604  1.00  0.00    -0.069 C  
HETATM    4  O   UNL     1      -5.212  11.925  69.044  1.00  0.00    -0.051 OA 
HETATM    5  C   UNL     1      -7.547  11.637  68.828  1.00  0.00    -0.119 C  
HETATM    6  C   UNL     1      -8.660  11.987  68.134  1.00  0.00    -0.173 C  
HETATM    7  C   UNL     1      -7.393  10.632  69.941  1.00  0.00    -0.074 C  
HETATM    8  N   UNL     1      -9.889  11.304  68.197  1.00  0.00    -0.177 N  
HETATM    9  C   UNL     1     -11.073  11.796  67.589  1.00  0.00    -0.252 C  
HETATM   10  C   UNL     1      -7.487  14.032  67.260  1.00  0.00    -0.029 C  
HETATM   11  O   UNL     1     -12.176  11.247  67.723  1.00  0.00    -0.504 OA 
HETATM   12  O   UNL     1      -9.962  14.905  66.281  1.00  0.00    -0.255 OA 
HETATM   13  N   UNL     1     -10.974  12.930  66.796  1.00  0.00    -0.267 N  
HETATM   14  C   UNL     1      -8.604  13.250  67.348  1.00  0.00    -0.204 C  
HETATM   15  C   UNL     1      -9.873  13.766  66.744  1.00  0.00    -0.275 C  
ENDROOT
BRANCH   8  16
HETATM   16  C   UNL     1     -10.054   9.938  68.679  1.00  0.00    -0.175 A  
HETATM   17  C   UNL     1     -10.478   9.713  69.999  1.00  0.00    -0.301 A  
HETATM   18  C   UNL     1     -11.030   7.430  69.467  1.00  0.00    -0.155 A  
HETATM   19  C   UNL     1     -10.510   7.590  68.178  1.00  0.00    -0.183 A  
HETATM   20  C   UNL     1     -10.013   8.849  67.790  1.00  0.00    -0.241 A  
HETATM   21  C   UNL     1     -10.979   8.474  70.387  1.00  0.00    -0.254 A  
BRANCH  19  22
HETATM   22  N   UNL     1     -10.565   6.458  67.332  1.00  0.00    -0.251 N  
HETATM   23  H   UNL     1     -11.490   6.186  67.000  1.00  0.00     0.000 HD 
HETATM   24  C   UNL     1      -9.935   4.539  65.999  1.00  0.00    -0.265 C  
HETATM   25  O   UNL     1      -8.329   5.850  67.175  1.00  0.00    -0.106 OA 
HETATM   26  C   UNL     1      -9.509   5.679  66.906  1.00  0.00    -0.135 C  
ENDBRANCH  19  22
ENDBRANCH   8  16
BRANCH  13  27
HETATM   27  C   UNL     1     -12.204  13.433  66.185  1.00  0.00    -0.415 C  
HETATM   28  C   UNL     1     -12.152  14.167  64.864  1.00  0.00    -0.438 C  
HETATM   29  C   UNL     1     -12.849  12.847  64.947  1.00  0.00    -0.370 C  
ENDBRANCH  13  27
BRANCH  10  30
HETATM   30  N   UNL     1      -7.401  15.244  66.589  1.00  0.00    -0.226 NA 
HETATM   31  H   UNL     1      -7.646  15.210  65.599  1.00  0.00     0.000 HD 
BRANCH  30  32
HETATM   32  C   UNL     1      -7.026  16.517  67.071  1.00  0.00    -0.215 A  
HETATM   33  C   UNL     1      -5.959  17.255  66.552  1.00  0.00    -0.244 A  
HETATM   34  C   UNL     1      -5.516  18.425  67.192  1.00  0.00    -0.140 A  
HETATM   35  C   UNL     1      -6.147  18.877  68.351  1.00  0.00    -0.217 A  
HETATM   36  C   UNL     1      -7.262  18.209  68.841  1.00  0.00    -0.268 A  
HETATM   37  I   UNL     1      -5.380  20.512  69.383  1.00  0.00    -0.409 I  
HETATM   38  C   UNL     1      -7.683  17.043  68.203  1.00  0.00    -0.197 A  
HETATM   39  F   UNL     1      -8.743  16.390  68.709  1.00  0.00    -0.201 F  
ENDBRANCH  30  32
ENDBRANCH  10  30
TORSDOF 5
ENDMDL
MODEL       45
REMARK 921   NORMALIZED FREE ENERGY PREDICTED BY IDOCK:   -5.99 KCAL/MOL
REMARK 922        TOTAL FREE ENERGY PREDICTED BY IDOCK:   -7.96 KCAL/MOL
REMARK 923 INTER-LIGAND FREE ENERGY PREDICTED BY IDOCK:   -8.84 KCAL/MOL
REMARK 924 INTRA-LIGAND FREE ENERGY PREDICTED BY IDOCK:    0.88 KCAL/MOL
REMARK 927      BINDING AFFINITY PREDICTED BY RF-SCORE:    0.00 PKD
ROOT
HETATM    1  C   UNL     1      -6.431   7.446  71.506  1.00  0.00    -0.039 C  
HETATM    2  N   UNL     1      -7.478   8.343  71.031  1.00  0.00    -0.067 N  
HETATM    3  C   UNL     1      -7.156   9.100  69.919  1.00  0.00    -0.056 C  
HETATM    4  O   UNL     1      -6.007   9.207  69.490  1.00  0.00    -0.033 OA 
HETATM    5  C   UNL     1      -8.287   9.742  69.182  1.00  0.00    -0.137 C  
HETATM    6  C   UNL     1      -9.503   9.853  69.776  1.00  0.00    -0.226 C  
HETATM    7  C   UNL     1      -7.880  10.078  67.769  1.00  0.00    -0.094 C  
HETATM    8  N   UNL     1     -10.610  10.515  69.213  1.00  0.00    -0.222 N  
HETATM    9  C   UNL     1     -11.907  10.467  69.786  1.00  0.00    -0.207 C  
HETATM   10  C   UNL     1      -8.726   8.389  71.666  1.00  0.00    -0.183 C  
HETATM   11  O   UNL     1     -12.901  10.968  69.244  1.00  0.00    -0.173 OA 
HETATM   12  O   UNL     1     -11.386   8.284  72.539  1.00  0.00    -0.375 OA 
HETATM   13  N   UNL     1     -12.050   9.845  71.018  1.00  0.00    -0.332 N  
HETATM   14  C   UNL     1      -9.706   9.118  71.054  1.00  0.00    -0.359 C  
HETATM   15  C   UNL     1     -11.090   9.053  71.622  1.00  0.00    -0.363 C  
ENDROOT
BRANCH   8  16
HETATM   16  C   UNL     1     -10.529  11.493  68.135  1.00  0.00    -0.193 A  
HETATM   17  C   UNL     1     -11.014  11.163  66.858  1.00  0.00    -0.333 A  
HETATM   18  C   UNL     1     -11.030  13.487  66.227  1.00  0.00    -0.293 A  
HETATM   19  C   UNL     1     -10.441  13.837  67.447  1.00  0.00    -0.256 A  
HETATM   20  C   UNL     1     -10.184  12.832  68.398  1.00  0.00    -0.237 A  
HETATM   21  C   UNL     1     -11.280  12.153  65.916  1.00  0.00    -0.384 A  
BRANCH  19  22
HETATM   22  N   UNL     1     -10.184  15.213  67.650  1.00  0.00    -0.239 N  
HETATM   23  H   UNL     1      -9.334  15.582  67.223  1.00  0.00     0.000 HD 
HETATM   24  C   UNL     1     -10.376  17.516  68.369  1.00  0.00    -0.378 C  
HETATM   25  O   UNL     1     -12.011  15.873  68.924  1.00  0.00    -0.370 OA 
HETATM   26  C   UNL     1     -10.953  16.113  68.360  1.00  0.00    -0.341 C  
ENDBRANCH  19  22
ENDBRANCH   8  16
BRANCH  13  27
HETATM   27  C   UNL     1     -13.395   9.791  71.592  1.00  0.00    -0.399 C  
HETATM   28  C   UNL     1     -14.217   8.528  71.485  1.00  0.00    -0.448 C  
HETATM   29  C   UNL     1     -13.767   9.002  72.829  1.00  0.00    -0.299 C  
ENDBRANCH  13  27
BRANCH  10  30
HETATM   30  N   UNL     1      -8.881   7.642  72.826  1.00  0.00    -0.140 NA 
HETATM   31  H   UNL     1      -8.509   8.073  73.673  1.00  0.00     0.000 HD 
BRANCH  30  32
HETATM   32  C   UNL     1      -9.476   6.376  73.009  1.00  0.00    -0.141 A  
HETATM   33  C   UNL     1      -9.877   5.884  74.255  1.00  0.00    -0.230 A  
HETATM   34  C   UNL     1     -10.288   4.549  74.402  1.00  0.00    -0.305 A  
HETATM   35  C   UNL     1     -10.316   3.694  73.300  1.00  0.00    -0.163 A  
HETATM   36  C   UNL     1     -10.003   4.178  72.036  1.00  0.00    -0.250 A  
HETATM   37  I   UNL     1     -10.764   1.679  73.557  1.00  0.00    -0.275 I  
HETATM   38  C   UNL     1      -9.585   5.503  71.907  1.00  0.00    -0.156 A  
HETATM   39  F   UNL     1      -9.254   5.947  70.683  1.00  0.00    -0.145 F  
ENDBRANCH  30  32
ENDBRANCH  10  30
TORSDOF 5
ENDMDL
MODEL       46
REMARK 921   NORMALIZED FREE ENERGY PREDICTED BY IDOCK:   -5.99 KCAL/MOL
REMARK 922        TOTAL FREE ENERGY PREDICTED BY IDOCK:   -7.95 KCAL/MOL
REMARK 923 INTER-LIGAND FREE ENERGY PREDICTED BY IDOCK:   -7.89 KCAL/MOL
REMARK 924 INTRA-LIGAND FREE ENERGY PREDICTED BY IDOCK:   -0.06 KCAL/MOL
REMARK 927      BINDING AFFINITY PREDICTED BY RF-SCORE:    0.00 PKD
ROOT
HETATM    1  C   UNL     1      -6.972   6.828  68.743  1.00  0.00    -0.079 C  
HETATM    2  N   UNL     1      -8.111   7.734  68.655  1.00  0.00    -0.125 N  
HETATM    3  C   UNL     1      -8.855   7.872  69.813  1.00  0.00    -0.141 C  
HETATM    4  O   UNL     1      -8.732   7.123  70.783  1.00  0.00    -0.144 OA 
HETATM    5  C   UNL     1      -9.783   9.042  69.891  1.00  0.00    -0.194 C  
HETATM    6  C   UNL     1     -10.120   9.712  68.759  1.00  0.00    -0.179 C  
HETATM    7  C   UNL     1     -10.119   9.362  71.326  1.00  0.00    -0.309 C  
HETATM    8  N   UNL     1     -11.051  10.766  68.701  1.00  0.00    -0.239 N  
HETATM    9  C   UNL     1     -11.253  11.550  67.536  1.00  0.00    -0.298 C  
HETATM   10  C   UNL     1      -8.390   8.423  67.467  1.00  0.00    -0.129 C  
HETATM   11  O   UNL     1     -12.000  12.537  67.510  1.00  0.00    -0.438 OA 
HETATM   12  O   UNL     1      -8.819  10.189  65.335  1.00  0.00    -0.156 OA 
HETATM   13  N   UNL     1     -10.593  11.171  66.376  1.00  0.00    -0.260 N  
HETATM   14  C   UNL     1      -9.361   9.384  67.522  1.00  0.00    -0.147 C  
HETATM   15  C   UNL     1      -9.566  10.245  66.315  1.00  0.00    -0.189 C  
ENDROOT
BRANCH   8  16
HETATM   16  C   UNL     1     -12.060  11.036  69.718  1.00  0.00    -0.353 A  
HETATM   17  C   UNL     1     -12.908  10.002  70.149  1.00  0.00     0.131 A  
HETATM   18  C   UNL     1     -13.533  11.279  72.093  1.00  0.00    -0.197 A  
HETATM   19  C   UNL     1     -12.787  12.370  71.633  1.00  0.00    -0.270 A  
HETATM   20  C   UNL     1     -12.056  12.246  70.437  1.00  0.00    -0.385 A  
HETATM   21  C   UNL     1     -13.626  10.114  71.336  1.00  0.00    -0.224 A  
BRANCH  19  22
HETATM   22  N   UNL     1     -12.792  13.525  72.450  1.00  0.00    -0.239 N  
HETATM   23  H   UNL     1     -12.237  13.477  73.304  1.00  0.00     0.000 HD 
HETATM   24  C   UNL     1     -13.242  15.742  73.311  1.00  0.00    -0.687 C  
HETATM   25  O   UNL     1     -14.161  14.970  71.252  1.00  0.00    -0.445 OA 
HETATM   26  C   UNL     1     -13.464  14.709  72.222  1.00  0.00    -0.408 C  
ENDBRANCH  19  22
ENDBRANCH   8  16
BRANCH  13  27
HETATM   27  C   UNL     1     -10.800  11.994  65.184  1.00  0.00    -0.300 C  
HETATM   28  C   UNL     1     -10.890  11.348  63.820  1.00  0.00    -0.468 C  
HETATM   29  C   UNL     1     -12.086  12.042  64.388  1.00  0.00    -0.375 C  
ENDBRANCH  13  27
BRANCH  10  30
HETATM   30  N   UNL     1      -7.616   8.120  66.356  1.00  0.00    -0.090 NA 
HETATM   31  H   UNL     1      -6.851   8.769  66.169  1.00  0.00     0.000 HD 
BRANCH  30  32
HETATM   32  C   UNL     1      -7.729   7.048  65.444  1.00  0.00    -0.111 A  
HETATM   33  C   UNL     1      -8.786   6.134  65.454  1.00  0.00    -0.071 A  
HETATM   34  C   UNL     1      -8.748   4.983  64.650  1.00  0.00    -0.141 A  
HETATM   35  C   UNL     1      -7.657   4.743  63.814  1.00  0.00    -0.065 A  
HETATM   36  C   UNL     1      -6.633   5.676  63.722  1.00  0.00    -0.036 A  
HETATM   37  I   UNL     1      -7.533   2.956  62.754  1.00  0.00    -0.056 I  
HETATM   38  C   UNL     1      -6.677   6.808  64.535  1.00  0.00    -0.042 A  
HETATM   39  F   UNL     1      -5.662   7.684  64.459  1.00  0.00    -0.035 F  
ENDBRANCH  30  32
ENDBRANCH  10  30
TORSDOF 5
ENDMDL
MODEL       47
REMARK 921   NORMALIZED FREE ENERGY PREDICTED BY IDOCK:   -5.96 KCAL/MOL
REMARK 922        TOTAL FREE ENERGY PREDICTED BY IDOCK:   -7.92 KCAL/MOL
REMARK 923 INTER-LIGAND FREE ENERGY PREDICTED BY IDOCK:   -7.88 KCAL/MOL
REMARK 924 INTRA-LIGAND FREE ENERGY PREDICTED BY IDOCK:   -0.03 KCAL/MOL
REMARK 927      BINDING AFFINITY PREDICTED BY RF-SCORE:    0.00 PKD
ROOT
HETATM    1  C   UNL     1     -12.410  14.578  64.592  1.00  0.00    -0.403 C  
HETATM    2  N   UNL     1     -11.501  13.508  64.986  1.00  0.00    -0.310 N  
HETATM    3  C   UNL     1     -11.426  12.438  64.112  1.00  0.00    -0.381 C  
HETATM    4  O   UNL     1     -12.226  12.265  63.192  1.00  0.00    -0.443 OA 
HETATM    5  C   UNL     1     -10.262  11.512  64.269  1.00  0.00    -0.361 C  
HETATM    6  C   UNL     1      -9.533  11.533  65.414  1.00  0.00    -0.198 C  
HETATM    7  C   UNL     1     -10.020  10.739  62.997  1.00  0.00    -0.291 C  
HETATM    8  N   UNL     1      -8.477  10.649  65.705  1.00  0.00    -0.175 N  
HETATM    9  C   UNL     1      -7.632  10.807  66.834  1.00  0.00    -0.123 C  
HETATM   10  C   UNL     1     -10.749  13.602  66.164  1.00  0.00    -0.286 C  
HETATM   11  O   UNL     1      -6.645  10.088  67.042  1.00  0.00    -0.068 OA 
HETATM   12  O   UNL     1      -8.871  13.829  68.231  1.00  0.00    -0.178 OA 
HETATM   13  N   UNL     1      -7.948  11.802  67.748  1.00  0.00    -0.132 N  
HETATM   14  C   UNL     1      -9.793  12.646  66.367  1.00  0.00    -0.263 C  
HETATM   15  C   UNL     1      -8.868  12.813  67.532  1.00  0.00    -0.187 C  
ENDROOT
BRANCH   8  16
HETATM   16  C   UNL     1      -8.263   9.368  65.042  1.00  0.00    -0.138 A  
HETATM   17  C   UNL     1      -7.204   9.226  64.130  1.00  0.00    -0.098 A  
HETATM   18  C   UNL     1      -7.375   6.827  64.255  1.00  0.00    -0.088 A  
HETATM   19  C   UNL     1      -8.503   6.937  65.076  1.00  0.00     0.020 A  
HETATM   20  C   UNL     1      -8.950   8.214  65.462  1.00  0.00    -0.082 A  
HETATM   21  C   UNL     1      -6.751   7.965  63.751  1.00  0.00    -0.062 A  
BRANCH  19  22
HETATM   22  N   UNL     1      -9.094   5.722  65.498  1.00  0.00    -0.326 N  
HETATM   23  H   UNL     1      -9.721   5.269  64.834  1.00  0.00     0.000 HD 
HETATM   24  C   UNL     1      -9.706   3.790  66.821  1.00  0.00    -0.149 C  
HETATM   25  O   UNL     1      -8.193   5.449  67.622  1.00  0.00    -0.101 OA 
HETATM   26  C   UNL     1      -8.916   5.081  66.707  1.00  0.00    -0.113 C  
ENDBRANCH  19  22
ENDBRANCH   8  16
BRANCH  13  27
HETATM   27  C   UNL     1      -7.062  11.963  68.901  1.00  0.00    -0.110 C  
HETATM   28  C   UNL     1      -5.597  12.277  68.696  1.00  0.00    -0.053 C  
HETATM   29  C   UNL     1      -6.482  13.284  69.358  1.00  0.00    -0.097 C  
ENDBRANCH  13  27
BRANCH  10  30
HETATM   30  N   UNL     1     -10.991  14.689  66.992  1.00  0.00    -0.309 NA 
HETATM   31  H   UNL     1     -11.679  14.528  67.729  1.00  0.00     0.000 HD 
BRANCH  30  32
HETATM   32  C   UNL     1     -10.430  15.983  66.968  1.00  0.00    -0.307 A  
HETATM   33  C   UNL     1      -9.578  16.437  65.957  1.00  0.00    -0.352 A  
HETATM   34  C   UNL     1      -8.903  17.662  66.082  1.00  0.00    -0.138 A  
HETATM   35  C   UNL     1      -9.084  18.455  67.215  1.00  0.00    -0.266 A  
HETATM   36  C   UNL     1      -9.988  18.069  68.197  1.00  0.00    -0.356 A  
HETATM   37  I   UNL     1      -7.954  20.183  67.468  1.00  0.00    -0.288 I  
HETATM   38  C   UNL     1     -10.642  16.844  68.065  1.00  0.00    -0.367 A  
HETATM   39  F   UNL     1     -11.488  16.469  69.039  1.00  0.00    -0.305 F  
ENDBRANCH  30  32
ENDBRANCH  10  30
TORSDOF 5
ENDMDL
MODEL       48
REMARK 921   NORMALIZED FREE ENERGY PREDICTED BY IDOCK:   -5.91 KCAL/MOL
REMARK 922        TOTAL FREE ENERGY PREDICTED BY IDOCK:   -7.85 KCAL/MOL
REMARK 923 INTER-LIGAND FREE ENERGY PREDICTED BY IDOCK:   -8.40 KCAL/MOL
REMARK 924 INTRA-LIGAND FREE ENERGY PREDICTED BY IDOCK:    0.55 KCAL/MOL
REMARK 927      BINDING AFFINITY PREDICTED BY RF-SCORE:    0.00 PKD
ROOT
HETATM    1  C   UNL     1     -11.655  14.951  67.213  1.00  0.00    -0.324 C  
HETATM    2  N   UNL     1     -11.352  13.546  67.457  1.00  0.00    -0.294 N  
HETATM    3  C   UNL     1     -10.453  12.968  66.578  1.00  0.00    -0.277 C  
HETATM    4  O   UNL     1     -10.106  13.503  65.525  1.00  0.00    -0.295 OA 
HETATM    5  C   UNL     1      -9.833  11.673  66.994  1.00  0.00    -0.211 C  
HETATM    6  C   UNL     1     -10.386  10.953  68.003  1.00  0.00    -0.185 C  
HETATM    7  C   UNL     1      -8.550  11.429  66.239  1.00  0.00    -0.156 C  
HETATM    8  N   UNL     1      -9.942   9.683  68.416  1.00  0.00    -0.154 N  
HETATM    9  C   UNL     1     -10.436   9.037  69.579  1.00  0.00    -0.219 C  
HETATM   10  C   UNL     1     -11.930  12.864  68.536  1.00  0.00    -0.234 C  
HETATM   11  O   UNL     1      -9.979   7.964  69.997  1.00  0.00    -0.187 OA 
HETATM   12  O   UNL     1     -12.646  11.497  70.874  1.00  0.00    -0.369 OA 
HETATM   13  N   UNL     1     -11.489   9.634  70.256  1.00  0.00    -0.251 N  
HETATM   14  C   UNL     1     -11.457  11.610  68.801  1.00  0.00    -0.346 C  
HETATM   15  C   UNL     1     -11.938  10.924  70.042  1.00  0.00    -0.350 C  
ENDROOT
BRANCH   8  16
HETATM   16  C   UNL     1      -9.116   8.792  67.610  1.00  0.00    -0.134 A  
HETATM   17  C   UNL     1      -7.748   8.658  67.902  1.00  0.00    -0.102 A  
HETATM   18  C   UNL     1      -7.630   6.647  66.581  1.00  0.00    -0.094 A  
HETATM   19  C   UNL     1      -8.960   6.816  66.181  1.00  0.00    -0.136 A  
HETATM   20  C   UNL     1      -9.699   7.898  66.693  1.00  0.00    -0.305 A  
HETATM   21  C   UNL     1      -7.013   7.584  67.406  1.00  0.00    -0.083 A  
BRANCH  19  22
HETATM   22  N   UNL     1      -9.482   5.836  65.304  1.00  0.00    -0.342 N  
HETATM   23  H   UNL     1      -9.523   6.088  64.317  1.00  0.00     0.000 HD 
HETATM   24  C   UNL     1     -10.430   3.785  64.436  1.00  0.00    -0.227 C  
HETATM   25  O   UNL     1      -9.956   4.083  66.753  1.00  0.00    -0.195 OA 
HETATM   26  C   UNL     1      -9.941   4.577  65.635  1.00  0.00    -0.231 C  
ENDBRANCH  19  22
ENDBRANCH   8  16
BRANCH  13  27
HETATM   27  C   UNL     1     -11.981   8.964  71.460  1.00  0.00    -0.333 C  
HETATM   28  C   UNL     1     -13.462   8.929  71.759  1.00  0.00    -0.447 C  
HETATM   29  C   UNL     1     -12.739   7.654  71.463  1.00  0.00    -0.373 C  
ENDBRANCH  13  27
BRANCH  10  30
HETATM   30  N   UNL     1     -12.884  13.542  69.283  1.00  0.00     0.307 NA 
HETATM   31  H   UNL     1     -13.802  13.619  68.845  1.00  0.00     0.000 HD 
BRANCH  30  32
HETATM   32  C   UNL     1     -12.774  14.139  70.557  1.00  0.00    -0.309 A  
HETATM   33  C   UNL     1     -13.843  14.252  71.451  1.00  0.00    -0.364 A  
HETATM   34  C   UNL     1     -13.723  15.021  72.621  1.00  0.00    -0.558 A  
HETATM   35  C   UNL     1     -12.525  15.672  72.917  1.00  0.00    -0.439 A  
HETATM   36  C   UNL     1     -11.421  15.508  72.089  1.00  0.00    -0.512 A  
HETATM   37  I   UNL     1     -12.409  16.940  74.562  1.00  0.00     0.738 I  
HETATM   38  C   UNL     1     -11.559  14.752  70.925  1.00  0.00    -0.266 A  
HETATM   39  F   UNL     1     -10.492  14.631  70.118  1.00  0.00    -0.142 F  
ENDBRANCH  30  32
ENDBRANCH  10  30
TORSDOF 5
ENDMDL
MODEL       49
REMARK 921   NORMALIZED FREE ENERGY PREDICTED BY IDOCK:   -5.89 KCAL/MOL
REMARK 922        TOTAL FREE ENERGY PREDICTED BY IDOCK:   -7.83 KCAL/MOL
REMARK 923 INTER-LIGAND FREE ENERGY PREDICTED BY IDOCK:   -7.55 KCAL/MOL
REMARK 924 INTRA-LIGAND FREE ENERGY PREDICTED BY IDOCK:   -0.27 KCAL/MOL
REMARK 927      BINDING AFFINITY PREDICTED BY RF-SCORE:    0.00 PKD
ROOT
HETATM    1  C   UNL     1     -12.018   8.657  71.888  1.00  0.00    -0.356 C  
HETATM    2  N   UNL     1     -11.150   8.665  70.717  1.00  0.00    -0.250 N  
HETATM    3  C   UNL     1     -10.114   7.748  70.735  1.00  0.00    -0.192 C  
HETATM    4  O   UNL     1      -9.785   7.128  71.747  1.00  0.00    -0.159 OA 
HETATM    5  C   UNL     1      -9.437   7.459  69.434  1.00  0.00    -0.155 C  
HETATM    6  C   UNL     1      -9.604   8.305  68.384  1.00  0.00    -0.144 C  
HETATM    7  C   UNL     1      -8.725   6.131  69.486  1.00  0.00    -0.130 C  
HETATM    8  N   UNL     1      -8.947   8.181  67.146  1.00  0.00    -0.136 N  
HETATM    9  C   UNL     1      -9.272   8.983  66.021  1.00  0.00    -0.226 C  
HETATM   10  C   UNL     1     -11.393   9.539  69.649  1.00  0.00    -0.035 C  
HETATM   11  O   UNL     1      -8.763   8.812  64.905  1.00  0.00    -0.183 OA 
HETATM   12  O   UNL     1     -11.991  10.895  67.271  1.00  0.00    -0.230 OA 
HETATM   13  N   UNL     1     -10.187  10.010  66.197  1.00  0.00    -0.238 N  
HETATM   14  C   UNL     1     -10.645   9.359  68.519  1.00  0.00    -0.234 C  
HETATM   15  C   UNL     1     -10.994  10.170  67.309  1.00  0.00    -0.183 C  
ENDROOT
BRANCH   8  16
HETATM   16  C   UNL     1      -7.733   7.404  66.927  1.00  0.00    -0.110 A  
HETATM   17  C   UNL     1      -6.510   7.864  67.444  1.00  0.00    -0.056 A  
HETATM   18  C   UNL     1      -5.526   5.687  67.141  1.00  0.00    -0.008 A  
HETATM   19  C   UNL     1      -6.693   5.231  66.517  1.00  0.00    -0.057 A  
HETATM   20  C   UNL     1      -7.795   6.099  66.405  1.00  0.00    -0.104 A  
HETATM   21  C   UNL     1      -5.419   7.008  67.567  1.00  0.00    -0.019 A  
BRANCH  19  22
HETATM   22  N   UNL     1      -6.687   3.886  66.077  1.00  0.00    -0.048 N  
HETATM   23  H   UNL     1      -5.998   3.647  65.365  1.00  0.00     0.000 HD 
HETATM   24  C   UNL     1      -7.221   1.540  65.816  1.00  0.00    -0.055 C  
HETATM   25  O   UNL     1      -8.378   2.941  67.359  1.00  0.00    -0.080 OA 
HETATM   26  C   UNL     1      -7.509   2.863  66.504  1.00  0.00    -0.075 C  
ENDBRANCH  19  22
ENDBRANCH   8  16
BRANCH  13  27
HETATM   27  C   UNL     1     -10.522  10.821  65.027  1.00  0.00    -0.237 C  
HETATM   28  C   UNL     1     -10.429  12.328  65.094  1.00  0.00    -0.320 C  
HETATM   29  C   UNL     1      -9.512  11.573  64.187  1.00  0.00    -0.110 C  
ENDBRANCH  13  27
BRANCH  10  30
HETATM   30  N   UNL     1     -12.412  10.469  69.803  1.00  0.00    -0.547 NA 
HETATM   31  H   UNL     1     -13.235  10.311  69.221  1.00  0.00     0.000 HD 
BRANCH  30  32
HETATM   32  C   UNL     1     -12.481  11.600  70.645  1.00  0.00    -0.295 A  
HETATM   33  C   UNL     1     -13.232  11.641  71.823  1.00  0.00    -0.438 A  
HETATM   34  C   UNL     1     -13.413  12.848  72.518  1.00  0.00    -0.456 A  
HETATM   35  C   UNL     1     -12.831  14.026  72.049  1.00  0.00    -0.326 A  
HETATM   36  C   UNL     1     -12.012  13.998  70.928  1.00  0.00    -0.343 A  
HETATM   37  I   UNL     1     -13.243  15.836  72.989  1.00  0.00    -0.538 I  
HETATM   38  C   UNL     1     -11.850  12.795  70.241  1.00  0.00    -0.212 A  
HETATM   39  F   UNL     1     -11.082  12.791  69.139  1.00  0.00    -0.265 F  
ENDBRANCH  30  32
ENDBRANCH  10  30
TORSDOF 5
ENDMDL
MODEL       50
REMARK 921   NORMALIZED FREE ENERGY PREDICTED BY IDOCK:   -5.89 KCAL/MOL
REMARK 922        TOTAL FREE ENERGY PREDICTED BY IDOCK:   -7.82 KCAL/MOL
REMARK 923 INTER-LIGAND FREE ENERGY PREDICTED BY IDOCK:   -7.55 KCAL/MOL
REMARK 924 INTRA-LIGAND FREE ENERGY PREDICTED BY IDOCK:   -0.27 KCAL/MOL
REMARK 927      BINDING AFFINITY PREDICTED BY RF-SCORE:    0.00 PKD
ROOT
HETATM    1  C   UNL     1      -7.395  14.907  69.902  1.00  0.00    -0.033 C  
HETATM    2  N   UNL     1      -7.678  13.977  68.815  1.00  0.00    -0.132 N  
HETATM    3  C   UNL     1      -7.048  12.748  68.902  1.00  0.00    -0.067 C  
HETATM    4  O   UNL     1      -6.132  12.518  69.693  1.00  0.00    -0.113 OA 
HETATM    5  C   UNL     1      -7.580  11.648  68.041  1.00  0.00    -0.117 C  
HETATM    6  C   UNL     1      -8.397  11.943  66.997  1.00  0.00    -0.178 C  
HETATM    7  C   UNL     1      -7.177  10.301  68.586  1.00  0.00    -0.081 C  
HETATM    8  N   UNL     1      -8.882  11.001  66.070  1.00  0.00    -0.188 N  
HETATM    9  C   UNL     1      -9.863  11.318  65.095  1.00  0.00    -0.252 C  
HETATM   10  C   UNL     1      -8.556  14.327  67.781  1.00  0.00    -0.177 C  
HETATM   11  O   UNL     1     -10.360  10.470  64.342  1.00  0.00    -0.341 OA 
HETATM   12  O   UNL     1     -10.598  14.699  65.899  1.00  0.00    -0.289 OA 
HETATM   13  N   UNL     1     -10.258  12.643  64.978  1.00  0.00    -0.287 N  
HETATM   14  C   UNL     1      -8.905  13.339  66.904  1.00  0.00    -0.186 C  
HETATM   15  C   UNL     1      -9.964  13.641  65.889  1.00  0.00    -0.291 C  
ENDROOT
BRANCH   8  16
HETATM   16  C   UNL     1      -8.296   9.686  65.844  1.00  0.00    -0.120 A  
HETATM   17  C   UNL     1      -7.023   9.582  65.260  1.00  0.00    -0.091 A  
HETATM   18  C   UNL     1      -6.837   7.295  65.991  1.00  0.00    -0.057 A  
HETATM   19  C   UNL     1      -8.147   7.332  66.482  1.00  0.00    -0.114 A  
HETATM   20  C   UNL     1      -8.878   8.531  66.399  1.00  0.00    -0.178 A  
HETATM   21  C   UNL     1      -6.290   8.402  65.347  1.00  0.00    -0.048 A  
BRANCH  19  22
HETATM   22  N   UNL     1      -8.628   6.142  67.078  1.00  0.00    -0.108 N  
HETATM   23  H   UNL     1      -8.890   5.391  66.440  1.00  0.00     0.000 HD 
HETATM   24  C   UNL     1      -9.325   4.494  68.708  1.00  0.00    -0.206 C  
HETATM   25  O   UNL     1      -8.508   6.642  69.343  1.00  0.00    -0.129 OA 
HETATM   26  C   UNL     1      -8.783   5.883  68.424  1.00  0.00    -0.112 C  
ENDBRANCH  19  22
ENDBRANCH   8  16
BRANCH  13  27
HETATM   27  C   UNL     1     -11.279  12.954  63.977  1.00  0.00    -0.412 C  
HETATM   28  C   UNL     1     -12.632  12.283  64.037  1.00  0.00    -0.521 C  
HETATM   29  C   UNL     1     -12.531  13.759  64.252  1.00  0.00    -0.308 C  
ENDBRANCH  13  27
BRANCH  10  30
HETATM   30  N   UNL     1      -9.046  15.625  67.771  1.00  0.00    -0.181 NA 
HETATM   31  H   UNL     1     -10.007  15.729  68.097  1.00  0.00     0.000 HD 
BRANCH  30  32
HETATM   32  C   UNL     1      -8.414  16.824  67.377  1.00  0.00    -0.189 A  
HETATM   33  C   UNL     1      -7.375  16.879  66.443  1.00  0.00    -0.302 A  
HETATM   34  C   UNL     1      -6.661  18.070  66.232  1.00  0.00    -0.276 A  
HETATM   35  C   UNL     1      -6.990  19.225  66.942  1.00  0.00    -0.198 A  
HETATM   36  C   UNL     1      -8.071  19.221  67.814  1.00  0.00    -0.321 A  
HETATM   37  I   UNL     1      -5.821  20.935  66.746  1.00  0.00    -0.378 I  
HETATM   38  C   UNL     1      -8.763  18.028  68.023  1.00  0.00    -0.261 A  
HETATM   39  F   UNL     1      -9.786  18.033  68.894  1.00  0.00    -0.308 F  
ENDBRANCH  30  32
ENDBRANCH  10  30
TORSDOF 5
ENDMDL
MODEL       51
REMARK 921   NORMALIZED FREE ENERGY PREDICTED BY IDOCK:   -5.85 KCAL/MOL
REMARK 922        TOTAL FREE ENERGY PREDICTED BY IDOCK:   -7.78 KCAL/MOL
REMARK 923 INTER-LIGAND FREE ENERGY PREDICTED BY IDOCK:   -8.34 KCAL/MOL
REMARK 924 INTRA-LIGAND FREE ENERGY PREDICTED BY IDOCK:    0.57 KCAL/MOL
REMARK 927      BINDING AFFINITY PREDICTED BY RF-SCORE:    0.00 PKD
ROOT
HETATM    1  C   UNL     1     -10.635  11.104  64.675  1.00  0.00    -0.318 C  
HETATM    2  N   UNL     1     -10.103  12.321  65.278  1.00  0.00    -0.276 N  
HETATM    3  C   UNL     1     -10.589  13.506  64.756  1.00  0.00    -0.417 C  
HETATM    4  O   UNL     1     -11.235  13.564  63.709  1.00  0.00    -0.223 OA 
HETATM    5  C   UNL     1     -10.372  14.745  65.565  1.00  0.00    -0.387 C  
HETATM    6  C   UNL     1      -9.455  14.745  66.566  1.00  0.00    -0.293 C  
HETATM    7  C   UNL     1     -11.354  15.819  65.170  1.00  0.00    -0.155 C  
HETATM    8  N   UNL     1      -9.105  15.874  67.330  1.00  0.00    -0.194 N  
HETATM    9  C   UNL     1      -8.269  15.799  68.474  1.00  0.00    -0.166 C  
HETATM   10  C   UNL     1      -9.183  12.256  66.332  1.00  0.00    -0.203 C  
HETATM   11  O   UNL     1      -8.037  16.773  69.203  1.00  0.00    -0.214 OA 
HETATM   12  O   UNL     1      -7.695  12.301  68.706  1.00  0.00    -0.100 OA 
HETATM   13  N   UNL     1      -7.677  14.579  68.767  1.00  0.00    -0.136 N  
HETATM   14  C   UNL     1      -8.874  13.432  66.957  1.00  0.00    -0.217 C  
HETATM   15  C   UNL     1      -8.022  13.371  68.187  1.00  0.00    -0.150 C  
ENDROOT
BRANCH   8  16
HETATM   16  C   UNL     1      -9.355  17.253  66.930  1.00  0.00    -0.255 A  
HETATM   17  C   UNL     1     -10.508  17.912  67.388  1.00  0.00    -0.390 A  
HETATM   18  C   UNL     1      -9.571  20.046  66.779  1.00  0.00    -0.543 A  
HETATM   19  C   UNL     1      -8.460  19.411  66.212  1.00  0.00    -0.334 A  
HETATM   20  C   UNL     1      -8.360  18.009  66.283  1.00  0.00    -0.229 A  
HETATM   21  C   UNL     1     -10.610  19.299  67.329  1.00  0.00    -0.590 A  
BRANCH  19  22
HETATM   22  N   UNL     1      -7.481  20.254  65.636  1.00  0.00    -0.514 N  
HETATM   23  H   UNL     1      -7.604  21.256  65.782  1.00  0.00     0.000 HD 
HETATM   24  C   UNL     1      -5.534  21.048  64.437  1.00  0.00    -0.259 C  
HETATM   25  O   UNL     1      -6.045  18.728  64.633  1.00  0.00    -0.395 OA 
HETATM   26  C   UNL     1      -6.377  19.874  64.899  1.00  0.00    -0.283 C  
ENDBRANCH  19  22
ENDBRANCH   8  16
BRANCH  13  27
HETATM   27  C   UNL     1      -6.827  14.511  69.956  1.00  0.00    -0.070 C  
HETATM   28  C   UNL     1      -5.475  13.839  69.887  1.00  0.00    -0.103 C  
HETATM   29  C   UNL     1      -5.555  15.309  70.147  1.00  0.00    -0.130 C  
ENDBRANCH  13  27
BRANCH  10  30
HETATM   30  N   UNL     1      -8.713  11.001  66.695  1.00  0.00    -0.155 NA 
HETATM   31  H   UNL     1      -9.013  10.675  67.614  1.00  0.00     0.000 HD 
BRANCH  30  32
HETATM   32  C   UNL     1      -7.882  10.110  65.982  1.00  0.00    -0.122 A  
HETATM   33  C   UNL     1      -7.737  10.133  64.592  1.00  0.00    -0.141 A  
HETATM   34  C   UNL     1      -7.049   9.107  63.924  1.00  0.00    -0.093 A  
HETATM   35  C   UNL     1      -6.484   8.053  64.643  1.00  0.00    -0.056 A  
HETATM   36  C   UNL     1      -6.541   8.048  66.031  1.00  0.00    -0.046 A  
HETATM   37  I   UNL     1      -5.613   6.455  63.635  1.00  0.00    -0.023 I  
HETATM   38  C   UNL     1      -7.238   9.067  66.680  1.00  0.00    -0.085 A  
HETATM   39  F   UNL     1      -7.313   9.030  68.021  1.00  0.00    -0.079 F  
ENDBRANCH  30  32
ENDBRANCH  10  30
TORSDOF 5
ENDMDL
MODEL       52
REMARK 921   NORMALIZED FREE ENERGY PREDICTED BY IDOCK:   -5.84 KCAL/MOL
REMARK 922        TOTAL FREE ENERGY PREDICTED BY IDOCK:   -7.76 KCAL/MOL
REMARK 923 INTER-LIGAND FREE ENERGY PREDICTED BY IDOCK:   -7.29 KCAL/MOL
REMARK 924 INTRA-LIGAND FREE ENERGY PREDICTED BY IDOCK:   -0.48 KCAL/MOL
REMARK 927      BINDING AFFINITY PREDICTED BY RF-SCORE:    0.00 PKD
ROOT
HETATM    1  C   UNL     1      -9.022   8.781  67.273  1.00  0.00    -0.132 C  
HETATM    2  N   UNL     1      -9.181  10.085  67.906  1.00  0.00    -0.137 N  
HETATM    3  C   UNL     1      -8.166  10.994  67.663  1.00  0.00    -0.117 C  
HETATM    4  O   UNL     1      -7.090  10.678  67.155  1.00  0.00    -0.086 OA 
HETATM    5  C   UNL     1      -8.451  12.430  67.967  1.00  0.00    -0.176 C  
HETATM    6  C   UNL     1      -9.509  12.756  68.754  1.00  0.00     0.124 C  
HETATM    7  C   UNL     1      -7.514  13.333  67.205  1.00  0.00     0.043 C  
HETATM    8  N   UNL     1      -9.817  14.062  69.177  1.00  0.00     0.026 N  
HETATM    9  C   UNL     1     -11.020  14.385  69.857  1.00  0.00    -0.061 C  
HETATM   10  C   UNL     1     -10.311  10.374  68.681  1.00  0.00    -0.184 C  
HETATM   11  O   UNL     1     -11.338  15.546  70.146  1.00  0.00    -0.269 OA 
HETATM   12  O   UNL     1     -12.688  11.249  69.879  1.00  0.00    -0.131 OA 
HETATM   13  N   UNL     1     -11.858  13.343  70.226  1.00  0.00    -0.287 N  
HETATM   14  C   UNL     1     -10.470  11.670  69.087  1.00  0.00    -0.099 C  
HETATM   15  C   UNL     1     -11.747  12.040  69.775  1.00  0.00    -0.319 C  
ENDROOT
BRANCH   8  16
HETATM   16  C   UNL     1      -8.876  15.175  69.180  1.00  0.00    -0.221 A  
HETATM   17  C   UNL     1      -7.791  15.166  70.073  1.00  0.00     0.227 A  
HETATM   18  C   UNL     1      -6.690  16.891  68.803  1.00  0.00    -0.190 A  
HETATM   19  C   UNL     1      -7.804  17.003  67.964  1.00  0.00    -0.182 A  
HETATM   20  C   UNL     1      -8.902  16.146  68.162  1.00  0.00    -0.184 A  
HETATM   21  C   UNL     1      -6.697  16.005  69.877  1.00  0.00    -0.031 A  
BRANCH  19  22
HETATM   22  N   UNL     1      -7.717  17.965  66.929  1.00  0.00    -0.210 N  
HETATM   23  H   UNL     1      -7.617  17.602  65.982  1.00  0.00     0.000 HD 
HETATM   24  C   UNL     1      -7.637  20.067  65.732  1.00  0.00    -0.284 C  
HETATM   25  O   UNL     1      -7.889  19.964  68.100  1.00  0.00    -0.306 OA 
HETATM   26  C   UNL     1      -7.754  19.339  67.058  1.00  0.00    -0.244 C  
ENDBRANCH  19  22
ENDBRANCH   8  16
BRANCH  13  27
HETATM   27  C   UNL     1     -13.100  13.690  70.916  1.00  0.00    -0.114 C  
HETATM   28  C   UNL     1     -13.581  12.856  72.081  1.00  0.00    -0.589 C  
HETATM   29  C   UNL     1     -13.172  14.275  72.310  1.00  0.00    -0.508 C  
ENDBRANCH  13  27
BRANCH  10  30
HETATM   30  N   UNL     1     -11.206   9.339  68.916  1.00  0.00    -0.444 NA 
HETATM   31  H   UNL     1     -11.930   9.222  68.207  1.00  0.00     0.000 HD 
BRANCH  30  32
HETATM   32  C   UNL     1     -11.264   8.425  69.990  1.00  0.00    -0.085 A  
HETATM   33  C   UNL     1     -11.105   8.795  71.329  1.00  0.00    -0.348 A  
HETATM   34  C   UNL     1     -10.985   7.821  72.334  1.00  0.00    -0.368 A  
HETATM   35  C   UNL     1     -11.039   6.465  72.012  1.00  0.00    -0.265 A  
HETATM   36  C   UNL     1     -11.279   6.070  70.702  1.00  0.00    -0.347 A  
HETATM   37  I   UNL     1     -10.693   5.032  73.480  1.00  0.00    -0.374 I  
HETATM   38  C   UNL     1     -11.384   7.048  69.712  1.00  0.00    -0.182 A  
HETATM   39  F   UNL     1     -11.584   6.648  68.445  1.00  0.00    -0.235 F  
ENDBRANCH  30  32
ENDBRANCH  10  30
TORSDOF 5
ENDMDL
MODEL       53
REMARK 921   NORMALIZED FREE ENERGY PREDICTED BY IDOCK:   -5.81 KCAL/MOL
REMARK 922        TOTAL FREE ENERGY PREDICTED BY IDOCK:   -7.72 KCAL/MOL
REMARK 923 INTER-LIGAND FREE ENERGY PREDICTED BY IDOCK:   -7.38 KCAL/MOL
REMARK 924 INTRA-LIGAND FREE ENERGY PREDICTED BY IDOCK:   -0.33 KCAL/MOL
REMARK 927      BINDING AFFINITY PREDICTED BY RF-SCORE:    0.00 PKD
ROOT
HETATM    1  C   UNL     1      -8.716   5.062  65.124  1.00  0.00    -0.150 C  
HETATM    2  N   UNL     1      -9.000   6.169  66.030  1.00  0.00    -0.156 N  
HETATM    3  C   UNL     1      -8.702   7.429  65.544  1.00  0.00    -0.026 C  
HETATM    4  O   UNL     1      -8.029   7.616  64.530  1.00  0.00    -0.135 OA 
HETATM    5  C   UNL     1      -9.306   8.595  66.260  1.00  0.00    -0.282 C  
HETATM    6  C   UNL     1      -9.822   8.429  67.505  1.00  0.00    -0.181 C  
HETATM    7  C   UNL     1      -9.338   9.811  65.369  1.00  0.00    -0.311 C  
HETATM    8  N   UNL     1     -10.332   9.469  68.305  1.00  0.00    -0.198 N  
HETATM    9  C   UNL     1     -11.012   9.234  69.528  1.00  0.00    -0.151 C  
HETATM   10  C   UNL     1      -9.564   5.937  67.292  1.00  0.00    -0.116 C  
HETATM   11  O   UNL     1     -11.545  10.139  70.185  1.00  0.00    -0.258 OA 
HETATM   12  O   UNL     1     -11.075   5.685  69.637  1.00  0.00    -0.328 OA 
HETATM   13  N   UNL     1     -11.059   7.933  70.006  1.00  0.00    -0.211 N  
HETATM   14  C   UNL     1      -9.964   7.033  68.002  1.00  0.00    -0.178 C  
HETATM   15  C   UNL     1     -10.715   6.808  69.278  1.00  0.00    -0.253 C  
ENDROOT
BRANCH   8  16
HETATM   16  C   UNL     1     -10.038  10.883  68.110  1.00  0.00    -0.173 A  
HETATM   17  C   UNL     1      -8.761  11.378  68.422  1.00  0.00    -0.157 A  
HETATM   18  C   UNL     1      -9.189  13.379  67.152  1.00  0.00    -0.240 A  
HETATM   19  C   UNL     1     -10.505  12.965  66.919  1.00  0.00    -0.246 A  
HETATM   20  C   UNL     1     -10.929  11.716  67.408  1.00  0.00    -0.313 A  
HETATM   21  C   UNL     1      -8.331  12.608  67.933  1.00  0.00    -0.172 A  
BRANCH  19  22
HETATM   22  N   UNL     1     -11.312  13.839  66.153  1.00  0.00    -0.308 N  
HETATM   23  H   UNL     1     -11.870  14.515  66.675  1.00  0.00     0.000 HD 
HETATM   24  C   UNL     1     -12.389  14.952  64.293  1.00  0.00    -0.300 C  
HETATM   25  O   UNL     1     -10.833  13.174  63.979  1.00  0.00    -0.390 OA 
HETATM   26  C   UNL     1     -11.430  13.881  64.778  1.00  0.00    -0.362 C  
ENDBRANCH  19  22
ENDBRANCH   8  16
BRANCH  13  27
HETATM   27  C   UNL     1     -11.774   7.703  71.262  1.00  0.00    -0.284 C  
HETATM   28  C   UNL     1     -11.169   6.822  72.331  1.00  0.00    -0.300 C  
HETATM   29  C   UNL     1     -11.364   8.279  72.600  1.00  0.00    -0.421 C  
ENDBRANCH  13  27
BRANCH  10  30
HETATM   30  N   UNL     1      -9.726   4.616  67.686  1.00  0.00    -0.166 NA 
HETATM   31  H   UNL     1     -10.559   4.153  67.320  1.00  0.00     0.000 HD 
BRANCH  30  32
HETATM   32  C   UNL     1      -8.913   3.816  68.517  1.00  0.00    -0.124 A  
HETATM   33  C   UNL     1      -9.349   2.629  69.113  1.00  0.00    -0.198 A  
HETATM   34  C   UNL     1      -8.561   1.978  70.077  1.00  0.00    -0.097 A  
HETATM   35  C   UNL     1      -7.320   2.499  70.443  1.00  0.00    -0.033 A  
HETATM   36  C   UNL     1      -6.826   3.630  69.807  1.00  0.00    -0.037 A  
HETATM   37  I   UNL     1      -6.238   1.622  71.988  1.00  0.00    -0.015 I  
HETATM   38  C   UNL     1      -7.624   4.274  68.861  1.00  0.00    -0.055 A  
HETATM   39  F   UNL     1      -7.145   5.386  68.278  1.00  0.00    -0.059 F  
ENDBRANCH  30  32
ENDBRANCH  10  30
TORSDOF 5
ENDMDL
MODEL       54
REMARK 921   NORMALIZED FREE ENERGY PREDICTED BY IDOCK:   -5.80 KCAL/MOL
REMARK 922        TOTAL FREE ENERGY PREDICTED BY IDOCK:   -7.70 KCAL/MOL
REMARK 923 INTER-LIGAND FREE ENERGY PREDICTED BY IDOCK:   -7.81 KCAL/MOL
REMARK 924 INTRA-LIGAND FREE ENERGY PREDICTED BY IDOCK:    0.10 KCAL/MOL
REMARK 927      BINDING AFFINITY PREDICTED BY RF-SCORE:    0.00 PKD
ROOT
HETATM    1  C   UNL     1     -13.047   8.675  72.782  1.00  0.00    -0.086 C  
HETATM    2  N   UNL     1     -12.052   9.038  71.781  1.00  0.00    -0.343 N  
HETATM    3  C   UNL     1     -12.523   9.781  70.713  1.00  0.00    -0.213 C  
HETATM    4  O   UNL     1     -13.722   9.932  70.478  1.00  0.00    -0.018 OA 
HETATM    5  C   UNL     1     -11.507  10.484  69.871  1.00  0.00    -0.384 C  
HETATM    6  C   UNL     1     -10.200  10.125  69.951  1.00  0.00    -0.237 C  
HETATM    7  C   UNL     1     -12.140  11.621  69.109  1.00  0.00    -0.315 C  
HETATM    8  N   UNL     1      -9.175  10.654  69.144  1.00  0.00    -0.178 N  
HETATM    9  C   UNL     1      -7.801  10.379  69.369  1.00  0.00    -0.161 C  
HETATM   10  C   UNL     1     -10.709   8.667  71.934  1.00  0.00    -0.344 C  
HETATM   11  O   UNL     1      -6.893  10.917  68.722  1.00  0.00    -0.061 OA 
HETATM   12  O   UNL     1      -7.947   8.387  72.306  1.00  0.00    -0.131 OA 
HETATM   13  N   UNL     1      -7.476   9.449  70.346  1.00  0.00    -0.119 N  
HETATM   14  C   UNL     1      -9.814   9.198  71.049  1.00  0.00    -0.366 C  
HETATM   15  C   UNL     1      -8.357   8.949  71.288  1.00  0.00    -0.169 C  
ENDROOT
BRANCH   8  16
HETATM   16  C   UNL     1      -9.391  11.343  67.878  1.00  0.00    -0.164 A  
HETATM   17  C   UNL     1      -9.857  10.623  66.765  1.00  0.00    -0.240 A  
HETATM   18  C   UNL     1     -10.458  12.671  65.650  1.00  0.00    -0.298 A  
HETATM   19  C   UNL     1      -9.898  13.418  66.692  1.00  0.00    -0.278 A  
HETATM   20  C   UNL     1      -9.357  12.748  67.804  1.00  0.00    -0.199 A  
HETATM   21  C   UNL     1     -10.403  11.280  65.666  1.00  0.00    -0.310 A  
BRANCH  19  22
HETATM   22  N   UNL     1      -9.963  14.826  66.561  1.00  0.00    -0.261 N  
HETATM   23  H   UNL     1      -9.338  15.245  65.873  1.00  0.00     0.000 HD 
HETATM   24  C   UNL     1     -10.583  17.146  66.859  1.00  0.00    -0.209 C  
HETATM   25  O   UNL     1     -11.604  15.389  68.106  1.00  0.00    -0.347 OA 
HETATM   26  C   UNL     1     -10.776  15.695  67.260  1.00  0.00    -0.305 C  
ENDBRANCH  19  22
ENDBRANCH   8  16
BRANCH  13  27
HETATM   27  C   UNL     1      -6.056   9.183  70.576  1.00  0.00    -0.043 C  
HETATM   28  C   UNL     1      -5.154  10.274  71.106  1.00  0.00    -0.072 C  
HETATM   29  C   UNL     1      -5.417   9.063  71.943  1.00  0.00    -0.059 C  
ENDBRANCH  13  27
BRANCH  10  30
HETATM   30  N   UNL     1     -10.393   7.845  73.008  1.00  0.00    -0.338 NA 
HETATM   31  H   UNL     1     -10.161   8.332  73.874  1.00  0.00     0.000 HD 
BRANCH  30  32
HETATM   32  C   UNL     1     -10.344   6.436  73.081  1.00  0.00    -0.226 A  
HETATM   33  C   UNL     1      -9.960   5.736  74.228  1.00  0.00    -0.252 A  
HETATM   34  C   UNL     1      -9.749   4.348  74.185  1.00  0.00    -0.149 A  
HETATM   35  C   UNL     1      -9.935   3.642  72.995  1.00  0.00    -0.142 A  
HETATM   36  C   UNL     1     -10.397   4.300  71.863  1.00  0.00    -0.140 A  
HETATM   37  I   UNL     1      -9.459   1.619  72.900  1.00  0.00    -0.137 I  
HETATM   38  C   UNL     1     -10.591   5.680  71.916  1.00  0.00    -0.232 A  
HETATM   39  F   UNL     1     -11.006   6.306  70.803  1.00  0.00    -0.280 F  
ENDBRANCH  30  32
ENDBRANCH  10  30
TORSDOF 5
ENDMDL
MODEL       55
REMARK 921   NORMALIZED FREE ENERGY PREDICTED BY IDOCK:   -5.77 KCAL/MOL
REMARK 922        TOTAL FREE ENERGY PREDICTED BY IDOCK:   -7.67 KCAL/MOL
REMARK 923 INTER-LIGAND FREE ENERGY PREDICTED BY IDOCK:   -7.57 KCAL/MOL
REMARK 924 INTRA-LIGAND FREE ENERGY PREDICTED BY IDOCK:   -0.09 KCAL/MOL
REMARK 927      BINDING AFFINITY PREDICTED BY RF-SCORE:    0.00 PKD
ROOT
HETATM    1  C   UNL     1     -12.531  11.954  70.557  1.00  0.00    -0.215 C  
HETATM    2  N   UNL     1     -11.524  11.180  69.838  1.00  0.00    -0.296 N  
HETATM    3  C   UNL     1     -11.052  10.059  70.496  1.00  0.00    -0.331 C  
HETATM    4  O   UNL     1     -11.268   9.840  71.689  1.00  0.00    -0.331 OA 
HETATM    5  C   UNL     1     -10.319   9.047  69.676  1.00  0.00    -0.217 C  
HETATM    6  C   UNL     1      -9.852   9.385  68.446  1.00  0.00    -0.160 C  
HETATM    7  C   UNL     1     -10.321   7.703  70.359  1.00  0.00    -0.214 C  
HETATM    8  N   UNL     1      -9.074   8.545  67.628  1.00  0.00    -0.135 N  
HETATM    9  C   UNL     1      -8.747   8.870  66.285  1.00  0.00    -0.141 C  
HETATM   10  C   UNL     1     -11.106  11.562  68.557  1.00  0.00    -0.236 C  
HETATM   11  O   UNL     1      -8.145   8.091  65.533  1.00  0.00    -0.112 OA 
HETATM   12  O   UNL     1     -10.493  11.932  65.848  1.00  0.00    -0.242 OA 
HETATM   13  N   UNL     1      -9.107  10.124  65.814  1.00  0.00    -0.163 N  
HETATM   14  C   UNL     1     -10.299  10.688  67.883  1.00  0.00    -0.231 C  
HETATM   15  C   UNL     1      -9.971  10.993  66.455  1.00  0.00    -0.222 C  
ENDROOT
BRANCH   8  16
HETATM   16  C   UNL     1      -8.333   7.383  68.101  1.00  0.00    -0.124 A  
HETATM   17  C   UNL     1      -7.140   7.565  68.821  1.00  0.00    -0.080 A  
HETATM   18  C   UNL     1      -7.226   5.288  69.603  1.00  0.00    -0.060 A  
HETATM   19  C   UNL     1      -8.351   5.044  68.807  1.00  0.00    -0.084 A  
HETATM   20  C   UNL     1      -8.898   6.095  68.049  1.00  0.00    -0.111 A  
HETATM   21  C   UNL     1      -6.599   6.532  69.581  1.00  0.00    -0.048 A  
BRANCH  19  22
HETATM   22  N   UNL     1      -8.888   3.736  68.864  1.00  0.00    -0.100 N  
HETATM   23  H   UNL     1      -9.298   3.453  69.753  1.00  0.00     0.000 HD 
HETATM   24  C   UNL     1      -9.577   1.495  68.261  1.00  0.00    -0.194 C  
HETATM   25  O   UNL     1      -8.502   2.952  66.711  1.00  0.00    -0.091 OA 
HETATM   26  C   UNL     1      -8.919   2.800  67.850  1.00  0.00    -0.161 C  
ENDBRANCH  19  22
ENDBRANCH   8  16
BRANCH  13  27
HETATM   27  C   UNL     1      -8.775  10.441  64.425  1.00  0.00    -0.198 C  
HETATM   28  C   UNL     1      -8.806   9.359  63.369  1.00  0.00    -0.199 C  
HETATM   29  C   UNL     1      -9.779  10.492  63.293  1.00  0.00    -0.361 C  
ENDBRANCH  13  27
BRANCH  10  30
HETATM   30  N   UNL     1     -11.596  12.759  68.055  1.00  0.00    -0.320 NA 
HETATM   31  H   UNL     1     -12.500  12.696  67.587  1.00  0.00     0.000 HD 
BRANCH  30  32
HETATM   32  C   UNL     1     -11.031  14.052  68.095  1.00  0.00    -0.252 A  
HETATM   33  C   UNL     1     -10.191  14.496  69.120  1.00  0.00    -0.172 A  
HETATM   34  C   UNL     1      -9.812  15.846  69.205  1.00  0.00    -0.247 A  
HETATM   35  C   UNL     1     -10.258  16.765  68.254  1.00  0.00    -0.295 A  
HETATM   36  C   UNL     1     -11.024  16.335  67.178  1.00  0.00    -0.114 A  
HETATM   37  I   UNL     1      -9.830  18.788  68.481  1.00  0.00    -0.432 I  
HETATM   38  C   UNL     1     -11.403  14.994  67.113  1.00  0.00    -0.320 A  
HETATM   39  F   UNL     1     -12.172  14.601  66.085  1.00  0.00    -0.363 F  
ENDBRANCH  30  32
ENDBRANCH  10  30
TORSDOF 5
ENDMDL
MODEL       56
REMARK 921   NORMALIZED FREE ENERGY PREDICTED BY IDOCK:   -5.69 KCAL/MOL
REMARK 922        TOTAL FREE ENERGY PREDICTED BY IDOCK:   -7.56 KCAL/MOL
REMARK 923 INTER-LIGAND FREE ENERGY PREDICTED BY IDOCK:   -6.96 KCAL/MOL
REMARK 924 INTRA-LIGAND FREE ENERGY PREDICTED BY IDOCK:   -0.60 KCAL/MOL
REMARK 927      BINDING AFFINITY PREDICTED BY RF-SCORE:    0.00 PKD
ROOT
HETATM    1  C   UNL     1      -6.829  10.236  69.760  1.00  0.00    -0.120 C  
HETATM    2  N   UNL     1      -7.350  11.445  69.132  1.00  0.00    -0.107 N  
HETATM    3  C   UNL     1      -6.647  12.606  69.398  1.00  0.00    -0.067 C  
HETATM    4  O   UNL     1      -5.791  12.685  70.280  1.00  0.00    -0.149 OA 
HETATM    5  C   UNL     1      -6.904  13.777  68.505  1.00  0.00    -0.097 C  
HETATM    6  C   UNL     1      -8.008  13.794  67.715  1.00  0.00    -0.169 C  
HETATM    7  C   UNL     1      -5.756  14.754  68.562  1.00  0.00    -0.099 C  
HETATM    8  N   UNL     1      -8.395  14.877  66.905  1.00  0.00    -0.209 N  
HETATM    9  C   UNL     1      -9.459  14.795  65.969  1.00  0.00    -0.264 C  
HETATM   10  C   UNL     1      -8.475  11.393  68.299  1.00  0.00    -0.154 C  
HETATM   11  O   UNL     1      -9.740  15.715  65.189  1.00  0.00    -0.302 OA 
HETATM   12  O   UNL     1     -10.421  11.391  66.283  1.00  0.00    -0.239 OA 
HETATM   13  N   UNL     1     -10.220  13.636  65.951  1.00  0.00    -0.304 N  
HETATM   14  C   UNL     1      -8.789  12.531  67.610  1.00  0.00    -0.179 C  
HETATM   15  C   UNL     1      -9.884  12.457  66.592  1.00  0.00    -0.223 C  
ENDROOT
BRANCH   8  16
HETATM   16  C   UNL     1      -7.928  16.248  67.076  1.00  0.00    -0.213 A  
HETATM   17  C   UNL     1      -6.937  16.756  66.221  1.00  0.00    -0.028 A  
HETATM   18  C   UNL     1      -7.465  19.008  66.893  1.00  0.00    -0.230 A  
HETATM   19  C   UNL     1      -8.379  18.526  67.836  1.00  0.00    -0.265 A  
HETATM   20  C   UNL     1      -8.602  17.140  67.931  1.00  0.00    -0.214 A  
HETATM   21  C   UNL     1      -6.718  18.127  66.115  1.00  0.00    -0.292 A  
BRANCH  19  22
HETATM   22  N   UNL     1      -9.056  19.498  68.611  1.00  0.00    -0.361 N  
HETATM   23  H   UNL     1      -8.549  19.870  69.413  1.00  0.00     0.000 HD 
HETATM   24  C   UNL     1     -10.733  21.039  69.430  1.00  0.00     0.966 C  
HETATM   25  O   UNL     1     -11.079  19.701  67.487  1.00  0.00    -0.358 OA 
HETATM   26  C   UNL     1     -10.324  20.001  68.401  1.00  0.00    -0.330 C  
ENDBRANCH  19  22
ENDBRANCH   8  16
BRANCH  13  27
HETATM   27  C   UNL     1     -11.306  13.559  64.973  1.00  0.00    -0.320 C  
HETATM   28  C   UNL     1     -12.727  13.325  65.431  1.00  0.00    -0.460 C  
HETATM   29  C   UNL     1     -12.366  14.622  64.783  1.00  0.00    -0.362 C  
ENDBRANCH  13  27
BRANCH  10  30
HETATM   30  N   UNL     1      -9.136  10.177  68.193  1.00  0.00    -0.127 NA 
HETATM   31  H   UNL     1      -9.009   9.690  67.305  1.00  0.00     0.000 HD 
BRANCH  30  32
HETATM   32  C   UNL     1      -9.958   9.513  69.129  1.00  0.00    -0.183 A  
HETATM   33  C   UNL     1      -9.850   8.151  69.421  1.00  0.00    -0.182 A  
HETATM   34  C   UNL     1     -10.813   7.508  70.217  1.00  0.00    -0.257 A  
HETATM   35  C   UNL     1     -11.888   8.227  70.741  1.00  0.00    -0.162 A  
HETATM   36  C   UNL     1     -11.974   9.598  70.536  1.00  0.00    -0.241 A  
HETATM   37  I   UNL     1     -13.396   7.235  71.776  1.00  0.00    -0.094 I  
HETATM   38  C   UNL     1     -11.018  10.220  69.734  1.00  0.00    -0.289 A  
HETATM   39  F   UNL     1     -11.134  11.541  69.517  1.00  0.00    -0.271 F  
ENDBRANCH  30  32
ENDBRANCH  10  30
TORSDOF 5
ENDMDL
MODEL       57
REMARK 921   NORMALIZED FREE ENERGY PREDICTED BY IDOCK:   -5.64 KCAL/MOL
REMARK 922        TOTAL FREE ENERGY PREDICTED BY IDOCK:   -7.50 KCAL/MOL
REMARK 923 INTER-LIGAND FREE ENERGY PREDICTED BY IDOCK:   -7.46 KCAL/MOL
REMARK 924 INTRA-LIGAND FREE ENERGY PREDICTED BY IDOCK:   -0.04 KCAL/MOL
REMARK 927      BINDING AFFINITY PREDICTED BY RF-SCORE:    0.00 PKD
ROOT
HETATM    1  C   UNL     1     -11.786   9.190  71.691  1.00  0.00    -0.378 C  
HETATM    2  N   UNL     1     -11.122   9.814  70.553  1.00  0.00    -0.296 N  
HETATM    3  C   UNL     1     -11.863  10.767  69.879  1.00  0.00    -0.335 C  
HETATM    4  O   UNL     1     -13.072  10.925  70.054  1.00  0.00    -0.067 OA 
HETATM    5  C   UNL     1     -11.119  11.685  68.962  1.00  0.00    -0.297 C  
HETATM    6  C   UNL     1      -9.861  11.366  68.563  1.00  0.00    -0.198 C  
HETATM    7  C   UNL     1     -11.910  12.944  68.711  1.00  0.00    -0.353 C  
HETATM    8  N   UNL     1      -9.105  12.106  67.635  1.00  0.00    -0.175 N  
HETATM    9  C   UNL     1      -7.737  11.837  67.370  1.00  0.00    -0.151 C  
HETATM   10  C   UNL     1      -9.809   9.466  70.209  1.00  0.00    -0.243 C  
HETATM   11  O   UNL     1      -7.045  12.545  66.627  1.00  0.00     0.209 OA 
HETATM   12  O   UNL     1      -7.072   9.209  69.665  1.00  0.00    -0.055 OA 
HETATM   13  N   UNL     1      -7.170  10.717  67.959  1.00  0.00    -0.086 N  
HETATM   14  C   UNL     1      -9.200  10.222  69.247  1.00  0.00    -0.215 C  
HETATM   15  C   UNL     1      -7.747   9.978  68.976  1.00  0.00    -0.094 C  
ENDROOT
BRANCH   8  16
HETATM   16  C   UNL     1      -9.663  13.063  66.688  1.00  0.00    -0.256 A  
HETATM   17  C   UNL     1     -10.588  12.629  65.724  1.00  0.00    -0.296 A  
HETATM   18  C   UNL     1     -11.266  14.902  65.302  1.00  0.00    -0.369 A  
HETATM   19  C   UNL     1     -10.276  15.372  66.173  1.00  0.00    -0.308 A  
HETATM   20  C   UNL     1      -9.469  14.447  66.860  1.00  0.00    -0.268 A  
HETATM   21  C   UNL     1     -11.397  13.539  65.048  1.00  0.00    -0.334 A  
BRANCH  19  22
HETATM   22  N   UNL     1     -10.193  16.776  66.330  1.00  0.00    -0.322 N  
HETATM   23  H   UNL     1      -9.853  17.302  65.525  1.00  0.00     0.000 HD 
HETATM   24  C   UNL     1     -10.310  19.006  67.264  1.00  0.00    -0.505 C  
HETATM   25  O   UNL     1     -10.964  17.075  68.501  1.00  0.00    -0.335 OA 
HETATM   26  C   UNL     1     -10.521  17.514  67.449  1.00  0.00    -0.342 C  
ENDBRANCH  19  22
ENDBRANCH   8  16
BRANCH  13  27
HETATM   27  C   UNL     1      -5.756  10.457  67.687  1.00  0.00    -0.044 C  
HETATM   28  C   UNL     1      -5.328   9.143  67.074  1.00  0.00    -0.040 C  
HETATM   29  C   UNL     1      -5.143  10.411  66.304  1.00  0.00    -0.052 C  
ENDBRANCH  13  27
BRANCH  10  30
HETATM   30  N   UNL     1      -9.217   8.428  70.916  1.00  0.00    -0.151 NA 
HETATM   31  H   UNL     1      -8.882   8.674  71.848  1.00  0.00     0.000 HD 
BRANCH  30  32
HETATM   32  C   UNL     1      -9.008   7.085  70.538  1.00  0.00    -0.155 A  
HETATM   33  C   UNL     1      -7.893   6.337  70.930  1.00  0.00    -0.107 A  
HETATM   34  C   UNL     1      -7.645   5.072  70.373  1.00  0.00    -0.063 A  
HETATM   35  C   UNL     1      -8.519   4.534  69.427  1.00  0.00    -0.077 A  
HETATM   36  C   UNL     1      -9.677   5.218  69.082  1.00  0.00    -0.231 A  
HETATM   37  I   UNL     1      -8.055   2.738  68.486  1.00  0.00    -0.085 I  
HETATM   38  C   UNL     1      -9.905   6.479  69.634  1.00  0.00    -0.159 A  
HETATM   39  F   UNL     1     -11.013   7.142  69.265  1.00  0.00    -0.229 F  
ENDBRANCH  30  32
ENDBRANCH  10  30
TORSDOF 5
ENDMDL
MODEL       58
REMARK 921   NORMALIZED FREE ENERGY PREDICTED BY IDOCK:   -5.64 KCAL/MOL
REMARK 922        TOTAL FREE ENERGY PREDICTED BY IDOCK:   -7.50 KCAL/MOL
REMARK 923 INTER-LIGAND FREE ENERGY PREDICTED BY IDOCK:   -7.23 KCAL/MOL
REMARK 924 INTRA-LIGAND FREE ENERGY PREDICTED BY IDOCK:   -0.27 KCAL/MOL
REMARK 927      BINDING AFFINITY PREDICTED BY RF-SCORE:    0.00 PKD
ROOT
HETATM    1  C   UNL     1      -5.905  10.173  68.316  1.00  0.00    -0.041 C  
HETATM    2  N   UNL     1      -6.838  11.225  67.930  1.00  0.00    -0.066 N  
HETATM    3  C   UNL     1      -6.598  12.469  68.486  1.00  0.00    -0.077 C  
HETATM    4  O   UNL     1      -5.815  12.646  69.419  1.00  0.00    -0.080 OA 
HETATM    5  C   UNL     1      -7.275  13.640  67.850  1.00  0.00    -0.150 C  
HETATM    6  C   UNL     1      -8.322  13.440  67.010  1.00  0.00    -0.075 C  
HETATM    7  C   UNL     1      -6.558  14.922  68.194  1.00  0.00    -0.136 C  
HETATM    8  N   UNL     1      -9.088  14.468  66.428  1.00  0.00    -0.229 N  
HETATM    9  C   UNL     1     -10.064  14.225  65.427  1.00  0.00    -0.351 C  
HETATM   10  C   UNL     1      -7.881  10.965  67.031  1.00  0.00    -0.132 C  
HETATM   11  O   UNL     1     -10.671  15.135  64.846  1.00  0.00    -0.409 OA 
HETATM   12  O   UNL     1      -9.725  10.724  64.935  1.00  0.00    -0.230 OA 
HETATM   13  N   UNL     1     -10.355  12.907  65.108  1.00  0.00    -0.300 N  
HETATM   14  C   UNL     1      -8.595  12.041  66.584  1.00  0.00    -0.143 C  
HETATM   15  C   UNL     1      -9.606  11.813  65.502  1.00  0.00    -0.201 C  
ENDROOT
BRANCH   8  16
HETATM   16  C   UNL     1      -9.145  15.838  66.921  1.00  0.00    -0.235 A  
HETATM   17  C   UNL     1      -9.861  16.126  68.095  1.00  0.00    -0.227 A  
HETATM   18  C   UNL     1      -8.756  18.257  68.287  1.00  0.00    -0.302 A  
HETATM   19  C   UNL     1      -8.112  18.049  67.061  1.00  0.00    -0.225 A  
HETATM   20  C   UNL     1      -8.317  16.837  66.376  1.00  0.00    -0.344 A  
HETATM   21  C   UNL     1      -9.656  17.319  68.783  1.00  0.00    -0.269 A  
BRANCH  19  22
HETATM   22  N   UNL     1      -7.252  19.081  66.620  1.00  0.00    -0.209 N  
HETATM   23  H   UNL     1      -7.682  19.993  66.464  1.00  0.00     0.000 HD 
HETATM   24  C   UNL     1      -5.286  20.305  65.914  1.00  0.00    -0.194 C  
HETATM   25  O   UNL     1      -5.197  18.002  66.523  1.00  0.00    -0.129 OA 
HETATM   26  C   UNL     1      -5.896  18.994  66.376  1.00  0.00    -0.161 C  
ENDBRANCH  19  22
ENDBRANCH   8  16
BRANCH  13  27
HETATM   27  C   UNL     1     -11.354  12.671  64.066  1.00  0.00    -0.407 C  
HETATM   28  C   UNL     1     -12.801  12.439  64.438  1.00  0.00    -0.344 C  
HETATM   29  C   UNL     1     -12.426  13.662  63.665  1.00  0.00    -0.230 C  
ENDBRANCH  13  27
BRANCH  10  30
HETATM   30  N   UNL     1      -8.059   9.651  66.622  1.00  0.00    -0.118 NA 
HETATM   31  H   UNL     1      -7.721   9.439  65.682  1.00  0.00     0.000 HD 
BRANCH  30  32
HETATM   32  C   UNL     1      -8.637   8.563  67.310  1.00  0.00    -0.123 A  
HETATM   33  C   UNL     1      -9.926   8.589  67.851  1.00  0.00    -0.225 A  
HETATM   34  C   UNL     1     -10.376   7.552  68.684  1.00  0.00    -0.218 A  
HETATM   35  C   UNL     1      -9.546   6.468  68.973  1.00  0.00    -0.132 A  
HETATM   36  C   UNL     1      -8.293   6.375  68.382  1.00  0.00    -0.116 A  
HETATM   37  I   UNL     1     -10.158   5.023  70.339  1.00  0.00    -0.233 I  
HETATM   38  C   UNL     1      -7.854   7.418  67.566  1.00  0.00    -0.112 A  
HETATM   39  F   UNL     1      -6.626   7.330  67.029  1.00  0.00    -0.050 F  
ENDBRANCH  30  32
ENDBRANCH  10  30
TORSDOF 5
ENDMDL
MODEL       59
REMARK 921   NORMALIZED FREE ENERGY PREDICTED BY IDOCK:   -5.60 KCAL/MOL
REMARK 922        TOTAL FREE ENERGY PREDICTED BY IDOCK:   -7.45 KCAL/MOL
REMARK 923 INTER-LIGAND FREE ENERGY PREDICTED BY IDOCK:   -7.71 KCAL/MOL
REMARK 924 INTRA-LIGAND FREE ENERGY PREDICTED BY IDOCK:    0.26 KCAL/MOL
REMARK 927      BINDING AFFINITY PREDICTED BY RF-SCORE:    0.00 PKD
ROOT
HETATM    1  C   UNL     1      -8.378   8.143  69.579  1.00  0.00    -0.122 C  
HETATM    2  N   UNL     1      -8.592   9.490  69.063  1.00  0.00    -0.128 N  
HETATM    3  C   UNL     1      -7.812  10.479  69.635  1.00  0.00    -0.086 C  
HETATM    4  O   UNL     1      -7.155  10.305  70.662  1.00  0.00    -0.322 OA 
HETATM    5  C   UNL     1      -7.720  11.780  68.906  1.00  0.00    -0.041 C  
HETATM    6  C   UNL     1      -8.623  12.076  67.936  1.00  0.00    -0.165 C  
HETATM    7  C   UNL     1      -6.490  12.543  69.329  1.00  0.00    -0.104 C  
HETATM    8  N   UNL     1      -8.686  13.303  67.250  1.00  0.00    -0.206 N  
HETATM    9  C   UNL     1      -9.533  13.514  66.131  1.00  0.00    -0.141 C  
HETATM   10  C   UNL     1      -9.517   9.728  68.037  1.00  0.00    -0.131 C  
HETATM   11  O   UNL     1      -9.522  14.559  65.467  1.00  0.00    -0.172 OA 
HETATM   12  O   UNL     1     -10.984  10.298  65.720  1.00  0.00     0.140 OA 
HETATM   13  N   UNL     1     -10.422  12.505  65.789  1.00  0.00    -0.265 N  
HETATM   14  C   UNL     1      -9.526  10.980  67.491  1.00  0.00    -0.175 C  
HETATM   15  C   UNL     1     -10.386  11.215  66.288  1.00  0.00    -0.249 C  
ENDROOT
BRANCH   8  16
HETATM   16  C   UNL     1      -8.087  14.546  67.719  1.00  0.00    -0.158 A  
HETATM   17  C   UNL     1      -6.722  14.788  67.493  1.00  0.00    -0.157 A  
HETATM   18  C   UNL     1      -7.024  17.130  67.970  1.00  0.00    -0.175 A  
HETATM   19  C   UNL     1      -8.362  16.901  68.311  1.00  0.00    -0.224 A  
HETATM   20  C   UNL     1      -8.888  15.601  68.192  1.00  0.00    -0.174 A  
HETATM   21  C   UNL     1      -6.196  16.073  67.600  1.00  0.00    -0.184 A  
BRANCH  19  22
HETATM   22  N   UNL     1      -9.109  18.031  68.719  1.00  0.00    -0.260 N  
HETATM   23  H   UNL     1      -9.146  18.211  69.722  1.00  0.00     0.000 HD 
HETATM   24  C   UNL     1     -10.485  20.022  68.690  1.00  0.00    -0.251 C  
HETATM   25  O   UNL     1      -9.852  18.887  66.692  1.00  0.00    -0.320 OA 
HETATM   26  C   UNL     1      -9.792  18.918  67.912  1.00  0.00    -0.345 C  
ENDBRANCH  19  22
ENDBRANCH   8  16
BRANCH  13  27
HETATM   27  C   UNL     1     -11.281  12.730  64.626  1.00  0.00    -0.319 C  
HETATM   28  C   UNL     1     -12.783  12.639  64.762  1.00  0.00    -0.460 C  
HETATM   29  C   UNL     1     -12.151  13.952  64.427  1.00  0.00    -0.477 C  
ENDBRANCH  13  27
BRANCH  10  30
HETATM   30  N   UNL     1     -10.297   8.658  67.620  1.00  0.00    -0.242 NA 
HETATM   31  H   UNL     1     -11.300   8.768  67.771  1.00  0.00     0.000 HD 
BRANCH  30  32
HETATM   32  C   UNL     1      -9.911   7.442  67.018  1.00  0.00    -0.209 A  
HETATM   33  C   UNL     1      -8.867   7.335  66.094  1.00  0.00    -0.181 A  
HETATM   34  C   UNL     1      -8.651   6.139  65.389  1.00  0.00    -0.111 A  
HETATM   35  C   UNL     1      -9.470   5.031  65.613  1.00  0.00    -0.141 A  
HETATM   36  C   UNL     1     -10.461   5.083  66.584  1.00  0.00    -0.301 A  
HETATM   37  I   UNL     1      -9.250   3.323  64.445  1.00  0.00    -0.155 I  
HETATM   38  C   UNL     1     -10.671   6.281  67.268  1.00  0.00    -0.349 A  
HETATM   39  F   UNL     1     -11.656   6.325  68.181  1.00  0.00    -0.352 F  
ENDBRANCH  30  32
ENDBRANCH  10  30
TORSDOF 5
ENDMDL
MODEL       60
REMARK 921   NORMALIZED FREE ENERGY PREDICTED BY IDOCK:   -5.58 KCAL/MOL
REMARK 922        TOTAL FREE ENERGY PREDICTED BY IDOCK:   -7.42 KCAL/MOL
REMARK 923 INTER-LIGAND FREE ENERGY PREDICTED BY IDOCK:   -7.87 KCAL/MOL
REMARK 924 INTRA-LIGAND FREE ENERGY PREDICTED BY IDOCK:    0.45 KCAL/MOL
REMARK 927      BINDING AFFINITY PREDICTED BY RF-SCORE:    0.00 PKD
ROOT
HETATM    1  C   UNL     1      -7.480  11.245  68.757  1.00  0.00    -0.123 C  
HETATM    2  N   UNL     1      -8.200  10.061  69.211  1.00  0.00    -0.134 N  
HETATM    3  C   UNL     1      -7.504   8.869  69.124  1.00  0.00    -0.073 C  
HETATM    4  O   UNL     1      -6.450   8.751  68.498  1.00  0.00    -0.053 OA 
HETATM    5  C   UNL     1      -8.038   7.711  69.905  1.00  0.00    -0.124 C  
HETATM    6  C   UNL     1      -9.310   7.745  70.377  1.00  0.00    -0.160 C  
HETATM    7  C   UNL     1      -6.960   6.683  70.139  1.00  0.00    -0.063 C  
HETATM    8  N   UNL     1      -9.944   6.680  71.044  1.00  0.00    -0.183 N  
HETATM    9  C   UNL     1     -11.211   6.810  71.669  1.00  0.00    -0.255 C  
HETATM   10  C   UNL     1      -9.501  10.164  69.720  1.00  0.00    -0.167 C  
HETATM   11  O   UNL     1     -11.728   5.904  72.336  1.00  0.00    -0.309 OA 
HETATM   12  O   UNL     1     -11.906  10.255  71.154  1.00  0.00    -0.353 OA 
HETATM   13  N   UNL     1     -11.899   8.003  71.500  1.00  0.00    -0.283 N  
HETATM   14  C   UNL     1     -10.035   9.042  70.288  1.00  0.00    -0.229 C  
HETATM   15  C   UNL     1     -11.355   9.165  70.984  1.00  0.00    -0.309 C  
ENDROOT
BRANCH   8  16
HETATM   16  C   UNL     1      -9.509   5.290  70.985  1.00  0.00    -0.161 A  
HETATM   17  C   UNL     1      -9.394   4.546  72.170  1.00  0.00    -0.175 A  
HETATM   18  C   UNL     1      -9.343   2.491  70.916  1.00  0.00    -0.215 A  
HETATM   19  C   UNL     1      -9.342   3.209  69.714  1.00  0.00    -0.153 A  
HETATM   20  C   UNL     1      -9.417   4.613  69.754  1.00  0.00    -0.238 A  
HETATM   21  C   UNL     1      -9.330   3.156  72.139  1.00  0.00    -0.181 A  
BRANCH  19  22
HETATM   22  N   UNL     1      -9.309   2.444  68.525  1.00  0.00    -0.191 N  
HETATM   23  H   UNL     1      -9.116   1.448  68.633  1.00  0.00     0.000 HD 
HETATM   24  C   UNL     1      -9.402   1.791  66.196  1.00  0.00     0.130 C  
HETATM   25  O   UNL     1      -9.770   4.039  66.900  1.00  0.00    -0.209 OA 
HETATM   26  C   UNL     1      -9.508   2.893  67.235  1.00  0.00    -0.068 C  
ENDBRANCH  19  22
ENDBRANCH   8  16
BRANCH  13  27
HETATM   27  C   UNL     1     -13.199   8.130  72.160  1.00  0.00    -0.231 C  
HETATM   28  C   UNL     1     -14.386   8.679  71.402  1.00  0.00    -0.332 C  
HETATM   29  C   UNL     1     -14.399   7.257  71.863  1.00  0.00    -0.507 C  
ENDBRANCH  13  27
BRANCH  10  30
HETATM   30  N   UNL     1     -10.113  11.409  69.663  1.00  0.00    -0.263 NA 
HETATM   31  H   UNL     1     -10.150  11.915  70.549  1.00  0.00     0.000 HD 
BRANCH  30  32
HETATM   32  C   UNL     1     -10.690  12.081  68.565  1.00  0.00    -0.234 A  
HETATM   33  C   UNL     1     -10.688  11.574  67.262  1.00  0.00    -0.286 A  
HETATM   34  C   UNL     1     -11.108  12.367  66.181  1.00  0.00    -0.340 A  
HETATM   35  C   UNL     1     -11.550  13.673  66.396  1.00  0.00    -0.350 A  
HETATM   36  C   UNL     1     -11.642  14.173  67.688  1.00  0.00    -0.394 A  
HETATM   37  I   UNL     1     -12.010  14.894  64.775  1.00  0.00    -0.123 I  
HETATM   38  C   UNL     1     -11.210  13.379  68.750  1.00  0.00    -0.275 A  
HETATM   39  F   UNL     1     -11.274  13.889  69.991  1.00  0.00    -0.258 F  
ENDBRANCH  30  32
ENDBRANCH  10  30
TORSDOF 5
ENDMDL
MODEL       61
REMARK 921   NORMALIZED FREE ENERGY PREDICTED BY IDOCK:   -5.56 KCAL/MOL
REMARK 922        TOTAL FREE ENERGY PREDICTED BY IDOCK:   -7.40 KCAL/MOL
REMARK 923 INTER-LIGAND FREE ENERGY PREDICTED BY IDOCK:   -7.83 KCAL/MOL
REMARK 924 INTRA-LIGAND FREE ENERGY PREDICTED BY IDOCK:    0.44 KCAL/MOL
REMARK 927      BINDING AFFINITY PREDICTED BY RF-SCORE:    0.00 PKD
ROOT
HETATM    1  C   UNL     1     -10.741  12.327  63.689  1.00  0.00    -0.467 C  
HETATM    2  N   UNL     1     -10.327  11.291  64.627  1.00  0.00    -0.293 N  
HETATM    3  C   UNL     1      -9.575  10.263  64.087  1.00  0.00    -0.315 C  
HETATM    4  O   UNL     1      -9.452  10.086  62.875  1.00  0.00    -0.294 OA 
HETATM    5  C   UNL     1      -8.824   9.394  65.045  1.00  0.00    -0.234 C  
HETATM    6  C   UNL     1      -9.147   9.406  66.363  1.00  0.00    -0.161 C  
HETATM    7  C   UNL     1      -7.688   8.688  64.347  1.00  0.00    -0.126 C  
HETATM    8  N   UNL     1      -8.571   8.567  67.336  1.00  0.00    -0.126 N  
HETATM    9  C   UNL     1      -8.812   8.724  68.725  1.00  0.00    -0.134 C  
HETATM   10  C   UNL     1     -10.664  11.375  65.985  1.00  0.00    -0.263 C  
HETATM   11  O   UNL     1      -8.234   8.050  69.588  1.00  0.00    -0.117 OA 
HETATM   12  O   UNL     1     -10.874  11.616  68.768  1.00  0.00    -0.202 OA 
HETATM   13  N   UNL     1      -9.754   9.662  69.120  1.00  0.00    -0.170 N  
HETATM   14  C   UNL     1     -10.088  10.464  66.824  1.00  0.00    -0.267 C  
HETATM   15  C   UNL     1     -10.301  10.631  68.297  1.00  0.00    -0.177 C  
ENDROOT
BRANCH   8  16
HETATM   16  C   UNL     1      -7.860   7.328  67.044  1.00  0.00    -0.112 A  
HETATM   17  C   UNL     1      -6.457   7.329  66.982  1.00  0.00    -0.055 A  
HETATM   18  C   UNL     1      -6.414   4.928  67.164  1.00  0.00    -0.049 A  
HETATM   19  C   UNL     1      -7.812   4.886  67.114  1.00  0.00    -0.095 A  
HETATM   20  C   UNL     1      -8.533   6.092  67.046  1.00  0.00    -0.105 A  
HETATM   21  C   UNL     1      -5.737   6.140  67.059  1.00  0.00    -0.016 A  
BRANCH  19  22
HETATM   22  N   UNL     1      -8.405   3.603  67.182  1.00  0.00    -0.097 N  
HETATM   23  H   UNL     1      -8.333   3.027  66.344  1.00  0.00     0.000 HD 
HETATM   24  C   UNL     1      -9.577   1.641  67.977  1.00  0.00    -0.128 C  
HETATM   25  O   UNL     1      -9.242   3.561  69.348  1.00  0.00    -0.128 OA 
HETATM   26  C   UNL     1      -9.069   3.044  68.255  1.00  0.00    -0.164 C  
ENDBRANCH  19  22
ENDBRANCH   8  16
BRANCH  13  27
HETATM   27  C   UNL     1      -9.985   9.822  70.556  1.00  0.00    -0.193 C  
HETATM   28  C   UNL     1     -11.163   9.144  71.217  1.00  0.00    -0.407 C  
HETATM   29  C   UNL     1      -9.773   8.733  71.584  1.00  0.00    -0.366 C  
ENDBRANCH  13  27
BRANCH  10  30
HETATM   30  N   UNL     1     -11.500  12.413  66.372  1.00  0.00    -0.352 NA 
HETATM   31  H   UNL     1     -12.472  12.149  66.536  1.00  0.00     0.000 HD 
BRANCH  30  32
HETATM   32  C   UNL     1     -11.208  13.779  66.573  1.00  0.00    -0.312 A  
HETATM   33  C   UNL     1     -10.219  14.469  65.865  1.00  0.00    -0.339 A  
HETATM   34  C   UNL     1      -9.846  15.771  66.238  1.00  0.00    -0.320 A  
HETATM   35  C   UNL     1     -10.470  16.403  67.314  1.00  0.00    -0.303 A  
HETATM   36  C   UNL     1     -11.513  15.773  67.981  1.00  0.00    -0.264 A  
HETATM   37  I   UNL     1      -9.796  18.262  67.962  1.00  0.00    -0.423 I  
HETATM   38  C   UNL     1     -11.865  14.476  67.608  1.00  0.00    -0.364 A  
HETATM   39  F   UNL     1     -12.853  13.868  68.285  1.00  0.00     0.105 F  
ENDBRANCH  30  32
ENDBRANCH  10  30
TORSDOF 5
ENDMDL
MODEL       62
REMARK 921   NORMALIZED FREE ENERGY PREDICTED BY IDOCK:   -5.54 KCAL/MOL
REMARK 922        TOTAL FREE ENERGY PREDICTED BY IDOCK:   -7.37 KCAL/MOL
REMARK 923 INTER-LIGAND FREE ENERGY PREDICTED BY IDOCK:   -7.23 KCAL/MOL
REMARK 924 INTRA-LIGAND FREE ENERGY PREDICTED BY IDOCK:   -0.14 KCAL/MOL
REMARK 927      BINDING AFFINITY PREDICTED BY RF-SCORE:    0.00 PKD
ROOT
HETATM    1  C   UNL     1     -11.027  16.287  66.359  1.00  0.00     0.004 C  
HETATM    2  N   UNL     1     -10.412  15.075  66.887  1.00  0.00    -0.274 N  
HETATM    3  C   UNL     1     -10.996  13.886  66.487  1.00  0.00    -0.300 C  
HETATM    4  O   UNL     1     -12.091  13.832  65.927  1.00  0.00    -0.381 OA 
HETATM    5  C   UNL     1     -10.201  12.636  66.687  1.00  0.00    -0.246 C  
HETATM    6  C   UNL     1      -9.130  12.644  67.523  1.00  0.00    -0.192 C  
HETATM    7  C   UNL     1     -10.695  11.538  65.779  1.00  0.00    -0.325 C  
HETATM    8  N   UNL     1      -8.367  11.509  67.854  1.00  0.00    -0.130 N  
HETATM    9  C   UNL     1      -7.159  11.585  68.595  1.00  0.00    -0.098 C  
HETATM   10  C   UNL     1      -9.287  15.145  67.720  1.00  0.00    -0.189 C  
HETATM   11  O   UNL     1      -6.437  10.601  68.806  1.00  0.00    -0.050 OA 
HETATM   12  O   UNL     1      -6.805  15.093  69.019  1.00  0.00    -0.107 OA 
HETATM   13  N   UNL     1      -6.794  12.817  69.117  1.00  0.00    -0.087 N  
HETATM   14  C   UNL     1      -8.666  13.966  68.022  1.00  0.00    -0.183 C  
HETATM   15  C   UNL     1      -7.372  14.026  68.774  1.00  0.00    -0.127 C  
ENDROOT
BRANCH   8  16
HETATM   16  C   UNL     1      -8.816  10.132  67.687  1.00  0.00    -0.125 A  
HETATM   17  C   UNL     1      -9.821   9.622  68.525  1.00  0.00    -0.170 A  
HETATM   18  C   UNL     1     -10.189   7.779  67.018  1.00  0.00    -0.375 A  
HETATM   19  C   UNL     1      -9.117   8.199  66.222  1.00  0.00    -0.185 A  
HETATM   20  C   UNL     1      -8.426   9.375  66.566  1.00  0.00    -0.137 A  
HETATM   21  C   UNL     1     -10.516   8.464  68.186  1.00  0.00    -0.228 A  
BRANCH  19  22
HETATM   22  N   UNL     1      -8.835   7.411  65.082  1.00  0.00    -0.358 N  
HETATM   23  H   UNL     1      -9.633   6.959  64.635  1.00  0.00     0.000 HD 
HETATM   24  C   UNL     1      -7.669   6.286  63.284  1.00  0.00    -0.098 C  
HETATM   25  O   UNL     1      -6.534   7.650  64.875  1.00  0.00    -0.041 OA 
HETATM   26  C   UNL     1      -7.602   7.185  64.505  1.00  0.00    -0.107 C  
ENDBRANCH  19  22
ENDBRANCH   8  16
BRANCH  13  27
HETATM   27  C   UNL     1      -5.541  12.884  69.869  1.00  0.00    -0.112 C  
HETATM   28  C   UNL     1      -5.547  13.303  71.322  1.00  0.00    -0.141 C  
HETATM   29  C   UNL     1      -5.140  11.911  70.957  1.00  0.00    -0.134 C  
ENDBRANCH  13  27
BRANCH  10  30
HETATM   30  N   UNL     1      -8.861  16.406  68.113  1.00  0.00    -0.188 NA 
HETATM   31  H   UNL     1      -9.036  16.638  69.091  1.00  0.00     0.000 HD 
BRANCH  30  32
HETATM   32  C   UNL     1      -8.222  17.417  67.363  1.00  0.00    -0.201 A  
HETATM   33  C   UNL     1      -7.318  17.156  66.329  1.00  0.00    -0.326 A  
HETATM   34  C   UNL     1      -6.573  18.195  65.746  1.00  0.00    -0.313 A  
HETATM   35  C   UNL     1      -6.738  19.510  66.182  1.00  0.00    -0.217 A  
HETATM   36  C   UNL     1      -7.689  19.809  67.149  1.00  0.00    -0.299 A  
HETATM   37  I   UNL     1      -5.513  21.015  65.432  1.00  0.00    -0.168 I  
HETATM   38  C   UNL     1      -8.412  18.766  67.727  1.00  0.00    -0.275 A  
HETATM   39  F   UNL     1      -9.305  19.068  68.685  1.00  0.00    -0.347 F  
ENDBRANCH  30  32
ENDBRANCH  10  30
TORSDOF 5
ENDMDL
MODEL       63
REMARK 921   NORMALIZED FREE ENERGY PREDICTED BY IDOCK:   -5.54 KCAL/MOL
REMARK 922        TOTAL FREE ENERGY PREDICTED BY IDOCK:   -7.37 KCAL/MOL
REMARK 923 INTER-LIGAND FREE ENERGY PREDICTED BY IDOCK:   -8.56 KCAL/MOL
REMARK 924 INTRA-LIGAND FREE ENERGY PREDICTED BY IDOCK:    1.19 KCAL/MOL
REMARK 927      BINDING AFFINITY PREDICTED BY RF-SCORE:    0.00 PKD
ROOT
HETATM    1  C   UNL     1      -9.375  14.133  65.977  1.00  0.00    -0.075 C  
HETATM    2  N   UNL     1      -9.965  13.212  66.942  1.00  0.00    -0.240 N  
HETATM    3  C   UNL     1      -9.482  11.916  66.901  1.00  0.00    -0.199 C  
HETATM    4  O   UNL     1      -8.787  11.487  65.980  1.00  0.00    -0.200 OA 
HETATM    5  C   UNL     1      -9.769  11.046  68.083  1.00  0.00    -0.180 C  
HETATM    6  C   UNL     1     -10.735  11.406  68.968  1.00  0.00    -0.205 C  
HETATM    7  C   UNL     1      -8.795   9.897  68.149  1.00  0.00    -0.118 C  
HETATM    8  N   UNL     1     -11.149  10.623  70.061  1.00  0.00    -0.294 N  
HETATM    9  C   UNL     1     -12.039  11.104  71.056  1.00  0.00    -0.275 C  
HETATM   10  C   UNL     1     -10.935  13.650  67.852  1.00  0.00    -0.259 C  
HETATM   11  O   UNL     1     -12.331  10.453  72.069  1.00  0.00    -0.224 OA 
HETATM   12  O   UNL     1     -12.540  14.458  70.002  1.00  0.00    -0.330 OA 
HETATM   13  N   UNL     1     -12.616  12.351  70.865  1.00  0.00    -0.310 N  
HETATM   14  C   UNL     1     -11.303  12.775  68.835  1.00  0.00    -0.344 C  
HETATM   15  C   UNL     1     -12.214  13.272  69.915  1.00  0.00    -0.246 C  
ENDROOT
BRANCH   8  16
HETATM   16  C   UNL     1     -10.913   9.190  70.190  1.00  0.00    -0.239 A  
HETATM   17  C   UNL     1     -11.388   8.315  69.200  1.00  0.00     0.497 A  
HETATM   18  C   UNL     1      -9.943   6.565  70.006  1.00  0.00    -0.193 A  
HETATM   19  C   UNL     1      -9.534   7.375  71.071  1.00  0.00    -0.157 A  
HETATM   20  C   UNL     1     -10.030   8.689  71.164  1.00  0.00    -0.289 A  
HETATM   21  C   UNL     1     -10.895   7.017  69.096  1.00  0.00    -0.223 A  
BRANCH  19  22
HETATM   22  N   UNL     1      -8.598   6.809  71.968  1.00  0.00    -0.122 N  
HETATM   23  H   UNL     1      -7.992   6.081  71.590  1.00  0.00     0.000 HD 
HETATM   24  C   UNL     1      -7.313   6.321  73.960  1.00  0.00    -0.086 C  
HETATM   25  O   UNL     1      -9.020   7.984  73.927  1.00  0.00    -0.269 OA 
HETATM   26  C   UNL     1      -8.413   7.130  73.298  1.00  0.00    -0.122 C  
ENDBRANCH  19  22
ENDBRANCH   8  16
BRANCH  13  27
HETATM   27  C   UNL     1     -13.522  12.840  71.904  1.00  0.00    -0.358 C  
HETATM   28  C   UNL     1     -13.101  13.977  72.806  1.00  0.00    -0.537 C  
HETATM   29  C   UNL     1     -14.241  14.171  71.858  1.00  0.00    -0.561 C  
ENDBRANCH  13  27
BRANCH  10  30
HETATM   30  N   UNL     1     -11.392  14.954  67.720  1.00  0.00    -0.319 NA 
HETATM   31  H   UNL     1     -12.402  15.051  67.608  1.00  0.00     0.000 HD 
BRANCH  30  32
HETATM   32  C   UNL     1     -10.670  16.167  67.718  1.00  0.00    -0.325 A  
HETATM   33  C   UNL     1     -10.730  17.099  66.678  1.00  0.00    -0.082 A  
HETATM   34  C   UNL     1      -9.850  18.193  66.642  1.00  0.00    -0.350 A  
HETATM   35  C   UNL     1      -8.909  18.375  67.656  1.00  0.00    -0.263 A  
HETATM   36  C   UNL     1      -8.883  17.512  68.744  1.00  0.00    -0.215 A  
HETATM   37  I   UNL     1      -7.502  19.900  67.508  1.00  0.00    -0.342 I  
HETATM   38  C   UNL     1      -9.755  16.423  68.760  1.00  0.00    -0.250 A  
HETATM   39  F   UNL     1      -9.695  15.578  69.803  1.00  0.00    -0.256 F  
ENDBRANCH  30  32
ENDBRANCH  10  30
TORSDOF 5
ENDMDL
MODEL       64
REMARK 921   NORMALIZED FREE ENERGY PREDICTED BY IDOCK:   -5.48 KCAL/MOL
REMARK 922        TOTAL FREE ENERGY PREDICTED BY IDOCK:   -7.29 KCAL/MOL
REMARK 923 INTER-LIGAND FREE ENERGY PREDICTED BY IDOCK:   -6.98 KCAL/MOL
REMARK 924 INTRA-LIGAND FREE ENERGY PREDICTED BY IDOCK:   -0.31 KCAL/MOL
REMARK 927      BINDING AFFINITY PREDICTED BY RF-SCORE:    0.00 PKD
ROOT
HETATM    1  C   UNL     1      -8.435  10.114  64.560  1.00  0.00    -0.177 C  
HETATM    2  N   UNL     1      -8.706   9.583  65.890  1.00  0.00    -0.141 N  
HETATM    3  C   UNL     1      -7.852   8.582  66.319  1.00  0.00    -0.098 C  
HETATM    4  O   UNL     1      -7.068   8.002  65.568  1.00  0.00    -0.059 OA 
HETATM    5  C   UNL     1      -7.847   8.272  67.781  1.00  0.00    -0.114 C  
HETATM    6  C   UNL     1      -8.867   8.705  68.566  1.00  0.00    -0.142 C  
HETATM    7  C   UNL     1      -6.568   7.577  68.175  1.00  0.00    -0.050 C  
HETATM    8  N   UNL     1      -9.012   8.396  69.932  1.00  0.00    -0.140 N  
HETATM    9  C   UNL     1      -9.996   9.001  70.756  1.00  0.00    -0.245 C  
HETATM   10  C   UNL     1      -9.754  10.094  66.667  1.00  0.00    -0.192 C  
HETATM   11  O   UNL     1     -10.064   8.803  71.977  1.00  0.00    -0.313 OA 
HETATM   12  O   UNL     1     -11.506  11.289  68.498  1.00  0.00    -0.252 OA 
HETATM   13  N   UNL     1     -10.927   9.833  70.152  1.00  0.00    -0.270 N  
HETATM   14  C   UNL     1      -9.827   9.670  67.964  1.00  0.00    -0.175 C  
HETATM   15  C   UNL     1     -10.835  10.320  68.861  1.00  0.00    -0.228 C  
ENDROOT
BRANCH   8  16
HETATM   16  C   UNL     1      -8.349   7.285  70.604  1.00  0.00    -0.128 A  
HETATM   17  C   UNL     1      -7.190   7.522  71.361  1.00  0.00    -0.070 A  
HETATM   18  C   UNL     1      -7.417   5.382  72.442  1.00  0.00    -0.096 A  
HETATM   19  C   UNL     1      -8.508   5.069  71.622  1.00  0.00    -0.124 A  
HETATM   20  C   UNL     1      -8.967   6.024  70.696  1.00  0.00    -0.150 A  
HETATM   21  C   UNL     1      -6.736   6.587  72.287  1.00  0.00    -0.067 A  
BRANCH  19  22
HETATM   22  N   UNL     1      -9.104   3.802  71.826  1.00  0.00    -0.106 N  
HETATM   23  H   UNL     1      -9.545   3.651  72.732  1.00  0.00     0.000 HD 
HETATM   24  C   UNL     1      -9.880   1.535  71.488  1.00  0.00    -0.208 C  
HETATM   25  O   UNL     1      -8.707   2.740  69.799  1.00  0.00    -0.062 OA 
HETATM   26  C   UNL     1      -9.156   2.749  70.936  1.00  0.00    -0.114 C  
ENDBRANCH  19  22
ENDBRANCH   8  16
BRANCH  13  27
HETATM   27  C   UNL     1     -11.928  10.460  71.015  1.00  0.00    -0.382 C  
HETATM   28  C   UNL     1     -13.400  10.204  70.783  1.00  0.00    -0.189 C  
HETATM   29  C   UNL     1     -12.757   9.722  72.044  1.00  0.00    -0.463 C  
ENDBRANCH  13  27
BRANCH  10  30
HETATM   30  N   UNL     1     -10.588  11.033  66.077  1.00  0.00    -0.240 NA 
HETATM   31  H   UNL     1     -11.474  10.667  65.727  1.00  0.00     0.000 HD 
BRANCH  30  32
HETATM   32  C   UNL     1     -10.395  12.418  65.887  1.00  0.00    -0.257 A  
HETATM   33  C   UNL     1      -9.534  13.192  66.671  1.00  0.00    -0.260 A  
HETATM   34  C   UNL     1      -9.524  14.592  66.559  1.00  0.00    -0.310 A  
HETATM   35  C   UNL     1     -10.366  15.232  65.649  1.00  0.00    -0.366 A  
HETATM   36  C   UNL     1     -11.170  14.484  64.800  1.00  0.00    -0.395 A  
HETATM   37  I   UNL     1     -10.465  17.310  65.609  1.00  0.00     0.304 I  
HETATM   38  C   UNL     1     -11.179  13.095  64.930  1.00  0.00    -0.310 A  
HETATM   39  F   UNL     1     -11.987  12.387  64.124  1.00  0.00    -0.394 F  
ENDBRANCH  30  32
ENDBRANCH  10  30
TORSDOF 5
ENDMDL
MODEL       65
REMARK 921   NORMALIZED FREE ENERGY PREDICTED BY IDOCK:   -5.44 KCAL/MOL
REMARK 922        TOTAL FREE ENERGY PREDICTED BY IDOCK:   -7.24 KCAL/MOL
REMARK 923 INTER-LIGAND FREE ENERGY PREDICTED BY IDOCK:   -8.82 KCAL/MOL
REMARK 924 INTRA-LIGAND FREE ENERGY PREDICTED BY IDOCK:    1.58 KCAL/MOL
REMARK 927      BINDING AFFINITY PREDICTED BY RF-SCORE:    0.00 PKD
ROOT
HETATM    1  C   UNL     1      -7.225  10.208  69.277  1.00  0.00    -0.085 C  
HETATM    2  N   UNL     1      -7.533  11.562  68.832  1.00  0.00    -0.118 N  
HETATM    3  C   UNL     1      -6.538  12.500  69.041  1.00  0.00    -0.100 C  
HETATM    4  O   UNL     1      -5.559  12.291  69.757  1.00  0.00    -0.081 OA 
HETATM    5  C   UNL     1      -6.645  13.785  68.285  1.00  0.00    -0.109 C  
HETATM    6  C   UNL     1      -7.824  14.133  67.708  1.00  0.00    -0.170 C  
HETATM    7  C   UNL     1      -5.302  14.466  68.197  1.00  0.00    -0.120 C  
HETATM    8  N   UNL     1      -8.063  15.355  67.052  1.00  0.00    -0.216 N  
HETATM    9  C   UNL     1      -9.251  15.614  66.320  1.00  0.00    -0.330 C  
HETATM   10  C   UNL     1      -8.756  11.853  68.213  1.00  0.00    -0.170 C  
HETATM   11  O   UNL     1      -9.423  16.649  65.663  1.00  0.00    -0.511 OA 
HETATM   12  O   UNL     1     -10.941  12.501  66.584  1.00  0.00    -0.251 OA 
HETATM   13  N   UNL     1     -10.262  14.665  66.365  1.00  0.00    -0.280 N  
HETATM   14  C   UNL     1      -8.892  13.098  67.666  1.00  0.00    -0.191 C  
HETATM   15  C   UNL     1     -10.122  13.381  66.859  1.00  0.00    -0.255 C  
ENDROOT
BRANCH   8  16
HETATM   16  C   UNL     1      -7.258  16.558  67.224  1.00  0.00    -0.168 A  
HETATM   17  C   UNL     1      -6.885  17.312  66.098  1.00  0.00    -0.227 A  
HETATM   18  C   UNL     1      -6.317  19.186  67.500  1.00  0.00    -0.208 A  
HETATM   19  C   UNL     1      -6.572  18.423  68.646  1.00  0.00    -0.233 A  
HETATM   20  C   UNL     1      -7.037  17.103  68.502  1.00  0.00    -0.213 A  
HETATM   21  C   UNL     1      -6.435  18.622  66.233  1.00  0.00    -0.234 A  
BRANCH  19  22
HETATM   22  N   UNL     1      -6.379  19.072  69.889  1.00  0.00    -0.209 N  
HETATM   23  H   UNL     1      -6.731  18.585  70.712  1.00  0.00     0.000 HD 
HETATM   24  C   UNL     1      -5.734  20.681  71.577  1.00  0.00    -0.106 C  
HETATM   25  O   UNL     1      -5.268  21.014  69.263  1.00  0.00    -0.335 OA 
HETATM   26  C   UNL     1      -5.769  20.290  70.111  1.00  0.00    -0.333 C  
ENDBRANCH  19  22
ENDBRANCH   8  16
BRANCH  13  27
HETATM   27  C   UNL     1     -11.476  14.938  65.596  1.00  0.00    -0.290 C  
HETATM   28  C   UNL     1     -11.676  14.302  64.239  1.00  0.00    -0.348 C  
HETATM   29  C   UNL     1     -12.589  13.939  65.366  1.00  0.00    -0.538 C  
ENDBRANCH  13  27
BRANCH  10  30
HETATM   30  N   UNL     1      -9.699  10.836  68.150  1.00  0.00    -0.155 NA 
HETATM   31  H   UNL     1      -9.836  10.428  67.225  1.00  0.00     0.000 HD 
BRANCH  30  32
HETATM   32  C   UNL     1     -10.497  10.282  69.174  1.00  0.00    -0.224 A  
HETATM   33  C   UNL     1     -10.486   8.926  69.513  1.00  0.00    -0.229 A  
HETATM   34  C   UNL     1     -11.434   8.401  70.407  1.00  0.00    -0.129 A  
HETATM   35  C   UNL     1     -12.394   9.233  70.986  1.00  0.00    -0.233 A  
HETATM   36  C   UNL     1     -12.374  10.598  70.732  1.00  0.00    -0.472 A  
HETATM   37  I   UNL     1     -13.894   8.419  72.176  1.00  0.00    -0.340 I  
HETATM   38  C   UNL     1     -11.436  11.103  69.833  1.00  0.00    -0.306 A  
HETATM   39  F   UNL     1     -11.451  12.421  69.573  1.00  0.00    -0.300 F  
ENDBRANCH  30  32
ENDBRANCH  10  30
TORSDOF 5
ENDMDL
MODEL       66
REMARK 921   NORMALIZED FREE ENERGY PREDICTED BY IDOCK:   -5.40 KCAL/MOL
REMARK 922        TOTAL FREE ENERGY PREDICTED BY IDOCK:   -7.19 KCAL/MOL
REMARK 923 INTER-LIGAND FREE ENERGY PREDICTED BY IDOCK:   -7.28 KCAL/MOL
REMARK 924 INTRA-LIGAND FREE ENERGY PREDICTED BY IDOCK:    0.09 KCAL/MOL
REMARK 927      BINDING AFFINITY PREDICTED BY RF-SCORE:    0.00 PKD
ROOT
HETATM    1  C   UNL     1      -5.539  13.344  70.153  1.00  0.00    -0.126 C  
HETATM    2  N   UNL     1      -6.440  12.387  69.522  1.00  0.00    -0.113 N  
HETATM    3  C   UNL     1      -6.513  11.146  70.129  1.00  0.00    -0.103 C  
HETATM    4  O   UNL     1      -5.715  10.772  70.989  1.00  0.00    -0.241 OA 
HETATM    5  C   UNL     1      -7.671  10.275  69.760  1.00  0.00    -0.159 C  
HETATM    6  C   UNL     1      -8.396  10.553  68.647  1.00  0.00    -0.132 C  
HETATM    7  C   UNL     1      -7.914   9.232  70.822  1.00  0.00    -0.187 C  
HETATM    8  N   UNL     1      -9.446   9.753  68.157  1.00  0.00    -0.135 N  
HETATM    9  C   UNL     1     -10.288  10.161  67.089  1.00  0.00    -0.238 C  
HETATM   10  C   UNL     1      -7.189  12.743  68.392  1.00  0.00    -0.115 C  
HETATM   11  O   UNL     1     -11.270   9.503  66.719  1.00  0.00     0.222 OA 
HETATM   12  O   UNL     1      -9.060  13.426  66.422  1.00  0.00    -0.174 OA 
HETATM   13  N   UNL     1      -9.974  11.339  66.428  1.00  0.00    -0.208 N  
HETATM   14  C   UNL     1      -8.138  11.854  67.973  1.00  0.00    -0.151 C  
HETATM   15  C   UNL     1      -9.060  12.277  66.871  1.00  0.00    -0.208 C  
ENDROOT
BRANCH   8  16
HETATM   16  C   UNL     1      -9.656   8.355  68.510  1.00  0.00    -0.149 A  
HETATM   17  C   UNL     1     -10.605   8.020  69.490  1.00  0.00    -0.216 A  
HETATM   18  C   UNL     1     -10.594   5.723  68.764  1.00  0.00    -0.321 A  
HETATM   19  C   UNL     1      -9.566   6.002  67.856  1.00  0.00    -0.116 A  
HETATM   20  C   UNL     1      -9.093   7.322  67.737  1.00  0.00    -0.124 A  
HETATM   21  C   UNL     1     -11.085   6.718  69.606  1.00  0.00    -0.343 A  
BRANCH  19  22
HETATM   22  N   UNL     1      -9.103   4.914  67.078  1.00  0.00    -0.116 N  
HETATM   23  H   UNL     1      -8.185   4.543  67.321  1.00  0.00     0.000 HD 
HETATM   24  C   UNL     1      -8.960   3.158  65.419  1.00  0.00    -0.142 C  
HETATM   25  O   UNL     1     -10.863   4.583  65.598  1.00  0.00    -0.270 OA 
HETATM   26  C   UNL     1      -9.753   4.300  66.027  1.00  0.00    -0.211 C  
ENDBRANCH  19  22
ENDBRANCH   8  16
BRANCH  13  27
HETATM   27  C   UNL     1     -10.857  11.754  65.337  1.00  0.00    -0.295 C  
HETATM   28  C   UNL     1     -10.351  12.690  64.264  1.00  0.00    -0.399 C  
HETATM   29  C   UNL     1     -10.724  11.289  63.903  1.00  0.00    -0.451 C  
ENDBRANCH  13  27
BRANCH  10  30
HETATM   30  N   UNL     1      -6.949  13.991  67.834  1.00  0.00    -0.143 NA 
HETATM   31  H   UNL     1      -6.228  14.012  67.111  1.00  0.00     0.000 HD 
BRANCH  30  32
HETATM   32  C   UNL     1      -7.551  15.236  68.116  1.00  0.00    -0.115 A  
HETATM   33  C   UNL     1      -8.696  15.378  68.906  1.00  0.00    -0.208 A  
HETATM   34  C   UNL     1      -9.357  16.614  68.997  1.00  0.00    -0.227 A  
HETATM   35  C   UNL     1      -8.870  17.726  68.310  1.00  0.00    -0.277 A  
HETATM   36  C   UNL     1      -7.688  17.634  67.585  1.00  0.00    -0.211 A  
HETATM   37  I   UNL     1      -9.947  19.506  68.316  1.00  0.00    -0.556 I  
HETATM   38  C   UNL     1      -7.049  16.397  67.494  1.00  0.00    -0.143 A  
HETATM   39  F   UNL     1      -5.926  16.317  66.762  1.00  0.00    -0.174 F  
ENDBRANCH  30  32
ENDBRANCH  10  30
TORSDOF 5
ENDMDL
MODEL       67
REMARK 921   NORMALIZED FREE ENERGY PREDICTED BY IDOCK:   -5.39 KCAL/MOL
REMARK 922        TOTAL FREE ENERGY PREDICTED BY IDOCK:   -7.18 KCAL/MOL
REMARK 923 INTER-LIGAND FREE ENERGY PREDICTED BY IDOCK:   -7.43 KCAL/MOL
REMARK 924 INTRA-LIGAND FREE ENERGY PREDICTED BY IDOCK:    0.25 KCAL/MOL
REMARK 927      BINDING AFFINITY PREDICTED BY RF-SCORE:    0.00 PKD
ROOT
HETATM    1  C   UNL     1      -5.661   7.958  66.255  1.00  0.00    -0.036 C  
HETATM    2  N   UNL     1      -6.791   8.825  66.568  1.00  0.00    -0.071 N  
HETATM    3  C   UNL     1      -7.040   9.833  65.654  1.00  0.00    -0.105 C  
HETATM    4  O   UNL     1      -6.246  10.145  64.766  1.00  0.00    -0.115 OA 
HETATM    5  C   UNL     1      -8.376  10.500  65.724  1.00  0.00    -0.166 C  
HETATM    6  C   UNL     1      -9.145  10.357  66.835  1.00  0.00    -0.143 C  
HETATM    7  C   UNL     1      -8.706  11.173  64.416  1.00  0.00     0.174 C  
HETATM    8  N   UNL     1     -10.374  11.009  67.046  1.00  0.00    -0.218 N  
HETATM    9  C   UNL     1     -11.225  10.707  68.140  1.00  0.00    -0.302 C  
HETATM   10  C   UNL     1      -7.568   8.607  67.714  1.00  0.00    -0.098 C  
HETATM   11  O   UNL     1     -12.349  11.210  68.276  1.00  0.00    -0.532 OA 
HETATM   12  O   UNL     1      -9.463   8.047  69.700  1.00  0.00    -0.162 OA 
HETATM   13  N   UNL     1     -10.759   9.823  69.102  1.00  0.00    -0.217 N  
HETATM   14  C   UNL     1      -8.709   9.348  67.838  1.00  0.00    -0.120 C  
HETATM   15  C   UNL     1      -9.640   9.022  68.965  1.00  0.00    -0.160 C  
ENDROOT
BRANCH   8  16
HETATM   16  C   UNL     1     -10.813  12.200  66.329  1.00  0.00    -0.282 A  
HETATM   17  C   UNL     1     -11.864  12.104  65.401  1.00  0.00    -0.357 A  
HETATM   18  C   UNL     1     -12.149  14.496  65.428  1.00  0.00    -0.317 A  
HETATM   19  C   UNL     1     -11.035  14.632  66.263  1.00  0.00    -0.327 A  
HETATM   20  C   UNL     1     -10.363  13.478  66.706  1.00  0.00    -0.264 A  
HETATM   21  C   UNL     1     -12.539  13.241  64.966  1.00  0.00    -0.483 A  
BRANCH  19  22
HETATM   22  N   UNL     1     -10.690  15.952  66.640  1.00  0.00    -0.303 N  
HETATM   23  H   UNL     1     -10.489  16.102  67.628  1.00  0.00     0.000 HD 
HETATM   24  C   UNL     1     -10.197  18.320  66.565  1.00  0.00    -0.409 C  
HETATM   25  O   UNL     1     -10.774  17.081  64.612  1.00  0.00    -0.712 OA 
HETATM   26  C   UNL     1     -10.594  17.059  65.821  1.00  0.00    -0.211 C  
ENDBRANCH  19  22
ENDBRANCH   8  16
BRANCH  13  27
HETATM   27  C   UNL     1     -11.651   9.511  70.219  1.00  0.00    -0.169 C  
HETATM   28  C   UNL     1     -11.084   9.247  71.594  1.00  0.00    -0.438 C  
HETATM   29  C   UNL     1     -11.944  10.448  71.370  1.00  0.00    -0.379 C  
ENDBRANCH  13  27
BRANCH  10  30
HETATM   30  N   UNL     1      -7.149   7.616  68.591  1.00  0.00    -0.078 NA 
HETATM   31  H   UNL     1      -7.267   6.660  68.253  1.00  0.00     0.000 HD 
BRANCH  30  32
HETATM   32  C   UNL     1      -6.584   7.732  69.879  1.00  0.00    -0.037 A  
HETATM   33  C   UNL     1      -6.850   6.839  70.921  1.00  0.00    -0.059 A  
HETATM   34  C   UNL     1      -6.411   7.109  72.228  1.00  0.00    -0.048 A  
HETATM   35  C   UNL     1      -5.687   8.270  72.503  1.00  0.00    -0.050 A  
HETATM   36  C   UNL     1      -5.337   9.132  71.471  1.00  0.00    -0.050 A  
HETATM   37  I   UNL     1      -5.187   8.744  74.466  1.00  0.00    -0.121 I  
HETATM   38  C   UNL     1      -5.790   8.857  70.181  1.00  0.00    -0.030 A  
HETATM   39  F   UNL     1      -5.471   9.718  69.200  1.00  0.00    -0.036 F  
ENDBRANCH  30  32
ENDBRANCH  10  30
TORSDOF 5
ENDMDL
MODEL       68
REMARK 921   NORMALIZED FREE ENERGY PREDICTED BY IDOCK:   -5.36 KCAL/MOL
REMARK 922        TOTAL FREE ENERGY PREDICTED BY IDOCK:   -7.14 KCAL/MOL
REMARK 923 INTER-LIGAND FREE ENERGY PREDICTED BY IDOCK:   -7.99 KCAL/MOL
REMARK 924 INTRA-LIGAND FREE ENERGY PREDICTED BY IDOCK:    0.85 KCAL/MOL
REMARK 927      BINDING AFFINITY PREDICTED BY RF-SCORE:    0.00 PKD
ROOT
HETATM    1  C   UNL     1     -11.726  12.372  66.993  1.00  0.00    -0.353 C  
HETATM    2  N   UNL     1     -11.037  11.131  67.326  1.00  0.00    -0.295 N  
HETATM    3  C   UNL     1     -10.025  10.759  66.460  1.00  0.00    -0.213 C  
HETATM    4  O   UNL     1      -9.856  11.286  65.360  1.00  0.00    -0.216 OA 
HETATM    5  C   UNL     1      -9.060   9.725  66.944  1.00  0.00    -0.162 C  
HETATM    6  C   UNL     1      -9.375   8.960  68.020  1.00  0.00    -0.142 C  
HETATM    7  C   UNL     1      -7.771   9.791  66.164  1.00  0.00    -0.104 C  
HETATM    8  N   UNL     1      -8.586   7.900  68.506  1.00  0.00    -0.128 N  
HETATM    9  C   UNL     1      -8.863   7.234  69.728  1.00  0.00    -0.142 C  
HETATM   10  C   UNL     1     -11.385  10.401  68.470  1.00  0.00    -0.220 C  
HETATM   11  O   UNL     1      -8.119   6.367  70.205  1.00  0.00    -0.116 OA 
HETATM   12  O   UNL     1     -11.657   9.074  70.923  1.00  0.00    -0.279 OA 
HETATM   13  N   UNL     1     -10.032   7.565  70.398  1.00  0.00    -0.184 N  
HETATM   14  C   UNL     1     -10.576   9.352  68.806  1.00  0.00    -0.234 C  
HETATM   15  C   UNL     1     -10.829   8.658  70.109  1.00  0.00    -0.233 C  
ENDROOT
BRANCH   8  16
HETATM   16  C   UNL     1      -7.555   7.215  67.737  1.00  0.00    -0.111 A  
HETATM   17  C   UNL     1      -6.202   7.405  68.064  1.00  0.00    -0.043 A  
HETATM   18  C   UNL     1      -5.585   5.460  66.784  1.00  0.00    -0.017 A  
HETATM   19  C   UNL     1      -6.907   5.312  66.348  1.00  0.00    -0.059 A  
HETATM   20  C   UNL     1      -7.890   6.199  66.822  1.00  0.00    -0.104 A  
HETATM   21  C   UNL     1      -5.226   6.524  67.606  1.00  0.00    -0.005 A  
BRANCH  19  22
HETATM   22  N   UNL     1      -7.164   4.226  65.477  1.00  0.00    -0.067 N  
HETATM   23  H   UNL     1      -6.934   3.298  65.831  1.00  0.00     0.000 HD 
HETATM   24  C   UNL     1      -7.833   2.917  63.554  1.00  0.00    -0.072 C  
HETATM   25  O   UNL     1      -8.047   5.291  63.611  1.00  0.00    -0.101 OA 
HETATM   26  C   UNL     1      -7.690   4.282  64.202  1.00  0.00    -0.083 C  
ENDBRANCH  19  22
ENDBRANCH   8  16
BRANCH  13  27
HETATM   27  C   UNL     1     -10.300   6.880  71.663  1.00  0.00    -0.199 C  
HETATM   28  C   UNL     1     -11.676   6.323  71.949  1.00  0.00    -0.370 C  
HETATM   29  C   UNL     1     -10.518   5.389  71.801  1.00  0.00    -0.288 C  
ENDBRANCH  13  27
BRANCH  10  30
HETATM   30  N   UNL     1     -12.481  10.841  69.200  1.00  0.00    -0.717 NA 
HETATM   31  H   UNL     1     -13.320  10.266  69.113  1.00  0.00     0.000 HD 
BRANCH  30  32
HETATM   32  C   UNL     1     -12.609  11.965  70.044  1.00  0.00     0.094 A  
HETATM   33  C   UNL     1     -12.139  13.239  69.711  1.00  0.00    -0.355 A  
HETATM   34  C   UNL     1     -12.125  14.271  70.663  1.00  0.00    -0.417 A  
HETATM   35  C   UNL     1     -12.598  14.044  71.956  1.00  0.00    -0.225 A  
HETATM   36  C   UNL     1     -13.147  12.813  72.290  1.00  0.00    -0.400 A  
HETATM   37  I   UNL     1     -12.418  15.528  73.404  1.00  0.00    -0.842 I  
HETATM   38  C   UNL     1     -13.143  11.793  71.338  1.00  0.00    -0.223 A  
HETATM   39  F   UNL     1     -13.648  10.599  71.687  1.00  0.00    -0.372 F  
ENDBRANCH  30  32
ENDBRANCH  10  30
TORSDOF 5
ENDMDL
MODEL       69
REMARK 921   NORMALIZED FREE ENERGY PREDICTED BY IDOCK:   -5.34 KCAL/MOL
REMARK 922        TOTAL FREE ENERGY PREDICTED BY IDOCK:   -7.11 KCAL/MOL
REMARK 923 INTER-LIGAND FREE ENERGY PREDICTED BY IDOCK:   -7.10 KCAL/MOL
REMARK 924 INTRA-LIGAND FREE ENERGY PREDICTED BY IDOCK:   -0.01 KCAL/MOL
REMARK 927      BINDING AFFINITY PREDICTED BY RF-SCORE:    0.00 PKD
ROOT
HETATM    1  C   UNL     1      -8.217   7.705  63.932  1.00  0.00     0.032 C  
HETATM    2  N   UNL     1      -8.605   8.533  65.067  1.00  0.00    -0.166 N  
HETATM    3  C   UNL     1      -8.828   9.869  64.783  1.00  0.00    -0.202 C  
HETATM    4  O   UNL     1      -8.501  10.391  63.717  1.00  0.00    -0.168 OA 
HETATM    5  C   UNL     1      -9.574  10.667  65.804  1.00  0.00    -0.258 C  
HETATM    6  C   UNL     1      -9.707  10.189  67.068  1.00  0.00    -0.180 C  
HETATM    7  C   UNL     1     -10.182  11.897  65.179  1.00  0.00    -0.314 C  
HETATM    8  N   UNL     1     -10.308  10.892  68.129  1.00  0.00    -0.171 N  
HETATM    9  C   UNL     1     -10.579  10.297  69.388  1.00  0.00    -0.237 C  
HETATM   10  C   UNL     1      -8.759   7.976  66.344  1.00  0.00    -0.151 C  
HETATM   11  O   UNL     1     -11.193  10.883  70.290  1.00  0.00    -0.283 OA 
HETATM   12  O   UNL     1      -9.529   6.949  68.834  1.00  0.00    -0.138 OA 
HETATM   13  N   UNL     1     -10.113   9.010  69.613  1.00  0.00    -0.190 N  
HETATM   14  C   UNL     1      -9.297   8.779  67.309  1.00  0.00    -0.181 C  
HETATM   15  C   UNL     1      -9.624   8.163  68.635  1.00  0.00    -0.149 C  
ENDROOT
BRANCH   8  16
HETATM   16  C   UNL     1     -10.514  12.334  68.154  1.00  0.00    -0.217 A  
HETATM   17  C   UNL     1     -11.820  12.851  68.130  1.00  0.00    -0.380 A  
HETATM   18  C   UNL     1     -11.020  14.999  68.871  1.00  0.00    -0.256 A  
HETATM   19  C   UNL     1      -9.697  14.547  68.796  1.00  0.00    -0.210 A  
HETATM   20  C   UNL     1      -9.448  13.211  68.428  1.00  0.00    -0.166 A  
HETATM   21  C   UNL     1     -12.075  14.168  68.502  1.00  0.00    -0.312 A  
BRANCH  19  22
HETATM   22  N   UNL     1      -8.693  15.480  69.147  1.00  0.00    -0.230 N  
HETATM   23  H   UNL     1      -8.441  15.522  70.134  1.00  0.00     0.000 HD 
HETATM   24  C   UNL     1      -6.998  17.203  69.024  1.00  0.00    -0.235 C  
HETATM   25  O   UNL     1      -8.158  16.423  67.093  1.00  0.00    -0.156 OA 
HETATM   26  C   UNL     1      -8.017  16.338  68.304  1.00  0.00    -0.166 C  
ENDBRANCH  19  22
ENDBRANCH   8  16
BRANCH  13  27
HETATM   27  C   UNL     1     -10.410   8.403  70.911  1.00  0.00    -0.194 C  
HETATM   28  C   UNL     1      -9.481   7.363  71.494  1.00  0.00    -0.162 C  
HETATM   29  C   UNL     1      -9.638   8.680  72.182  1.00  0.00    -0.378 C  
ENDBRANCH  13  27
BRANCH  10  30
HETATM   30  N   UNL     1      -8.414   6.641  66.503  1.00  0.00    -0.116 NA 
HETATM   31  H   UNL     1      -7.708   6.457  67.216  1.00  0.00     0.000 HD 
BRANCH  30  32
HETATM   32  C   UNL     1      -8.895   5.498  65.828  1.00  0.00    -0.153 A  
HETATM   33  C   UNL     1      -8.067   4.594  65.156  1.00  0.00    -0.104 A  
HETATM   34  C   UNL     1      -8.614   3.584  64.346  1.00  0.00    -0.093 A  
HETATM   35  C   UNL     1      -9.997   3.460  64.212  1.00  0.00    -0.181 A  
HETATM   36  C   UNL     1     -10.843   4.292  64.933  1.00  0.00    -0.108 A  
HETATM   37  I   UNL     1     -10.792   2.072  62.882  1.00  0.00    -0.228 I  
HETATM   38  C   UNL     1     -10.287   5.297  65.724  1.00  0.00     0.035 A  
HETATM   39  F   UNL     1     -11.119   6.115  66.389  1.00  0.00    -0.332 F  
ENDBRANCH  30  32
ENDBRANCH  10  30
TORSDOF 5
ENDMDL
MODEL       70
REMARK 921   NORMALIZED FREE ENERGY PREDICTED BY IDOCK:   -5.31 KCAL/MOL
REMARK 922        TOTAL FREE ENERGY PREDICTED BY IDOCK:   -7.08 KCAL/MOL
REMARK 923 INTER-LIGAND FREE ENERGY PREDICTED BY IDOCK:   -7.20 KCAL/MOL
REMARK 924 INTRA-LIGAND FREE ENERGY PREDICTED BY IDOCK:    0.12 KCAL/MOL
REMARK 927      BINDING AFFINITY PREDICTED BY RF-SCORE:    0.00 PKD
ROOT
HETATM    1  C   UNL     1     -11.481  11.240  67.700  1.00  0.00    -0.264 C  
HETATM    2  N   UNL     1     -10.685  12.460  67.755  1.00  0.00    -0.216 N  
HETATM    3  C   UNL     1     -11.325  13.611  67.332  1.00  0.00    -0.315 C  
HETATM    4  O   UNL     1     -12.399  13.598  66.729  1.00  0.00    -0.387 OA 
HETATM    5  C   UNL     1     -10.701  14.916  67.711  1.00  0.00    -0.271 C  
HETATM    6  C   UNL     1      -9.412  14.949  68.137  1.00  0.00    -0.202 C  
HETATM    7  C   UNL     1     -11.717  16.029  67.654  1.00  0.00     0.223 C  
HETATM    8  N   UNL     1      -8.698  16.125  68.432  1.00  0.00    -0.184 N  
HETATM    9  C   UNL     1      -7.412  16.112  69.032  1.00  0.00    -0.210 C  
HETATM   10  C   UNL     1      -9.369  12.437  68.235  1.00  0.00    -0.199 C  
HETATM   11  O   UNL     1      -6.823  17.144  69.381  1.00  0.00    -0.234 OA 
HETATM   12  O   UNL     1      -6.910  12.636  69.563  1.00  0.00    -0.033 OA 
HETATM   13  N   UNL     1      -6.792  14.885  69.213  1.00  0.00    -0.135 N  
HETATM   14  C   UNL     1      -8.757  13.644  68.423  1.00  0.00    -0.153 C  
HETATM   15  C   UNL     1      -7.414  13.656  69.087  1.00  0.00     0.098 C  
ENDROOT
BRANCH   8  16
HETATM   16  C   UNL     1      -9.068  17.456  67.969  1.00  0.00    -0.259 A  
HETATM   17  C   UNL     1      -9.861  18.282  68.783  1.00  0.00    -0.377 A  
HETATM   18  C   UNL     1      -9.256  20.211  67.475  1.00  0.00    -0.487 A  
HETATM   19  C   UNL     1      -8.550  19.399  66.580  1.00  0.00    -0.343 A  
HETATM   20  C   UNL     1      -8.465  18.017  66.827  1.00  0.00    -0.274 A  
HETATM   21  C   UNL     1      -9.941  19.652  68.550  1.00  0.00    -0.542 A  
BRANCH  19  22
HETATM   22  N   UNL     1      -7.925  20.057  65.494  1.00  0.00    -0.314 N  
HETATM   23  H   UNL     1      -8.523  20.290  64.701  1.00  0.00     0.000 HD 
HETATM   24  C   UNL     1      -6.272  21.114  64.076  1.00  0.00    -0.307 C  
HETATM   25  O   UNL     1      -5.730  20.248  66.230  1.00  0.00    -0.167 OA 
HETATM   26  C   UNL     1      -6.598  20.419  65.386  1.00  0.00    -0.268 C  
ENDBRANCH  19  22
ENDBRANCH   8  16
BRANCH  13  27
HETATM   27  C   UNL     1      -5.471  14.885  69.844  1.00  0.00    -0.102 C  
HETATM   28  C   UNL     1      -5.126  15.925  70.884  1.00  0.00    -0.180 C  
HETATM   29  C   UNL     1      -5.207  14.485  71.279  1.00  0.00    -0.146 C  
ENDBRANCH  13  27
BRANCH  10  30
HETATM   30  N   UNL     1      -8.822  11.198  68.540  1.00  0.00    -0.157 NA 
HETATM   31  H   UNL     1      -8.733  10.996  69.537  1.00  0.00     0.000 HD 
BRANCH  30  32
HETATM   32  C   UNL     1      -8.370  10.175  67.679  1.00  0.00    -0.114 A  
HETATM   33  C   UNL     1      -8.749   8.836  67.805  1.00  0.00    -0.136 A  
HETATM   34  C   UNL     1      -8.123   7.837  67.041  1.00  0.00    -0.117 A  
HETATM   35  C   UNL     1      -7.121   8.170  66.130  1.00  0.00    -0.062 A  
HETATM   36  C   UNL     1      -6.783   9.502  65.924  1.00  0.00    -0.082 A  
HETATM   37  I   UNL     1      -6.086   6.670  65.127  1.00  0.00    -0.040 I  
HETATM   38  C   UNL     1      -7.403  10.482  66.699  1.00  0.00    -0.120 A  
HETATM   39  F   UNL     1      -7.041  11.762  66.511  1.00  0.00    -0.119 F  
ENDBRANCH  30  32
ENDBRANCH  10  30
TORSDOF 5
ENDMDL
MODEL       71
REMARK 921   NORMALIZED FREE ENERGY PREDICTED BY IDOCK:   -5.29 KCAL/MOL
REMARK 922        TOTAL FREE ENERGY PREDICTED BY IDOCK:   -7.05 KCAL/MOL
REMARK 923 INTER-LIGAND FREE ENERGY PREDICTED BY IDOCK:   -6.94 KCAL/MOL
REMARK 924 INTRA-LIGAND FREE ENERGY PREDICTED BY IDOCK:   -0.10 KCAL/MOL
REMARK 927      BINDING AFFINITY PREDICTED BY RF-SCORE:    0.00 PKD
ROOT
HETATM    1  C   UNL     1      -5.968  13.813  69.824  1.00  0.00    -0.122 C  
HETATM    2  N   UNL     1      -6.596  12.649  69.208  1.00  0.00    -0.108 N  
HETATM    3  C   UNL     1      -6.469  11.463  69.908  1.00  0.00    -0.118 C  
HETATM    4  O   UNL     1      -5.693  11.321  70.853  1.00  0.00    -0.272 OA 
HETATM    5  C   UNL     1      -7.388  10.346  69.527  1.00  0.00    -0.144 C  
HETATM    6  C   UNL     1      -8.051  10.393  68.344  1.00  0.00    -0.112 C  
HETATM    7  C   UNL     1      -7.508   9.347  70.650  1.00  0.00    -0.150 C  
HETATM    8  N   UNL     1      -8.868   9.361  67.844  1.00  0.00    -0.124 N  
HETATM    9  C   UNL     1      -9.676   9.513  66.687  1.00  0.00    -0.211 C  
HETATM   10  C   UNL     1      -7.296  12.766  68.001  1.00  0.00    -0.117 C  
HETATM   11  O   UNL     1     -10.466   8.642  66.300  1.00  0.00    -0.122 OA 
HETATM   12  O   UNL     1      -9.082  12.913  65.847  1.00  0.00     0.044 OA 
HETATM   13  N   UNL     1      -9.550  10.685  65.956  1.00  0.00    -0.189 N  
HETATM   14  C   UNL     1      -8.004  11.673  67.586  1.00  0.00    -0.136 C  
HETATM   15  C   UNL     1      -8.890  11.821  66.388  1.00  0.00    -0.170 C  
ENDROOT
BRANCH   8  16
HETATM   16  C   UNL     1      -8.820   7.976  68.295  1.00  0.00    -0.133 A  
HETATM   17  C   UNL     1      -7.690   7.191  68.011  1.00  0.00    -0.113 A  
HETATM   18  C   UNL     1      -8.354   5.576  69.671  1.00  0.00    -0.102 A  
HETATM   19  C   UNL     1      -9.545   6.277  69.895  1.00  0.00    -0.156 A  
HETATM   20  C   UNL     1      -9.778   7.476  69.196  1.00  0.00    -0.166 A  
HETATM   21  C   UNL     1      -7.448   6.009  68.706  1.00  0.00    -0.086 A  
BRANCH  19  22
HETATM   22  N   UNL     1     -10.422   5.732  70.863  1.00  0.00    -0.239 N  
HETATM   23  H   UNL     1     -11.101   5.050  70.525  1.00  0.00     0.000 HD 
HETATM   24  C   UNL     1     -11.534   5.245  72.956  1.00  0.00    -0.340 C  
HETATM   25  O   UNL     1      -9.722   6.787  72.810  1.00  0.00    -0.152 OA 
HETATM   26  C   UNL     1     -10.461   6.019  72.212  1.00  0.00    -0.205 C  
ENDBRANCH  19  22
ENDBRANCH   8  16
BRANCH  13  27
HETATM   27  C   UNL     1     -10.397  10.834  64.773  1.00  0.00    -0.310 C  
HETATM   28  C   UNL     1     -10.136  11.950  63.787  1.00  0.00    -0.423 C  
HETATM   29  C   UNL     1      -9.954  10.530  63.358  1.00  0.00    -0.251 C  
ENDBRANCH  13  27
BRANCH  10  30
HETATM   30  N   UNL     1      -7.266  13.998  67.361  1.00  0.00    -0.288 NA 
HETATM   31  H   UNL     1      -6.720  14.026  66.499  1.00  0.00     0.000 HD 
BRANCH  30  32
HETATM   32  C   UNL     1      -7.876  15.217  67.725  1.00  0.00    -0.147 A  
HETATM   33  C   UNL     1      -9.143  15.303  68.311  1.00  0.00    -0.181 A  
HETATM   34  C   UNL     1      -9.776  16.546  68.476  1.00  0.00    -0.239 A  
HETATM   35  C   UNL     1      -9.140  17.720  68.071  1.00  0.00    -0.269 A  
HETATM   36  C   UNL     1      -7.848  17.672  67.564  1.00  0.00    -0.211 A  
HETATM   37  I   UNL     1     -10.151  19.536  68.167  1.00  0.00    -0.533 I  
HETATM   38  C   UNL     1      -7.237  16.430  67.393  1.00  0.00    -0.160 A  
HETATM   39  F   UNL     1      -6.000  16.399  66.870  1.00  0.00    -0.190 F  
ENDBRANCH  30  32
ENDBRANCH  10  30
TORSDOF 5
ENDMDL
MODEL       72
REMARK 921   NORMALIZED FREE ENERGY PREDICTED BY IDOCK:   -5.27 KCAL/MOL
REMARK 922        TOTAL FREE ENERGY PREDICTED BY IDOCK:   -7.02 KCAL/MOL
REMARK 923 INTER-LIGAND FREE ENERGY PREDICTED BY IDOCK:   -7.49 KCAL/MOL
REMARK 924 INTRA-LIGAND FREE ENERGY PREDICTED BY IDOCK:    0.47 KCAL/MOL
REMARK 927      BINDING AFFINITY PREDICTED BY RF-SCORE:    0.00 PKD
ROOT
HETATM    1  C   UNL     1     -13.145  12.422  71.739  1.00  0.00    -0.342 C  
HETATM    2  N   UNL     1     -12.271  12.797  70.634  1.00  0.00    -0.357 N  
HETATM    3  C   UNL     1     -11.879  14.124  70.607  1.00  0.00    -0.263 C  
HETATM    4  O   UNL     1     -12.401  14.992  71.307  1.00  0.00    -0.281 OA 
HETATM    5  C   UNL     1     -10.713  14.471  69.739  1.00  0.00    -0.075 C  
HETATM    6  C   UNL     1     -10.301  13.601  68.781  1.00  0.00    -0.173 C  
HETATM    7  C   UNL     1     -10.087  15.770  70.181  1.00  0.00    -0.095 C  
HETATM    8  N   UNL     1      -9.277  13.861  67.852  1.00  0.00    -0.190 N  
HETATM    9  C   UNL     1      -8.763  12.868  66.978  1.00  0.00    -0.195 C  
HETATM   10  C   UNL     1     -11.852  11.846  69.694  1.00  0.00    -0.337 C  
HETATM   11  O   UNL     1      -7.798  13.068  66.227  1.00  0.00     0.812 OA 
HETATM   12  O   UNL     1     -10.587  10.000  68.008  1.00  0.00    -0.203 OA 
HETATM   13  N   UNL     1      -9.389  11.631  66.960  1.00  0.00    -0.177 N  
HETATM   14  C   UNL     1     -10.895  12.237  68.801  1.00  0.00    -0.266 C  
HETATM   15  C   UNL     1     -10.314  11.197  67.893  1.00  0.00    -0.185 C  
ENDROOT
BRANCH   8  16
HETATM   16  C   UNL     1      -8.785  15.190  67.512  1.00  0.00    -0.177 A  
HETATM   17  C   UNL     1      -7.401  15.429  67.462  1.00  0.00    -0.222 A  
HETATM   18  C   UNL     1      -7.763  17.470  66.236  1.00  0.00    -0.334 A  
HETATM   19  C   UNL     1      -9.148  17.319  66.368  1.00  0.00    -0.253 A  
HETATM   20  C   UNL     1      -9.656  16.178  67.016  1.00  0.00    -0.233 A  
HETATM   21  C   UNL     1      -6.892  16.550  66.814  1.00  0.00    -0.225 A  
BRANCH  19  22
HETATM   22  N   UNL     1      -9.949  18.331  65.787  1.00  0.00    -0.056 N  
HETATM   23  H   UNL     1     -10.329  18.131  64.862  1.00  0.00     0.000 HD 
HETATM   24  C   UNL     1     -11.159  20.396  65.426  1.00  0.00     0.501 C  
HETATM   25  O   UNL     1      -9.936  19.974  67.429  1.00  0.00    -0.380 OA 
HETATM   26  C   UNL     1     -10.273  19.557  66.330  1.00  0.00    -0.479 C  
ENDBRANCH  19  22
ENDBRANCH   8  16
BRANCH  13  27
HETATM   27  C   UNL     1      -8.842  10.612  66.064  1.00  0.00    -0.175 C  
HETATM   28  C   UNL     1      -9.759   9.830  65.152  1.00  0.00    -0.338 C  
HETATM   29  C   UNL     1      -8.745  10.756  64.560  1.00  0.00    -0.097 C  
ENDBRANCH  13  27
BRANCH  10  30
HETATM   30  N   UNL     1     -12.395  10.572  69.790  1.00  0.00    -0.536 NA 
HETATM   31  H   UNL     1     -13.142  10.368  69.125  1.00  0.00     0.000 HD 
BRANCH  30  32
HETATM   32  C   UNL     1     -12.069   9.516  70.668  1.00  0.00    -0.162 A  
HETATM   33  C   UNL     1     -10.758   9.131  70.959  1.00  0.00    -0.363 A  
HETATM   34  C   UNL     1     -10.498   7.959  71.688  1.00  0.00    -0.255 A  
HETATM   35  C   UNL     1     -11.550   7.167  72.149  1.00  0.00    -0.279 A  
HETATM   36  C   UNL     1     -12.864   7.571  71.947  1.00  0.00    -0.306 A  
HETATM   37  I   UNL     1     -11.154   5.350  73.081  1.00  0.00    -0.233 I  
HETATM   38  C   UNL     1     -13.107   8.730  71.210  1.00  0.00    -0.177 A  
HETATM   39  F   UNL     1     -14.384   9.088  70.995  1.00  0.00    -0.386 F  
ENDBRANCH  30  32
ENDBRANCH  10  30
TORSDOF 5
ENDMDL
MODEL       73
REMARK 921   NORMALIZED FREE ENERGY PREDICTED BY IDOCK:   -5.11 KCAL/MOL
REMARK 922        TOTAL FREE ENERGY PREDICTED BY IDOCK:   -6.82 KCAL/MOL
REMARK 923 INTER-LIGAND FREE ENERGY PREDICTED BY IDOCK:   -8.07 KCAL/MOL
REMARK 924 INTRA-LIGAND FREE ENERGY PREDICTED BY IDOCK:    1.26 KCAL/MOL
REMARK 927      BINDING AFFINITY PREDICTED BY RF-SCORE:    0.00 PKD
ROOT
HETATM    1  C   UNL     1     -11.972  10.002  70.403  1.00  0.00    -0.236 C  
HETATM    2  N   UNL     1     -11.704  10.574  69.089  1.00  0.00    -0.228 N  
HETATM    3  C   UNL     1     -11.966  11.926  68.962  1.00  0.00    -0.262 C  
HETATM    4  O   UNL     1     -12.599  12.569  69.801  1.00  0.00     0.058 OA 
HETATM    5  C   UNL     1     -11.371  12.627  67.783  1.00  0.00    -0.349 C  
HETATM    6  C   UNL     1     -10.904  11.903  66.733  1.00  0.00    -0.266 C  
HETATM    7  C   UNL     1     -11.290  14.112  68.030  1.00  0.00    -0.324 C  
HETATM    8  N   UNL     1     -10.409  12.457  65.538  1.00  0.00    -0.266 N  
HETATM    9  C   UNL     1      -9.777  11.678  64.535  1.00  0.00    -0.178 C  
HETATM   10  C   UNL     1     -11.191   9.783  68.053  1.00  0.00     0.009 C  
HETATM   11  O   UNL     1      -9.255  12.174  63.527  1.00  0.00     0.018 OA 
HETATM   12  O   UNL     1      -9.770   8.458  66.034  1.00  0.00    -0.195 OA 
HETATM   13  N   UNL     1      -9.767  10.300  64.692  1.00  0.00    -0.317 N  
HETATM   14  C   UNL     1     -10.801  10.430  66.914  1.00  0.00    -0.229 C  
HETATM   15  C   UNL     1     -10.100   9.633  65.857  1.00  0.00    -0.234 C  
ENDROOT
BRANCH   8  16
HETATM   16  C   UNL     1     -10.674  13.816  65.083  1.00  0.00    -0.358 A  
HETATM   17  C   UNL     1     -11.862  14.097  64.387  1.00  0.00    -0.447 A  
HETATM   18  C   UNL     1     -11.570  16.457  64.774  1.00  0.00     0.089 A  
HETATM   19  C   UNL     1     -10.328  16.218  65.372  1.00  0.00    -0.294 A  
HETATM   20  C   UNL     1      -9.879  14.893  65.518  1.00  0.00    -0.348 A  
HETATM   21  C   UNL     1     -12.317  15.406  64.248  1.00  0.00    -0.077 A  
BRANCH  19  22
HETATM   22  N   UNL     1      -9.624  17.355  65.834  1.00  0.00    -0.103 N  
HETATM   23  H   UNL     1      -8.843  17.668  65.259  1.00  0.00     0.000 HD 
HETATM   24  C   UNL     1      -8.920  19.253  67.161  1.00  0.00    -0.338 C  
HETATM   25  O   UNL     1     -10.774  17.889  67.781  1.00  0.00    -0.400 OA 
HETATM   26  C   UNL     1      -9.876  18.089  66.976  1.00  0.00    -0.318 C  
ENDBRANCH  19  22
ENDBRANCH   8  16
BRANCH  13  27
HETATM   27  C   UNL     1      -9.101   9.509  63.657  1.00  0.00    -0.103 C  
HETATM   28  C   UNL     1      -7.635   9.724  63.361  1.00  0.00    -0.130 C  
HETATM   29  C   UNL     1      -8.089   8.418  63.930  1.00  0.00    -0.143 C  
ENDBRANCH  13  27
BRANCH  10  30
HETATM   30  N   UNL     1     -11.062   8.421  68.292  1.00  0.00    -0.340 NA 
HETATM   31  H   UNL     1     -11.288   7.818  67.500  1.00  0.00     0.000 HD 
BRANCH  30  32
HETATM   32  C   UNL     1     -10.666   7.746  69.466  1.00  0.00    -0.198 A  
HETATM   33  C   UNL     1     -11.461   6.799  70.118  1.00  0.00    -0.404 A  
HETATM   34  C   UNL     1     -11.097   6.300  71.379  1.00  0.00    -0.339 A  
HETATM   35  C   UNL     1      -9.923   6.734  71.997  1.00  0.00    -0.171 A  
HETATM   36  C   UNL     1      -9.073   7.611  71.336  1.00  0.00    -0.146 A  
HETATM   37  I   UNL     1      -9.478   6.119  73.934  1.00  0.00    -0.222 I  
HETATM   38  C   UNL     1      -9.453   8.107  70.089  1.00  0.00    -0.167 A  
HETATM   39  F   UNL     1      -8.635   8.979  69.477  1.00  0.00    -0.122 F  
ENDBRANCH  30  32
ENDBRANCH  10  30
TORSDOF 5
ENDMDL
MODEL       74
REMARK 921   NORMALIZED FREE ENERGY PREDICTED BY IDOCK:   -5.10 KCAL/MOL
REMARK 922        TOTAL FREE ENERGY PREDICTED BY IDOCK:   -6.80 KCAL/MOL
REMARK 923 INTER-LIGAND FREE ENERGY PREDICTED BY IDOCK:   -6.59 KCAL/MOL
REMARK 924 INTRA-LIGAND FREE ENERGY PREDICTED BY IDOCK:   -0.21 KCAL/MOL
REMARK 927      BINDING AFFINITY PREDICTED BY RF-SCORE:    0.00 PKD
ROOT
HETATM    1  C   UNL     1     -12.648  11.832  70.948  1.00  0.00    -0.289 C  
HETATM    2  N   UNL     1     -11.720  10.719  70.793  1.00  0.00    -0.328 N  
HETATM    3  C   UNL     1     -12.031   9.578  71.512  1.00  0.00    -0.399 C  
HETATM    4  O   UNL     1     -12.882   9.557  72.401  1.00  0.00    -0.363 OA 
HETATM    5  C   UNL     1     -11.344   8.312  71.111  1.00  0.00    -0.298 C  
HETATM    6  C   UNL     1     -10.236   8.365  70.328  1.00  0.00    -0.196 C  
HETATM    7  C   UNL     1     -12.118   7.110  71.590  1.00  0.00    -0.371 C  
HETATM    8  N   UNL     1      -9.459   7.249  69.965  1.00  0.00    -0.161 N  
HETATM    9  C   UNL     1      -8.410   7.320  69.013  1.00  0.00    -0.126 C  
HETATM   10  C   UNL     1     -10.610  10.821  69.944  1.00  0.00    -0.076 C  
HETATM   11  O   UNL     1      -7.789   6.322  68.622  1.00  0.00    -0.099 OA 
HETATM   12  O   UNL     1      -8.618  10.710  67.977  1.00  0.00    -0.118 OA 
HETATM   13  N   UNL     1      -8.061   8.569  68.522  1.00  0.00    -0.120 N  
HETATM   14  C   UNL     1      -9.895   9.679  69.718  1.00  0.00    -0.253 C  
HETATM   15  C   UNL     1      -8.806   9.723  68.691  1.00  0.00    -0.126 C  
ENDROOT
BRANCH   8  16
HETATM   16  C   UNL     1      -9.475   5.968  70.662  1.00  0.00    -0.168 A  
HETATM   17  C   UNL     1     -10.154   4.876  70.096  1.00  0.00    -0.332 A  
HETATM   18  C   UNL     1      -8.999   3.355  71.564  1.00  0.00    -0.156 A  
HETATM   19  C   UNL     1      -8.392   4.430  72.223  1.00  0.00    -0.108 A  
HETATM   20  C   UNL     1      -8.640   5.740  71.772  1.00  0.00    -0.131 A  
HETATM   21  C   UNL     1      -9.906   3.577  70.531  1.00  0.00    -0.076 A  
BRANCH  19  22
HETATM   22  N   UNL     1      -7.522   4.103  73.290  1.00  0.00    -0.074 N  
HETATM   23  H   UNL     1      -7.922   4.139  74.227  1.00  0.00     0.000 HD 
HETATM   24  C   UNL     1      -5.564   3.456  74.556  1.00  0.00    -0.003 C  
HETATM   25  O   UNL     1      -5.540   3.622  72.178  1.00  0.00    -0.007 OA 
HETATM   26  C   UNL     1      -6.193   3.742  73.205  1.00  0.00    -0.012 C  
ENDBRANCH  19  22
ENDBRANCH   8  16
BRANCH  13  27
HETATM   27  C   UNL     1      -6.986   8.627  67.532  1.00  0.00    -0.078 C  
HETATM   28  C   UNL     1      -5.688   9.330  67.859  1.00  0.00    -0.038 C  
HETATM   29  C   UNL     1      -5.689   7.853  67.628  1.00  0.00    -0.038 C  
ENDBRANCH  13  27
BRANCH  10  30
HETATM   30  N   UNL     1     -10.368  12.055  69.356  1.00  0.00    -0.381 NA 
HETATM   31  H   UNL     1      -9.650  12.620  69.811  1.00  0.00     0.000 HD 
BRANCH  30  32
HETATM   32  C   UNL     1     -10.965  12.646  68.222  1.00  0.00    -0.248 A  
HETATM   33  C   UNL     1     -11.300  11.934  67.066  1.00  0.00    -0.392 A  
HETATM   34  C   UNL     1     -11.716  12.604  65.904  1.00  0.00    -0.470 A  
HETATM   35  C   UNL     1     -11.817  13.996  65.891  1.00  0.00    -0.383 A  
HETATM   36  C   UNL     1     -11.572  14.722  67.049  1.00  0.00    -0.352 A  
HETATM   37  I   UNL     1     -12.271  14.989  64.120  1.00  0.00     0.673 I  
HETATM   38  C   UNL     1     -11.148  14.044  68.192  1.00  0.00    -0.260 A  
HETATM   39  F   UNL     1     -10.883  14.764  69.295  1.00  0.00    -0.231 F  
ENDBRANCH  30  32
ENDBRANCH  10  30
TORSDOF 5
ENDMDL
MODEL       75
REMARK 921   NORMALIZED FREE ENERGY PREDICTED BY IDOCK:   -5.08 KCAL/MOL
REMARK 922        TOTAL FREE ENERGY PREDICTED BY IDOCK:   -6.78 KCAL/MOL
REMARK 923 INTER-LIGAND FREE ENERGY PREDICTED BY IDOCK:   -9.50 KCAL/MOL
REMARK 924 INTRA-LIGAND FREE ENERGY PREDICTED BY IDOCK:    2.72 KCAL/MOL
REMARK 927      BINDING AFFINITY PREDICTED BY RF-SCORE:    0.00 PKD
ROOT
HETATM    1  C   UNL     1      -8.761   8.809  65.438  1.00  0.00    -0.183 C  
HETATM    2  N   UNL     1      -9.351   9.189  66.716  1.00  0.00    -0.156 N  
HETATM    3  C   UNL     1      -9.921  10.449  66.759  1.00  0.00    -0.206 C  
HETATM    4  O   UNL     1      -9.749  11.294  65.880  1.00  0.00    -0.207 OA 
HETATM    5  C   UNL     1     -10.848  10.738  67.896  1.00  0.00    -0.313 C  
HETATM    6  C   UNL     1     -10.845   9.933  68.990  1.00  0.00    -0.215 C  
HETATM    7  C   UNL     1     -11.763  11.888  67.559  1.00  0.00    -0.335 C  
HETATM    8  N   UNL     1     -11.607  10.161  70.151  1.00  0.00    -0.271 N  
HETATM    9  C   UNL     1     -11.705   9.213  71.203  1.00  0.00    -0.313 C  
HETATM   10  C   UNL     1      -9.347   8.302  67.801  1.00  0.00    -0.138 C  
HETATM   11  O   UNL     1     -12.449   9.369  72.181  1.00  0.00    -0.361 OA 
HETATM   12  O   UNL     1      -9.807   6.508  69.902  1.00  0.00    -0.165 OA 
HETATM   13  N   UNL     1     -10.914   8.076  71.130  1.00  0.00    -0.239 N  
HETATM   14  C   UNL     1     -10.075   8.664  68.899  1.00  0.00    -0.213 C  
HETATM   15  C   UNL     1     -10.220   7.665  70.005  1.00  0.00    -0.213 C  
ENDROOT
BRANCH   8  16
HETATM   16  C   UNL     1     -12.188  11.445  70.522  1.00  0.00    -0.386 A  
HETATM   17  C   UNL     1     -13.153  11.504  71.541  1.00  0.00    -0.429 A  
HETATM   18  C   UNL     1     -12.845  13.885  71.741  1.00  0.00    -0.421 A  
HETATM   19  C   UNL     1     -11.965  13.875  70.652  1.00  0.00    -0.292 A  
HETATM   20  C   UNL     1     -11.645  12.650  70.039  1.00  0.00    -0.199 A  
HETATM   21  C   UNL     1     -13.467  12.711  72.159  1.00  0.00    -0.561 A  
BRANCH  19  22
HETATM   22  N   UNL     1     -11.420  15.125  70.274  1.00  0.00    -0.262 N  
HETATM   23  H   UNL     1     -10.969  15.664  71.013  1.00  0.00     0.000 HD 
HETATM   24  C   UNL     1     -10.749  17.052  68.972  1.00  0.00    -0.271 C  
HETATM   25  O   UNL     1     -11.901  15.204  68.002  1.00  0.00    -0.331 OA 
HETATM   26  C   UNL     1     -11.431  15.697  69.018  1.00  0.00    -0.363 C  
ENDBRANCH  19  22
ENDBRANCH   8  16
BRANCH  13  27
HETATM   27  C   UNL     1     -11.033   7.102  72.214  1.00  0.00    -0.243 C  
HETATM   28  C   UNL     1      -9.819   6.334  72.684  1.00  0.00    -0.175 C  
HETATM   29  C   UNL     1     -10.484   7.301  73.610  1.00  0.00    -0.391 C  
ENDBRANCH  13  27
BRANCH  10  30
HETATM   30  N   UNL     1      -8.659   7.106  67.645  1.00  0.00    -0.122 NA 
HETATM   31  H   UNL     1      -7.836   6.999  68.239  1.00  0.00     0.000 HD 
BRANCH  30  32
HETATM   32  C   UNL     1      -8.927   6.017  66.789  1.00  0.00    -0.122 A  
HETATM   33  C   UNL     1      -7.944   5.359  66.045  1.00  0.00    -0.105 A  
HETATM   34  C   UNL     1      -8.294   4.410  65.071  1.00  0.00    -0.117 A  
HETATM   35  C   UNL     1      -9.634   4.096  64.842  1.00  0.00    -0.178 A  
HETATM   36  C   UNL     1     -10.627   4.673  65.624  1.00  0.00    -0.241 A  
HETATM   37  I   UNL     1     -10.152   2.816  63.286  1.00  0.00    -0.179 I  
HETATM   38  C   UNL     1     -10.265   5.623  66.579  1.00  0.00    -0.211 A  
HETATM   39  F   UNL     1     -11.240   6.196  67.304  1.00  0.00    -0.373 F  
ENDBRANCH  30  32
ENDBRANCH  10  30
TORSDOF 5
ENDMDL
MODEL       76
REMARK 921   NORMALIZED FREE ENERGY PREDICTED BY IDOCK:   -5.06 KCAL/MOL
REMARK 922        TOTAL FREE ENERGY PREDICTED BY IDOCK:   -6.76 KCAL/MOL
REMARK 923 INTER-LIGAND FREE ENERGY PREDICTED BY IDOCK:   -6.46 KCAL/MOL
REMARK 924 INTRA-LIGAND FREE ENERGY PREDICTED BY IDOCK:   -0.30 KCAL/MOL
REMARK 927      BINDING AFFINITY PREDICTED BY RF-SCORE:    0.00 PKD
ROOT
HETATM    1  C   UNL     1     -10.305   5.214  69.717  1.00  0.00    -0.262 C  
HETATM    2  N   UNL     1      -9.874   6.402  68.990  1.00  0.00    -0.137 N  
HETATM    3  C   UNL     1     -10.380   7.603  69.454  1.00  0.00    -0.214 C  
HETATM    4  O   UNL     1     -11.308   7.673  70.260  1.00  0.00    -0.262 OA 
HETATM    5  C   UNL     1      -9.696   8.852  68.999  1.00  0.00    -0.171 C  
HETATM    6  C   UNL     1      -8.861   8.812  67.929  1.00  0.00    -0.136 C  
HETATM    7  C   UNL     1      -9.989   9.994  69.939  1.00  0.00    -0.280 C  
HETATM    8  N   UNL     1      -8.236   9.938  67.360  1.00  0.00    -0.117 N  
HETATM    9  C   UNL     1      -7.242   9.837  66.352  1.00  0.00    -0.095 C  
HETATM   10  C   UNL     1      -8.983   6.301  67.913  1.00  0.00    -0.113 C  
HETATM   11  O   UNL     1      -6.623  10.818  65.918  1.00  0.00    -0.126 OA 
HETATM   12  O   UNL     1      -6.893   6.316  66.047  1.00  0.00    -0.054 OA 
HETATM   13  N   UNL     1      -6.976   8.582  65.825  1.00  0.00    -0.070 N  
HETATM   14  C   UNL     1      -8.491   7.470  67.404  1.00  0.00    -0.115 C  
HETATM   15  C   UNL     1      -7.416   7.387  66.364  1.00  0.00    -0.084 C  
ENDROOT
BRANCH   8  16
HETATM   16  C   UNL     1      -8.673  11.314  67.556  1.00  0.00    -0.138 A  
HETATM   17  C   UNL     1      -7.896  12.187  68.335  1.00  0.00    -0.149 A  
HETATM   18  C   UNL     1      -9.064  14.089  67.431  1.00  0.00    -0.209 A  
HETATM   19  C   UNL     1      -9.929  13.241  66.730  1.00  0.00    -0.263 A  
HETATM   20  C   UNL     1      -9.734  11.849  66.802  1.00  0.00    -0.218 A  
HETATM   21  C   UNL     1      -8.077  13.565  68.261  1.00  0.00    -0.155 A  
BRANCH  19  22
HETATM   22  N   UNL     1     -10.929  13.869  65.950  1.00  0.00    -0.283 N  
HETATM   23  H   UNL     1     -11.537  14.526  66.438  1.00  0.00     0.000 HD 
HETATM   24  C   UNL     1     -12.329  14.532  64.090  1.00  0.00    -0.317 C  
HETATM   25  O   UNL     1     -10.546  12.969  63.842  1.00  0.00    -0.396 OA 
HETATM   26  C   UNL     1     -11.174  13.692  64.603  1.00  0.00    -0.373 C  
ENDBRANCH  19  22
ENDBRANCH   8  16
BRANCH  13  27
HETATM   27  C   UNL     1      -5.941   8.490  64.795  1.00  0.00    -0.063 C  
HETATM   28  C   UNL     1      -6.264   7.894  63.444  1.00  0.00    -0.067 C  
HETATM   29  C   UNL     1      -5.899   9.340  63.543  1.00  0.00    -0.087 C  
ENDBRANCH  13  27
BRANCH  10  30
HETATM   30  N   UNL     1      -8.626   5.026  67.497  1.00  0.00    -0.105 NA 
HETATM   31  H   UNL     1      -7.853   4.602  68.011  1.00  0.00     0.000 HD 
BRANCH  30  32
HETATM   32  C   UNL     1      -9.172   4.227  66.469  1.00  0.00    -0.149 A  
HETATM   33  C   UNL     1      -8.548   3.081  65.967  1.00  0.00    -0.117 A  
HETATM   34  C   UNL     1      -9.043   2.436  64.822  1.00  0.00    -0.129 A  
HETATM   35  C   UNL     1     -10.180   2.923  64.175  1.00  0.00    -0.077 A  
HETATM   36  C   UNL     1     -10.868   4.009  64.700  1.00  0.00    -0.122 A  
HETATM   37  I   UNL     1     -10.807   2.063  62.387  1.00  0.00    -0.208 I  
HETATM   38  C   UNL     1     -10.358   4.647  65.831  1.00  0.00    -0.283 A  
HETATM   39  F   UNL     1     -11.017   5.716  66.307  1.00  0.00    -0.316 F  
ENDBRANCH  30  32
ENDBRANCH  10  30
TORSDOF 5
ENDMDL
MODEL       77
REMARK 921   NORMALIZED FREE ENERGY PREDICTED BY IDOCK:   -5.02 KCAL/MOL
REMARK 922        TOTAL FREE ENERGY PREDICTED BY IDOCK:   -6.70 KCAL/MOL
REMARK 923 INTER-LIGAND FREE ENERGY PREDICTED BY IDOCK:   -7.26 KCAL/MOL
REMARK 924 INTRA-LIGAND FREE ENERGY PREDICTED BY IDOCK:    0.55 KCAL/MOL
REMARK 927      BINDING AFFINITY PREDICTED BY RF-SCORE:    0.00 PKD
ROOT
HETATM    1  C   UNL     1     -13.008  10.105  72.257  1.00  0.00    -0.222 C  
HETATM    2  N   UNL     1     -11.951  10.022  71.256  1.00  0.00    -0.376 N  
HETATM    3  C   UNL     1     -11.080   8.956  71.395  1.00  0.00    -0.306 C  
HETATM    4  O   UNL     1     -11.032   8.256  72.407  1.00  0.00    -0.323 OA 
HETATM    5  C   UNL     1     -10.229   8.614  70.214  1.00  0.00    -0.213 C  
HETATM    6  C   UNL     1     -10.079   9.513  69.208  1.00  0.00    -0.198 C  
HETATM    7  C   UNL     1      -9.739   7.191  70.304  1.00  0.00    -0.175 C  
HETATM    8  N   UNL     1      -9.235   9.335  68.096  1.00  0.00    -0.131 N  
HETATM    9  C   UNL     1      -9.231  10.218  66.985  1.00  0.00    -0.150 C  
HETATM   10  C   UNL     1     -11.867  10.962  70.221  1.00  0.00    -0.361 C  
HETATM   11  O   UNL     1      -8.560  10.012  65.965  1.00  0.00    -0.133 OA 
HETATM   12  O   UNL     1     -11.823  12.480  67.867  1.00  0.00    -0.351 OA 
HETATM   13  N   UNL     1     -10.003  11.367  67.066  1.00  0.00    -0.198 N  
HETATM   14  C   UNL     1     -10.963  10.710  69.228  1.00  0.00    -0.294 C  
HETATM   15  C   UNL     1     -10.966  11.609  68.030  1.00  0.00    -0.224 C  
ENDROOT
BRANCH   8  16
HETATM   16  C   UNL     1      -8.127   8.388  68.041  1.00  0.00    -0.123 A  
HETATM   17  C   UNL     1      -6.978   8.617  68.815  1.00  0.00    -0.063 A  
HETATM   18  C   UNL     1      -6.280   6.332  68.513  1.00  0.00    -0.032 A  
HETATM   19  C   UNL     1      -7.354   6.104  67.646  1.00  0.00    -0.080 A  
HETATM   20  C   UNL     1      -8.274   7.141  67.406  1.00  0.00    -0.116 A  
HETATM   21  C   UNL     1      -6.069   7.593  69.065  1.00  0.00    -0.035 A  
BRANCH  19  22
HETATM   22  N   UNL     1      -7.457   4.802  67.100  1.00  0.00    -0.085 N  
HETATM   23  H   UNL     1      -8.061   4.150  67.599  1.00  0.00     0.000 HD 
HETATM   24  C   UNL     1      -7.172   2.868  65.674  1.00  0.00    -0.070 C  
HETATM   25  O   UNL     1      -6.089   4.945  65.228  1.00  0.00    -0.028 OA 
HETATM   26  C   UNL     1      -6.831   4.317  65.970  1.00  0.00    -0.057 C  
ENDBRANCH  19  22
ENDBRANCH   8  16
BRANCH  13  27
HETATM   27  C   UNL     1     -10.000  12.263  65.909  1.00  0.00    -0.254 C  
HETATM   28  C   UNL     1     -11.098  12.172  64.874  1.00  0.00    -0.367 C  
HETATM   29  C   UNL     1     -10.971  13.406  65.708  1.00  0.00    -0.288 C  
ENDBRANCH  13  27
BRANCH  10  30
HETATM   30  N   UNL     1     -12.751  12.031  70.256  1.00  0.00     0.059 NA 
HETATM   31  H   UNL     1     -13.570  11.937  69.655  1.00  0.00     0.000 HD 
BRANCH  30  32
HETATM   32  C   UNL     1     -12.687  13.230  70.998  1.00  0.00    -0.293 A  
HETATM   33  C   UNL     1     -11.787  14.263  70.721  1.00  0.00    -0.336 A  
HETATM   34  C   UNL     1     -11.641  15.345  71.604  1.00  0.00    -0.492 A  
HETATM   35  C   UNL     1     -12.406  15.413  72.769  1.00  0.00    -0.407 A  
HETATM   36  C   UNL     1     -13.367  14.444  73.027  1.00  0.00    -0.484 A  
HETATM   37  I   UNL     1     -12.064  16.930  74.151  1.00  0.00     0.717 I  
HETATM   38  C   UNL     1     -13.493  13.369  72.147  1.00  0.00    -0.552 A  
HETATM   39  F   UNL     1     -14.404  12.423  72.429  1.00  0.00    -0.216 F  
ENDBRANCH  30  32
ENDBRANCH  10  30
TORSDOF 5
ENDMDL
MODEL       78
REMARK 921   NORMALIZED FREE ENERGY PREDICTED BY IDOCK:   -4.96 KCAL/MOL
REMARK 922        TOTAL FREE ENERGY PREDICTED BY IDOCK:   -6.62 KCAL/MOL
REMARK 923 INTER-LIGAND FREE ENERGY PREDICTED BY IDOCK:   -6.77 KCAL/MOL
REMARK 924 INTRA-LIGAND FREE ENERGY PREDICTED BY IDOCK:    0.14 KCAL/MOL
REMARK 927      BINDING AFFINITY PREDICTED BY RF-SCORE:    0.00 PKD
ROOT
HETATM    1  C   UNL     1      -5.335  14.409  68.707  1.00  0.00    -0.088 C  
HETATM    2  N   UNL     1      -6.373  13.439  68.379  1.00  0.00    -0.079 N  
HETATM    3  C   UNL     1      -6.261  12.211  69.006  1.00  0.00    -0.081 C  
HETATM    4  O   UNL     1      -5.248  11.855  69.609  1.00  0.00    -0.064 OA 
HETATM    5  C   UNL     1      -7.470  11.331  69.001  1.00  0.00    -0.116 C  
HETATM    6  C   UNL     1      -8.486  11.585  68.137  1.00  0.00    -0.154 C  
HETATM    7  C   UNL     1      -7.392  10.311  70.108  1.00  0.00    -0.115 C  
HETATM    8  N   UNL     1      -9.626  10.775  67.983  1.00  0.00    -0.160 N  
HETATM    9  C   UNL     1     -10.741  11.160  67.194  1.00  0.00    -0.259 C  
HETATM   10  C   UNL     1      -7.416  13.771  67.504  1.00  0.00    -0.169 C  
HETATM   11  O   UNL     1     -11.783  10.494  67.133  1.00  0.00    -0.125 OA 
HETATM   12  O   UNL     1      -9.777  14.412  66.139  1.00  0.00    -0.297 OA 
HETATM   13  N   UNL     1     -10.638  12.324  66.447  1.00  0.00    -0.237 N  
HETATM   14  C   UNL     1      -8.440  12.873  67.392  1.00  0.00    -0.196 C  
HETATM   15  C   UNL     1      -9.641  13.273  66.592  1.00  0.00    -0.262 C  
ENDROOT
BRANCH   8  16
HETATM   16  C   UNL     1      -9.717   9.384  68.409  1.00  0.00    -0.149 A  
HETATM   17  C   UNL     1     -10.318   9.071  69.640  1.00  0.00    -0.217 A  
HETATM   18  C   UNL     1     -10.530   6.763  68.987  1.00  0.00    -0.229 A  
HETATM   19  C   UNL     1      -9.833   7.020  67.801  1.00  0.00    -0.139 A  
HETATM   20  C   UNL     1      -9.420   8.335  67.519  1.00  0.00    -0.182 A  
HETATM   21  C   UNL     1     -10.738   7.774  69.921  1.00  0.00    -0.245 A  
BRANCH  19  22
HETATM   22  N   UNL     1      -9.632   5.917  66.938  1.00  0.00    -0.136 N  
HETATM   23  H   UNL     1     -10.081   5.043  67.210  1.00  0.00     0.000 HD 
HETATM   24  C   UNL     1      -8.899   4.533  65.093  1.00  0.00    -0.143 C  
HETATM   25  O   UNL     1      -8.306   6.835  65.266  1.00  0.00    -0.139 OA 
HETATM   26  C   UNL     1      -8.898   5.891  65.770  1.00  0.00    -0.139 C  
ENDBRANCH  19  22
ENDBRANCH   8  16
BRANCH  13  27
HETATM   27  C   UNL     1     -11.798  12.716  65.647  1.00  0.00    -0.437 C  
HETATM   28  C   UNL     1     -11.622  13.131  64.204  1.00  0.00    -0.460 C  
HETATM   29  C   UNL     1     -12.385  11.887  64.526  1.00  0.00    -0.183 C  
ENDBRANCH  13  27
BRANCH  10  30
HETATM   30  N   UNL     1      -7.354  15.008  66.877  1.00  0.00    -0.310 NA 
HETATM   31  H   UNL     1      -6.897  15.009  65.964  1.00  0.00     0.000 HD 
BRANCH  30  32
HETATM   32  C   UNL     1      -7.828  16.264  67.311  1.00  0.00    -0.173 A  
HETATM   33  C   UNL     1      -8.643  16.435  68.434  1.00  0.00    -0.209 A  
HETATM   34  C   UNL     1      -9.237  17.678  68.708  1.00  0.00    -0.215 A  
HETATM   35  C   UNL     1      -9.008  18.769  67.868  1.00  0.00    -0.295 A  
HETATM   36  C   UNL     1      -8.137  18.649  66.794  1.00  0.00    -0.275 A  
HETATM   37  I   UNL     1     -10.023  20.558  68.187  1.00  0.00     0.309 I  
HETATM   38  C   UNL     1      -7.564  17.406  66.527  1.00  0.00    -0.282 A  
HETATM   39  F   UNL     1      -6.749  17.298  65.464  1.00  0.00    -0.119 F  
ENDBRANCH  30  32
ENDBRANCH  10  30
TORSDOF 5
ENDMDL
MODEL       79
REMARK 921   NORMALIZED FREE ENERGY PREDICTED BY IDOCK:   -4.87 KCAL/MOL
REMARK 922        TOTAL FREE ENERGY PREDICTED BY IDOCK:   -6.51 KCAL/MOL
REMARK 923 INTER-LIGAND FREE ENERGY PREDICTED BY IDOCK:   -7.11 KCAL/MOL
REMARK 924 INTRA-LIGAND FREE ENERGY PREDICTED BY IDOCK:    0.60 KCAL/MOL
REMARK 927      BINDING AFFINITY PREDICTED BY RF-SCORE:    0.00 PKD
ROOT
HETATM    1  C   UNL     1     -11.998   6.864  71.737  1.00  0.00    -0.333 C  
HETATM    2  N   UNL     1     -11.600   7.684  70.599  1.00  0.00    -0.267 N  
HETATM    3  C   UNL     1     -12.014   9.004  70.641  1.00  0.00    -0.099 C  
HETATM    4  O   UNL     1     -12.853   9.418  71.440  1.00  0.00    -0.324 OA 
HETATM    5  C   UNL     1     -11.334   9.960  69.714  1.00  0.00    -0.241 C  
HETATM    6  C   UNL     1     -10.612   9.486  68.666  1.00  0.00    -0.210 C  
HETATM    7  C   UNL     1     -11.490  11.378  70.201  1.00  0.00    -0.302 C  
HETATM    8  N   UNL     1     -10.007  10.291  67.683  1.00  0.00    -0.173 N  
HETATM    9  C   UNL     1      -9.124   9.771  66.701  1.00  0.00    -0.147 C  
HETATM   10  C   UNL     1     -10.825   7.147  69.562  1.00  0.00    -0.225 C  
HETATM   11  O   UNL     1      -8.516  10.489  65.896  1.00  0.00    -0.150 OA 
HETATM   12  O   UNL     1      -8.934   6.355  67.653  1.00  0.00    -0.115 OA 
HETATM   13  N   UNL     1      -8.957   8.395  66.640  1.00  0.00    -0.143 N  
HETATM   14  C   UNL     1     -10.345   8.022  68.630  1.00  0.00    -0.224 C  
HETATM   15  C   UNL     1      -9.384   7.502  67.606  1.00  0.00    -0.137 C  
ENDROOT
BRANCH   8  16
HETATM   16  C   UNL     1     -10.373  11.674  67.406  1.00  0.00    -0.205 A  
HETATM   17  C   UNL     1     -11.650  11.969  66.901  1.00  0.00    -0.389 A  
HETATM   18  C   UNL     1     -11.383  14.290  67.484  1.00  0.00    -0.346 A  
HETATM   19  C   UNL     1     -10.066  14.050  67.890  1.00  0.00    -0.237 A  
HETATM   20  C   UNL     1      -9.560  12.738  67.841  1.00  0.00    -0.211 A  
HETATM   21  C   UNL     1     -12.160  13.263  66.955  1.00  0.00    -0.375 A  
BRANCH  19  22
HETATM   22  N   UNL     1      -9.342  15.167  68.370  1.00  0.00    -0.191 N  
HETATM   23  H   UNL     1      -8.772  15.014  69.201  1.00  0.00     0.000 HD 
HETATM   24  C   UNL     1      -8.429  17.396  68.613  1.00  0.00    -0.257 C  
HETATM   25  O   UNL     1      -9.916  16.819  66.841  1.00  0.00    -0.256 OA 
HETATM   26  C   UNL     1      -9.322  16.442  67.840  1.00  0.00    -0.214 C  
ENDBRANCH  19  22
ENDBRANCH   8  16
BRANCH  13  27
HETATM   27  C   UNL     1      -8.035   7.873  65.632  1.00  0.00    -0.116 C  
HETATM   28  C   UNL     1      -6.778   8.638  65.282  1.00  0.00    -0.067 C  
HETATM   29  C   UNL     1      -6.669   7.298  65.936  1.00  0.00    -0.053 C  
ENDBRANCH  13  27
BRANCH  10  30
HETATM   30  N   UNL     1     -10.558   5.785  69.604  1.00  0.00    -0.297 NA 
HETATM   31  H   UNL     1     -11.180   5.203  69.042  1.00  0.00     0.000 HD 
BRANCH  30  32
HETATM   32  C   UNL     1      -9.555   5.084  70.308  1.00  0.00    -0.187 A  
HETATM   33  C   UNL     1      -8.786   5.654  71.327  1.00  0.00    -0.134 A  
HETATM   34  C   UNL     1      -7.680   4.971  71.860  1.00  0.00    -0.107 A  
HETATM   35  C   UNL     1      -7.342   3.702  71.389  1.00  0.00    -0.040 A  
HETATM   36  C   UNL     1      -8.138   3.078  70.437  1.00  0.00    -0.055 A  
HETATM   37  I   UNL     1      -5.608   2.770  72.064  1.00  0.00    -0.009 I  
HETATM   38  C   UNL     1      -9.226   3.773  69.908  1.00  0.00    -0.148 A  
HETATM   39  F   UNL     1      -9.966   3.169  68.965  1.00  0.00    -0.124 F  
ENDBRANCH  30  32
ENDBRANCH  10  30
TORSDOF 5
ENDMDL
MODEL       80
REMARK 921   NORMALIZED FREE ENERGY PREDICTED BY IDOCK:   -4.87 KCAL/MOL
REMARK 922        TOTAL FREE ENERGY PREDICTED BY IDOCK:   -6.50 KCAL/MOL
REMARK 923 INTER-LIGAND FREE ENERGY PREDICTED BY IDOCK:   -7.27 KCAL/MOL
REMARK 924 INTRA-LIGAND FREE ENERGY PREDICTED BY IDOCK:    0.77 KCAL/MOL
REMARK 927      BINDING AFFINITY PREDICTED BY RF-SCORE:    0.00 PKD
ROOT
HETATM    1  C   UNL     1      -7.082  13.739  67.713  1.00  0.00    -0.167 C  
HETATM    2  N   UNL     1      -7.798  12.472  67.801  1.00  0.00    -0.137 N  
HETATM    3  C   UNL     1      -7.177  11.393  67.198  1.00  0.00    -0.134 C  
HETATM    4  O   UNL     1      -6.217  11.511  66.437  1.00  0.00    -0.118 OA 
HETATM    5  C   UNL     1      -7.666  10.030  67.571  1.00  0.00    -0.091 C  
HETATM    6  C   UNL     1      -8.867   9.890  68.190  1.00  0.00    -0.118 C  
HETATM    7  C   UNL     1      -6.619   8.987  67.272  1.00  0.00    -0.061 C  
HETATM    8  N   UNL     1      -9.465   8.656  68.505  1.00  0.00    -0.141 N  
HETATM    9  C   UNL     1     -10.637   8.550  69.298  1.00  0.00    -0.181 C  
HETATM   10  C   UNL     1      -9.020  12.383  68.482  1.00  0.00    -0.058 C  
HETATM   11  O   UNL     1     -11.111   7.463  69.656  1.00  0.00    -0.210 OA 
HETATM   12  O   UNL     1     -11.220  11.946  70.160  1.00  0.00    -0.034 OA 
HETATM   13  N   UNL     1     -11.281   9.723  69.665  1.00  0.00    -0.214 N  
HETATM   14  C   UNL     1      -9.533  11.131  68.672  1.00  0.00    -0.196 C  
HETATM   15  C   UNL     1     -10.749  10.993  69.535  1.00  0.00    -0.183 C  
ENDROOT
BRANCH   8  16
HETATM   16  C   UNL     1      -9.109   7.383  67.890  1.00  0.00    -0.129 A  
HETATM   17  C   UNL     1      -8.312   6.467  68.598  1.00  0.00    -0.122 A  
HETATM   18  C   UNL     1      -8.944   4.700  67.089  1.00  0.00    -0.118 A  
HETATM   19  C   UNL     1      -9.654   5.610  66.298  1.00  0.00    -0.147 A  
HETATM   20  C   UNL     1      -9.727   6.957  66.700  1.00  0.00    -0.221 A  
HETATM   21  C   UNL     1      -8.243   5.131  68.212  1.00  0.00    -0.093 A  
BRANCH  19  22
HETATM   22  N   UNL     1     -10.294   5.082  65.152  1.00  0.00    -0.374 N  
HETATM   23  H   UNL     1     -11.287   5.290  65.053  1.00  0.00     0.000 HD 
HETATM   24  C   UNL     1     -10.710   3.925  63.068  1.00  0.00    -0.136 C  
HETATM   25  O   UNL     1      -8.552   3.983  64.078  1.00  0.00    -0.096 OA 
HETATM   26  C   UNL     1      -9.725   4.319  64.153  1.00  0.00    -0.090 C  
ENDBRANCH  19  22
ENDBRANCH   8  16
BRANCH  13  27
HETATM   27  C   UNL     1     -12.481   9.601  70.493  1.00  0.00     0.002 C  
HETATM   28  C   UNL     1     -12.388   9.024  71.887  1.00  0.00    -0.455 C  
HETATM   29  C   UNL     1     -12.777  10.456  71.705  1.00  0.00    -0.525 C  
ENDBRANCH  13  27
BRANCH  10  30
HETATM   30  N   UNL     1      -9.571  13.563  68.961  1.00  0.00    -0.397 NA 
HETATM   31  H   UNL     1      -9.749  13.582  69.965  1.00  0.00     0.000 HD 
BRANCH  30  32
HETATM   32  C   UNL     1      -9.924  14.740  68.266  1.00  0.00    -0.222 A  
HETATM   33  C   UNL     1      -9.913  14.847  66.873  1.00  0.00    -0.245 A  
HETATM   34  C   UNL     1     -10.090  16.092  66.246  1.00  0.00    -0.329 A  
HETATM   35  C   UNL     1     -10.294  17.242  67.009  1.00  0.00    -0.318 A  
HETATM   36  C   UNL     1     -10.393  17.152  68.391  1.00  0.00    -0.362 A  
HETATM   37  I   UNL     1     -10.387  19.102  66.081  1.00  0.00    -0.361 I  
HETATM   38  C   UNL     1     -10.203  15.911  69.000  1.00  0.00    -0.227 A  
HETATM   39  F   UNL     1     -10.269  15.847  70.340  1.00  0.00    -0.261 F  
ENDBRANCH  30  32
ENDBRANCH  10  30
TORSDOF 5
ENDMDL
MODEL       81
REMARK 921   NORMALIZED FREE ENERGY PREDICTED BY IDOCK:   -4.77 KCAL/MOL
REMARK 922        TOTAL FREE ENERGY PREDICTED BY IDOCK:   -6.37 KCAL/MOL
REMARK 923 INTER-LIGAND FREE ENERGY PREDICTED BY IDOCK:   -6.20 KCAL/MOL
REMARK 924 INTRA-LIGAND FREE ENERGY PREDICTED BY IDOCK:   -0.18 KCAL/MOL
REMARK 927      BINDING AFFINITY PREDICTED BY RF-SCORE:    0.00 PKD
ROOT
HETATM    1  C   UNL     1      -7.783   8.281  62.398  1.00  0.00    -0.128 C  
HETATM    2  N   UNL     1      -8.094   9.015  63.619  1.00  0.00    -0.155 N  
HETATM    3  C   UNL     1      -8.778  10.205  63.442  1.00  0.00    -0.213 C  
HETATM    4  O   UNL     1      -8.915  10.743  62.342  1.00  0.00    -0.258 OA 
HETATM    5  C   UNL     1      -9.437  10.797  64.646  1.00  0.00    -0.297 C  
HETATM    6  C   UNL     1      -9.085  10.370  65.886  1.00  0.00    -0.165 C  
HETATM    7  C   UNL     1     -10.531  11.752  64.240  1.00  0.00    -0.373 C  
HETATM    8  N   UNL     1      -9.572  10.917  67.088  1.00  0.00    -0.164 N  
HETATM    9  C   UNL     1      -9.311  10.338  68.357  1.00  0.00    -0.143 C  
HETATM   10  C   UNL     1      -7.733   8.508  64.874  1.00  0.00    -0.105 C  
HETATM   11  O   UNL     1      -9.816  10.761  69.405  1.00  0.00    -0.186 OA 
HETATM   12  O   UNL     1      -7.476   7.435  67.449  1.00  0.00    -0.098 OA 
HETATM   13  N   UNL     1      -8.434   9.265  68.413  1.00  0.00    -0.120 N  
HETATM   14  C   UNL     1      -8.218   9.164  65.970  1.00  0.00    -0.115 C  
HETATM   15  C   UNL     1      -7.983   8.552  67.317  1.00  0.00    -0.102 C  
ENDROOT
BRANCH   8  16
HETATM   16  C   UNL     1     -10.192  12.231  67.208  1.00  0.00    -0.210 A  
HETATM   17  C   UNL     1     -11.580  12.330  67.404  1.00  0.00    -0.425 A  
HETATM   18  C   UNL     1     -11.351  14.621  68.110  1.00  0.00    -0.321 A  
HETATM   19  C   UNL     1      -9.983  14.588  67.816  1.00  0.00    -0.225 A  
HETATM   20  C   UNL     1      -9.407  13.390  67.357  1.00  0.00    -0.221 A  
HETATM   21  C   UNL     1     -12.154  13.510  67.868  1.00  0.00    -0.304 A  
BRANCH  19  22
HETATM   22  N   UNL     1      -9.260  15.782  68.053  1.00  0.00    -0.188 N  
HETATM   23  H   UNL     1      -9.026  15.984  69.025  1.00  0.00     0.000 HD 
HETATM   24  C   UNL     1      -8.083  17.871  67.727  1.00  0.00    -0.231 C  
HETATM   25  O   UNL     1      -9.000  16.634  65.908  1.00  0.00    -0.482 OA 
HETATM   26  C   UNL     1      -8.838  16.704  67.117  1.00  0.00    -0.192 C  
ENDBRANCH  19  22
ENDBRANCH   8  16
BRANCH  13  27
HETATM   27  C   UNL     1      -8.183   8.669  69.725  1.00  0.00    -0.121 C  
HETATM   28  C   UNL     1      -6.779   8.277  70.126  1.00  0.00    -0.036 C  
HETATM   29  C   UNL     1      -7.478   9.372  70.865  1.00  0.00    -0.097 C  
ENDBRANCH  13  27
BRANCH  10  30
HETATM   30  N   UNL     1      -6.969   7.349  64.899  1.00  0.00    -0.050 NA 
HETATM   31  H   UNL     1      -5.964   7.489  64.798  1.00  0.00     0.000 HD 
BRANCH  30  32
HETATM   32  C   UNL     1      -7.376   6.005  65.042  1.00  0.00    -0.073 A  
HETATM   33  C   UNL     1      -8.672   5.557  64.771  1.00  0.00    -0.040 A  
HETATM   34  C   UNL     1      -9.067   4.252  65.110  1.00  0.00    -0.145 A  
HETATM   35  C   UNL     1      -8.163   3.376  65.712  1.00  0.00    -0.094 A  
HETATM   36  C   UNL     1      -6.846   3.767  65.916  1.00  0.00    -0.057 A  
HETATM   37  I   UNL     1      -8.803   1.506  66.362  1.00  0.00    -0.018 I  
HETATM   38  C   UNL     1      -6.471   5.069  65.585  1.00  0.00    -0.036 A  
HETATM   39  F   UNL     1      -5.202   5.443  65.820  1.00  0.00    -0.010 F  
ENDBRANCH  30  32
ENDBRANCH  10  30
TORSDOF 5
ENDMDL
MODEL       82
REMARK 921   NORMALIZED FREE ENERGY PREDICTED BY IDOCK:   -4.76 KCAL/MOL
REMARK 922        TOTAL FREE ENERGY PREDICTED BY IDOCK:   -6.36 KCAL/MOL
REMARK 923 INTER-LIGAND FREE ENERGY PREDICTED BY IDOCK:   -6.40 KCAL/MOL
REMARK 924 INTRA-LIGAND FREE ENERGY PREDICTED BY IDOCK:    0.04 KCAL/MOL
REMARK 927      BINDING AFFINITY PREDICTED BY RF-SCORE:    0.00 PKD
ROOT
HETATM    1  C   UNL     1      -6.754  11.431  68.102  1.00  0.00    -0.059 C  
HETATM    2  N   UNL     1      -7.337  10.104  68.266  1.00  0.00    -0.080 N  
HETATM    3  C   UNL     1      -6.520   9.046  67.911  1.00  0.00    -0.057 C  
HETATM    4  O   UNL     1      -5.472   9.189  67.280  1.00  0.00    -0.040 OA 
HETATM    5  C   UNL     1      -6.913   7.689  68.400  1.00  0.00    -0.072 C  
HETATM    6  C   UNL     1      -8.173   7.476  68.861  1.00  0.00    -0.128 C  
HETATM    7  C   UNL     1      -5.728   6.756  68.397  1.00  0.00    -0.017 C  
HETATM    8  N   UNL     1      -8.678   6.225  69.260  1.00  0.00    -0.123 N  
HETATM    9  C   UNL     1      -9.939   6.071  69.891  1.00  0.00    -0.176 C  
HETATM   10  C   UNL     1      -8.631   9.947  68.778  1.00  0.00    -0.130 C  
HETATM   11  O   UNL     1     -10.344   4.986  70.329  1.00  0.00    -0.266 OA 
HETATM   12  O   UNL     1     -11.004   9.447  70.182  1.00  0.00    -0.229 OA 
HETATM   13  N   UNL     1     -10.752   7.190  69.999  1.00  0.00    -0.242 N  
HETATM   14  C   UNL     1      -9.032   8.673  69.069  1.00  0.00    -0.142 C  
HETATM   15  C   UNL     1     -10.344   8.491  69.767  1.00  0.00    -0.212 C  
ENDROOT
BRANCH   8  16
HETATM   16  C   UNL     1      -8.099   4.941  68.885  1.00  0.00    -0.083 A  
HETATM   17  C   UNL     1      -7.462   4.153  69.858  1.00  0.00    -0.049 A  
HETATM   18  C   UNL     1      -7.572   2.225  68.418  1.00  0.00    -0.050 A  
HETATM   19  C   UNL     1      -8.103   3.009  67.388  1.00  0.00    -0.077 A  
HETATM   20  C   UNL     1      -8.359   4.372  67.624  1.00  0.00    -0.099 A  
HETATM   21  C   UNL     1      -7.216   2.801  69.635  1.00  0.00    -0.044 A  
BRANCH  19  22
HETATM   22  N   UNL     1      -8.390   2.341  66.174  1.00  0.00    -0.090 N  
HETATM   23  H   UNL     1      -7.912   1.452  66.023  1.00  0.00     0.000 HD 
HETATM   24  C   UNL     1      -9.311   1.785  64.006  1.00  0.00    -0.123 C  
HETATM   25  O   UNL     1      -9.918   3.774  65.171  1.00  0.00    -0.177 OA 
HETATM   26  C   UNL     1      -9.242   2.756  65.171  1.00  0.00    -0.139 C  
ENDBRANCH  19  22
ENDBRANCH   8  16
BRANCH  13  27
HETATM   27  C   UNL     1     -12.045   7.021  70.662  1.00  0.00    -0.284 C  
HETATM   28  C   UNL     1     -12.111   6.492  72.077  1.00  0.00    -0.358 C  
HETATM   29  C   UNL     1     -12.549   7.893  71.792  1.00  0.00    -0.353 C  
ENDBRANCH  13  27
BRANCH  10  30
HETATM   30  N   UNL     1      -9.372  11.099  69.007  1.00  0.00    -0.386 NA 
HETATM   31  H   UNL     1      -9.390  11.417  69.976  1.00  0.00     0.000 HD 
BRANCH  30  32
HETATM   32  C   UNL     1     -10.104  11.895  68.100  1.00  0.00    -0.198 A  
HETATM   33  C   UNL     1     -11.042  11.378  67.202  1.00  0.00    -0.366 A  
HETATM   34  C   UNL     1     -11.599  12.188  66.199  1.00  0.00    -0.418 A  
HETATM   35  C   UNL     1     -11.234  13.531  66.094  1.00  0.00    -0.295 A  
HETATM   36  C   UNL     1     -10.368  14.091  67.024  1.00  0.00    -0.267 A  
HETATM   37  I   UNL     1     -11.934  14.678  64.505  1.00  0.00    -0.211 I  
HETATM   38  C   UNL     1      -9.813  13.272  68.007  1.00  0.00    -0.230 A  
HETATM   39  F   UNL     1      -8.951  13.821  68.878  1.00  0.00    -0.132 F  
ENDBRANCH  30  32
ENDBRANCH  10  30
TORSDOF 5
ENDMDL
MODEL       83
REMARK 921   NORMALIZED FREE ENERGY PREDICTED BY IDOCK:   -4.74 KCAL/MOL
REMARK 922        TOTAL FREE ENERGY PREDICTED BY IDOCK:   -6.34 KCAL/MOL
REMARK 923 INTER-LIGAND FREE ENERGY PREDICTED BY IDOCK:   -7.44 KCAL/MOL
REMARK 924 INTRA-LIGAND FREE ENERGY PREDICTED BY IDOCK:    1.10 KCAL/MOL
REMARK 927      BINDING AFFINITY PREDICTED BY RF-SCORE:    0.00 PKD
ROOT
HETATM    1  C   UNL     1      -9.496  11.635  65.414  1.00  0.00    -0.171 C  
HETATM    2  N   UNL     1      -9.745  10.544  66.349  1.00  0.00    -0.191 N  
HETATM    3  C   UNL     1      -8.969   9.413  66.166  1.00  0.00    -0.161 C  
HETATM    4  O   UNL     1      -8.286   9.224  65.159  1.00  0.00    -0.127 OA 
HETATM    5  C   UNL     1      -8.915   8.435  67.295  1.00  0.00    -0.142 C  
HETATM    6  C   UNL     1      -9.845   8.493  68.283  1.00  0.00    -0.169 C  
HETATM    7  C   UNL     1      -7.689   7.563  67.189  1.00  0.00    -0.112 C  
HETATM    8  N   UNL     1      -9.944   7.572  69.343  1.00  0.00    -0.174 N  
HETATM    9  C   UNL     1     -10.819   7.759  70.444  1.00  0.00    -0.244 C  
HETATM   10  C   UNL     1     -10.696  10.675  67.370  1.00  0.00    -0.276 C  
HETATM   11  O   UNL     1     -10.840   7.000  71.422  1.00  0.00    -0.227 OA 
HETATM   12  O   UNL     1     -12.224  10.936  69.704  1.00  0.00    -0.328 OA 
HETATM   13  N   UNL     1     -11.698   8.831  70.400  1.00  0.00    -0.103 N  
HETATM   14  C   UNL     1     -10.739   9.682  68.308  1.00  0.00    -0.262 C  
HETATM   15  C   UNL     1     -11.629   9.875  69.496  1.00  0.00     0.001 C  
ENDROOT
BRANCH   8  16
HETATM   16  C   UNL     1      -9.355   6.238  69.338  1.00  0.00    -0.140 A  
HETATM   17  C   UNL     1      -8.803   5.717  70.520  1.00  0.00    -0.144 A  
HETATM   18  C   UNL     1      -8.829   3.495  69.593  1.00  0.00    -0.151 A  
HETATM   19  C   UNL     1      -9.272   3.998  68.364  1.00  0.00    -0.150 A  
HETATM   20  C   UNL     1      -9.527   5.376  68.239  1.00  0.00    -0.146 A  
HETATM   21  C   UNL     1      -8.558   4.353  70.654  1.00  0.00    -0.110 A  
BRANCH  19  22
HETATM   22  N   UNL     1      -9.475   3.051  67.333  1.00  0.00    -0.349 N  
HETATM   23  H   UNL     1      -9.949   2.188  67.598  1.00  0.00     0.000 HD 
HETATM   24  C   UNL     1      -9.483   1.952  65.177  1.00  0.00     0.048 C  
HETATM   25  O   UNL     1      -8.547   4.121  65.492  1.00  0.00    -0.115 OA 
HETATM   26  C   UNL     1      -9.103   3.163  66.008  1.00  0.00    -0.147 C  
ENDBRANCH  19  22
ENDBRANCH   8  16
BRANCH  13  27
HETATM   27  C   UNL     1     -12.586   9.020  71.547  1.00  0.00    -0.338 C  
HETATM   28  C   UNL     1     -14.029   9.417  71.334  1.00  0.00    -0.172 C  
HETATM   29  C   UNL     1     -13.711   8.081  71.924  1.00  0.00    -0.381 C  
ENDBRANCH  13  27
BRANCH  10  30
HETATM   30  N   UNL     1     -11.467  11.829  67.380  1.00  0.00    -0.430 NA 
HETATM   31  H   UNL     1     -12.473  11.680  67.296  1.00  0.00     0.000 HD 
BRANCH  30  32
HETATM   32  C   UNL     1     -11.068  13.179  67.488  1.00  0.00    -0.271 A  
HETATM   33  C   UNL     1     -10.272  13.668  68.528  1.00  0.00    -0.234 A  
HETATM   34  C   UNL     1     -10.064  15.048  68.686  1.00  0.00    -0.233 A  
HETATM   35  C   UNL     1     -10.641  15.954  67.795  1.00  0.00    -0.302 A  
HETATM   36  C   UNL     1     -11.367  15.492  66.706  1.00  0.00    -0.054 A  
HETATM   37  I   UNL     1     -10.467  17.999  68.135  1.00  0.00    -0.179 I  
HETATM   38  C   UNL     1     -11.575  14.120  66.568  1.00  0.00    -0.375 A  
HETATM   39  F   UNL     1     -12.308  13.691  65.527  1.00  0.00    -0.381 F  
ENDBRANCH  30  32
ENDBRANCH  10  30
TORSDOF 5
ENDMDL
MODEL       84
REMARK 921   NORMALIZED FREE ENERGY PREDICTED BY IDOCK:   -4.68 KCAL/MOL
REMARK 922        TOTAL FREE ENERGY PREDICTED BY IDOCK:   -6.26 KCAL/MOL
REMARK 923 INTER-LIGAND FREE ENERGY PREDICTED BY IDOCK:   -6.94 KCAL/MOL
REMARK 924 INTRA-LIGAND FREE ENERGY PREDICTED BY IDOCK:    0.68 KCAL/MOL
REMARK 927      BINDING AFFINITY PREDICTED BY RF-SCORE:    0.00 PKD
ROOT
HETATM    1  C   UNL     1     -11.700  12.462  64.899  1.00  0.00    -0.365 C  
HETATM    2  N   UNL     1     -10.646  13.304  65.452  1.00  0.00    -0.288 N  
HETATM    3  C   UNL     1     -10.773  14.659  65.206  1.00  0.00    -0.381 C  
HETATM    4  O   UNL     1     -11.569  15.120  64.388  1.00  0.00    -0.354 OA 
HETATM    5  C   UNL     1      -9.950  15.584  66.045  1.00  0.00    -0.356 C  
HETATM    6  C   UNL     1      -8.898  15.097  66.751  1.00  0.00    -0.271 C  
HETATM    7  C   UNL     1     -10.540  16.971  66.044  1.00  0.00    -0.208 C  
HETATM    8  N   UNL     1      -8.004  15.886  67.499  1.00  0.00    -0.135 N  
HETATM    9  C   UNL     1      -7.020  15.328  68.357  1.00  0.00    -0.111 C  
HETATM   10  C   UNL     1      -9.601  12.746  66.202  1.00  0.00    -0.212 C  
HETATM   11  O   UNL     1      -6.297  16.018  69.088  1.00  0.00    -0.133 OA 
HETATM   12  O   UNL     1      -7.712  11.856  68.069  1.00  0.00    -0.115 OA 
HETATM   13  N   UNL     1      -6.859  13.950  68.352  1.00  0.00    -0.090 N  
HETATM   14  C   UNL     1      -8.759  13.618  66.833  1.00  0.00    -0.162 C  
HETATM   15  C   UNL     1      -7.736  13.052  67.770  1.00  0.00    -0.151 C  
ENDROOT
BRANCH   8  16
HETATM   16  C   UNL     1      -7.821  17.321  67.324  1.00  0.00    -0.189 A  
HETATM   17  C   UNL     1      -8.177  18.199  68.362  1.00  0.00    -0.314 A  
HETATM   18  C   UNL     1      -6.896  19.969  67.347  1.00  0.00    -0.261 A  
HETATM   19  C   UNL     1      -6.618  19.154  66.244  1.00  0.00    -0.203 A  
HETATM   20  C   UNL     1      -7.091  17.829  66.233  1.00  0.00    -0.329 A  
HETATM   21  C   UNL     1      -7.704  19.509  68.384  1.00  0.00    -0.372 A  
BRANCH  19  22
HETATM   22  N   UNL     1      -5.827  19.728  65.221  1.00  0.00    -0.183 N  
HETATM   23  H   UNL     1      -4.833  19.503  65.239  1.00  0.00     0.000 HD 
HETATM   24  C   UNL     1      -5.126  20.988  63.278  1.00  0.00    -0.235 C  
HETATM   25  O   UNL     1      -7.397  20.927  63.999  1.00  0.00     0.343 OA 
HETATM   26  C   UNL     1      -6.250  20.559  64.203  1.00  0.00    -0.275 C  
ENDBRANCH  19  22
ENDBRANCH   8  16
BRANCH  13  27
HETATM   27  C   UNL     1      -5.850  13.387  69.249  1.00  0.00    -0.087 C  
HETATM   28  C   UNL     1      -5.956  13.601  70.741  1.00  0.00    -0.130 C  
HETATM   29  C   UNL     1      -6.089  12.220  70.183  1.00  0.00    -0.111 C  
ENDBRANCH  13  27
BRANCH  10  30
HETATM   30  N   UNL     1      -9.548  11.362  66.293  1.00  0.00    -0.207 NA 
HETATM   31  H   UNL     1     -10.073  10.958  67.069  1.00  0.00     0.000 HD 
BRANCH  30  32
HETATM   32  C   UNL     1      -8.877  10.430  65.474  1.00  0.00    -0.176 A  
HETATM   33  C   UNL     1      -8.235   9.290  65.966  1.00  0.00    -0.111 A  
HETATM   34  C   UNL     1      -7.426   8.503  65.130  1.00  0.00    -0.091 A  
HETATM   35  C   UNL     1      -7.264   8.839  63.786  1.00  0.00    -0.096 A  
HETATM   36  C   UNL     1      -7.957   9.917  63.250  1.00  0.00    -0.151 A  
HETATM   37  I   UNL     1      -5.935   7.766  62.598  1.00  0.00    -0.069 I  
HETATM   38  C   UNL     1      -8.746  10.698  64.095  1.00  0.00    -0.131 A  
HETATM   39  F   UNL     1      -9.383  11.756  63.568  1.00  0.00    -0.227 F  
ENDBRANCH  30  32
ENDBRANCH  10  30
TORSDOF 5
ENDMDL
MODEL       85
REMARK 921   NORMALIZED FREE ENERGY PREDICTED BY IDOCK:   -4.67 KCAL/MOL
REMARK 922        TOTAL FREE ENERGY PREDICTED BY IDOCK:   -6.25 KCAL/MOL
REMARK 923 INTER-LIGAND FREE ENERGY PREDICTED BY IDOCK:   -6.78 KCAL/MOL
REMARK 924 INTRA-LIGAND FREE ENERGY PREDICTED BY IDOCK:    0.53 KCAL/MOL
REMARK 927      BINDING AFFINITY PREDICTED BY RF-SCORE:    0.00 PKD
ROOT
HETATM    1  C   UNL     1     -11.918   8.717  72.464  1.00  0.00    -0.231 C  
HETATM    2  N   UNL     1     -11.210   9.384  71.378  1.00  0.00    -0.358 N  
HETATM    3  C   UNL     1     -11.900  10.411  70.758  1.00  0.00    -0.368 C  
HETATM    4  O   UNL     1     -13.103  10.609  70.927  1.00  0.00    -0.357 OA 
HETATM    5  C   UNL     1     -11.103  11.352  69.913  1.00  0.00    -0.134 C  
HETATM    6  C   UNL     1      -9.854  11.005  69.510  1.00  0.00     0.161 C  
HETATM    7  C   UNL     1     -11.835  12.659  69.734  1.00  0.00    -0.379 C  
HETATM    8  N   UNL     1      -9.052  11.770  68.642  1.00  0.00    -0.124 N  
HETATM    9  C   UNL     1      -7.693  11.459  68.378  1.00  0.00    -0.127 C  
HETATM   10  C   UNL     1      -9.908   9.002  71.029  1.00  0.00    -0.282 C  
HETATM   11  O   UNL     1      -6.959  12.183  67.691  1.00  0.00    -0.097 OA 
HETATM   12  O   UNL     1      -7.177   8.662  70.505  1.00  0.00    -0.044 OA 
HETATM   13  N   UNL     1      -7.183  10.280  68.900  1.00  0.00    -0.080 N  
HETATM   14  C   UNL     1      -9.252   9.792  70.127  1.00  0.00    -0.253 C  
HETATM   15  C   UNL     1      -7.807   9.503  69.859  1.00  0.00    -0.138 C  
ENDROOT
BRANCH   8  16
HETATM   16  C   UNL     1      -9.554  12.810  67.752  1.00  0.00    -0.204 A  
HETATM   17  C   UNL     1      -8.860  14.027  67.643  1.00  0.00    -0.190 A  
HETATM   18  C   UNL     1     -10.045  14.559  65.615  1.00  0.00    -0.384 A  
HETATM   19  C   UNL     1     -10.832  13.410  65.758  1.00  0.00    -0.275 A  
HETATM   20  C   UNL     1     -10.587  12.540  66.836  1.00  0.00    -0.255 A  
HETATM   21  C   UNL     1      -9.090  14.887  66.573  1.00  0.00    -0.309 A  
BRANCH  19  22
HETATM   22  N   UNL     1     -11.806  13.187  64.756  1.00  0.00    -0.351 N  
HETATM   23  H   UNL     1     -12.587  13.842  64.731  1.00  0.00     0.000 HD 
HETATM   24  C   UNL     1     -13.021  12.248  62.886  1.00  0.00     0.547 C  
HETATM   25  O   UNL     1     -10.968  11.318  63.661  1.00  0.00    -0.385 OA 
HETATM   26  C   UNL     1     -11.819  12.183  63.809  1.00  0.00    -0.500 C  
ENDBRANCH  19  22
ENDBRANCH   8  16
BRANCH  13  27
HETATM   27  C   UNL     1      -5.777   9.976  68.630  1.00  0.00    -0.038 C  
HETATM   28  C   UNL     1      -5.369   8.588  68.194  1.00  0.00    -0.034 C  
HETATM   29  C   UNL     1      -5.202   9.736  67.251  1.00  0.00    -0.035 C  
ENDBRANCH  13  27
BRANCH  10  30
HETATM   30  N   UNL     1      -9.372   7.897  71.674  1.00  0.00    -0.143 NA 
HETATM   31  H   UNL     1      -8.925   8.091  72.571  1.00  0.00     0.000 HD 
BRANCH  30  32
HETATM   32  C   UNL     1      -9.352   6.543  71.276  1.00  0.00    -0.155 A  
HETATM   33  C   UNL     1      -8.557   5.569  71.889  1.00  0.00    -0.131 A  
HETATM   34  C   UNL     1      -8.436   4.285  71.332  1.00  0.00    -0.110 A  
HETATM   35  C   UNL     1      -9.123   3.956  70.163  1.00  0.00    -0.121 A  
HETATM   36  C   UNL     1      -9.984   4.877  69.580  1.00  0.00    -0.295 A  
HETATM   37  I   UNL     1      -8.807   2.111  69.256  1.00  0.00    -0.190 I  
HETATM   38  C   UNL     1     -10.085   6.152  70.136  1.00  0.00    -0.184 A  
HETATM   39  F   UNL     1     -10.897   7.041  69.541  1.00  0.00    -0.228 F  
ENDBRANCH  30  32
ENDBRANCH  10  30
TORSDOF 5
ENDMDL
MODEL       86
REMARK 921   NORMALIZED FREE ENERGY PREDICTED BY IDOCK:   -4.67 KCAL/MOL
REMARK 922        TOTAL FREE ENERGY PREDICTED BY IDOCK:   -6.25 KCAL/MOL
REMARK 923 INTER-LIGAND FREE ENERGY PREDICTED BY IDOCK:   -6.82 KCAL/MOL
REMARK 924 INTRA-LIGAND FREE ENERGY PREDICTED BY IDOCK:    0.58 KCAL/MOL
REMARK 927      BINDING AFFINITY PREDICTED BY RF-SCORE:    0.00 PKD
ROOT
HETATM    1  C   UNL     1      -9.063   8.731  70.235  1.00  0.00    -0.170 C  
HETATM    2  N   UNL     1      -9.283   9.227  68.881  1.00  0.00    -0.141 N  
HETATM    3  C   UNL     1     -10.161  10.291  68.772  1.00  0.00    -0.187 C  
HETATM    4  O   UNL     1     -10.894  10.654  69.692  1.00  0.00    -0.246 OA 
HETATM    5  C   UNL     1     -10.136  11.064  67.492  1.00  0.00    -0.208 C  
HETATM    6  C   UNL     1      -9.540  10.533  66.394  1.00  0.00    -0.177 C  
HETATM    7  C   UNL     1     -10.723  12.439  67.688  1.00  0.00    -0.248 C  
HETATM    8  N   UNL     1      -9.536  11.129  65.119  1.00  0.00    -0.222 N  
HETATM    9  C   UNL     1      -8.763  10.628  64.039  1.00  0.00    -0.131 C  
HETATM   10  C   UNL     1      -8.613   8.659  67.790  1.00  0.00    -0.136 C  
HETATM   11  O   UNL     1      -8.683  11.205  62.946  1.00  0.00    -0.207 OA 
HETATM   12  O   UNL     1      -7.042   7.935  65.587  1.00  0.00    -0.055 OA 
HETATM   13  N   UNL     1      -8.089   9.430  64.224  1.00  0.00    -0.131 N  
HETATM   14  C   UNL     1      -8.736   9.296  66.587  1.00  0.00    -0.139 C  
HETATM   15  C   UNL     1      -7.903   8.805  65.444  1.00  0.00    -0.100 C  
ENDROOT
BRANCH   8  16
HETATM   16  C   UNL     1     -10.467  12.164  64.686  1.00  0.00    -0.299 A  
HETATM   17  C   UNL     1     -11.786  11.817  64.349  1.00  0.00    -0.301 A  
HETATM   18  C   UNL     1     -12.468  14.122  64.506  1.00  0.00    -0.350 A  
HETATM   19  C   UNL     1     -11.143  14.512  64.731  1.00  0.00    -0.391 A  
HETATM   20  C   UNL     1     -10.141  13.528  64.813  1.00  0.00    -0.267 A  
HETATM   21  C   UNL     1     -12.784  12.785  64.276  1.00  0.00    -0.338 A  
BRANCH  19  22
HETATM   22  N   UNL     1     -10.918  15.898  64.907  1.00  0.00    -0.490 N  
HETATM   23  H   UNL     1     -10.998  16.478  64.072  1.00  0.00     0.000 HD 
HETATM   24  C   UNL     1     -10.432  18.050  65.901  1.00  0.00    -0.268 C  
HETATM   25  O   UNL     1     -10.481  16.041  67.184  1.00  0.00    -0.299 OA 
HETATM   26  C   UNL     1     -10.601  16.553  66.080  1.00  0.00    -0.253 C  
ENDBRANCH  19  22
ENDBRANCH   8  16
BRANCH  13  27
HETATM   27  C   UNL     1      -7.286   8.931  63.107  1.00  0.00    -0.098 C  
HETATM   28  C   UNL     1      -5.809   8.670  63.290  1.00  0.00    -0.077 C  
HETATM   29  C   UNL     1      -6.731   7.526  63.011  1.00  0.00    -0.062 C  
ENDBRANCH  13  27
BRANCH  10  30
HETATM   30  N   UNL     1      -7.832   7.538  68.034  1.00  0.00    -0.119 NA 
HETATM   31  H   UNL     1      -6.866   7.732  68.302  1.00  0.00     0.000 HD 
BRANCH  30  32
HETATM   32  C   UNL     1      -8.172   6.170  67.966  1.00  0.00    -0.114 A  
HETATM   33  C   UNL     1      -7.307   5.139  68.347  1.00  0.00    -0.071 A  
HETATM   34  C   UNL     1      -7.627   3.798  68.081  1.00  0.00    -0.065 A  
HETATM   35  C   UNL     1      -8.825   3.471  67.445  1.00  0.00    -0.130 A  
HETATM   36  C   UNL     1      -9.740   4.468  67.132  1.00  0.00    -0.227 A  
HETATM   37  I   UNL     1      -9.213   1.499  66.907  1.00  0.00     0.208 I  
HETATM   38  C   UNL     1      -9.404   5.797  67.390  1.00  0.00    -0.112 A  
HETATM   39  F   UNL     1     -10.285   6.751  67.050  1.00  0.00    -0.204 F  
ENDBRANCH  30  32
ENDBRANCH  10  30
TORSDOF 5
ENDMDL
MODEL       87
REMARK 921   NORMALIZED FREE ENERGY PREDICTED BY IDOCK:   -4.65 KCAL/MOL
REMARK 922        TOTAL FREE ENERGY PREDICTED BY IDOCK:   -6.22 KCAL/MOL
REMARK 923 INTER-LIGAND FREE ENERGY PREDICTED BY IDOCK:   -6.27 KCAL/MOL
REMARK 924 INTRA-LIGAND FREE ENERGY PREDICTED BY IDOCK:    0.04 KCAL/MOL
REMARK 927      BINDING AFFINITY PREDICTED BY RF-SCORE:    0.00 PKD
ROOT
HETATM    1  C   UNL     1      -7.048   8.701  66.532  1.00  0.00    -0.080 C  
HETATM    2  N   UNL     1      -7.738   9.779  67.233  1.00  0.00    -0.095 N  
HETATM    3  C   UNL     1      -7.213  11.045  67.045  1.00  0.00    -0.123 C  
HETATM    4  O   UNL     1      -6.113  11.245  66.529  1.00  0.00    -0.131 OA 
HETATM    5  C   UNL     1      -8.079  12.203  67.422  1.00  0.00    -0.171 C  
HETATM    6  C   UNL     1      -9.161  12.006  68.218  1.00  0.00    -0.190 C  
HETATM    7  C   UNL     1      -7.630  13.458  66.715  1.00  0.00     0.624 C  
HETATM    8  N   UNL     1      -9.991  13.032  68.708  1.00  0.00    -0.085 N  
HETATM    9  C   UNL     1     -11.205  12.775  69.397  1.00  0.00    -0.132 C  
HETATM   10  C   UNL     1      -8.871   9.517  68.014  1.00  0.00    -0.123 C  
HETATM   11  O   UNL     1     -11.983  13.673  69.744  1.00  0.00    -0.305 OA 
HETATM   12  O   UNL     1     -11.373   9.230  69.242  1.00  0.00     0.007 OA 
HETATM   13  N   UNL     1     -11.511  11.457  69.704  1.00  0.00    -0.291 N  
HETATM   14  C   UNL     1      -9.560  10.598  68.487  1.00  0.00    -0.175 C  
HETATM   15  C   UNL     1     -10.862  10.351  69.186  1.00  0.00    -0.236 C  
ENDROOT
BRANCH   8  16
HETATM   16  C   UNL     1      -9.615  14.439  68.777  1.00  0.00    -0.177 A  
HETATM   17  C   UNL     1      -8.511  14.827  69.553  1.00  0.00     0.087 A  
HETATM   18  C   UNL     1      -8.432  16.959  68.436  1.00  0.00    -0.239 A  
HETATM   19  C   UNL     1      -9.599  16.646  67.729  1.00  0.00    -0.236 A  
HETATM   20  C   UNL     1     -10.194  15.384  67.909  1.00  0.00    -0.239 A  
HETATM   21  C   UNL     1      -7.912  16.070  69.372  1.00  0.00    -0.152 A  
BRANCH  19  22
HETATM   22  N   UNL     1     -10.076  17.633  66.834  1.00  0.00    -0.318 N  
HETATM   23  H   UNL     1     -10.176  17.350  65.859  1.00  0.00     0.000 HD 
HETATM   24  C   UNL     1     -10.897  19.719  65.921  1.00  0.00    -0.389 C  
HETATM   25  O   UNL     1     -10.391  19.458  68.236  1.00  0.00    -0.412 OA 
HETATM   26  C   UNL     1     -10.420  18.936  67.131  1.00  0.00    -0.438 C  
ENDBRANCH  19  22
ENDBRANCH   8  16
BRANCH  13  27
HETATM   27  C   UNL     1     -12.771  11.205  70.403  1.00  0.00    -0.168 C  
HETATM   28  C   UNL     1     -12.790  10.353  71.652  1.00  0.00    -0.579 C  
HETATM   29  C   UNL     1     -13.143  11.803  71.743  1.00  0.00    -0.480 C  
ENDBRANCH  13  27
BRANCH  10  30
HETATM   30  N   UNL     1      -9.234   8.188  68.189  1.00  0.00    -0.134 NA 
HETATM   31  H   UNL     1      -9.917   7.834  67.519  1.00  0.00     0.000 HD 
BRANCH  30  32
HETATM   32  C   UNL     1      -8.799   7.255  69.154  1.00  0.00    -0.136 A  
HETATM   33  C   UNL     1      -9.067   5.885  69.078  1.00  0.00    -0.123 A  
HETATM   34  C   UNL     1      -8.774   5.034  70.157  1.00  0.00    -0.130 A  
HETATM   35  C   UNL     1      -8.195   5.544  71.319  1.00  0.00    -0.125 A  
HETATM   36  C   UNL     1      -7.842   6.885  71.390  1.00  0.00    -0.100 A  
HETATM   37  I   UNL     1      -7.919   4.310  72.972  1.00  0.00    -0.091 I  
HETATM   38  C   UNL     1      -8.150   7.721  70.316  1.00  0.00    -0.113 A  
HETATM   39  F   UNL     1      -7.832   9.022  70.413  1.00  0.00    -0.068 F  
ENDBRANCH  30  32
ENDBRANCH  10  30
TORSDOF 5
ENDMDL
MODEL       88
REMARK 921   NORMALIZED FREE ENERGY PREDICTED BY IDOCK:   -4.63 KCAL/MOL
REMARK 922        TOTAL FREE ENERGY PREDICTED BY IDOCK:   -6.20 KCAL/MOL
REMARK 923 INTER-LIGAND FREE ENERGY PREDICTED BY IDOCK:   -6.01 KCAL/MOL
REMARK 924 INTRA-LIGAND FREE ENERGY PREDICTED BY IDOCK:   -0.19 KCAL/MOL
REMARK 927      BINDING AFFINITY PREDICTED BY RF-SCORE:    0.00 PKD
ROOT
HETATM    1  C   UNL     1     -12.037  14.670  64.360  1.00  0.00    -0.462 C  
HETATM    2  N   UNL     1     -11.163  13.952  65.280  1.00  0.00    -0.304 N  
HETATM    3  C   UNL     1     -11.524  12.644  65.547  1.00  0.00    -0.340 C  
HETATM    4  O   UNL     1     -12.619  12.173  65.238  1.00  0.00    -0.494 OA 
HETATM    5  C   UNL     1     -10.486  11.765  66.168  1.00  0.00    -0.284 C  
HETATM    6  C   UNL     1      -9.389  12.320  66.746  1.00  0.00    -0.218 C  
HETATM    7  C   UNL     1     -10.808  10.310  65.933  1.00  0.00     0.141 C  
HETATM    8  N   UNL     1      -8.398  11.598  67.436  1.00  0.00    -0.145 N  
HETATM    9  C   UNL     1      -7.186  12.189  67.879  1.00  0.00    -0.102 C  
HETATM   10  C   UNL     1     -10.026  14.568  65.819  1.00  0.00    -0.334 C  
HETATM   11  O   UNL     1      -6.272  11.537  68.401  1.00  0.00    -0.049 OA 
HETATM   12  O   UNL     1      -7.508  15.496  66.626  1.00  0.00    -0.087 OA 
HETATM   13  N   UNL     1      -7.041  13.560  67.733  1.00  0.00    -0.143 N  
HETATM   14  C   UNL     1      -9.167  13.774  66.525  1.00  0.00    -0.210 C  
HETATM   15  C   UNL     1      -7.866  14.368  66.972  1.00  0.00     0.050 C  
ENDROOT
BRANCH   8  16
HETATM   16  C   UNL     1      -8.575  10.254  67.973  1.00  0.00    -0.118 A  
HETATM   17  C   UNL     1      -7.890   9.176  67.388  1.00  0.00    -0.099 A  
HETATM   18  C   UNL     1      -8.323   7.808  69.323  1.00  0.00    -0.136 A  
HETATM   19  C   UNL     1      -9.106   8.824  69.882  1.00  0.00    -0.157 A  
HETATM   20  C   UNL     1      -9.236  10.047  69.197  1.00  0.00    -0.196 A  
HETATM   21  C   UNL     1      -7.749   7.967  68.064  1.00  0.00    -0.125 A  
BRANCH  19  22
HETATM   22  N   UNL     1      -9.684   8.550  71.144  1.00  0.00    -0.185 N  
HETATM   23  H   UNL     1      -9.194   8.923  71.957  1.00  0.00     0.000 HD 
HETATM   24  C   UNL     1     -11.165   7.738  72.878  1.00  0.00    -0.434 C  
HETATM   25  O   UNL     1     -11.573   7.327  70.565  1.00  0.00    -0.292 OA 
HETATM   26  C   UNL     1     -10.836   7.834  71.399  1.00  0.00    -0.228 C  
ENDBRANCH  19  22
ENDBRANCH   8  16
BRANCH  13  27
HETATM   27  C   UNL     1      -5.782  14.156  68.183  1.00  0.00    -0.128 C  
HETATM   28  C   UNL     1      -5.794  15.371  69.080  1.00  0.00    -0.104 C  
HETATM   29  C   UNL     1      -5.255  14.077  69.599  1.00  0.00    -0.091 C  
ENDBRANCH  13  27
BRANCH  10  30
HETATM   30  N   UNL     1      -9.835  15.914  65.537  1.00  0.00    -0.417 NA 
HETATM   31  H   UNL     1      -9.520  16.118  64.588  1.00  0.00     0.000 HD 
BRANCH  30  32
HETATM   32  C   UNL     1     -10.010  17.043  66.367  1.00  0.00    -0.307 A  
HETATM   33  C   UNL     1      -9.444  18.292  66.100  1.00  0.00    -0.165 A  
HETATM   34  C   UNL     1      -9.496  19.323  67.053  1.00  0.00    -0.385 A  
HETATM   35  C   UNL     1     -10.130  19.118  68.279  1.00  0.00    -0.416 A  
HETATM   36  C   UNL     1     -10.773  17.915  68.537  1.00  0.00    -0.103 A  
HETATM   37  I   UNL     1     -10.056  20.591  69.747  1.00  0.00     1.682 I  
HETATM   38  C   UNL     1     -10.702  16.896  67.587  1.00  0.00    -0.290 A  
HETATM   39  F   UNL     1     -11.301  15.726  67.865  1.00  0.00    -0.330 F  
ENDBRANCH  30  32
ENDBRANCH  10  30
TORSDOF 5
ENDMDL
MODEL       89
REMARK 921   NORMALIZED FREE ENERGY PREDICTED BY IDOCK:   -4.57 KCAL/MOL
REMARK 922        TOTAL FREE ENERGY PREDICTED BY IDOCK:   -6.12 KCAL/MOL
REMARK 923 INTER-LIGAND FREE ENERGY PREDICTED BY IDOCK:   -7.17 KCAL/MOL
REMARK 924 INTRA-LIGAND FREE ENERGY PREDICTED BY IDOCK:    1.05 KCAL/MOL
REMARK 927      BINDING AFFINITY PREDICTED BY RF-SCORE:    0.00 PKD
ROOT
HETATM    1  C   UNL     1      -7.224  14.257  67.098  1.00  0.00     0.220 C  
HETATM    2  N   UNL     1      -7.724  13.041  67.730  1.00  0.00    -0.136 N  
HETATM    3  C   UNL     1      -6.772  12.074  67.998  1.00  0.00    -0.070 C  
HETATM    4  O   UNL     1      -5.631  12.109  67.536  1.00  0.00    -0.086 OA 
HETATM    5  C   UNL     1      -7.152  10.994  68.959  1.00  0.00    -0.106 C  
HETATM    6  C   UNL     1      -8.459  10.793  69.267  1.00  0.00    -0.047 C  
HETATM    7  C   UNL     1      -5.923  10.342  69.542  1.00  0.00    -0.043 C  
HETATM    8  N   UNL     1      -8.937   9.753  70.086  1.00  0.00    -0.228 N  
HETATM    9  C   UNL     1     -10.286   9.675  70.520  1.00  0.00    -0.287 C  
HETATM   10  C   UNL     1      -9.080  12.906  68.054  1.00  0.00    -0.211 C  
HETATM   11  O   UNL     1     -10.687   8.816  71.317  1.00  0.00    -0.229 OA 
HETATM   12  O   UNL     1     -11.646  12.658  69.153  1.00  0.00    -0.282 OA 
HETATM   13  N   UNL     1     -11.188  10.596  70.007  1.00  0.00    -0.297 N  
HETATM   14  C   UNL     1      -9.433  11.818  68.802  1.00  0.00    -0.037 C  
HETATM   15  C   UNL     1     -10.842  11.734  69.300  1.00  0.00    -0.133 C  
ENDROOT
BRANCH   8  16
HETATM   16  C   UNL     1      -8.196   8.537  70.397  1.00  0.00    -0.114 A  
HETATM   17  C   UNL     1      -7.541   8.418  71.635  1.00  0.00    -0.126 A  
HETATM   18  C   UNL     1      -7.341   6.037  71.338  1.00  0.00    -0.084 A  
HETATM   19  C   UNL     1      -7.887   6.137  70.054  1.00  0.00    -0.106 A  
HETATM   20  C   UNL     1      -8.307   7.395  69.583  1.00  0.00    -0.132 A  
HETATM   21  C   UNL     1      -7.132   7.176  72.111  1.00  0.00    -0.068 A  
BRANCH  19  22
HETATM   22  N   UNL     1      -8.016   4.929  69.329  1.00  0.00    -0.074 N  
HETATM   23  H   UNL     1      -7.148   4.455  69.081  1.00  0.00     0.000 HD 
HETATM   24  C   UNL     1      -8.951   3.025  68.163  1.00  0.00    -0.190 C  
HETATM   25  O   UNL     1     -10.321   4.715  69.136  1.00  0.00    -0.081 OA 
HETATM   26  C   UNL     1      -9.185   4.319  68.921  1.00  0.00    -0.145 C  
ENDBRANCH  19  22
ENDBRANCH   8  16
BRANCH  13  27
HETATM   27  C   UNL     1     -12.573  10.512  70.471  1.00  0.00    -0.339 C  
HETATM   28  C   UNL     1     -12.907   9.748  71.731  1.00  0.00    -0.530 C  
HETATM   29  C   UNL     1     -13.113  11.228  71.690  1.00  0.00    -0.513 C  
ENDBRANCH  13  27
BRANCH  10  30
HETATM   30  N   UNL     1      -9.939  13.917  67.645  1.00  0.00    -0.234 NA 
HETATM   31  H   UNL     1     -10.846  13.602  67.300  1.00  0.00     0.000 HD 
BRANCH  30  32
HETATM   32  C   UNL     1      -9.745  15.315  67.635  1.00  0.00    -0.208 A  
HETATM   33  C   UNL     1      -9.562  16.077  68.793  1.00  0.00    -0.221 A  
HETATM   34  C   UNL     1      -9.563  17.481  68.737  1.00  0.00    -0.277 A  
HETATM   35  C   UNL     1      -9.732  18.137  67.517  1.00  0.00    -0.303 A  
HETATM   36  C   UNL     1      -9.833  17.405  66.341  1.00  0.00    -0.311 A  
HETATM   37  I   UNL     1      -9.900  20.210  67.467  1.00  0.00    -0.503 I  
HETATM   38  C   UNL     1      -9.842  16.012  66.413  1.00  0.00    -0.288 A  
HETATM   39  F   UNL     1      -9.974  15.319  65.271  1.00  0.00    -0.350 F  
ENDBRANCH  30  32
ENDBRANCH  10  30
TORSDOF 5
ENDMDL
MODEL       90
REMARK 921   NORMALIZED FREE ENERGY PREDICTED BY IDOCK:   -4.57 KCAL/MOL
REMARK 922        TOTAL FREE ENERGY PREDICTED BY IDOCK:   -6.12 KCAL/MOL
REMARK 923 INTER-LIGAND FREE ENERGY PREDICTED BY IDOCK:   -7.60 KCAL/MOL
REMARK 924 INTRA-LIGAND FREE ENERGY PREDICTED BY IDOCK:    1.49 KCAL/MOL
REMARK 927      BINDING AFFINITY PREDICTED BY RF-SCORE:    0.00 PKD
ROOT
HETATM    1  C   UNL     1      -7.070   9.937  69.345  1.00  0.00    -0.067 C  
HETATM    2  N   UNL     1      -7.549  11.245  68.913  1.00  0.00    -0.129 N  
HETATM    3  C   UNL     1      -6.636  12.278  69.016  1.00  0.00    -0.100 C  
HETATM    4  O   UNL     1      -5.579  12.181  69.640  1.00  0.00    -0.075 OA 
HETATM    5  C   UNL     1      -6.937  13.531  68.257  1.00  0.00    -0.108 C  
HETATM    6  C   UNL     1      -8.193  13.750  67.788  1.00  0.00    -0.174 C  
HETATM    7  C   UNL     1      -5.681  14.335  68.035  1.00  0.00    -0.135 C  
HETATM    8  N   UNL     1      -8.610  14.929  67.142  1.00  0.00    -0.211 N  
HETATM    9  C   UNL     1      -9.879  15.055  66.520  1.00  0.00    -0.260 C  
HETATM   10  C   UNL     1      -8.846  11.403  68.408  1.00  0.00    -0.167 C  
HETATM   11  O   UNL     1     -10.212  16.055  65.869  1.00  0.00    -0.321 OA 
HETATM   12  O   UNL     1     -11.225  11.801  66.982  1.00  0.00    -0.289 OA 
HETATM   13  N   UNL     1     -10.784  14.015  66.672  1.00  0.00    -0.280 N  
HETATM   14  C   UNL     1      -9.154  12.616  67.860  1.00  0.00    -0.200 C  
HETATM   15  C   UNL     1     -10.474  12.761  67.167  1.00  0.00    -0.233 C  
ENDROOT
BRANCH   8  16
HETATM   16  C   UNL     1      -7.914  16.207  67.222  1.00  0.00    -0.174 A  
HETATM   17  C   UNL     1      -7.725  16.970  66.057  1.00  0.00    -0.153 A  
HETATM   18  C   UNL     1      -7.214  18.919  67.377  1.00  0.00    -0.225 A  
HETATM   19  C   UNL     1      -7.284  18.159  68.550  1.00  0.00    -0.268 A  
HETATM   20  C   UNL     1      -7.627  16.797  68.467  1.00  0.00    -0.217 A  
HETATM   21  C   UNL     1      -7.395  18.321  66.133  1.00  0.00    -0.298 A  
BRANCH  19  22
HETATM   22  N   UNL     1      -7.039  18.849  69.761  1.00  0.00     0.073 N  
HETATM   23  H   UNL     1      -7.455  18.448  70.602  1.00  0.00     0.000 HD 
HETATM   24  C   UNL     1      -6.245  20.466  71.377  1.00  0.00    -0.090 C  
HETATM   25  O   UNL     1      -5.710  20.620  69.059  1.00  0.00    -0.307 OA 
HETATM   26  C   UNL     1      -6.301  20.003  69.933  1.00  0.00    -0.356 C  
ENDBRANCH  19  22
ENDBRANCH   8  16
BRANCH  13  27
HETATM   27  C   UNL     1     -12.084  14.153  66.016  1.00  0.00    -0.432 C  
HETATM   28  C   UNL     1     -12.172  14.218  64.508  1.00  0.00    -0.476 C  
HETATM   29  C   UNL     1     -12.770  13.054  65.232  1.00  0.00    -0.432 C  
ENDBRANCH  13  27
BRANCH  10  30
HETATM   30  N   UNL     1      -9.686  10.299  68.447  1.00  0.00    -0.152 NA 
HETATM   31  H   UNL     1     -10.534  10.417  69.003  1.00  0.00     0.000 HD 
BRANCH  30  32
HETATM   32  C   UNL     1      -9.544   9.036  67.833  1.00  0.00    -0.147 A  
HETATM   33  C   UNL     1      -9.071   8.860  66.529  1.00  0.00    -0.206 A  
HETATM   34  C   UNL     1      -9.129   7.602  65.907  1.00  0.00    -0.101 A  
HETATM   35  C   UNL     1      -9.648   6.501  66.590  1.00  0.00    -0.160 A  
HETATM   36  C   UNL     1     -10.047   6.629  67.914  1.00  0.00    -0.177 A  
HETATM   37  I   UNL     1      -9.884   4.683  65.606  1.00  0.00    -0.160 I  
HETATM   38  C   UNL     1      -9.996   7.887  68.515  1.00  0.00    -0.187 A  
HETATM   39  F   UNL     1     -10.417   8.001  69.785  1.00  0.00    -0.207 F  
ENDBRANCH  30  32
ENDBRANCH  10  30
TORSDOF 5
ENDMDL
MODEL       91
REMARK 921   NORMALIZED FREE ENERGY PREDICTED BY IDOCK:   -4.51 KCAL/MOL
REMARK 922        TOTAL FREE ENERGY PREDICTED BY IDOCK:   -6.05 KCAL/MOL
REMARK 923 INTER-LIGAND FREE ENERGY PREDICTED BY IDOCK:   -6.35 KCAL/MOL
REMARK 924 INTRA-LIGAND FREE ENERGY PREDICTED BY IDOCK:    0.30 KCAL/MOL
REMARK 927      BINDING AFFINITY PREDICTED BY RF-SCORE:    0.00 PKD
ROOT
HETATM    1  C   UNL     1     -12.892  11.430  70.663  1.00  0.00    -0.104 C  
HETATM    2  N   UNL     1     -11.727  10.580  70.873  1.00  0.00    -0.347 N  
HETATM    3  C   UNL     1     -11.875   9.590  71.828  1.00  0.00    -0.360 C  
HETATM    4  O   UNL     1     -12.817   9.557  72.620  1.00  0.00    -0.261 OA 
HETATM    5  C   UNL     1     -10.873   8.480  71.819  1.00  0.00    -0.374 C  
HETATM    6  C   UNL     1      -9.704   8.632  71.144  1.00  0.00    -0.224 C  
HETATM    7  C   UNL     1     -11.419   7.262  72.520  1.00  0.00    -0.322 C  
HETATM    8  N   UNL     1      -8.655   7.694  71.141  1.00  0.00    -0.129 N  
HETATM    9  C   UNL     1      -7.523   7.810  70.294  1.00  0.00    -0.079 C  
HETATM   10  C   UNL     1     -10.558  10.764  70.122  1.00  0.00     0.111 C  
HETATM   11  O   UNL     1      -6.646   6.939  70.220  1.00  0.00    -0.045 OA 
HETATM   12  O   UNL     1      -8.333  10.717  68.420  1.00  0.00    -0.115 OA 
HETATM   13  N   UNL     1      -7.396   8.964  69.534  1.00  0.00    -0.069 N  
HETATM   14  C   UNL     1      -9.582   9.817  70.252  1.00  0.00    -0.264 C  
HETATM   15  C   UNL     1      -8.396   9.901  69.343  1.00  0.00    -0.156 C  
ENDROOT
BRANCH   8  16
HETATM   16  C   UNL     1      -8.483   6.642  72.135  1.00  0.00    -0.112 A  
HETATM   17  C   UNL     1      -7.915   6.949  73.383  1.00  0.00    -0.108 A  
HETATM   18  C   UNL     1      -8.732   4.879  74.303  1.00  0.00    -0.113 A  
HETATM   19  C   UNL     1      -9.210   4.493  73.045  1.00  0.00    -0.119 A  
HETATM   20  C   UNL     1      -9.076   5.378  71.959  1.00  0.00    -0.149 A  
HETATM   21  C   UNL     1      -8.052   6.083  74.464  1.00  0.00    -0.111 A  
BRANCH  19  22
HETATM   22  N   UNL     1      -9.846   3.231  72.974  1.00  0.00    -0.126 N  
HETATM   23  H   UNL     1      -9.257   2.443  72.707  1.00  0.00     0.000 HD 
HETATM   24  C   UNL     1     -11.512   1.477  73.056  1.00  0.00    -0.192 C  
HETATM   25  O   UNL     1     -12.030   3.745  73.577  1.00  0.00     0.021 OA 
HETATM   26  C   UNL     1     -11.173   2.947  73.226  1.00  0.00    -0.087 C  
ENDBRANCH  19  22
ENDBRANCH   8  16
BRANCH  13  27
HETATM   27  C   UNL     1      -6.231   9.066  68.654  1.00  0.00    -0.045 C  
HETATM   28  C   UNL     1      -6.142   8.214  67.409  1.00  0.00    -0.051 C  
HETATM   29  C   UNL     1      -6.247   9.700  67.281  1.00  0.00    -0.067 C  
ENDBRANCH  13  27
BRANCH  10  30
HETATM   30  N   UNL     1     -10.517  11.854  69.263  1.00  0.00    -0.435 NA 
HETATM   31  H   UNL     1     -10.001  12.662  69.613  1.00  0.00     0.000 HD 
BRANCH  30  32
HETATM   32  C   UNL     1     -11.080  12.012  67.979  1.00  0.00    -0.241 A  
HETATM   33  C   UNL     1     -10.983  11.050  66.970  1.00  0.00    -0.333 A  
HETATM   34  C   UNL     1     -11.398  11.339  65.659  1.00  0.00     0.022 A  
HETATM   35  C   UNL     1     -11.930  12.591  65.348  1.00  0.00    -0.437 A  
HETATM   36  C   UNL     1     -12.115  13.536  66.348  1.00  0.00    -0.467 A  
HETATM   37  I   UNL     1     -12.384  13.066  63.374  1.00  0.00     0.222 I  
HETATM   38  C   UNL     1     -11.687  13.240  67.642  1.00  0.00    -0.366 A  
HETATM   39  F   UNL     1     -11.843  14.177  68.592  1.00  0.00    -0.313 F  
ENDBRANCH  30  32
ENDBRANCH  10  30
TORSDOF 5
ENDMDL
MODEL       92
REMARK 921   NORMALIZED FREE ENERGY PREDICTED BY IDOCK:   -4.49 KCAL/MOL
REMARK 922        TOTAL FREE ENERGY PREDICTED BY IDOCK:   -6.01 KCAL/MOL
REMARK 923 INTER-LIGAND FREE ENERGY PREDICTED BY IDOCK:   -7.62 KCAL/MOL
REMARK 924 INTRA-LIGAND FREE ENERGY PREDICTED BY IDOCK:    1.61 KCAL/MOL
REMARK 927      BINDING AFFINITY PREDICTED BY RF-SCORE:    0.00 PKD
ROOT
HETATM    1  C   UNL     1      -6.182   8.376  68.650  1.00  0.00    -0.045 C  
HETATM    2  N   UNL     1      -7.427   9.036  69.027  1.00  0.00    -0.073 N  
HETATM    3  C   UNL     1      -7.601  10.313  68.523  1.00  0.00    -0.089 C  
HETATM    4  O   UNL     1      -6.692  10.956  67.997  1.00  0.00    -0.062 OA 
HETATM    5  C   UNL     1      -8.984  10.877  68.564  1.00  0.00    -0.157 C  
HETATM    6  C   UNL     1      -9.924  10.305  69.360  1.00  0.00    -0.233 C  
HETATM    7  C   UNL     1      -9.135  11.994  67.562  1.00  0.00    -0.177 C  
HETATM    8  N   UNL     1     -11.227  10.804  69.544  1.00  0.00    -0.259 N  
HETATM    9  C   UNL     1     -12.230  10.090  70.250  1.00  0.00    -0.112 C  
HETATM   10  C   UNL     1      -8.373   8.381  69.825  1.00  0.00    -0.125 C  
HETATM   11  O   UNL     1     -13.402  10.481  70.332  1.00  0.00    -0.154 OA 
HETATM   12  O   UNL     1     -10.535   7.067  71.030  1.00  0.00    -0.211 OA 
HETATM   13  N   UNL     1     -11.863   8.913  70.887  1.00  0.00    -0.270 N  
HETATM   14  C   UNL     1      -9.583   8.996  69.981  1.00  0.00    -0.203 C  
HETATM   15  C   UNL     1     -10.667   8.246  70.692  1.00  0.00    -0.220 C  
ENDROOT
BRANCH   8  16
HETATM   16  C   UNL     1     -11.640  12.170  69.248  1.00  0.00    -0.318 A  
HETATM   17  C   UNL     1     -11.642  13.133  70.271  1.00  0.00    -0.079 A  
HETATM   18  C   UNL     1     -11.759  14.907  68.645  1.00  0.00    -0.358 A  
HETATM   19  C   UNL     1     -11.873  13.970  67.612  1.00  0.00    -0.395 A  
HETATM   20  C   UNL     1     -11.821  12.598  67.920  1.00  0.00    -0.388 A  
HETATM   21  C   UNL     1     -11.683  14.493  69.972  1.00  0.00    -0.359 A  
BRANCH  19  22
HETATM   22  N   UNL     1     -11.991  14.491  66.302  1.00  0.00    -0.361 N  
HETATM   23  H   UNL     1     -11.588  15.414  66.144  1.00  0.00     0.000 HD 
HETATM   24  C   UNL     1     -12.533  14.738  63.956  1.00  0.00    -0.015 C  
HETATM   25  O   UNL     1     -13.110  12.784  65.192  1.00  0.00    -0.750 OA 
HETATM   26  C   UNL     1     -12.591  13.890  65.213  1.00  0.00    -0.478 C  
ENDBRANCH  19  22
ENDBRANCH   8  16
BRANCH  13  27
HETATM   27  C   UNL     1     -12.909   8.180  71.600  1.00  0.00    -0.326 C  
HETATM   28  C   UNL     1     -13.569   8.788  72.816  1.00  0.00    -0.244 C  
HETATM   29  C   UNL     1     -14.377   8.546  71.582  1.00  0.00    -0.497 C  
ENDBRANCH  13  27
BRANCH  10  30
HETATM   30  N   UNL     1      -8.028   7.137  70.335  1.00  0.00    -0.110 NA 
HETATM   31  H   UNL     1      -7.997   7.080  71.354  1.00  0.00     0.000 HD 
BRANCH  30  32
HETATM   32  C   UNL     1      -7.714   5.940  69.657  1.00  0.00    -0.096 A  
HETATM   33  C   UNL     1      -6.634   5.121  69.996  1.00  0.00    -0.036 A  
HETATM   34  C   UNL     1      -6.259   4.047  69.172  1.00  0.00    -0.028 A  
HETATM   35  C   UNL     1      -6.973   3.772  68.005  1.00  0.00    -0.051 A  
HETATM   36  C   UNL     1      -8.100   4.517  67.687  1.00  0.00    -0.099 A  
HETATM   37  I   UNL     1      -6.310   2.287  66.707  1.00  0.00    -0.024 I  
HETATM   38  C   UNL     1      -8.453   5.588  68.508  1.00  0.00    -0.100 A  
HETATM   39  F   UNL     1      -9.527   6.320  68.169  1.00  0.00    -0.118 F  
ENDBRANCH  30  32
ENDBRANCH  10  30
TORSDOF 5
ENDMDL
MODEL       93
REMARK 921   NORMALIZED FREE ENERGY PREDICTED BY IDOCK:   -4.48 KCAL/MOL
REMARK 922        TOTAL FREE ENERGY PREDICTED BY IDOCK:   -6.00 KCAL/MOL
REMARK 923 INTER-LIGAND FREE ENERGY PREDICTED BY IDOCK:   -6.90 KCAL/MOL
REMARK 924 INTRA-LIGAND FREE ENERGY PREDICTED BY IDOCK:    0.90 KCAL/MOL
REMARK 927      BINDING AFFINITY PREDICTED BY RF-SCORE:    0.00 PKD
ROOT
HETATM    1  C   UNL     1      -7.632  12.956  67.607  1.00  0.00    -0.156 C  
HETATM    2  N   UNL     1      -8.464  11.784  67.855  1.00  0.00    -0.147 N  
HETATM    3  C   UNL     1      -7.994  10.596  67.324  1.00  0.00    -0.116 C  
HETATM    4  O   UNL     1      -7.079  10.544  66.503  1.00  0.00    -0.105 OA 
HETATM    5  C   UNL     1      -8.592   9.332  67.852  1.00  0.00    -0.120 C  
HETATM    6  C   UNL     1      -9.758   9.375  68.547  1.00  0.00    -0.149 C  
HETATM    7  C   UNL     1      -7.677   8.161  67.596  1.00  0.00    -0.102 C  
HETATM    8  N   UNL     1     -10.455   8.244  69.011  1.00  0.00    -0.217 N  
HETATM    9  C   UNL     1     -11.577   8.334  69.874  1.00  0.00     0.299 C  
HETATM   10  C   UNL     1      -9.641  11.886  68.608  1.00  0.00    -0.093 C  
HETATM   11  O   UNL     1     -12.133   7.339  70.360  1.00  0.00    -0.162 OA 
HETATM   12  O   UNL     1     -11.761  11.835  70.439  1.00  0.00    -0.300 OA 
HETATM   13  N   UNL     1     -12.076   9.596  70.163  1.00  0.00     0.012 N  
HETATM   14  C   UNL     1     -10.264  10.717  68.945  1.00  0.00    -0.219 C  
HETATM   15  C   UNL     1     -11.429  10.786  69.883  1.00  0.00    -0.321 C  
ENDROOT
BRANCH   8  16
HETATM   16  C   UNL     1     -10.269   6.891  68.501  1.00  0.00    -0.177 A  
HETATM   17  C   UNL     1     -10.787   6.543  67.243  1.00  0.00    -0.463 A  
HETATM   18  C   UNL     1      -9.396   4.579  67.175  1.00  0.00    -0.163 A  
HETATM   19  C   UNL     1      -8.946   4.836  68.474  1.00  0.00    -0.111 A  
HETATM   20  C   UNL     1      -9.392   5.993  69.139  1.00  0.00    -0.136 A  
HETATM   21  C   UNL     1     -10.342   5.406  66.575  1.00  0.00    -0.320 A  
BRANCH  19  22
HETATM   22  N   UNL     1      -8.019   3.912  69.013  1.00  0.00    -0.059 N  
HETATM   23  H   UNL     1      -7.057   4.236  69.103  1.00  0.00     0.000 HD 
HETATM   24  C   UNL     1      -7.039   1.913  69.961  1.00  0.00    -0.033 C  
HETATM   25  O   UNL     1      -9.357   2.058  69.426  1.00  0.00    -0.117 OA 
HETATM   26  C   UNL     1      -8.272   2.621  69.431  1.00  0.00    -0.047 C  
ENDBRANCH  19  22
ENDBRANCH   8  16
BRANCH  13  27
HETATM   27  C   UNL     1     -13.226   9.675  71.064  1.00  0.00    -0.232 C  
HETATM   28  C   UNL     1     -13.116   9.169  72.484  1.00  0.00    -0.445 C  
HETATM   29  C   UNL     1     -13.333  10.627  72.235  1.00  0.00    -0.182 C  
ENDBRANCH  13  27
BRANCH  10  30
HETATM   30  N   UNL     1     -10.040  13.156  69.002  1.00  0.00    -0.424 NA 
HETATM   31  H   UNL     1     -10.467  13.209  69.928  1.00  0.00     0.000 HD 
BRANCH  30  32
HETATM   32  C   UNL     1      -9.944  14.385  68.315  1.00  0.00    -0.232 A  
HETATM   33  C   UNL     1      -9.180  15.464  68.766  1.00  0.00    -0.206 A  
HETATM   34  C   UNL     1      -9.272  16.720  68.143  1.00  0.00    -0.224 A  
HETATM   35  C   UNL     1     -10.119  16.905  67.050  1.00  0.00    -0.289 A  
HETATM   36  C   UNL     1     -10.827  15.829  66.529  1.00  0.00    -0.230 A  
HETATM   37  I   UNL     1     -10.375  18.805  66.242  1.00  0.00    -0.325 I  
HETATM   38  C   UNL     1     -10.735  14.591  67.165  1.00  0.00    -0.286 A  
HETATM   39  F   UNL     1     -11.452  13.569  66.669  1.00  0.00    -0.304 F  
ENDBRANCH  30  32
ENDBRANCH  10  30
TORSDOF 5
ENDMDL
MODEL       94
REMARK 921   NORMALIZED FREE ENERGY PREDICTED BY IDOCK:   -4.35 KCAL/MOL
REMARK 922        TOTAL FREE ENERGY PREDICTED BY IDOCK:   -5.83 KCAL/MOL
REMARK 923 INTER-LIGAND FREE ENERGY PREDICTED BY IDOCK:   -6.46 KCAL/MOL
REMARK 924 INTRA-LIGAND FREE ENERGY PREDICTED BY IDOCK:    0.62 KCAL/MOL
REMARK 927      BINDING AFFINITY PREDICTED BY RF-SCORE:    0.00 PKD
ROOT
HETATM    1  C   UNL     1      -5.844  13.775  69.685  1.00  0.00    -0.106 C  
HETATM    2  N   UNL     1      -6.623  12.687  69.106  1.00  0.00    -0.100 N  
HETATM    3  C   UNL     1      -6.624  11.505  69.826  1.00  0.00    -0.091 C  
HETATM    4  O   UNL     1      -5.847  11.286  70.756  1.00  0.00    -0.274 OA 
HETATM    5  C   UNL     1      -7.680  10.503  69.486  1.00  0.00    -0.141 C  
HETATM    6  C   UNL     1      -8.361  10.610  68.317  1.00  0.00    -0.122 C  
HETATM    7  C   UNL     1      -7.892   9.544  70.631  1.00  0.00    -0.149 C  
HETATM    8  N   UNL     1      -9.309   9.677  67.855  1.00  0.00    -0.128 N  
HETATM    9  C   UNL     1     -10.120   9.907  66.714  1.00  0.00    -0.230 C  
HETATM   10  C   UNL     1      -7.333  12.869  67.912  1.00  0.00    -0.127 C  
HETATM   11  O   UNL     1     -11.019   9.132  66.361  1.00  0.00     0.229 OA 
HETATM   12  O   UNL     1      -9.141  13.196  65.796  1.00  0.00     0.178 OA 
HETATM   13  N   UNL     1      -9.871  11.044  65.958  1.00  0.00    -0.219 N  
HETATM   14  C   UNL     1      -8.178  11.863  67.535  1.00  0.00    -0.155 C  
HETATM   15  C   UNL     1      -9.068  12.098  66.354  1.00  0.00    -0.177 C  
ENDROOT
BRANCH   8  16
HETATM   16  C   UNL     1      -9.418   8.304  68.331  1.00  0.00    -0.139 A  
HETATM   17  C   UNL     1     -10.407   7.970  69.271  1.00  0.00    -0.224 A  
HETATM   18  C   UNL     1     -10.130   5.628  68.780  1.00  0.00    -0.245 A  
HETATM   19  C   UNL     1      -9.064   5.921  67.922  1.00  0.00    -0.109 A  
HETATM   20  C   UNL     1      -8.705   7.264  67.706  1.00  0.00    -0.126 A  
HETATM   21  C   UNL     1     -10.774   6.643  69.482  1.00  0.00    -0.305 A  
BRANCH  19  22
HETATM   22  N   UNL     1      -8.444   4.817  67.291  1.00  0.00    -0.105 N  
HETATM   23  H   UNL     1      -8.882   4.482  66.433  1.00  0.00     0.000 HD 
HETATM   24  C   UNL     1      -6.925   3.003  66.780  1.00  0.00    -0.053 C  
HETATM   25  O   UNL     1      -6.635   4.401  68.688  1.00  0.00    -0.043 OA 
HETATM   26  C   UNL     1      -7.313   4.142  67.704  1.00  0.00    -0.068 C  
ENDBRANCH  19  22
ENDBRANCH   8  16
BRANCH  13  27
HETATM   27  C   UNL     1     -10.722  11.275  64.791  1.00  0.00    -0.285 C  
HETATM   28  C   UNL     1     -10.384  12.373  63.809  1.00  0.00    -0.454 C  
HETATM   29  C   UNL     1     -10.332  10.946  63.366  1.00  0.00    -0.299 C  
ENDBRANCH  13  27
BRANCH  10  30
HETATM   30  N   UNL     1      -7.170  14.077  67.249  1.00  0.00    -0.323 NA 
HETATM   31  H   UNL     1      -6.348  14.134  66.647  1.00  0.00     0.000 HD 
BRANCH  30  32
HETATM   32  C   UNL     1      -7.970  15.239  67.282  1.00  0.00    -0.202 A  
HETATM   33  C   UNL     1      -7.832  16.298  66.380  1.00  0.00    -0.249 A  
HETATM   34  C   UNL     1      -8.524  17.504  66.576  1.00  0.00    -0.300 A  
HETATM   35  C   UNL     1      -9.376  17.658  67.671  1.00  0.00    -0.246 A  
HETATM   36  C   UNL     1      -9.596  16.595  68.536  1.00  0.00    -0.241 A  
HETATM   37  I   UNL     1     -10.265  19.502  68.045  1.00  0.00    -0.497 I  
HETATM   38  C   UNL     1      -8.892  15.407  68.336  1.00  0.00    -0.177 A  
HETATM   39  F   UNL     1      -9.092  14.398  69.201  1.00  0.00    -0.155 F  
ENDBRANCH  30  32
ENDBRANCH  10  30
TORSDOF 5
ENDMDL
MODEL       95
REMARK 921   NORMALIZED FREE ENERGY PREDICTED BY IDOCK:   -4.30 KCAL/MOL
REMARK 922        TOTAL FREE ENERGY PREDICTED BY IDOCK:   -5.77 KCAL/MOL
REMARK 923 INTER-LIGAND FREE ENERGY PREDICTED BY IDOCK:   -6.77 KCAL/MOL
REMARK 924 INTRA-LIGAND FREE ENERGY PREDICTED BY IDOCK:    0.99 KCAL/MOL
REMARK 927      BINDING AFFINITY PREDICTED BY RF-SCORE:    0.00 PKD
ROOT
HETATM    1  C   UNL     1      -7.164   4.986  71.447  1.00  0.00    -0.065 C  
HETATM    2  N   UNL     1      -8.139   5.955  70.959  1.00  0.00    -0.119 N  
HETATM    3  C   UNL     1      -9.186   6.232  71.820  1.00  0.00    -0.144 C  
HETATM    4  O   UNL     1      -9.431   5.554  72.819  1.00  0.00    -0.148 OA 
HETATM    5  C   UNL     1      -9.989   7.462  71.542  1.00  0.00    -0.193 C  
HETATM    6  C   UNL     1      -9.905   8.061  70.326  1.00  0.00    -0.184 C  
HETATM    7  C   UNL     1     -10.719   7.915  72.781  1.00  0.00    -0.435 C  
HETATM    8  N   UNL     1     -10.678   9.166  69.925  1.00  0.00    -0.227 N  
HETATM    9  C   UNL     1     -10.446   9.868  68.713  1.00  0.00    -0.213 C  
HETATM   10  C   UNL     1      -7.981   6.565  69.708  1.00  0.00    -0.120 C  
HETATM   11  O   UNL     1     -11.061  10.896  68.403  1.00  0.00    -0.221 OA 
HETATM   12  O   UNL     1      -7.583   8.182  67.455  1.00  0.00    -0.098 OA 
HETATM   13  N   UNL     1      -9.498   9.357  67.839  1.00  0.00    -0.132 N  
HETATM   14  C   UNL     1      -8.835   7.588  69.406  1.00  0.00    -0.136 C  
HETATM   15  C   UNL     1      -8.586   8.364  68.150  1.00  0.00    -0.139 C  
ENDROOT
BRANCH   8  16
HETATM   16  C   UNL     1     -11.923   9.581  70.561  1.00  0.00    -0.134 A  
HETATM   17  C   UNL     1     -12.884   8.615  70.903  1.00  0.00     0.125 A  
HETATM   18  C   UNL     1     -13.991  10.184  72.357  1.00  0.00     0.203 A  
HETATM   19  C   UNL     1     -13.117  11.198  71.950  1.00  0.00    -0.408 A  
HETATM   20  C   UNL     1     -12.086  10.893  71.043  1.00  0.00    -0.425 A  
HETATM   21  C   UNL     1     -13.901   8.908  71.808  1.00  0.00    -0.465 A  
BRANCH  19  22
HETATM   22  N   UNL     1     -13.318  12.473  72.532  1.00  0.00    -0.464 N  
HETATM   23  H   UNL     1     -13.663  12.482  73.491  1.00  0.00     0.000 HD 
HETATM   24  C   UNL     1     -13.421  14.867  72.866  1.00  0.00    -0.550 C  
HETATM   25  O   UNL     1     -12.672  13.903  70.819  1.00  0.00    -0.329 OA 
HETATM   26  C   UNL     1     -13.101  13.704  71.946  1.00  0.00    -0.387 C  
ENDBRANCH  19  22
ENDBRANCH   8  16
BRANCH  13  27
HETATM   27  C   UNL     1      -9.259  10.095  66.599  1.00  0.00    -0.155 C  
HETATM   28  C   UNL     1      -9.368   9.395  65.263  1.00  0.00    -0.303 C  
HETATM   29  C   UNL     1     -10.337  10.480  65.608  1.00  0.00    -0.274 C  
ENDBRANCH  13  27
BRANCH  10  30
HETATM   30  N   UNL     1      -6.934   6.126  68.911  1.00  0.00    -0.070 NA 
HETATM   31  H   UNL     1      -6.016   6.499  69.155  1.00  0.00     0.000 HD 
BRANCH  30  32
HETATM   32  C   UNL     1      -6.947   5.239  67.813  1.00  0.00    -0.065 A  
HETATM   33  C   UNL     1      -6.019   5.289  66.768  1.00  0.00    -0.022 A  
HETATM   34  C   UNL     1      -6.194   4.508  65.614  1.00  0.00    -0.031 A  
HETATM   35  C   UNL     1      -7.292   3.655  65.499  1.00  0.00    -0.076 A  
HETATM   36  C   UNL     1      -8.184   3.523  66.556  1.00  0.00    -0.100 A  
HETATM   37  I   UNL     1      -7.632   2.630  63.721  1.00  0.00    -0.070 I  
HETATM   38  C   UNL     1      -8.005   4.314  67.691  1.00  0.00    -0.091 A  
HETATM   39  F   UNL     1      -8.895   4.200  68.690  1.00  0.00    -0.100 F  
ENDBRANCH  30  32
ENDBRANCH  10  30
TORSDOF 5
ENDMDL
MODEL       96
REMARK 921   NORMALIZED FREE ENERGY PREDICTED BY IDOCK:   -4.26 KCAL/MOL
REMARK 922        TOTAL FREE ENERGY PREDICTED BY IDOCK:   -5.72 KCAL/MOL
REMARK 923 INTER-LIGAND FREE ENERGY PREDICTED BY IDOCK:   -6.64 KCAL/MOL
REMARK 924 INTRA-LIGAND FREE ENERGY PREDICTED BY IDOCK:    0.92 KCAL/MOL
REMARK 927      BINDING AFFINITY PREDICTED BY RF-SCORE:    0.00 PKD
ROOT
HETATM    1  C   UNL     1      -5.631  10.647  67.009  1.00  0.00    -0.045 C  
HETATM    2  N   UNL     1      -6.776  11.337  67.591  1.00  0.00    -0.069 N  
HETATM    3  C   UNL     1      -6.771  12.714  67.463  1.00  0.00    -0.156 C  
HETATM    4  O   UNL     1      -5.780  13.351  67.104  1.00  0.00    -0.302 OA 
HETATM    5  C   UNL     1      -8.065  13.424  67.699  1.00  0.00    -0.175 C  
HETATM    6  C   UNL     1      -9.079  12.785  68.337  1.00  0.00    -0.129 C  
HETATM    7  C   UNL     1      -8.055  14.784  67.047  1.00  0.00    -0.177 C  
HETATM    8  N   UNL     1     -10.303  13.382  68.691  1.00  0.00    -0.232 N  
HETATM    9  C   UNL     1     -11.399  12.641  69.205  1.00  0.00    -0.282 C  
HETATM   10  C   UNL     1      -7.809  10.619  68.208  1.00  0.00    -0.113 C  
HETATM   11  O   UNL     1     -12.507  13.146  69.427  1.00  0.00    -0.090 OA 
HETATM   12  O   UNL     1     -10.137   9.323  69.073  1.00  0.00    -0.186 OA 
HETATM   13  N   UNL     1     -11.201  11.296  69.483  1.00  0.00    -0.268 N  
HETATM   14  C   UNL     1      -8.925  11.322  68.564  1.00  0.00    -0.166 C  
HETATM   15  C   UNL     1     -10.106  10.556  69.075  1.00  0.00    -0.217 C  
ENDROOT
BRANCH   8  16
HETATM   16  C   UNL     1     -10.524  14.819  68.794  1.00  0.00    -0.250 A  
HETATM   17  C   UNL     1     -10.376  15.459  70.036  1.00  0.00    -0.288 A  
HETATM   18  C   UNL     1     -10.266  17.607  68.954  1.00  0.00    -0.354 A  
HETATM   19  C   UNL     1     -10.525  17.011  67.715  1.00  0.00    -0.349 A  
HETATM   20  C   UNL     1     -10.662  15.613  67.640  1.00  0.00    -0.302 A  
HETATM   21  C   UNL     1     -10.230  16.841  70.116  1.00  0.00     0.460 A  
BRANCH  19  22
HETATM   22  N   UNL     1     -10.587  17.881  66.600  1.00  0.00    -0.289 N  
HETATM   23  H   UNL     1     -10.508  17.445  65.682  1.00  0.00     0.000 HD 
HETATM   24  C   UNL     1     -10.770  19.866  65.228  1.00  0.00     0.010 C  
HETATM   25  O   UNL     1     -10.876  19.954  67.608  1.00  0.00    -0.337 OA 
HETATM   26  C   UNL     1     -10.743  19.252  66.616  1.00  0.00    -0.410 C  
ENDBRANCH  19  22
ENDBRANCH   8  16
BRANCH  13  27
HETATM   27  C   UNL     1     -12.342  10.540  70.000  1.00  0.00    -0.219 C  
HETATM   28  C   UNL     1     -12.157   9.575  71.148  1.00  0.00    -0.429 C  
HETATM   29  C   UNL     1     -13.002  10.793  71.338  1.00  0.00    -0.535 C  
ENDBRANCH  13  27
BRANCH  10  30
HETATM   30  N   UNL     1      -7.640   9.248  68.346  1.00  0.00    -0.085 NA 
HETATM   31  H   UNL     1      -7.427   8.931  69.293  1.00  0.00     0.000 HD 
BRANCH  30  32
HETATM   32  C   UNL     1      -7.718   8.227  67.375  1.00  0.00    -0.102 A  
HETATM   33  C   UNL     1      -8.491   8.324  66.214  1.00  0.00    -0.134 A  
HETATM   34  C   UNL     1      -8.679   7.208  65.381  1.00  0.00     0.015 A  
HETATM   35  C   UNL     1      -8.080   5.987  65.693  1.00  0.00    -0.126 A  
HETATM   36  C   UNL     1      -7.239   5.885  66.794  1.00  0.00    -0.071 A  
HETATM   37  I   UNL     1      -8.498   4.302  64.547  1.00  0.00    -0.126 I  
HETATM   38  C   UNL     1      -7.072   6.997  67.619  1.00  0.00    -0.085 A  
HETATM   39  F   UNL     1      -6.283   6.873  68.698  1.00  0.00    -0.023 F  
ENDBRANCH  30  32
ENDBRANCH  10  30
TORSDOF 5
ENDMDL
MODEL       97
REMARK 921   NORMALIZED FREE ENERGY PREDICTED BY IDOCK:   -4.25 KCAL/MOL
REMARK 922        TOTAL FREE ENERGY PREDICTED BY IDOCK:   -5.71 KCAL/MOL
REMARK 923 INTER-LIGAND FREE ENERGY PREDICTED BY IDOCK:   -5.78 KCAL/MOL
REMARK 924 INTRA-LIGAND FREE ENERGY PREDICTED BY IDOCK:    0.07 KCAL/MOL
REMARK 927      BINDING AFFINITY PREDICTED BY RF-SCORE:    0.00 PKD
ROOT
HETATM    1  C   UNL     1      -9.077  12.065  65.131  1.00  0.00     0.343 C  
HETATM    2  N   UNL     1      -9.061  11.046  66.174  1.00  0.00    -0.186 N  
HETATM    3  C   UNL     1      -8.100  10.061  66.032  1.00  0.00    -0.124 C  
HETATM    4  O   UNL     1      -7.455   9.897  64.996  1.00  0.00    -0.122 OA 
HETATM    5  C   UNL     1      -7.797   9.227  67.235  1.00  0.00    -0.099 C  
HETATM    6  C   UNL     1      -8.660   9.215  68.283  1.00  0.00    -0.129 C  
HETATM    7  C   UNL     1      -6.439   8.584  67.110  1.00  0.00    -0.058 C  
HETATM    8  N   UNL     1      -8.523   8.402  69.423  1.00  0.00    -0.123 N  
HETATM    9  C   UNL     1      -9.350   8.539  70.568  1.00  0.00    -0.170 C  
HETATM   10  C   UNL     1      -9.957  11.106  67.250  1.00  0.00    -0.184 C  
HETATM   11  O   UNL     1      -9.171   7.891  71.608  1.00  0.00    -0.132 OA 
HETATM   12  O   UNL     1     -11.364  11.321  69.663  1.00  0.00    -0.260 OA 
HETATM   13  N   UNL     1     -10.414   9.426  70.499  1.00  0.00    -0.252 N  
HETATM   14  C   UNL     1      -9.758  10.221  68.272  1.00  0.00    -0.154 C  
HETATM   15  C   UNL     1     -10.596  10.369  69.504  1.00  0.00    -0.246 C  
ENDROOT
BRANCH   8  16
HETATM   16  C   UNL     1      -7.697   7.203  69.490  1.00  0.00    -0.113 A  
HETATM   17  C   UNL     1      -6.526   7.207  70.266  1.00  0.00    -0.043 A  
HETATM   18  C   UNL     1      -6.441   4.801  70.210  1.00  0.00    -0.034 A  
HETATM   19  C   UNL     1      -7.539   4.769  69.343  1.00  0.00    -0.056 A  
HETATM   20  C   UNL     1      -8.161   5.977  68.978  1.00  0.00    -0.107 A  
HETATM   21  C   UNL     1      -5.911   6.015  70.639  1.00  0.00    -0.029 A  
BRANCH  19  22
HETATM   22  N   UNL     1      -7.974   3.488  68.927  1.00  0.00    -0.058 N  
HETATM   23  H   UNL     1      -7.293   2.921  68.423  1.00  0.00     0.000 HD 
HETATM   24  C   UNL     1      -9.335   1.523  68.546  1.00  0.00    -0.231 C  
HETATM   25  O   UNL     1     -10.155   3.426  69.723  1.00  0.00     0.226 OA 
HETATM   26  C   UNL     1      -9.216   2.920  69.127  1.00  0.00    -0.153 C  
ENDBRANCH  19  22
ENDBRANCH   8  16
BRANCH  13  27
HETATM   27  C   UNL     1     -11.252   9.566  71.690  1.00  0.00    -0.308 C  
HETATM   28  C   UNL     1     -12.754   9.436  71.583  1.00  0.00    -0.459 C  
HETATM   29  C   UNL     1     -11.981   8.424  72.365  1.00  0.00    -0.451 C  
ENDBRANCH  13  27
BRANCH  10  30
HETATM   30  N   UNL     1     -10.927  12.098  67.218  1.00  0.00    -0.247 NA 
HETATM   31  H   UNL     1     -11.832  11.808  66.844  1.00  0.00     0.000 HD 
BRANCH  30  32
HETATM   32  C   UNL     1     -10.852  13.447  67.626  1.00  0.00    -0.259 A  
HETATM   33  C   UNL     1     -11.888  14.367  67.445  1.00  0.00    -0.430 A  
HETATM   34  C   UNL     1     -11.687  15.734  67.698  1.00  0.00     0.082 A  
HETATM   35  C   UNL     1     -10.449  16.193  68.149  1.00  0.00    -0.279 A  
HETATM   36  C   UNL     1      -9.428  15.291  68.416  1.00  0.00    -0.206 A  
HETATM   37  I   UNL     1     -10.111  18.235  68.359  1.00  0.00    -0.351 I  
HETATM   38  C   UNL     1      -9.638  13.938  68.149  1.00  0.00    -0.218 A  
HETATM   39  F   UNL     1      -8.629  13.082  68.382  1.00  0.00    -0.163 F  
ENDBRANCH  30  32
ENDBRANCH  10  30
TORSDOF 5
ENDMDL
MODEL       98
REMARK 921   NORMALIZED FREE ENERGY PREDICTED BY IDOCK:   -4.22 KCAL/MOL
REMARK 922        TOTAL FREE ENERGY PREDICTED BY IDOCK:   -5.66 KCAL/MOL
REMARK 923 INTER-LIGAND FREE ENERGY PREDICTED BY IDOCK:   -5.41 KCAL/MOL
REMARK 924 INTRA-LIGAND FREE ENERGY PREDICTED BY IDOCK:   -0.25 KCAL/MOL
REMARK 927      BINDING AFFINITY PREDICTED BY RF-SCORE:    0.00 PKD
ROOT
HETATM    1  C   UNL     1      -7.920   6.626  64.151  1.00  0.00    -0.084 C  
HETATM    2  N   UNL     1      -8.208   7.625  65.174  1.00  0.00    -0.139 N  
HETATM    3  C   UNL     1      -7.660   8.876  64.957  1.00  0.00    -0.100 C  
HETATM    4  O   UNL     1      -6.799   9.093  64.104  1.00  0.00    -0.087 OA 
HETATM    5  C   UNL     1      -8.217  10.011  65.756  1.00  0.00    -0.130 C  
HETATM    6  C   UNL     1      -8.962   9.755  66.862  1.00  0.00    -0.138 C  
HETATM    7  C   UNL     1      -7.924  11.329  65.086  1.00  0.00     0.527 C  
HETATM    8  N   UNL     1      -9.459  10.740  67.736  1.00  0.00    -0.154 N  
HETATM    9  C   UNL     1     -10.371  10.448  68.783  1.00  0.00    -0.196 C  
HETATM   10  C   UNL     1      -9.012   7.310  66.278  1.00  0.00    -0.156 C  
HETATM   11  O   UNL     1     -10.883  11.325  69.492  1.00  0.00    -0.226 OA 
HETATM   12  O   UNL     1     -10.934   6.977  68.288  1.00  0.00    -0.169 OA 
HETATM   13  N   UNL     1     -10.678   9.117  69.025  1.00  0.00    -0.194 N  
HETATM   14  C   UNL     1      -9.379   8.345  67.091  1.00  0.00    -0.192 C  
HETATM   15  C   UNL     1     -10.367   8.066  68.181  1.00  0.00    -0.200 C  
ENDROOT
BRANCH   8  16
HETATM   16  C   UNL     1      -8.946  12.102  67.827  1.00  0.00    -0.179 A  
HETATM   17  C   UNL     1      -7.663  12.328  68.352  1.00  0.00    -0.141 A  
HETATM   18  C   UNL     1      -7.636  14.549  67.421  1.00  0.00    -0.209 A  
HETATM   19  C   UNL     1      -8.956  14.395  66.983  1.00  0.00    -0.240 A  
HETATM   20  C   UNL     1      -9.612  13.169  67.196  1.00  0.00    -0.235 A  
HETATM   21  C   UNL     1      -7.004  13.535  68.137  1.00  0.00    -0.118 A  
BRANCH  19  22
HETATM   22  N   UNL     1      -9.526  15.499  66.305  1.00  0.00    -0.296 N  
HETATM   23  H   UNL     1      -9.616  15.410  65.293  1.00  0.00     0.000 HD 
HETATM   24  C   UNL     1     -10.531  17.649  65.831  1.00  0.00    -0.247 C  
HETATM   25  O   UNL     1      -9.972  16.970  68.047  1.00  0.00    -0.263 OA 
HETATM   26  C   UNL     1      -9.973  16.681  66.859  1.00  0.00    -0.271 C  
ENDBRANCH  19  22
ENDBRANCH   8  16
BRANCH  13  27
HETATM   27  C   UNL     1     -11.628   8.831  70.100  1.00  0.00     0.065 C  
HETATM   28  C   UNL     1     -11.269   7.846  71.189  1.00  0.00    -0.284 C  
HETATM   29  C   UNL     1     -11.465   9.288  71.534  1.00  0.00    -0.454 C  
ENDBRANCH  13  27
BRANCH  10  30
HETATM   30  N   UNL     1      -9.419   5.991  66.416  1.00  0.00    -0.157 NA 
HETATM   31  H   UNL     1     -10.326   5.771  66.003  1.00  0.00     0.000 HD 
BRANCH  30  32
HETATM   32  C   UNL     1      -8.768   4.907  67.043  1.00  0.00    -0.103 A  
HETATM   33  C   UNL     1      -9.313   3.622  67.127  1.00  0.00    -0.228 A  
HETATM   34  C   UNL     1      -8.708   2.635  67.922  1.00  0.00    -0.138 A  
HETATM   35  C   UNL     1      -7.540   2.919  68.631  1.00  0.00    -0.048 A  
HETATM   36  C   UNL     1      -6.932   4.161  68.500  1.00  0.00    -0.051 A  
HETATM   37  I   UNL     1      -6.746   1.507  69.936  1.00  0.00    -0.029 I  
HETATM   38  C   UNL     1      -7.550   5.135  67.717  1.00  0.00    -0.087 A  
HETATM   39  F   UNL     1      -6.966   6.342  67.627  1.00  0.00    -0.064 F  
ENDBRANCH  30  32
ENDBRANCH  10  30
TORSDOF 5
ENDMDL
MODEL       99
REMARK 921   NORMALIZED FREE ENERGY PREDICTED BY IDOCK:   -4.20 KCAL/MOL
REMARK 922        TOTAL FREE ENERGY PREDICTED BY IDOCK:   -5.64 KCAL/MOL
REMARK 923 INTER-LIGAND FREE ENERGY PREDICTED BY IDOCK:   -6.83 KCAL/MOL
REMARK 924 INTRA-LIGAND FREE ENERGY PREDICTED BY IDOCK:    1.19 KCAL/MOL
REMARK 927      BINDING AFFINITY PREDICTED BY RF-SCORE:    0.00 PKD
ROOT
HETATM    1  C   UNL     1     -12.396  11.366  70.569  1.00  0.00    -0.349 C  
HETATM    2  N   UNL     1     -11.421  12.056  69.732  1.00  0.00    -0.250 N  
HETATM    3  C   UNL     1     -11.707  13.380  69.450  1.00  0.00    -0.325 C  
HETATM    4  O   UNL     1     -12.805  13.892  69.675  1.00  0.00     0.002 OA 
HETATM    5  C   UNL     1     -10.588  14.221  68.926  1.00  0.00    -0.252 C  
HETATM    6  C   UNL     1      -9.471  13.627  68.434  1.00  0.00    -0.190 C  
HETATM    7  C   UNL     1     -10.871  15.685  69.150  1.00  0.00    -0.246 C  
HETATM    8  N   UNL     1      -8.398  14.314  67.835  1.00  0.00    -0.150 N  
HETATM    9  C   UNL     1      -7.179  13.678  67.486  1.00  0.00    -0.156 C  
HETATM   10  C   UNL     1     -10.269  11.399  69.281  1.00  0.00     0.021 C  
HETATM   11  O   UNL     1      -6.199  14.297  67.047  1.00  0.00    -0.023 OA 
HETATM   12  O   UNL     1      -7.732  10.376  68.673  1.00  0.00    -0.091 OA 
HETATM   13  N   UNL     1      -7.100  12.300  67.628  1.00  0.00    -0.113 N  
HETATM   14  C   UNL     1      -9.324  12.163  68.656  1.00  0.00    -0.031 C  
HETATM   15  C   UNL     1      -8.016  11.521  68.311  1.00  0.00    -0.142 C  
ENDROOT
BRANCH   8  16
HETATM   16  C   UNL     1      -8.477  15.667  67.300  1.00  0.00    -0.191 A  
HETATM   17  C   UNL     1      -9.474  15.988  66.364  1.00  0.00    -0.322 A  
HETATM   18  C   UNL     1      -9.121  18.340  66.744  1.00  0.00    -0.287 A  
HETATM   19  C   UNL     1      -8.047  18.055  67.595  1.00  0.00    -0.232 A  
HETATM   20  C   UNL     1      -7.723  16.712  67.864  1.00  0.00    -0.170 A  
HETATM   21  C   UNL     1      -9.807  17.314  66.100  1.00  0.00    -0.269 A  
BRANCH  19  22
HETATM   22  N   UNL     1      -7.384  19.167  68.165  1.00  0.00    -0.262 N  
HETATM   23  H   UNL     1      -7.961  19.984  68.364  1.00  0.00     0.000 HD 
HETATM   24  C   UNL     1      -5.675  20.614  69.084  1.00  0.00    -0.402 C  
HETATM   25  O   UNL     1      -5.198  18.400  68.341  1.00  0.00    -0.166 OA 
HETATM   26  C   UNL     1      -6.044  19.271  68.482  1.00  0.00    -0.230 C  
ENDBRANCH  19  22
ENDBRANCH   8  16
BRANCH  13  27
HETATM   27  C   UNL     1      -5.833  11.659  67.277  1.00  0.00    -0.111 C  
HETATM   28  C   UNL     1      -5.815  10.230  66.785  1.00  0.00    -0.052 C  
HETATM   29  C   UNL     1      -5.401  11.332  65.863  1.00  0.00    -0.028 C  
ENDBRANCH  13  27
BRANCH  10  30
HETATM   30  N   UNL     1     -10.155  10.044  69.563  1.00  0.00    -0.214 NA 
HETATM   31  H   UNL     1     -10.210   9.801  70.552  1.00  0.00     0.000 HD 
BRANCH  30  32
HETATM   32  C   UNL     1      -9.974   8.953  68.686  1.00  0.00    -0.177 A  
HETATM   33  C   UNL     1     -10.412   8.948  67.359  1.00  0.00    -0.347 A  
HETATM   34  C   UNL     1     -10.374   7.771  66.593  1.00  0.00    -0.262 A  
HETATM   35  C   UNL     1      -9.881   6.588  67.144  1.00  0.00    -0.148 A  
HETATM   36  C   UNL     1      -9.361   6.584  68.432  1.00  0.00    -0.122 A  
HETATM   37  I   UNL     1      -9.983   4.815  66.061  1.00  0.00    -0.252 I  
HETATM   38  C   UNL     1      -9.417   7.757  69.185  1.00  0.00    -0.151 A  
HETATM   39  F   UNL     1      -8.941   7.728  70.440  1.00  0.00    -0.141 F  
ENDBRANCH  30  32
ENDBRANCH  10  30
TORSDOF 5
ENDMDL
MODEL      100
REMARK 921   NORMALIZED FREE ENERGY PREDICTED BY IDOCK:   -4.20 KCAL/MOL
REMARK 922        TOTAL FREE ENERGY PREDICTED BY IDOCK:   -5.64 KCAL/MOL
REMARK 923 INTER-LIGAND FREE ENERGY PREDICTED BY IDOCK:   -7.44 KCAL/MOL
REMARK 924 INTRA-LIGAND FREE ENERGY PREDICTED BY IDOCK:    1.80 KCAL/MOL
REMARK 927      BINDING AFFINITY PREDICTED BY RF-SCORE:    0.00 PKD
ROOT
HETATM    1  C   UNL     1      -8.940   8.059  64.901  1.00  0.00     0.384 C  
HETATM    2  N   UNL     1      -9.313   9.044  65.910  1.00  0.00    -0.229 N  
HETATM    3  C   UNL     1      -9.298  10.362  65.492  1.00  0.00    -0.197 C  
HETATM    4  O   UNL     1      -8.787  10.724  64.432  1.00  0.00    -0.180 OA 
HETATM    5  C   UNL     1     -10.015  11.356  66.348  1.00  0.00    -0.247 C  
HETATM    6  C   UNL     1     -10.351  11.031  67.623  1.00  0.00    -0.191 C  
HETATM    7  C   UNL     1     -10.360  12.592  65.556  1.00  0.00    -0.305 C  
HETATM    8  N   UNL     1     -10.944  11.914  68.544  1.00  0.00    -0.221 N  
HETATM    9  C   UNL     1     -11.432  11.493  69.808  1.00  0.00    -0.286 C  
HETATM   10  C   UNL     1      -9.682   8.644  67.202  1.00  0.00    -0.190 C  
HETATM   11  O   UNL     1     -12.039  12.247  70.580  1.00  0.00    -0.364 OA 
HETATM   12  O   UNL     1     -10.854   7.991  69.661  1.00  0.00    -0.240 OA 
HETATM   13  N   UNL     1     -11.194  10.181  70.192  1.00  0.00    -0.288 N  
HETATM   14  C   UNL     1     -10.188   9.608  68.027  1.00  0.00    -0.235 C  
HETATM   15  C   UNL     1     -10.740   9.180  69.352  1.00  0.00    -0.198 C  
ENDROOT
BRANCH   8  16
HETATM   16  C   UNL     1     -10.928  13.367  68.425  1.00  0.00    -0.267 A  
HETATM   17  C   UNL     1     -12.121  14.091  68.588  1.00  0.00    -0.332 A  
HETATM   18  C   UNL     1     -10.880  16.134  68.881  1.00  0.00    -0.305 A  
HETATM   19  C   UNL     1      -9.683  15.462  68.610  1.00  0.00    -0.210 A  
HETATM   20  C   UNL     1      -9.713  14.075  68.374  1.00  0.00    -0.223 A  
HETATM   21  C   UNL     1     -12.098  15.462  68.832  1.00  0.00    -0.226 A  
BRANCH  19  22
HETATM   22  N   UNL     1      -8.503  16.242  68.639  1.00  0.00    -0.209 N  
HETATM   23  H   UNL     1      -8.497  17.075  68.051  1.00  0.00     0.000 HD 
HETATM   24  C   UNL     1      -6.284  17.053  69.163  1.00  0.00    -0.203 C  
HETATM   25  O   UNL     1      -7.178  15.075  70.149  1.00  0.00    -0.113 OA 
HETATM   26  C   UNL     1      -7.359  16.003  69.373  1.00  0.00    -0.212 C  
ENDBRANCH  19  22
ENDBRANCH   8  16
BRANCH  13  27
HETATM   27  C   UNL     1     -11.712   9.756  71.492  1.00  0.00    -0.375 C  
HETATM   28  C   UNL     1     -13.203   9.701  71.735  1.00  0.00    -0.520 C  
HETATM   29  C   UNL     1     -12.407   8.436  71.748  1.00  0.00    -0.375 C  
ENDBRANCH  13  27
BRANCH  10  30
HETATM   30  N   UNL     1      -9.563   7.296  67.511  1.00  0.00    -0.138 NA 
HETATM   31  H   UNL     1     -10.259   6.939  68.167  1.00  0.00     0.000 HD 
BRANCH  30  32
HETATM   32  C   UNL     1      -8.625   6.345  67.055  1.00  0.00    -0.112 A  
HETATM   33  C   UNL     1      -7.243   6.547  67.090  1.00  0.00    -0.081 A  
HETATM   34  C   UNL     1      -6.370   5.650  66.452  1.00  0.00    -0.035 A  
HETATM   35  C   UNL     1      -6.871   4.532  65.784  1.00  0.00    -0.058 A  
HETATM   36  C   UNL     1      -8.234   4.263  65.805  1.00  0.00    -0.109 A  
HETATM   37  I   UNL     1      -5.587   3.304  64.703  1.00  0.00    -0.010 I  
HETATM   38  C   UNL     1      -9.090   5.168  66.432  1.00  0.00    -0.131 A  
HETATM   39  F   UNL     1     -10.408   4.911  66.415  1.00  0.00    -0.211 F  
ENDBRANCH  30  32
ENDBRANCH  10  30
TORSDOF 5
ENDMDL
MODEL      101
REMARK 921   NORMALIZED FREE ENERGY PREDICTED BY IDOCK:   -4.16 KCAL/MOL
REMARK 922        TOTAL FREE ENERGY PREDICTED BY IDOCK:   -5.59 KCAL/MOL
REMARK 923 INTER-LIGAND FREE ENERGY PREDICTED BY IDOCK:   -6.62 KCAL/MOL
REMARK 924 INTRA-LIGAND FREE ENERGY PREDICTED BY IDOCK:    1.02 KCAL/MOL
REMARK 927      BINDING AFFINITY PREDICTED BY RF-SCORE:    0.00 PKD
ROOT
HETATM    1  C   UNL     1      -6.797  11.456  68.826  1.00  0.00    -0.082 C  
HETATM    2  N   UNL     1      -7.709  10.438  69.333  1.00  0.00    -0.145 N  
HETATM    3  C   UNL     1      -7.117   9.257  69.743  1.00  0.00    -0.064 C  
HETATM    4  O   UNL     1      -5.947   8.970  69.490  1.00  0.00    -0.036 OA 
HETATM    5  C   UNL     1      -7.937   8.347  70.600  1.00  0.00    -0.101 C  
HETATM    6  C   UNL     1      -9.283   8.515  70.669  1.00  0.00    -0.163 C  
HETATM    7  C   UNL     1      -7.053   7.403  71.375  1.00  0.00    -0.063 C  
HETATM    8  N   UNL     1     -10.160   7.666  71.368  1.00  0.00    -0.182 N  
HETATM    9  C   UNL     1     -11.534   7.968  71.557  1.00  0.00    -0.264 C  
HETATM   10  C   UNL     1      -9.087  10.684  69.411  1.00  0.00    -0.043 C  
HETATM   11  O   UNL     1     -12.286   7.271  72.251  1.00  0.00    -0.227 OA 
HETATM   12  O   UNL     1     -11.774  11.169  70.037  1.00  0.00    -0.298 OA 
HETATM   13  N   UNL     1     -12.049   9.083  70.913  1.00  0.00    -0.247 N  
HETATM   14  C   UNL     1      -9.846   9.753  70.062  1.00  0.00    -0.295 C  
HETATM   15  C   UNL     1     -11.290  10.066  70.303  1.00  0.00    -0.308 C  
ENDROOT
BRANCH   8  16
HETATM   16  C   UNL     1      -9.842   6.304  71.778  1.00  0.00    -0.163 A  
HETATM   17  C   UNL     1     -10.151   5.879  73.081  1.00  0.00    -0.199 A  
HETATM   18  C   UNL     1      -9.894   3.576  72.428  1.00  0.00    -0.229 A  
HETATM   19  C   UNL     1      -9.472   3.971  71.153  1.00  0.00    -0.160 A  
HETATM   20  C   UNL     1      -9.440   5.341  70.834  1.00  0.00    -0.216 A  
HETATM   21  C   UNL     1     -10.194   4.525  73.401  1.00  0.00    -0.220 A  
BRANCH  19  22
HETATM   22  N   UNL     1      -9.145   2.932  70.250  1.00  0.00    -0.104 N  
HETATM   23  H   UNL     1      -9.867   2.231  70.086  1.00  0.00     0.000 HD 
HETATM   24  C   UNL     1      -7.955   1.533  68.674  1.00  0.00    -0.056 C  
HETATM   25  O   UNL     1      -6.986   3.499  69.608  1.00  0.00    -0.040 OA 
HETATM   26  C   UNL     1      -7.959   2.761  69.565  1.00  0.00    -0.041 C  
ENDBRANCH  19  22
ENDBRANCH   8  16
BRANCH  13  27
HETATM   27  C   UNL     1     -13.463   9.390  71.124  1.00  0.00    -0.191 C  
HETATM   28  C   UNL     1     -14.123   9.063  72.445  1.00  0.00    -0.478 C  
HETATM   29  C   UNL     1     -13.976  10.491  72.027  1.00  0.00     0.276 C  
ENDBRANCH  13  27
BRANCH  10  30
HETATM   30  N   UNL     1      -9.554  11.878  68.880  1.00  0.00    -0.413 NA 
HETATM   31  H   UNL     1      -9.498  12.682  69.505  1.00  0.00     0.000 HD 
BRANCH  30  32
HETATM   32  C   UNL     1     -10.095  12.146  67.604  1.00  0.00    -0.199 A  
HETATM   33  C   UNL     1     -10.916  13.244  67.329  1.00  0.00    -0.284 A  
HETATM   34  C   UNL     1     -11.576  13.356  66.094  1.00  0.00    -0.378 A  
HETATM   35  C   UNL     1     -11.408  12.377  65.114  1.00  0.00    -0.323 A  
HETATM   36  C   UNL     1     -10.533  11.321  65.329  1.00  0.00    -0.341 A  
HETATM   37  I   UNL     1     -12.517  12.466  63.356  1.00  0.00     0.007 I  
HETATM   38  C   UNL     1      -9.894  11.215  66.564  1.00  0.00    -0.208 A  
HETATM   39  F   UNL     1      -9.077  10.169  66.768  1.00  0.00    -0.142 F  
ENDBRANCH  30  32
ENDBRANCH  10  30
TORSDOF 5
ENDMDL
MODEL      102
REMARK 921   NORMALIZED FREE ENERGY PREDICTED BY IDOCK:   -4.11 KCAL/MOL
REMARK 922        TOTAL FREE ENERGY PREDICTED BY IDOCK:   -5.53 KCAL/MOL
REMARK 923 INTER-LIGAND FREE ENERGY PREDICTED BY IDOCK:   -7.35 KCAL/MOL
REMARK 924 INTRA-LIGAND FREE ENERGY PREDICTED BY IDOCK:    1.82 KCAL/MOL
REMARK 927      BINDING AFFINITY PREDICTED BY RF-SCORE:    0.00 PKD
ROOT
HETATM    1  C   UNL     1      -7.285   8.526  70.249  1.00  0.00    -0.048 C  
HETATM    2  N   UNL     1      -7.624   9.819  69.667  1.00  0.00    -0.103 N  
HETATM    3  C   UNL     1      -6.781  10.864  70.002  1.00  0.00    -0.126 C  
HETATM    4  O   UNL     1      -5.948  10.790  70.905  1.00  0.00    -0.285 OA 
HETATM    5  C   UNL     1      -6.856  12.096  69.159  1.00  0.00    -0.078 C  
HETATM    6  C   UNL     1      -7.925  12.293  68.345  1.00  0.00    -0.152 C  
HETATM    7  C   UNL     1      -5.592  12.908  69.287  1.00  0.00    -0.076 C  
HETATM    8  N   UNL     1      -8.143  13.452  67.578  1.00  0.00    -0.170 N  
HETATM    9  C   UNL     1      -9.181  13.553  66.615  1.00  0.00    -0.210 C  
HETATM   10  C   UNL     1      -8.722   9.953  68.807  1.00  0.00    -0.132 C  
HETATM   11  O   UNL     1      -9.316  14.534  65.872  1.00  0.00    -0.231 OA 
HETATM   12  O   UNL     1     -10.592  10.296  66.749  1.00  0.00    -0.231 OA 
HETATM   13  N   UNL     1     -10.088  12.507  66.526  1.00  0.00    -0.234 N  
HETATM   14  C   UNL     1      -8.863  11.151  68.165  1.00  0.00    -0.148 C  
HETATM   15  C   UNL     1      -9.929  11.268  67.120  1.00  0.00    -0.192 C  
ENDROOT
BRANCH   8  16
HETATM   16  C   UNL     1      -7.504  14.739  67.823  1.00  0.00    -0.163 A  
HETATM   17  C   UNL     1      -6.172  14.942  67.424  1.00  0.00     0.101 A  
HETATM   18  C   UNL     1      -6.436  17.326  67.638  1.00  0.00    -0.166 A  
HETATM   19  C   UNL     1      -7.728  17.151  68.146  1.00  0.00    -0.204 A  
HETATM   20  C   UNL     1      -8.257  15.851  68.245  1.00  0.00    -0.152 A  
HETATM   21  C   UNL     1      -5.646  16.226  67.315  1.00  0.00    -0.127 A  
BRANCH  19  22
HETATM   22  N   UNL     1      -8.433  18.329  68.488  1.00  0.00    -0.312 N  
HETATM   23  H   UNL     1      -7.897  19.196  68.479  1.00  0.00     0.000 HD 
HETATM   24  C   UNL     1     -10.191  19.861  69.138  1.00  0.00    -0.281 C  
HETATM   25  O   UNL     1     -10.576  17.523  68.882  1.00  0.00    -0.316 OA 
HETATM   26  C   UNL     1      -9.765  18.436  68.833  1.00  0.00    -0.291 C  
ENDBRANCH  19  22
ENDBRANCH   8  16
BRANCH  13  27
HETATM   27  C   UNL     1     -11.146  12.617  65.522  1.00  0.00    -0.294 C  
HETATM   28  C   UNL     1     -10.818  13.074  64.119  1.00  0.00    -0.433 C  
HETATM   29  C   UNL     1     -11.311  11.681  64.344  1.00  0.00    -0.334 C  
ENDBRANCH  13  27
BRANCH  10  30
HETATM   30  N   UNL     1      -9.534   8.842  68.630  1.00  0.00    -0.141 NA 
HETATM   31  H   UNL     1      -9.779   8.633  67.661  1.00  0.00     0.000 HD 
BRANCH  30  32
HETATM   32  C   UNL     1     -10.072   7.956  69.588  1.00  0.00    -0.197 A  
HETATM   33  C   UNL     1     -10.696   8.379  70.765  1.00  0.00    -0.244 A  
HETATM   34  C   UNL     1     -11.042   7.457  71.767  1.00  0.00    -0.269 A  
HETATM   35  C   UNL     1     -10.781   6.097  71.594  1.00  0.00    -0.245 A  
HETATM   36  C   UNL     1     -10.238   5.640  70.400  1.00  0.00    -0.302 A  
HETATM   37  I   UNL     1     -11.143   4.763  73.148  1.00  0.00    -0.301 I  
HETATM   38  C   UNL     1      -9.888   6.568  69.419  1.00  0.00    -0.146 A  
HETATM   39  F   UNL     1      -9.334   6.113  68.284  1.00  0.00    -0.119 F  
ENDBRANCH  30  32
ENDBRANCH  10  30
TORSDOF 5
ENDMDL
MODEL      103
REMARK 921   NORMALIZED FREE ENERGY PREDICTED BY IDOCK:   -4.11 KCAL/MOL
REMARK 922        TOTAL FREE ENERGY PREDICTED BY IDOCK:   -5.53 KCAL/MOL
REMARK 923 INTER-LIGAND FREE ENERGY PREDICTED BY IDOCK:   -8.76 KCAL/MOL
REMARK 924 INTRA-LIGAND FREE ENERGY PREDICTED BY IDOCK:    3.24 KCAL/MOL
REMARK 927      BINDING AFFINITY PREDICTED BY RF-SCORE:    0.00 PKD
ROOT
HETATM    1  C   UNL     1      -9.247   8.994  65.406  1.00  0.00    -0.176 C  
HETATM    2  N   UNL     1      -9.731   9.769  66.542  1.00  0.00    -0.195 N  
HETATM    3  C   UNL     1      -9.821  11.135  66.338  1.00  0.00    -0.211 C  
HETATM    4  O   UNL     1      -9.315  11.703  65.369  1.00  0.00    -0.211 OA 
HETATM    5  C   UNL     1     -10.644  11.916  67.311  1.00  0.00    -0.261 C  
HETATM    6  C   UNL     1     -10.983  11.363  68.504  1.00  0.00    -0.221 C  
HETATM    7  C   UNL     1     -11.075  13.230  66.711  1.00  0.00    -0.313 C  
HETATM    8  N   UNL     1     -11.675  12.035  69.529  1.00  0.00    -0.323 N  
HETATM    9  C   UNL     1     -12.157  11.377  70.690  1.00  0.00    -0.372 C  
HETATM   10  C   UNL     1     -10.097   9.138  67.738  1.00  0.00    -0.203 C  
HETATM   11  O   UNL     1     -12.848  11.945  71.546  1.00  0.00    -0.385 OA 
HETATM   12  O   UNL     1     -11.271   8.005  70.016  1.00  0.00    -0.208 OA 
HETATM   13  N   UNL     1     -11.815  10.045  70.871  1.00  0.00    -0.339 N  
HETATM   14  C   UNL     1     -10.707   9.912  68.685  1.00  0.00    -0.256 C  
HETATM   15  C   UNL     1     -11.254   9.233  69.902  1.00  0.00    -0.126 C  
ENDROOT
BRANCH   8  16
HETATM   16  C   UNL     1     -11.784  13.485  69.641  1.00  0.00    -0.314 A  
HETATM   17  C   UNL     1     -12.658  14.045  70.588  1.00  0.00    -0.414 A  
HETATM   18  C   UNL     1     -11.563  16.181  70.383  1.00  0.00    -0.293 A  
HETATM   19  C   UNL     1     -10.753  15.682  69.357  1.00  0.00    -0.252 A  
HETATM   20  C   UNL     1     -10.873  14.331  68.982  1.00  0.00    -0.274 A  
HETATM   21  C   UNL     1     -12.538  15.378  70.970  1.00  0.00    -0.491 A  
BRANCH  19  22
HETATM   22  N   UNL     1      -9.824  16.588  68.792  1.00  0.00    -0.243 N  
HETATM   23  H   UNL     1      -9.167  17.023  69.439  1.00  0.00     0.000 HD 
HETATM   24  C   UNL     1      -8.593  17.948  67.214  1.00  0.00    -0.241 C  
HETATM   25  O   UNL     1     -10.382  16.525  66.538  1.00  0.00    -0.299 OA 
HETATM   26  C   UNL     1      -9.707  16.949  67.465  1.00  0.00    -0.249 C  
ENDBRANCH  19  22
ENDBRANCH   8  16
BRANCH  13  27
HETATM   27  C   UNL     1     -12.328   9.375  72.066  1.00  0.00    -0.345 C  
HETATM   28  C   UNL     1     -13.784   8.977  72.149  1.00  0.00    -0.536 C  
HETATM   29  C   UNL     1     -12.730   7.917  72.126  1.00  0.00    -0.254 C  
ENDBRANCH  13  27
BRANCH  10  30
HETATM   30  N   UNL     1      -9.869   7.773  67.836  1.00  0.00    -0.154 NA 
HETATM   31  H   UNL     1     -10.643   7.181  67.533  1.00  0.00     0.000 HD 
BRANCH  30  32
HETATM   32  C   UNL     1      -8.727   7.080  68.291  1.00  0.00    -0.127 A  
HETATM   33  C   UNL     1      -8.480   5.732  68.013  1.00  0.00    -0.106 A  
HETATM   34  C   UNL     1      -7.428   5.049  68.646  1.00  0.00    -0.070 A  
HETATM   35  C   UNL     1      -6.602   5.712  69.553  1.00  0.00    -0.050 A  
HETATM   36  C   UNL     1      -6.772   7.071  69.785  1.00  0.00    -0.049 A  
HETATM   37  I   UNL     1      -5.156   4.653  70.610  1.00  0.00     0.000 I  
HETATM   38  C   UNL     1      -7.828   7.734  69.159  1.00  0.00    -0.114 A  
HETATM   39  F   UNL     1      -8.000   9.040  69.419  1.00  0.00    -0.089 F  
ENDBRANCH  30  32
ENDBRANCH  10  30
TORSDOF 5
ENDMDL
MODEL      104
REMARK 921   NORMALIZED FREE ENERGY PREDICTED BY IDOCK:   -4.03 KCAL/MOL
REMARK 922        TOTAL FREE ENERGY PREDICTED BY IDOCK:   -5.42 KCAL/MOL
REMARK 923 INTER-LIGAND FREE ENERGY PREDICTED BY IDOCK:   -6.25 KCAL/MOL
REMARK 924 INTRA-LIGAND FREE ENERGY PREDICTED BY IDOCK:    0.83 KCAL/MOL
REMARK 927      BINDING AFFINITY PREDICTED BY RF-SCORE:    0.00 PKD
ROOT
HETATM    1  C   UNL     1      -5.925   8.972  67.807  1.00  0.00    -0.050 C  
HETATM    2  N   UNL     1      -7.053   9.879  67.630  1.00  0.00    -0.086 N  
HETATM    3  C   UNL     1      -7.211  10.835  68.617  1.00  0.00    -0.089 C  
HETATM    4  O   UNL     1      -6.609  10.798  69.690  1.00  0.00    -0.082 OA 
HETATM    5  C   UNL     1      -8.098  11.997  68.303  1.00  0.00    -0.155 C  
HETATM    6  C   UNL     1      -8.957  11.926  67.254  1.00  0.00    -0.176 C  
HETATM    7  C   UNL     1      -7.784  13.166  69.202  1.00  0.00     0.303 C  
HETATM    8  N   UNL     1      -9.898  12.919  66.923  1.00  0.00    -0.230 N  
HETATM    9  C   UNL     1     -10.660  12.886  65.726  1.00  0.00    -0.275 C  
HETATM   10  C   UNL     1      -7.887   9.777  66.509  1.00  0.00    -0.109 C  
HETATM   11  O   UNL     1     -11.418  13.805  65.386  1.00  0.00    -0.304 OA 
HETATM   12  O   UNL     1      -9.363   9.987  64.136  1.00  0.00    -0.262 OA 
HETATM   13  N   UNL     1     -10.559  11.760  64.922  1.00  0.00    -0.282 N  
HETATM   14  C   UNL     1      -8.805  10.772  66.327  1.00  0.00    -0.182 C  
HETATM   15  C   UNL     1      -9.596  10.776  65.055  1.00  0.00    -0.254 C  
ENDROOT
BRANCH   8  16
HETATM   16  C   UNL     1     -10.366  13.954  67.836  1.00  0.00    -0.240 A  
HETATM   17  C   UNL     1     -11.064  13.591  69.000  1.00  0.00    -0.293 A  
HETATM   18  C   UNL     1     -10.699  15.778  69.941  1.00  0.00    -0.332 A  
HETATM   19  C   UNL     1     -10.099  16.205  68.751  1.00  0.00    -0.237 A  
HETATM   20  C   UNL     1      -9.941  15.289  67.695  1.00  0.00    -0.222 A  
HETATM   21  C   UNL     1     -11.215  14.490  70.053  1.00  0.00    -0.228 A  
BRANCH  19  22
HETATM   22  N   UNL     1      -9.648  17.546  68.720  1.00  0.00    -0.292 N  
HETATM   23  H   UNL     1      -8.926  17.796  69.396  1.00  0.00     0.000 HD 
HETATM   24  C   UNL     1      -9.369  19.874  68.123  1.00  0.00    -0.406 C  
HETATM   25  O   UNL     1     -10.911  18.450  66.993  1.00  0.00    -0.345 OA 
HETATM   26  C   UNL     1     -10.075  18.553  67.879  1.00  0.00    -0.369 C  
ENDBRANCH  19  22
ENDBRANCH   8  16
BRANCH  13  27
HETATM   27  C   UNL     1     -11.341  11.744  63.686  1.00  0.00    -0.436 C  
HETATM   28  C   UNL     1     -12.851  11.739  63.742  1.00  0.00    -0.302 C  
HETATM   29  C   UNL     1     -12.139  12.917  63.160  1.00  0.00    -0.351 C  
ENDBRANCH  13  27
BRANCH  10  30
HETATM   30  N   UNL     1      -7.668   8.713  65.645  1.00  0.00    -0.089 NA 
HETATM   31  H   UNL     1      -7.243   8.960  64.751  1.00  0.00     0.000 HD 
BRANCH  30  32
HETATM   32  C   UNL     1      -7.946   7.340  65.817  1.00  0.00    -0.122 A  
HETATM   33  C   UNL     1      -7.579   6.356  64.894  1.00  0.00    -0.093 A  
HETATM   34  C   UNL     1      -8.045   5.037  65.026  1.00  0.00    -0.113 A  
HETATM   35  C   UNL     1      -8.873   4.685  66.093  1.00  0.00    -0.118 A  
HETATM   36  C   UNL     1      -9.185   5.622  67.069  1.00  0.00    -0.117 A  
HETATM   37  I   UNL     1      -9.693   2.776  66.186  1.00  0.00     0.944 I  
HETATM   38  C   UNL     1      -8.725   6.931  66.919  1.00  0.00    -0.118 A  
HETATM   39  F   UNL     1      -9.064   7.833  67.854  1.00  0.00    -0.131 F  
ENDBRANCH  30  32
ENDBRANCH  10  30
TORSDOF 5
ENDMDL
MODEL      105
REMARK 921   NORMALIZED FREE ENERGY PREDICTED BY IDOCK:   -4.02 KCAL/MOL
REMARK 922        TOTAL FREE ENERGY PREDICTED BY IDOCK:   -5.41 KCAL/MOL
REMARK 923 INTER-LIGAND FREE ENERGY PREDICTED BY IDOCK:   -5.82 KCAL/MOL
REMARK 924 INTRA-LIGAND FREE ENERGY PREDICTED BY IDOCK:    0.41 KCAL/MOL
REMARK 927      BINDING AFFINITY PREDICTED BY RF-SCORE:    0.00 PKD
ROOT
HETATM    1  C   UNL     1      -5.206   7.944  68.395  1.00  0.00    -0.031 C  
HETATM    2  N   UNL     1      -6.441   8.718  68.428  1.00  0.00    -0.055 N  
HETATM    3  C   UNL     1      -6.575   9.670  67.433  1.00  0.00    -0.070 C  
HETATM    4  O   UNL     1      -5.642  10.021  66.710  1.00  0.00    -0.045 OA 
HETATM    5  C   UNL     1      -7.946  10.218  67.196  1.00  0.00    -0.114 C  
HETATM    6  C   UNL     1      -8.913  10.045  68.133  1.00  0.00    -0.122 C  
HETATM    7  C   UNL     1      -8.050  10.816  65.815  1.00  0.00    -0.135 C  
HETATM    8  N   UNL     1     -10.208  10.592  68.056  1.00  0.00    -0.169 N  
HETATM    9  C   UNL     1     -11.240  10.252  68.968  1.00  0.00    -0.208 C  
HETATM   10  C   UNL     1      -7.419   8.470  69.401  1.00  0.00    -0.088 C  
HETATM   11  O   UNL     1     -12.404  10.658  68.847  1.00  0.00    -0.358 OA 
HETATM   12  O   UNL     1      -9.633   7.811  70.985  1.00  0.00    -0.160 OA 
HETATM   13  N   UNL     1     -10.914   9.445  70.048  1.00  0.00    -0.236 N  
HETATM   14  C   UNL     1      -8.616   9.111  69.253  1.00  0.00    -0.137 C  
HETATM   15  C   UNL     1      -9.731   8.742  70.182  1.00  0.00    -0.172 C  
ENDROOT
BRANCH   8  16
HETATM   16  C   UNL     1     -10.582  11.715  67.205  1.00  0.00    -0.228 A  
HETATM   17  C   UNL     1     -11.218  11.474  65.976  1.00  0.00    -0.240 A  
HETATM   18  C   UNL     1     -11.920  13.774  65.850  1.00  0.00    -0.433 A  
HETATM   19  C   UNL     1     -11.202  14.071  67.014  1.00  0.00    -0.313 A  
HETATM   20  C   UNL     1     -10.526  13.036  67.686  1.00  0.00    -0.228 A  
HETATM   21  C   UNL     1     -11.897  12.491  65.311  1.00  0.00    -0.461 A  
BRANCH  19  22
HETATM   22  N   UNL     1     -11.250  15.414  67.457  1.00  0.00    -0.324 N  
HETATM   23  H   UNL     1     -11.568  16.104  66.776  1.00  0.00     0.000 HD 
HETATM   24  C   UNL     1     -11.092  17.398  68.834  1.00  0.00     0.308 C  
HETATM   25  O   UNL     1     -10.536  15.232  69.660  1.00  0.00    -0.247 OA 
HETATM   26  C   UNL     1     -10.916  15.896  68.706  1.00  0.00    -0.301 C  
ENDBRANCH  19  22
ENDBRANCH   8  16
BRANCH  13  27
HETATM   27  C   UNL     1     -11.991   9.092  70.974  1.00  0.00    -0.282 C  
HETATM   28  C   UNL     1     -11.666   8.592  72.362  1.00  0.00    -0.393 C  
HETATM   29  C   UNL     1     -12.370   9.900  72.196  1.00  0.00    -0.149 C  
ENDBRANCH  13  27
BRANCH  10  30
HETATM   30  N   UNL     1      -7.113   7.549  70.393  1.00  0.00    -0.058 NA 
HETATM   31  H   UNL     1      -7.067   7.930  71.339  1.00  0.00     0.000 HD 
BRANCH  30  32
HETATM   32  C   UNL     1      -6.856   6.165  70.290  1.00  0.00    -0.054 A  
HETATM   33  C   UNL     1      -5.837   5.515  70.993  1.00  0.00    -0.020 A  
HETATM   34  C   UNL     1      -5.508   4.179  70.709  1.00  0.00    -0.011 A  
HETATM   35  C   UNL     1      -6.207   3.474  69.729  1.00  0.00    -0.028 A  
HETATM   36  C   UNL     1      -7.278   4.068  69.075  1.00  0.00    -0.054 A  
HETATM   37  I   UNL     1      -5.605   1.554  69.200  1.00  0.00    -0.015 I  
HETATM   38  C   UNL     1      -7.586   5.399  69.358  1.00  0.00    -0.077 A  
HETATM   39  F   UNL     1      -8.603   5.971  68.693  1.00  0.00    -0.111 F  
ENDBRANCH  30  32
ENDBRANCH  10  30
TORSDOF 5
ENDMDL
MODEL      106
REMARK 921   NORMALIZED FREE ENERGY PREDICTED BY IDOCK:   -4.01 KCAL/MOL
REMARK 922        TOTAL FREE ENERGY PREDICTED BY IDOCK:   -5.40 KCAL/MOL
REMARK 923 INTER-LIGAND FREE ENERGY PREDICTED BY IDOCK:   -5.11 KCAL/MOL
REMARK 924 INTRA-LIGAND FREE ENERGY PREDICTED BY IDOCK:   -0.29 KCAL/MOL
REMARK 927      BINDING AFFINITY PREDICTED BY RF-SCORE:    0.00 PKD
ROOT
HETATM    1  C   UNL     1      -6.090  12.550  67.207  1.00  0.00    -0.117 C  
HETATM    2  N   UNL     1      -6.638  11.201  67.292  1.00  0.00    -0.075 N  
HETATM    3  C   UNL     1      -6.086  10.277  66.424  1.00  0.00    -0.074 C  
HETATM    4  O   UNL     1      -5.360  10.593  65.480  1.00  0.00    -0.103 OA 
HETATM    5  C   UNL     1      -6.336   8.833  66.718  1.00  0.00    -0.059 C  
HETATM    6  C   UNL     1      -7.327   8.481  67.577  1.00  0.00    -0.089 C  
HETATM    7  C   UNL     1      -5.302   7.964  66.047  1.00  0.00    -0.028 C  
HETATM    8  N   UNL     1      -7.709   7.155  67.858  1.00  0.00    -0.111 N  
HETATM    9  C   UNL     1      -8.632   6.822  68.883  1.00  0.00    -0.130 C  
HETATM   10  C   UNL     1      -7.639  10.890  68.223  1.00  0.00    -0.100 C  
HETATM   11  O   UNL     1      -8.897   5.654  69.195  1.00  0.00    -0.110 OA 
HETATM   12  O   UNL     1      -9.303  10.010  70.297  1.00  0.00    -0.162 OA 
HETATM   13  N   UNL     1      -9.273   7.861  69.542  1.00  0.00    -0.153 N  
HETATM   14  C   UNL     1      -7.967   9.571  68.361  1.00  0.00    -0.093 C  
HETATM   15  C   UNL     1      -8.913   9.194  69.459  1.00  0.00    -0.151 C  
ENDROOT
BRANCH   8  16
HETATM   16  C   UNL     1      -7.397   6.008  67.015  1.00  0.00    -0.076 A  
HETATM   17  C   UNL     1      -6.477   5.045  67.462  1.00  0.00    -0.045 A  
HETATM   18  C   UNL     1      -7.250   3.484  65.798  1.00  0.00    -0.068 A  
HETATM   19  C   UNL     1      -8.095   4.460  65.257  1.00  0.00    -0.102 A  
HETATM   20  C   UNL     1      -8.160   5.727  65.866  1.00  0.00    -0.113 A  
HETATM   21  C   UNL     1      -6.415   3.786  66.871  1.00  0.00    -0.041 A  
BRANCH  19  22
HETATM   22  N   UNL     1      -8.870   4.070  64.139  1.00  0.00    -0.121 N  
HETATM   23  H   UNL     1      -8.359   3.902  63.272  1.00  0.00     0.000 HD 
HETATM   24  C   UNL     1     -10.735   3.466  62.720  1.00  0.00    -0.188 C  
HETATM   25  O   UNL     1     -11.018   4.021  65.021  1.00  0.00    -0.129 OA 
HETATM   26  C   UNL     1     -10.237   3.891  64.089  1.00  0.00    -0.219 C  
ENDBRANCH  19  22
ENDBRANCH   8  16
BRANCH  13  27
HETATM   27  C   UNL     1     -10.214   7.505  70.604  1.00  0.00    -0.202 C  
HETATM   28  C   UNL     1     -11.653   7.959  70.530  1.00  0.00    -0.155 C  
HETATM   29  C   UNL     1     -11.336   6.500  70.455  1.00  0.00    -0.443 C  
ENDBRANCH  13  27
BRANCH  10  30
HETATM   30  N   UNL     1      -8.164  11.936  68.969  1.00  0.00    -0.357 NA 
HETATM   31  H   UNL     1      -8.080  11.833  69.981  1.00  0.00     0.000 HD 
BRANCH  30  32
HETATM   32  C   UNL     1      -8.798  13.122  68.539  1.00  0.00    -0.045 A  
HETATM   33  C   UNL     1      -9.876  13.142  67.649  1.00  0.00    -0.219 A  
HETATM   34  C   UNL     1     -10.342  14.353  67.112  1.00  0.00    -0.262 A  
HETATM   35  C   UNL     1      -9.743  15.561  67.472  1.00  0.00    -0.215 A  
HETATM   36  C   UNL     1      -8.726  15.578  68.417  1.00  0.00    -0.174 A  
HETATM   37  I   UNL     1     -10.329  17.329  66.545  1.00  0.00    -0.160 I  
HETATM   38  C   UNL     1      -8.265  14.366  68.933  1.00  0.00    -0.082 A  
HETATM   39  F   UNL     1      -7.257  14.398  69.821  1.00  0.00    -0.135 F  
ENDBRANCH  30  32
ENDBRANCH  10  30
TORSDOF 5
ENDMDL
MODEL      107
REMARK 921   NORMALIZED FREE ENERGY PREDICTED BY IDOCK:   -3.98 KCAL/MOL
REMARK 922        TOTAL FREE ENERGY PREDICTED BY IDOCK:   -5.36 KCAL/MOL
REMARK 923 INTER-LIGAND FREE ENERGY PREDICTED BY IDOCK:   -7.00 KCAL/MOL
REMARK 924 INTRA-LIGAND FREE ENERGY PREDICTED BY IDOCK:    1.65 KCAL/MOL
REMARK 927      BINDING AFFINITY PREDICTED BY RF-SCORE:    0.00 PKD
ROOT
HETATM    1  C   UNL     1     -12.705  14.172  65.425  1.00  0.00    -0.431 C  
HETATM    2  N   UNL     1     -11.502  13.436  65.794  1.00  0.00    -0.314 N  
HETATM    3  C   UNL     1     -11.288  12.258  65.100  1.00  0.00    -0.329 C  
HETATM    4  O   UNL     1     -12.147  11.729  64.395  1.00  0.00    -0.230 OA 
HETATM    5  C   UNL     1      -9.915  11.669  65.167  1.00  0.00    -0.297 C  
HETATM    6  C   UNL     1      -9.049  12.083  66.127  1.00  0.00    -0.129 C  
HETATM    7  C   UNL     1      -9.680  10.733  64.008  1.00  0.00    -0.367 C  
HETATM    8  N   UNL     1      -7.770  11.536  66.339  1.00  0.00    -0.061 N  
HETATM    9  C   UNL     1      -6.832  12.104  67.240  1.00  0.00    -0.149 C  
HETATM   10  C   UNL     1     -10.628  13.930  66.771  1.00  0.00    -0.277 C  
HETATM   11  O   UNL     1      -5.673  11.683  67.358  1.00  0.00    -0.063 OA 
HETATM   12  O   UNL     1      -8.579  14.984  68.365  1.00  0.00    -0.150 OA 
HETATM   13  N   UNL     1      -7.250  13.164  68.031  1.00  0.00    -0.109 N  
HETATM   14  C   UNL     1      -9.439  13.275  66.927  1.00  0.00    -0.249 C  
HETATM   15  C   UNL     1      -8.421  13.876  67.846  1.00  0.00    -0.177 C  
ENDROOT
BRANCH   8  16
HETATM   16  C   UNL     1      -7.336  10.232  65.855  1.00  0.00    -0.131 A  
HETATM   17  C   UNL     1      -7.115  10.037  64.481  1.00  0.00    -0.139 A  
HETATM   18  C   UNL     1      -5.884   8.017  64.931  1.00  0.00    -0.045 A  
HETATM   19  C   UNL     1      -6.184   8.122  66.294  1.00  0.00    -0.046 A  
HETATM   20  C   UNL     1      -6.919   9.230  66.752  1.00  0.00    -0.081 A  
HETATM   21  C   UNL     1      -6.380   8.948  64.022  1.00  0.00    -0.076 A  
BRANCH  19  22
HETATM   22  N   UNL     1      -5.673   7.101  67.130  1.00  0.00    -0.024 N  
HETATM   23  H   UNL     1      -4.724   7.235  67.479  1.00  0.00     0.000 HD 
HETATM   24  C   UNL     1      -5.465   5.071  68.431  1.00  0.00    -0.011 C  
HETATM   25  O   UNL     1      -7.454   5.613  67.235  1.00  0.00    -0.082 OA 
HETATM   26  C   UNL     1      -6.314   5.945  67.526  1.00  0.00    -0.041 C  
ENDBRANCH  19  22
ENDBRANCH   8  16
BRANCH  13  27
HETATM   27  C   UNL     1      -6.269  13.748  68.946  1.00  0.00    -0.091 C  
HETATM   28  C   UNL     1      -5.534  15.013  68.567  1.00  0.00    -0.100 C  
HETATM   29  C   UNL     1      -6.480  15.029  69.725  1.00  0.00    -0.163 C  
ENDBRANCH  13  27
BRANCH  10  30
HETATM   30  N   UNL     1     -11.014  15.078  67.451  1.00  0.00    -0.307 NA 
HETATM   31  H   UNL     1     -10.862  15.952  66.947  1.00  0.00     0.000 HD 
BRANCH  30  32
HETATM   32  C   UNL     1     -11.583  15.216  68.734  1.00  0.00    -0.349 A  
HETATM   33  C   UNL     1     -11.491  16.384  69.498  1.00  0.00    -0.124 A  
HETATM   34  C   UNL     1     -11.912  16.401  70.838  1.00  0.00     0.119 A  
HETATM   35  C   UNL     1     -12.445  15.252  71.424  1.00  0.00    -0.361 A  
HETATM   36  C   UNL     1     -12.626  14.104  70.665  1.00  0.00    -0.421 A  
HETATM   37  I   UNL     1     -12.909  15.240  73.452  1.00  0.00    -0.611 I  
HETATM   38  C   UNL     1     -12.192  14.097  69.340  1.00  0.00    -0.287 A  
HETATM   39  F   UNL     1     -12.343  12.968  68.628  1.00  0.00    -0.302 F  
ENDBRANCH  30  32
ENDBRANCH  10  30
TORSDOF 5
ENDMDL
MODEL      108
REMARK 921   NORMALIZED FREE ENERGY PREDICTED BY IDOCK:   -3.96 KCAL/MOL
REMARK 922        TOTAL FREE ENERGY PREDICTED BY IDOCK:   -5.34 KCAL/MOL
REMARK 923 INTER-LIGAND FREE ENERGY PREDICTED BY IDOCK:   -6.01 KCAL/MOL
REMARK 924 INTRA-LIGAND FREE ENERGY PREDICTED BY IDOCK:    0.68 KCAL/MOL
REMARK 927      BINDING AFFINITY PREDICTED BY RF-SCORE:    0.00 PKD
ROOT
HETATM    1  C   UNL     1     -11.508  11.272  70.201  1.00  0.00    -0.247 C  
HETATM    2  N   UNL     1     -10.692  10.135  69.790  1.00  0.00    -0.260 N  
HETATM    3  C   UNL     1     -11.134   8.897  70.221  1.00  0.00    -0.228 C  
HETATM    4  O   UNL     1     -12.004   8.758  71.081  1.00  0.00    -0.290 OA 
HETATM    5  C   UNL     1     -10.567   7.696  69.536  1.00  0.00    -0.227 C  
HETATM    6  C   UNL     1      -9.440   7.815  68.787  1.00  0.00    -0.149 C  
HETATM    7  C   UNL     1     -11.468   6.501  69.720  1.00  0.00    -0.443 C  
HETATM    8  N   UNL     1      -8.770   6.740  68.173  1.00  0.00    -0.122 N  
HETATM    9  C   UNL     1      -7.696   6.922  67.265  1.00  0.00    -0.109 C  
HETATM   10  C   UNL     1      -9.557  10.318  68.989  1.00  0.00    -0.203 C  
HETATM   11  O   UNL     1      -7.169   5.985  66.651  1.00  0.00    -0.071 OA 
HETATM   12  O   UNL     1      -7.540  10.464  67.050  1.00  0.00    -0.097 OA 
HETATM   13  N   UNL     1      -7.213   8.209  67.080  1.00  0.00    -0.082 N  
HETATM   14  C   UNL     1      -8.955   9.193  68.501  1.00  0.00    -0.133 C  
HETATM   15  C   UNL     1      -7.843   9.362  67.514  1.00  0.00    -0.099 C  
ENDROOT
BRANCH   8  16
HETATM   16  C   UNL     1      -8.930   5.341  68.551  1.00  0.00    -0.108 A  
HETATM   17  C   UNL     1      -9.388   4.412  67.602  1.00  0.00    -0.186 A  
HETATM   18  C   UNL     1      -8.627   2.585  68.974  1.00  0.00    -0.115 A  
HETATM   19  C   UNL     1      -8.265   3.480  69.988  1.00  0.00    -0.052 A  
HETATM   20  C   UNL     1      -8.426   4.861  69.774  1.00  0.00    -0.091 A  
HETATM   21  C   UNL     1      -9.222   3.044  67.802  1.00  0.00    -0.244 A  
BRANCH  19  22
HETATM   22  N   UNL     1      -7.711   2.911  71.159  1.00  0.00    -0.043 N  
HETATM   23  H   UNL     1      -6.701   2.769  71.158  1.00  0.00     0.000 HD 
HETATM   24  C   UNL     1      -7.468   1.956  73.370  1.00  0.00    -0.033 C  
HETATM   25  O   UNL     1      -9.583   2.637  72.506  1.00  0.00    -0.101 OA 
HETATM   26  C   UNL     1      -8.383   2.529  72.302  1.00  0.00    -0.055 C  
ENDBRANCH  19  22
ENDBRANCH   8  16
BRANCH  13  27
HETATM   27  C   UNL     1      -6.113   8.385  66.131  1.00  0.00    -0.048 C  
HETATM   28  C   UNL     1      -6.336   8.144  64.656  1.00  0.00    -0.056 C  
HETATM   29  C   UNL     1      -6.013   9.522  65.137  1.00  0.00    -0.070 C  
ENDBRANCH  13  27
BRANCH  10  30
HETATM   30  N   UNL     1      -9.179  11.624  68.705  1.00  0.00    -0.380 NA 
HETATM   31  H   UNL     1      -8.490  12.024  69.343  1.00  0.00     0.000 HD 
BRANCH  30  32
HETATM   32  C   UNL     1      -9.604  12.480  67.668  1.00  0.00    -0.190 A  
HETATM   33  C   UNL     1      -9.119  13.779  67.491  1.00  0.00    -0.209 A  
HETATM   34  C   UNL     1      -9.713  14.648  66.561  1.00  0.00    -0.297 A  
HETATM   35  C   UNL     1     -10.791  14.220  65.785  1.00  0.00    -0.303 A  
HETATM   36  C   UNL     1     -11.239  12.909  65.880  1.00  0.00    -0.323 A  
HETATM   37  I   UNL     1     -11.769  15.563  64.533  1.00  0.00     0.203 I  
HETATM   38  C   UNL     1     -10.648  12.061  66.816  1.00  0.00    -0.227 A  
HETATM   39  F   UNL     1     -11.114  10.806  66.919  1.00  0.00    -0.322 F  
ENDBRANCH  30  32
ENDBRANCH  10  30
TORSDOF 5
ENDMDL
MODEL      109
REMARK 921   NORMALIZED FREE ENERGY PREDICTED BY IDOCK:   -3.92 KCAL/MOL
REMARK 922        TOTAL FREE ENERGY PREDICTED BY IDOCK:   -5.28 KCAL/MOL
REMARK 923 INTER-LIGAND FREE ENERGY PREDICTED BY IDOCK:   -6.91 KCAL/MOL
REMARK 924 INTRA-LIGAND FREE ENERGY PREDICTED BY IDOCK:    1.63 KCAL/MOL
REMARK 927      BINDING AFFINITY PREDICTED BY RF-SCORE:    0.00 PKD
ROOT
HETATM    1  C   UNL     1     -13.273  12.307  71.231  1.00  0.00     0.019 C  
HETATM    2  N   UNL     1     -12.402  11.269  70.693  1.00  0.00    -0.373 N  
HETATM    3  C   UNL     1     -12.337  10.102  71.433  1.00  0.00    -0.416 C  
HETATM    4  O   UNL     1     -12.779  10.008  72.578  1.00  0.00    -0.142 OA 
HETATM    5  C   UNL     1     -11.771   8.896  70.753  1.00  0.00    -0.269 C  
HETATM    6  C   UNL     1     -11.053   9.041  69.609  1.00  0.00    -0.067 C  
HETATM    7  C   UNL     1     -12.220   7.634  71.445  1.00  0.00    -0.351 C  
HETATM    8  N   UNL     1     -10.402   7.991  68.936  1.00  0.00    -0.211 N  
HETATM    9  C   UNL     1      -9.804   8.151  67.660  1.00  0.00    -0.169 C  
HETATM   10  C   UNL     1     -11.711  11.465  69.490  1.00  0.00    -0.348 C  
HETATM   11  O   UNL     1      -9.314   7.208  67.024  1.00  0.00    -0.139 OA 
HETATM   12  O   UNL     1     -10.622  11.525  66.909  1.00  0.00    -0.225 OA 
HETATM   13  N   UNL     1      -9.756   9.428  67.120  1.00  0.00    -0.164 N  
HETATM   14  C   UNL     1     -11.063  10.383  68.965  1.00  0.00    -0.297 C  
HETATM   15  C   UNL     1     -10.455  10.519  67.603  1.00  0.00    -0.234 C  
ENDROOT
BRANCH   8  16
HETATM   16  C   UNL     1     -10.062   6.707  69.538  1.00  0.00    -0.177 A  
HETATM   17  C   UNL     1     -10.620   5.527  69.018  1.00  0.00    -0.271 A  
HETATM   18  C   UNL     1      -8.970   4.202  70.170  1.00  0.00    -0.150 A  
HETATM   19  C   UNL     1      -8.464   5.349  70.792  1.00  0.00    -0.121 A  
HETATM   20  C   UNL     1      -9.020   6.602  70.478  1.00  0.00    -0.152 A  
HETATM   21  C   UNL     1     -10.068   4.284  69.317  1.00  0.00     0.067 A  
BRANCH  19  22
HETATM   22  N   UNL     1      -7.377   5.156  71.677  1.00  0.00    -0.080 N  
HETATM   23  H   UNL     1      -7.605   4.785  72.599  1.00  0.00     0.000 HD 
HETATM   24  C   UNL     1      -5.145   5.085  72.611  1.00  0.00    -0.008 C  
HETATM   25  O   UNL     1      -5.567   5.838  70.389  1.00  0.00    -0.011 OA 
HETATM   26  C   UNL     1      -6.043   5.413  71.432  1.00  0.00    -0.033 C  
ENDBRANCH  19  22
ENDBRANCH   8  16
BRANCH  13  27
HETATM   27  C   UNL     1      -9.148   9.577  65.798  1.00  0.00    -0.196 C  
HETATM   28  C   UNL     1      -9.941  10.178  64.660  1.00  0.00    -0.304 C  
HETATM   29  C   UNL     1      -8.742  10.900  65.185  1.00  0.00    -0.130 C  
ENDBRANCH  13  27
BRANCH  10  30
HETATM   30  N   UNL     1     -11.797  12.719  68.900  1.00  0.00    -0.316 NA 
HETATM   31  H   UNL     1     -12.714  12.959  68.523  1.00  0.00     0.000 HD 
BRANCH  30  32
HETATM   32  C   UNL     1     -10.806  13.711  68.745  1.00  0.00    -0.255 A  
HETATM   33  C   UNL     1      -9.473  13.429  68.431  1.00  0.00    -0.176 A  
HETATM   34  C   UNL     1      -8.496  14.437  68.475  1.00  0.00    -0.170 A  
HETATM   35  C   UNL     1      -8.845  15.744  68.818  1.00  0.00    -0.207 A  
HETATM   36  C   UNL     1     -10.175  16.069  69.052  1.00  0.00    -0.236 A  
HETATM   37  I   UNL     1      -7.368  17.191  69.042  1.00  0.00    -0.022 I  
HETATM   38  C   UNL     1     -11.133  15.056  69.017  1.00  0.00    -0.262 A  
HETATM   39  F   UNL     1     -12.410  15.381  69.278  1.00  0.00    -0.314 F  
ENDBRANCH  30  32
ENDBRANCH  10  30
TORSDOF 5
ENDMDL
MODEL      110
REMARK 921   NORMALIZED FREE ENERGY PREDICTED BY IDOCK:   -3.89 KCAL/MOL
REMARK 922        TOTAL FREE ENERGY PREDICTED BY IDOCK:   -5.24 KCAL/MOL
REMARK 923 INTER-LIGAND FREE ENERGY PREDICTED BY IDOCK:   -5.33 KCAL/MOL
REMARK 924 INTRA-LIGAND FREE ENERGY PREDICTED BY IDOCK:    0.09 KCAL/MOL
REMARK 927      BINDING AFFINITY PREDICTED BY RF-SCORE:    0.00 PKD
ROOT
HETATM    1  C   UNL     1     -12.071  14.434  64.151  1.00  0.00    -0.376 C  
HETATM    2  N   UNL     1     -11.236  13.787  65.156  1.00  0.00    -0.306 N  
HETATM    3  C   UNL     1     -11.584  12.486  65.473  1.00  0.00    -0.386 C  
HETATM    4  O   UNL     1     -12.649  11.973  65.128  1.00  0.00    -0.396 OA 
HETATM    5  C   UNL     1     -10.565  11.666  66.198  1.00  0.00    -0.306 C  
HETATM    6  C   UNL     1      -9.516  12.277  66.805  1.00  0.00    -0.222 C  
HETATM    7  C   UNL     1     -10.842  10.194  66.024  1.00  0.00     0.150 C  
HETATM    8  N   UNL     1      -8.550  11.618  67.588  1.00  0.00    -0.137 N  
HETATM    9  C   UNL     1      -7.379  12.260  68.066  1.00  0.00    -0.105 C  
HETATM   10  C   UNL     1     -10.145  14.458  65.724  1.00  0.00    -0.340 C  
HETATM   11  O   UNL     1      -6.483  11.659  68.673  1.00  0.00    -0.052 OA 
HETATM   12  O   UNL     1      -7.699  15.488  66.619  1.00  0.00    -0.160 OA 
HETATM   13  N   UNL     1      -7.254  13.625  67.854  1.00  0.00    -0.130 N  
HETATM   14  C   UNL     1      -9.311  13.723  66.519  1.00  0.00    -0.249 C  
HETATM   15  C   UNL     1      -8.052  14.371  67.005  1.00  0.00    -0.065 C  
ENDROOT
BRANCH   8  16
HETATM   16  C   UNL     1      -8.729  10.300  68.186  1.00  0.00    -0.123 A  
HETATM   17  C   UNL     1      -9.629  10.137  69.252  1.00  0.00    -0.239 A  
HETATM   18  C   UNL     1      -9.626   7.749  68.932  1.00  0.00    -0.154 A  
HETATM   19  C   UNL     1      -8.645   7.870  67.942  1.00  0.00    -0.125 A  
HETATM   20  C   UNL     1      -8.192   9.151  67.576  1.00  0.00    -0.108 A  
HETATM   21  C   UNL     1     -10.089   8.873  69.612  1.00  0.00    -0.202 A  
BRANCH  19  22
HETATM   22  N   UNL     1      -8.206   6.666  67.341  1.00  0.00    -0.120 N  
HETATM   23  H   UNL     1      -8.612   6.440  66.433  1.00  0.00     0.000 HD 
HETATM   24  C   UNL     1      -7.055   4.577  66.929  1.00  0.00    -0.068 C  
HETATM   25  O   UNL     1      -6.683   5.864  68.900  1.00  0.00    -0.055 OA 
HETATM   26  C   UNL     1      -7.292   5.764  67.845  1.00  0.00    -0.077 C  
ENDBRANCH  19  22
ENDBRANCH   8  16
BRANCH  13  27
HETATM   27  C   UNL     1      -6.037  14.274  68.341  1.00  0.00    -0.102 C  
HETATM   28  C   UNL     1      -6.127  15.444  69.294  1.00  0.00    -0.113 C  
HETATM   29  C   UNL     1      -5.513  14.162  69.757  1.00  0.00    -0.096 C  
ENDBRANCH  13  27
BRANCH  10  30
HETATM   30  N   UNL     1      -9.967  15.791  65.381  1.00  0.00    -0.402 NA 
HETATM   31  H   UNL     1      -9.685  15.957  64.414  1.00  0.00     0.000 HD 
BRANCH  30  32
HETATM   32  C   UNL     1     -10.117  16.953  66.169  1.00  0.00    -0.333 A  
HETATM   33  C   UNL     1      -9.539  18.184  65.847  1.00  0.00     0.075 A  
HETATM   34  C   UNL     1      -9.564  19.251  66.761  1.00  0.00    -0.398 A  
HETATM   35  C   UNL     1     -10.184  19.101  68.002  1.00  0.00    -0.401 A  
HETATM   36  C   UNL     1     -10.839  17.917  68.314  1.00  0.00    -0.127 A  
HETATM   37  I   UNL     1     -10.072  20.627  69.411  1.00  0.00     1.410 I  
HETATM   38  C   UNL     1     -10.795  16.862  67.402  1.00  0.00    -0.166 A  
HETATM   39  F   UNL     1     -11.404  15.712  67.733  1.00  0.00    -0.322 F  
ENDBRANCH  30  32
ENDBRANCH  10  30
TORSDOF 5
ENDMDL
MODEL      111
REMARK 921   NORMALIZED FREE ENERGY PREDICTED BY IDOCK:   -3.88 KCAL/MOL
REMARK 922        TOTAL FREE ENERGY PREDICTED BY IDOCK:   -5.23 KCAL/MOL
REMARK 923 INTER-LIGAND FREE ENERGY PREDICTED BY IDOCK:   -4.97 KCAL/MOL
REMARK 924 INTRA-LIGAND FREE ENERGY PREDICTED BY IDOCK:   -0.26 KCAL/MOL
REMARK 927      BINDING AFFINITY PREDICTED BY RF-SCORE:    0.00 PKD
ROOT
HETATM    1  C   UNL     1      -6.099  12.454  70.198  1.00  0.00    -0.102 C  
HETATM    2  N   UNL     1      -6.405  11.159  69.603  1.00  0.00    -0.103 N  
HETATM    3  C   UNL     1      -6.388  10.083  70.473  1.00  0.00    -0.116 C  
HETATM    4  O   UNL     1      -5.922  10.148  71.610  1.00  0.00    -0.304 OA 
HETATM    5  C   UNL     1      -7.045   8.823  70.010  1.00  0.00    -0.047 C  
HETATM    6  C   UNL     1      -7.324   8.652  68.692  1.00  0.00    -0.081 C  
HETATM    7  C   UNL     1      -7.406   7.947  71.183  1.00  0.00    -0.063 C  
HETATM    8  N   UNL     1      -7.857   7.475  68.134  1.00  0.00    -0.120 N  
HETATM    9  C   UNL     1      -8.290   7.392  66.785  1.00  0.00    -0.122 C  
HETATM   10  C   UNL     1      -6.719  11.050  68.241  1.00  0.00    -0.059 C  
HETATM   11  O   UNL     1      -8.846   6.389  66.318  1.00  0.00    -0.137 OA 
HETATM   12  O   UNL     1      -7.782  10.726  65.669  1.00  0.00    -0.138 OA 
HETATM   13  N   UNL     1      -8.057   8.482  65.960  1.00  0.00    -0.106 N  
HETATM   14  C   UNL     1      -7.167   9.836  67.804  1.00  0.00    -0.088 C  
HETATM   15  C   UNL     1      -7.662   9.735  66.394  1.00  0.00    -0.102 C  
ENDROOT
BRANCH   8  16
HETATM   16  C   UNL     1      -7.822   6.166  68.774  1.00  0.00    -0.101 A  
HETATM   17  C   UNL     1      -6.638   5.410  68.747  1.00  0.00    -0.051 A  
HETATM   18  C   UNL     1      -7.460   3.997  70.516  1.00  0.00    -0.045 A  
HETATM   19  C   UNL     1      -8.693   4.658  70.489  1.00  0.00    -0.102 A  
HETATM   20  C   UNL     1      -8.873   5.741  69.608  1.00  0.00    -0.124 A  
HETATM   21  C   UNL     1      -6.450   4.344  69.622  1.00  0.00    -0.032 A  
BRANCH  19  22
HETATM   22  N   UNL     1      -9.671   4.202  71.404  1.00  0.00    -0.171 N  
HETATM   23  H   UNL     1     -10.158   3.343  71.153  1.00  0.00     0.000 HD 
HETATM   24  C   UNL     1     -11.125   4.024  73.330  1.00  0.00    -0.341 C  
HETATM   25  O   UNL     1      -9.561   5.805  73.082  1.00  0.00    -0.147 OA 
HETATM   26  C   UNL     1     -10.039   4.789  72.598  1.00  0.00    -0.176 C  
ENDBRANCH  19  22
ENDBRANCH   8  16
BRANCH  13  27
HETATM   27  C   UNL     1      -8.520   8.389  64.575  1.00  0.00    -0.060 C  
HETATM   28  C   UNL     1      -7.624   8.836  63.442  1.00  0.00    -0.114 C  
HETATM   29  C   UNL     1      -7.997   7.394  63.562  1.00  0.00    -0.071 C  
ENDBRANCH  13  27
BRANCH  10  30
HETATM   30  N   UNL     1      -6.609  12.197  67.467  1.00  0.00    -0.116 NA 
HETATM   31  H   UNL     1      -5.849  12.189  66.785  1.00  0.00     0.000 HD 
BRANCH  30  32
HETATM   32  C   UNL     1      -7.390  13.372  67.481  1.00  0.00    -0.156 A  
HETATM   33  C   UNL     1      -8.782  13.375  67.346  1.00  0.00    -0.209 A  
HETATM   34  C   UNL     1      -9.485  14.580  67.178  1.00  0.00    -0.236 A  
HETATM   35  C   UNL     1      -8.803  15.797  67.159  1.00  0.00    -0.203 A  
HETATM   36  C   UNL     1      -7.431  15.830  67.374  1.00  0.00    -0.225 A  
HETATM   37  I   UNL     1      -9.830  17.558  66.743  1.00  0.00    -0.354 I  
HETATM   38  C   UNL     1      -6.745  14.625  67.527  1.00  0.00    -0.122 A  
HETATM   39  F   UNL     1      -5.413  14.671  67.701  1.00  0.00    -0.122 F  
ENDBRANCH  30  32
ENDBRANCH  10  30
TORSDOF 5
ENDMDL
MODEL      112
REMARK 921   NORMALIZED FREE ENERGY PREDICTED BY IDOCK:   -3.85 KCAL/MOL
REMARK 922        TOTAL FREE ENERGY PREDICTED BY IDOCK:   -5.18 KCAL/MOL
REMARK 923 INTER-LIGAND FREE ENERGY PREDICTED BY IDOCK:   -5.67 KCAL/MOL
REMARK 924 INTRA-LIGAND FREE ENERGY PREDICTED BY IDOCK:    0.48 KCAL/MOL
REMARK 927      BINDING AFFINITY PREDICTED BY RF-SCORE:    0.00 PKD
ROOT
HETATM    1  C   UNL     1     -12.868   9.175  71.214  1.00  0.00    -0.264 C  
HETATM    2  N   UNL     1     -11.451   9.234  70.874  1.00  0.00    -0.284 N  
HETATM    3  C   UNL     1     -11.143   9.937  69.723  1.00  0.00    -0.254 C  
HETATM    4  O   UNL     1     -11.992  10.290  68.904  1.00  0.00    -0.099 OA 
HETATM    5  C   UNL     1      -9.716  10.341  69.534  1.00  0.00    -0.235 C  
HETATM    6  C   UNL     1      -8.743   9.748  70.273  1.00  0.00    -0.129 C  
HETATM    7  C   UNL     1      -9.611  11.492  68.565  1.00  0.00    -0.180 C  
HETATM    8  N   UNL     1      -7.364   9.984  70.117  1.00  0.00    -0.157 N  
HETATM    9  C   UNL     1      -6.391   9.476  71.016  1.00  0.00    -0.077 C  
HETATM   10  C   UNL     1     -10.489   8.630  71.695  1.00  0.00    -0.296 C  
HETATM   11  O   UNL     1      -5.189   9.760  70.936  1.00  0.00    -0.041 OA 
HETATM   12  O   UNL     1      -8.432   7.867  73.437  1.00  0.00    -0.170 OA 
HETATM   13  N   UNL     1      -6.817   8.608  72.011  1.00  0.00    -0.088 N  
HETATM   14  C   UNL     1      -9.179   8.885  71.404  1.00  0.00    -0.328 C  
HETATM   15  C   UNL     1      -8.138   8.387  72.358  1.00  0.00    -0.125 C  
ENDROOT
BRANCH   8  16
HETATM   16  C   UNL     1      -6.754  10.565  68.928  1.00  0.00    -0.060 A  
HETATM   17  C   UNL     1      -6.676   9.809  67.746  1.00  0.00    -0.069 A  
HETATM   18  C   UNL     1      -6.231  11.799  66.463  1.00  0.00     0.075 A  
HETATM   19  C   UNL     1      -6.189  12.561  67.636  1.00  0.00    -0.141 A  
HETATM   20  C   UNL     1      -6.444  11.936  68.871  1.00  0.00    -0.082 A  
HETATM   21  C   UNL     1      -6.434  10.422  66.520  1.00  0.00    -0.089 A  
BRANCH  19  22
HETATM   22  N   UNL     1      -5.929  13.943  67.478  1.00  0.00    -0.032 N  
HETATM   23  H   UNL     1      -4.969  14.200  67.253  1.00  0.00     0.000 HD 
HETATM   24  C   UNL     1      -6.205  16.345  67.357  1.00  0.00    -0.200 C  
HETATM   25  O   UNL     1      -8.024  14.881  67.836  1.00  0.00    -0.121 OA 
HETATM   26  C   UNL     1      -6.830  14.982  67.595  1.00  0.00    -0.179 C  
ENDBRANCH  19  22
ENDBRANCH   8  16
BRANCH  13  27
HETATM   27  C   UNL     1      -5.806   8.101  72.939  1.00  0.00    -0.058 C  
HETATM   28  C   UNL     1      -5.403   8.917  74.146  1.00  0.00    -0.112 C  
HETATM   29  C   UNL     1      -6.098   7.608  74.340  1.00  0.00    -0.085 C  
ENDBRANCH  13  27
BRANCH  10  30
HETATM   30  N   UNL     1     -10.947   7.880  72.769  1.00  0.00    -0.373 NA 
HETATM   31  H   UNL     1     -11.403   8.415  73.509  1.00  0.00     0.000 HD 
BRANCH  30  32
HETATM   32  C   UNL     1     -10.877   6.488  72.992  1.00  0.00    -0.261 A  
HETATM   33  C   UNL     1     -10.684   5.917  74.254  1.00  0.00     0.054 A  
HETATM   34  C   UNL     1     -10.434   4.542  74.389  1.00  0.00    -0.318 A  
HETATM   35  C   UNL     1     -10.390   3.719  73.263  1.00  0.00    -0.167 A  
HETATM   36  C   UNL     1     -10.660   4.245  72.006  1.00  0.00    -0.018 A  
HETATM   37  I   UNL     1      -9.854   1.718  73.457  1.00  0.00    -0.161 I  
HETATM   38  C   UNL     1     -10.895   5.614  71.885  1.00  0.00    -0.242 A  
HETATM   39  F   UNL     1     -11.122   6.113  70.659  1.00  0.00    -0.304 F  
ENDBRANCH  30  32
ENDBRANCH  10  30
TORSDOF 5
ENDMDL
MODEL      113
REMARK 921   NORMALIZED FREE ENERGY PREDICTED BY IDOCK:   -3.82 KCAL/MOL
REMARK 922        TOTAL FREE ENERGY PREDICTED BY IDOCK:   -5.14 KCAL/MOL
REMARK 923 INTER-LIGAND FREE ENERGY PREDICTED BY IDOCK:   -5.85 KCAL/MOL
REMARK 924 INTRA-LIGAND FREE ENERGY PREDICTED BY IDOCK:    0.70 KCAL/MOL
REMARK 927      BINDING AFFINITY PREDICTED BY RF-SCORE:    0.00 PKD
ROOT
HETATM    1  C   UNL     1      -9.949   5.429  69.199  1.00  0.00    -0.197 C  
HETATM    2  N   UNL     1      -9.804   6.727  68.549  1.00  0.00    -0.139 N  
HETATM    3  C   UNL     1     -10.688   7.705  68.966  1.00  0.00    -0.119 C  
HETATM    4  O   UNL     1     -11.681   7.464  69.653  1.00  0.00     0.128 OA 
HETATM    5  C   UNL     1     -10.351   9.120  68.618  1.00  0.00    -0.233 C  
HETATM    6  C   UNL     1      -9.425   9.376  67.659  1.00  0.00    -0.132 C  
HETATM    7  C   UNL     1     -11.070  10.080  69.533  1.00  0.00    -0.279 C  
HETATM    8  N   UNL     1      -9.096  10.662  67.189  1.00  0.00    -0.143 N  
HETATM    9  C   UNL     1      -8.009  10.903  66.310  1.00  0.00    -0.161 C  
HETATM   10  C   UNL     1      -8.806   6.941  67.589  1.00  0.00    -0.118 C  
HETATM   11  O   UNL     1      -7.658  12.041  65.971  1.00  0.00     0.478 OA 
HETATM   12  O   UNL     1      -6.614   7.651  65.995  1.00  0.00    -0.045 OA 
HETATM   13  N   UNL     1      -7.330   9.806  65.800  1.00  0.00    -0.100 N  
HETATM   14  C   UNL     1      -8.622   8.226  67.163  1.00  0.00    -0.123 C  
HETATM   15  C   UNL     1      -7.460   8.509  66.262  1.00  0.00    -0.090 C  
ENDROOT
BRANCH   8  16
HETATM   16  C   UNL     1      -9.935  11.842  67.351  1.00  0.00    -0.190 A  
HETATM   17  C   UNL     1     -11.004  12.063  66.466  1.00  0.00    -0.337 A  
HETATM   18  C   UNL     1     -11.968  13.671  67.978  1.00  0.00    -0.385 A  
HETATM   19  C   UNL     1     -10.861  13.557  68.826  1.00  0.00    -0.253 A  
HETATM   20  C   UNL     1      -9.839  12.645  68.503  1.00  0.00    -0.152 A  
HETATM   21  C   UNL     1     -12.022  12.957  66.783  1.00  0.00    -0.418 A  
BRANCH  19  22
HETATM   22  N   UNL     1     -10.877  14.358  69.992  1.00  0.00    -0.461 N  
HETATM   23  H   UNL     1      -9.969  14.631  70.367  1.00  0.00     0.000 HD 
HETATM   24  C   UNL     1     -11.631  15.655  71.892  1.00  0.00    -0.547 C  
HETATM   25  O   UNL     1     -13.153  14.614  70.381  1.00  0.00    -0.291 OA 
HETATM   26  C   UNL     1     -11.985  14.813  70.679  1.00  0.00    -0.309 C  
ENDBRANCH  19  22
ENDBRANCH   8  16
BRANCH  13  27
HETATM   27  C   UNL     1      -6.204  10.068  64.904  1.00  0.00    -0.117 C  
HETATM   28  C   UNL     1      -5.280   8.944  64.493  1.00  0.00    -0.050 C  
HETATM   29  C   UNL     1      -6.131   9.613  63.462  1.00  0.00    -0.105 C  
ENDBRANCH  13  27
BRANCH  10  30
HETATM   30  N   UNL     1      -8.048   5.845  67.200  1.00  0.00    -0.102 NA 
HETATM   31  H   UNL     1      -7.199   5.689  67.745  1.00  0.00     0.000 HD 
BRANCH  30  32
HETATM   32  C   UNL     1      -8.275   4.914  66.164  1.00  0.00    -0.108 A  
HETATM   33  C   UNL     1      -8.782   5.263  64.909  1.00  0.00    -0.122 A  
HETATM   34  C   UNL     1      -9.163   4.274  63.987  1.00  0.00    -0.148 A  
HETATM   35  C   UNL     1      -9.024   2.923  64.306  1.00  0.00    -0.111 A  
HETATM   36  C   UNL     1      -8.445   2.548  65.511  1.00  0.00    -0.103 A  
HETATM   37  I   UNL     1      -9.745   1.468  63.004  1.00  0.00    -0.109 I  
HETATM   38  C   UNL     1      -8.084   3.540  66.422  1.00  0.00    -0.096 A  
HETATM   39  F   UNL     1      -7.556   3.160  67.597  1.00  0.00    -0.060 F  
ENDBRANCH  30  32
ENDBRANCH  10  30
TORSDOF 5
ENDMDL
MODEL      114
REMARK 921   NORMALIZED FREE ENERGY PREDICTED BY IDOCK:   -3.81 KCAL/MOL
REMARK 922        TOTAL FREE ENERGY PREDICTED BY IDOCK:   -5.14 KCAL/MOL
REMARK 923 INTER-LIGAND FREE ENERGY PREDICTED BY IDOCK:   -5.66 KCAL/MOL
REMARK 924 INTRA-LIGAND FREE ENERGY PREDICTED BY IDOCK:    0.52 KCAL/MOL
REMARK 927      BINDING AFFINITY PREDICTED BY RF-SCORE:    0.00 PKD
ROOT
HETATM    1  C   UNL     1      -9.708  13.780  66.971  1.00  0.00    -0.251 C  
HETATM    2  N   UNL     1      -9.413  12.433  67.445  1.00  0.00    -0.182 N  
HETATM    3  C   UNL     1     -10.031  11.408  66.751  1.00  0.00    -0.208 C  
HETATM    4  O   UNL     1     -10.946  11.597  65.949  1.00  0.00    -0.291 OA 
HETATM    5  C   UNL     1      -9.487  10.029  66.946  1.00  0.00    -0.203 C  
HETATM    6  C   UNL     1      -8.672   9.768  68.000  1.00  0.00    -0.118 C  
HETATM    7  C   UNL     1      -9.878   9.134  65.797  1.00  0.00    -0.248 C  
HETATM    8  N   UNL     1      -8.176   8.493  68.330  1.00  0.00    -0.122 N  
HETATM    9  C   UNL     1      -7.196   8.288  69.336  1.00  0.00    -0.059 C  
HETATM   10  C   UNL     1      -8.537  12.225  68.518  1.00  0.00    -0.068 C  
HETATM   11  O   UNL     1      -6.688   7.181  69.563  1.00  0.00    -0.046 OA 
HETATM   12  O   UNL     1      -6.495  11.622  70.339  1.00  0.00    -0.214 OA 
HETATM   13  N   UNL     1      -6.813   9.378  70.103  1.00  0.00    -0.061 N  
HETATM   14  C   UNL     1      -8.176  10.934  68.782  1.00  0.00    -0.151 C  
HETATM   15  C   UNL     1      -7.118  10.696  69.815  1.00  0.00    -0.139 C  
ENDROOT
BRANCH   8  16
HETATM   16  C   UNL     1      -8.748   7.236  67.864  1.00  0.00    -0.123 A  
HETATM   17  C   UNL     1     -10.030   6.854  68.293  1.00  0.00    -0.162 A  
HETATM   18  C   UNL     1     -10.173   5.227  66.523  1.00  0.00    -0.293 A  
HETATM   19  C   UNL     1      -8.855   5.505  66.143  1.00  0.00    -0.139 A  
HETATM   20  C   UNL     1      -8.141   6.508  66.824  1.00  0.00    -0.109 A  
HETATM   21  C   UNL     1     -10.746   5.869  67.617  1.00  0.00    -0.352 A  
BRANCH  19  22
HETATM   22  N   UNL     1      -8.347   4.766  65.048  1.00  0.00    -0.125 N  
HETATM   23  H   UNL     1      -7.946   5.309  64.284  1.00  0.00     0.000 HD 
HETATM   24  C   UNL     1      -7.707   2.942  63.592  1.00  0.00    -0.068 C  
HETATM   25  O   UNL     1      -8.746   2.574  65.705  1.00  0.00    -0.114 OA 
HETATM   26  C   UNL     1      -8.335   3.395  64.898  1.00  0.00    -0.094 C  
ENDBRANCH  19  22
ENDBRANCH   8  16
BRANCH  13  27
HETATM   27  C   UNL     1      -5.793   9.155  71.128  1.00  0.00    -0.056 C  
HETATM   28  C   UNL     1      -6.167   9.187  72.592  1.00  0.00     0.137 C  
HETATM   29  C   UNL     1      -5.693   7.908  71.981  1.00  0.00    -0.036 C  
ENDBRANCH  13  27
BRANCH  10  30
HETATM   30  N   UNL     1      -8.060  13.348  69.180  1.00  0.00    -0.292 NA 
HETATM   31  H   UNL     1      -8.108  13.304  70.199  1.00  0.00     0.000 HD 
BRANCH  30  32
HETATM   32  C   UNL     1      -7.517  14.541  68.656  1.00  0.00    -0.128 A  
HETATM   33  C   UNL     1      -6.330  14.591  67.920  1.00  0.00    -0.173 A  
HETATM   34  C   UNL     1      -5.742  15.822  67.587  1.00  0.00    -0.148 A  
HETATM   35  C   UNL     1      -6.346  17.019  67.974  1.00  0.00    -0.141 A  
HETATM   36  C   UNL     1      -7.569  17.000  68.633  1.00  0.00    -0.238 A  
HETATM   37  I   UNL     1      -5.385  18.831  67.624  1.00  0.00    -0.166 I  
HETATM   38  C   UNL     1      -8.135  15.770  68.968  1.00  0.00    -0.224 A  
HETATM   39  F   UNL     1      -9.301  15.768  69.635  1.00  0.00    -0.254 F  
ENDBRANCH  30  32
ENDBRANCH  10  30
TORSDOF 5
ENDMDL
MODEL      115
REMARK 921   NORMALIZED FREE ENERGY PREDICTED BY IDOCK:   -3.80 KCAL/MOL
REMARK 922        TOTAL FREE ENERGY PREDICTED BY IDOCK:   -5.13 KCAL/MOL
REMARK 923 INTER-LIGAND FREE ENERGY PREDICTED BY IDOCK:   -7.03 KCAL/MOL
REMARK 924 INTRA-LIGAND FREE ENERGY PREDICTED BY IDOCK:    1.91 KCAL/MOL
REMARK 927      BINDING AFFINITY PREDICTED BY RF-SCORE:    0.00 PKD
ROOT
HETATM    1  C   UNL     1      -7.072   6.910  66.531  1.00  0.00    -0.067 C  
HETATM    2  N   UNL     1      -7.766   8.190  66.626  1.00  0.00    -0.093 N  
HETATM    3  C   UNL     1      -7.542   8.904  67.789  1.00  0.00    -0.093 C  
HETATM    4  O   UNL     1      -6.998   8.418  68.781  1.00  0.00    -0.061 OA 
HETATM    5  C   UNL     1      -7.915  10.352  67.781  1.00  0.00    -0.102 C  
HETATM    6  C   UNL     1      -8.737  10.831  66.812  1.00  0.00    -0.143 C  
HETATM    7  C   UNL     1      -7.174  11.100  68.860  1.00  0.00    -0.106 C  
HETATM    8  N   UNL     1      -9.225  12.151  66.758  1.00  0.00    -0.202 N  
HETATM    9  C   UNL     1      -9.944  12.658  65.645  1.00  0.00    -0.242 C  
HETATM   10  C   UNL     1      -8.576   8.647  65.579  1.00  0.00    -0.175 C  
HETATM   11  O   UNL     1     -10.290  13.844  65.553  1.00  0.00    -0.305 OA 
HETATM   12  O   UNL     1      -9.862   9.890  63.422  1.00  0.00     0.039 OA 
HETATM   13  N   UNL     1     -10.284  11.774  64.632  1.00  0.00    -0.271 N  
HETATM   14  C   UNL     1      -9.042   9.928  65.670  1.00  0.00    -0.220 C  
HETATM   15  C   UNL     1      -9.773  10.496  64.493  1.00  0.00    -0.314 C  
ENDROOT
BRANCH   8  16
HETATM   16  C   UNL     1      -9.257  13.068  67.890  1.00  0.00    -0.208 A  
HETATM   17  C   UNL     1      -8.240  14.026  68.039  1.00  0.00    -0.155 A  
HETATM   18  C   UNL     1      -9.589  15.263  69.606  1.00  0.00    -0.188 A  
HETATM   19  C   UNL     1     -10.572  14.268  69.565  1.00  0.00    -0.011 A  
HETATM   20  C   UNL     1     -10.398  13.165  68.709  1.00  0.00    -0.146 A  
HETATM   21  C   UNL     1      -8.410  15.125  68.877  1.00  0.00    -0.190 A  
BRANCH  19  22
HETATM   22  N   UNL     1     -11.712  14.477  70.377  1.00  0.00    -0.311 N  
HETATM   23  H   UNL     1     -11.955  15.448  70.573  1.00  0.00     0.000 HD 
HETATM   24  C   UNL     1     -13.670  14.101  71.748  1.00  0.00    -0.492 C  
HETATM   25  O   UNL     1     -12.423  12.306  70.797  1.00  0.00    -0.346 OA 
HETATM   26  C   UNL     1     -12.532  13.516  70.932  1.00  0.00    -0.369 C  
ENDBRANCH  19  22
ENDBRANCH   8  16
BRANCH  13  27
HETATM   27  C   UNL     1     -11.014  12.312  63.485  1.00  0.00    -0.459 C  
HETATM   28  C   UNL     1     -12.477  11.983  63.293  1.00  0.00    -0.544 C  
HETATM   29  C   UNL     1     -12.069  13.394  63.572  1.00  0.00    -0.497 C  
ENDBRANCH  13  27
BRANCH  10  30
HETATM   30  N   UNL     1      -8.785   7.786  64.510  1.00  0.00    -0.344 NA 
HETATM   31  H   UNL     1      -9.531   8.060  63.871  1.00  0.00     0.000 HD 
BRANCH  30  32
HETATM   32  C   UNL     1      -8.118   6.588  64.174  1.00  0.00    -0.042 A  
HETATM   33  C   UNL     1      -8.594   5.318  64.515  1.00  0.00    -0.109 A  
HETATM   34  C   UNL     1      -7.798   4.177  64.322  1.00  0.00    -0.085 A  
HETATM   35  C   UNL     1      -6.522   4.292  63.769  1.00  0.00    -0.034 A  
HETATM   36  C   UNL     1      -6.058   5.530  63.344  1.00  0.00    -0.021 A  
HETATM   37  I   UNL     1      -5.289   2.622  63.641  1.00  0.00    -0.009 I  
HETATM   38  C   UNL     1      -6.854   6.657  63.554  1.00  0.00    -0.049 A  
HETATM   39  F   UNL     1      -6.377   7.851  63.167  1.00  0.00    -0.064 F  
ENDBRANCH  30  32
ENDBRANCH  10  30
TORSDOF 5
ENDMDL
MODEL      116
REMARK 921   NORMALIZED FREE ENERGY PREDICTED BY IDOCK:   -3.76 KCAL/MOL
REMARK 922        TOTAL FREE ENERGY PREDICTED BY IDOCK:   -5.08 KCAL/MOL
REMARK 923 INTER-LIGAND FREE ENERGY PREDICTED BY IDOCK:   -6.71 KCAL/MOL
REMARK 924 INTRA-LIGAND FREE ENERGY PREDICTED BY IDOCK:    1.63 KCAL/MOL
REMARK 927      BINDING AFFINITY PREDICTED BY RF-SCORE:    0.00 PKD
ROOT
HETATM    1  C   UNL     1      -7.956  12.993  66.609  1.00  0.00     0.432 C  
HETATM    2  N   UNL     1      -8.586  11.893  67.329  1.00  0.00    -0.162 N  
HETATM    3  C   UNL     1      -7.843  10.728  67.408  1.00  0.00    -0.111 C  
HETATM    4  O   UNL     1      -6.834  10.529  66.731  1.00  0.00    -0.091 OA 
HETATM    5  C   UNL     1      -8.265   9.720  68.428  1.00  0.00    -0.105 C  
HETATM    6  C   UNL     1      -9.500   9.801  68.986  1.00  0.00    -0.173 C  
HETATM    7  C   UNL     1      -7.127   8.789  68.760  1.00  0.00    -0.063 C  
HETATM    8  N   UNL     1     -10.034   8.860  69.886  1.00  0.00    -0.183 N  
HETATM    9  C   UNL     1     -11.258   9.064  70.575  1.00  0.00    -0.260 C  
HETATM   10  C   UNL     1      -9.850  12.048  67.913  1.00  0.00    -0.196 C  
HETATM   11  O   UNL     1     -11.682   8.283  71.437  1.00  0.00    -0.272 OA 
HETATM   12  O   UNL     1     -12.146  12.328  69.493  1.00  0.00    -0.273 OA 
HETATM   13  N   UNL     1     -12.010  10.182  70.246  1.00  0.00    -0.255 N  
HETATM   14  C   UNL     1     -10.289  11.035  68.718  1.00  0.00    -0.217 C  
HETATM   15  C   UNL     1     -11.559  11.244  69.483  1.00  0.00    -0.328 C  
ENDROOT
BRANCH   8  16
HETATM   16  C   UNL     1      -9.541   7.498  70.049  1.00  0.00    -0.164 A  
HETATM   17  C   UNL     1      -9.572   6.612  68.959  1.00  0.00    -0.133 A  
HETATM   18  C   UNL     1      -8.026   5.137  70.072  1.00  0.00    -0.082 A  
HETATM   19  C   UNL     1      -8.062   5.941  71.216  1.00  0.00    -0.118 A  
HETATM   20  C   UNL     1      -8.830   7.120  71.203  1.00  0.00    -0.144 A  
HETATM   21  C   UNL     1      -8.807   5.448  68.962  1.00  0.00    -0.108 A  
BRANCH  19  22
HETATM   22  N   UNL     1      -7.270   5.516  72.309  1.00  0.00    -0.087 N  
HETATM   23  H   UNL     1      -6.353   5.954  72.400  1.00  0.00     0.000 HD 
HETATM   24  C   UNL     1      -6.505   4.368  74.297  1.00  0.00    -0.053 C  
HETATM   25  O   UNL     1      -8.649   3.958  73.341  1.00  0.00    -0.087 OA 
HETATM   26  C   UNL     1      -7.597   4.575  73.264  1.00  0.00    -0.086 C  
ENDBRANCH  19  22
ENDBRANCH   8  16
BRANCH  13  27
HETATM   27  C   UNL     1     -13.263  10.388  70.973  1.00  0.00    -0.278 C  
HETATM   28  C   UNL     1     -13.349  10.064  72.447  1.00  0.00    -0.261 C  
HETATM   29  C   UNL     1     -13.493  11.481  71.993  1.00  0.00    -0.298 C  
ENDBRANCH  13  27
BRANCH  10  30
HETATM   30  N   UNL     1     -10.521  13.240  67.677  1.00  0.00    -0.227 NA 
HETATM   31  H   UNL     1     -11.528  13.151  67.538  1.00  0.00     0.000 HD 
BRANCH  30  32
HETATM   32  C   UNL     1     -10.020  14.557  67.602  1.00  0.00    -0.224 A  
HETATM   33  C   UNL     1      -9.779  15.357  68.723  1.00  0.00    -0.210 A  
HETATM   34  C   UNL     1      -9.460  16.717  68.579  1.00  0.00    -0.245 A  
HETATM   35  C   UNL     1      -9.364  17.289  67.310  1.00  0.00    -0.237 A  
HETATM   36  C   UNL     1      -9.516  16.499  66.178  1.00  0.00    -0.347 A  
HETATM   37  I   UNL     1      -9.058  19.337  67.113  1.00  0.00    -0.426 I  
HETATM   38  C   UNL     1      -9.844  15.152  66.335  1.00  0.00    -0.280 A  
HETATM   39  F   UNL     1     -10.020  14.409  65.230  1.00  0.00    -0.349 F  
ENDBRANCH  30  32
ENDBRANCH  10  30
TORSDOF 5
ENDMDL
MODEL      117
REMARK 921   NORMALIZED FREE ENERGY PREDICTED BY IDOCK:   -3.51 KCAL/MOL
REMARK 922        TOTAL FREE ENERGY PREDICTED BY IDOCK:   -4.76 KCAL/MOL
REMARK 923 INTER-LIGAND FREE ENERGY PREDICTED BY IDOCK:   -4.46 KCAL/MOL
REMARK 924 INTRA-LIGAND FREE ENERGY PREDICTED BY IDOCK:   -0.29 KCAL/MOL
REMARK 927      BINDING AFFINITY PREDICTED BY RF-SCORE:    0.00 PKD
ROOT
HETATM    1  C   UNL     1      -9.544   4.876  68.877  1.00  0.00    -0.158 C  
HETATM    2  N   UNL     1      -9.128   6.133  68.264  1.00  0.00    -0.114 N  
HETATM    3  C   UNL     1      -9.663   7.277  68.827  1.00  0.00    -0.151 C  
HETATM    4  O   UNL     1     -10.602   7.257  69.624  1.00  0.00    -0.225 OA 
HETATM    5  C   UNL     1      -8.999   8.574  68.495  1.00  0.00    -0.139 C  
HETATM    6  C   UNL     1      -8.150   8.646  67.437  1.00  0.00    -0.102 C  
HETATM    7  C   UNL     1      -9.325   9.622  69.529  1.00  0.00    -0.211 C  
HETATM    8  N   UNL     1      -7.541   9.829  66.979  1.00  0.00    -0.092 N  
HETATM    9  C   UNL     1      -6.534   9.838  65.980  1.00  0.00    -0.080 C  
HETATM   10  C   UNL     1      -8.223   6.144  67.195  1.00  0.00    -0.106 C  
HETATM   11  O   UNL     1      -5.929  10.865  65.644  1.00  0.00    -0.133 OA 
HETATM   12  O   UNL     1      -6.112   6.365  65.366  1.00  0.00    -0.029 OA 
HETATM   13  N   UNL     1      -6.237   8.640  65.346  1.00  0.00    -0.049 N  
HETATM   14  C   UNL     1      -7.748   7.363  66.799  1.00  0.00    -0.109 C  
HETATM   15  C   UNL     1      -6.660   7.393  65.771  1.00  0.00    -0.045 C  
ENDROOT
BRANCH   8  16
HETATM   16  C   UNL     1      -8.008  11.175  67.291  1.00  0.00    -0.137 A  
HETATM   17  C   UNL     1      -9.325  11.545  66.973  1.00  0.00    -0.185 A  
HETATM   18  C   UNL     1      -9.178  13.451  68.438  1.00  0.00    -0.149 A  
HETATM   19  C   UNL     1      -7.829  13.173  68.687  1.00  0.00    -0.056 A  
HETATM   20  C   UNL     1      -7.244  12.034  68.103  1.00  0.00    -0.090 A  
HETATM   21  C   UNL     1      -9.913  12.665  67.555  1.00  0.00    -0.205 A  
BRANCH  19  22
HETATM   22  N   UNL     1      -7.156  14.057  69.562  1.00  0.00    -0.315 N  
HETATM   23  H   UNL     1      -7.555  14.162  70.495  1.00  0.00     0.000 HD 
HETATM   24  C   UNL     1      -5.567  15.639  70.474  1.00  0.00    -0.119 C  
HETATM   25  O   UNL     1      -5.383  14.791  68.253  1.00  0.00    -0.098 OA 
HETATM   26  C   UNL     1      -6.019  14.794  69.297  1.00  0.00    -0.103 C  
ENDBRANCH  19  22
ENDBRANCH   8  16
BRANCH  13  27
HETATM   27  C   UNL     1      -5.188   8.660  64.326  1.00  0.00    -0.047 C  
HETATM   28  C   UNL     1      -5.426   8.017  62.979  1.00  0.00    -0.059 C  
HETATM   29  C   UNL     1      -5.234   9.497  63.066  1.00  0.00    -0.074 C  
ENDBRANCH  13  27
BRANCH  10  30
HETATM   30  N   UNL     1      -7.836   4.918  66.671  1.00  0.00    -0.099 NA 
HETATM   31  H   UNL     1      -6.991   4.519  67.081  1.00  0.00     0.000 HD 
BRANCH  30  32
HETATM   32  C   UNL     1      -8.437   4.141  65.658  1.00  0.00    -0.110 A  
HETATM   33  C   UNL     1      -8.865   4.665  64.435  1.00  0.00    -0.152 A  
HETATM   34  C   UNL     1      -9.623   3.886  63.545  1.00  0.00    -0.147 A  
HETATM   35  C   UNL     1      -9.947   2.567  63.863  1.00  0.00    -0.138 A  
HETATM   36  C   UNL     1      -9.464   1.995  65.033  1.00  0.00     0.008 A  
HETATM   37  I   UNL     1     -11.208   1.477  62.618  1.00  0.00    -0.238 I  
HETATM   38  C   UNL     1      -8.723   2.784  65.913  1.00  0.00    -0.130 A  
HETATM   39  F   UNL     1      -8.291   2.225  67.055  1.00  0.00    -0.076 F  
ENDBRANCH  30  32
ENDBRANCH  10  30
TORSDOF 5
ENDMDL
MODEL      118
REMARK 921   NORMALIZED FREE ENERGY PREDICTED BY IDOCK:   -3.27 KCAL/MOL
REMARK 922        TOTAL FREE ENERGY PREDICTED BY IDOCK:   -4.44 KCAL/MOL
REMARK 923 INTER-LIGAND FREE ENERGY PREDICTED BY IDOCK:   -4.73 KCAL/MOL
REMARK 924 INTRA-LIGAND FREE ENERGY PREDICTED BY IDOCK:    0.29 KCAL/MOL
REMARK 927      BINDING AFFINITY PREDICTED BY RF-SCORE:    0.00 PKD
ROOT
HETATM    1  C   UNL     1     -10.556   8.040  67.017  1.00  0.00    -0.294 C  
HETATM    2  N   UNL     1      -9.510   8.897  67.563  1.00  0.00    -0.139 N  
HETATM    3  C   UNL     1      -9.484  10.191  67.074  1.00  0.00    -0.167 C  
HETATM    4  O   UNL     1     -10.125  10.548  66.085  1.00  0.00    -0.228 OA 
HETATM    5  C   UNL     1      -8.695  11.196  67.851  1.00  0.00    -0.136 C  
HETATM    6  C   UNL     1      -7.789  10.778  68.771  1.00  0.00    -0.129 C  
HETATM    7  C   UNL     1      -9.154  12.597  67.532  1.00  0.00    -0.192 C  
HETATM    8  N   UNL     1      -6.931  11.629  69.493  1.00  0.00    -0.057 N  
HETATM    9  C   UNL     1      -6.119  11.172  70.563  1.00  0.00    -0.084 C  
HETATM   10  C   UNL     1      -8.623   8.418  68.536  1.00  0.00    -0.136 C  
HETATM   11  O   UNL     1      -5.436  11.934  71.261  1.00  0.00    -0.337 OA 
HETATM   12  O   UNL     1      -7.074   7.758  70.775  1.00  0.00    -0.052 OA 
HETATM   13  N   UNL     1      -6.081   9.809  70.815  1.00  0.00    -0.084 N  
HETATM   14  C   UNL     1      -7.794   9.332  69.122  1.00  0.00    -0.086 C  
HETATM   15  C   UNL     1      -6.953   8.879  70.276  1.00  0.00    -0.047 C  
ENDROOT
BRANCH   8  16
HETATM   16  C   UNL     1      -6.600  12.994  69.104  1.00  0.00    -0.104 A  
HETATM   17  C   UNL     1      -5.550  13.225  68.200  1.00  0.00    -0.100 A  
HETATM   18  C   UNL     1      -6.339  15.466  67.804  1.00  0.00    -0.182 A  
HETATM   19  C   UNL     1      -7.327  15.305  68.782  1.00  0.00    -0.131 A  
HETATM   20  C   UNL     1      -7.449  14.066  69.438  1.00  0.00     0.134 A  
HETATM   21  C   UNL     1      -5.429  14.445  67.541  1.00  0.00     0.195 A  
BRANCH  19  22
HETATM   22  N   UNL     1      -8.173  16.416  69.009  1.00  0.00    -0.235 N  
HETATM   23  H   UNL     1      -7.919  17.028  69.784  1.00  0.00     0.000 HD 
HETATM   24  C   UNL     1      -9.970  18.026  68.819  1.00  0.00    -0.380 C  
HETATM   25  O   UNL     1      -9.761  16.176  67.330  1.00  0.00    -0.229 OA 
HETATM   26  C   UNL     1      -9.305  16.765  68.300  1.00  0.00    -0.230 C  
ENDBRANCH  19  22
ENDBRANCH   8  16
BRANCH  13  27
HETATM   27  C   UNL     1      -5.249   9.352  71.928  1.00  0.00    -0.073 C  
HETATM   28  C   UNL     1      -5.160  10.169  73.196  1.00  0.00     0.074 C  
HETATM   29  C   UNL     1      -5.787   8.813  73.236  1.00  0.00    -0.102 C  
ENDBRANCH  13  27
BRANCH  10  30
HETATM   30  N   UNL     1      -8.706   7.072  68.868  1.00  0.00    -0.131 NA 
HETATM   31  H   UNL     1      -8.972   6.879  69.834  1.00  0.00     0.000 HD 
BRANCH  30  32
HETATM   32  C   UNL     1      -8.477   5.931  68.069  1.00  0.00    -0.110 A  
HETATM   33  C   UNL     1      -7.396   5.807  67.192  1.00  0.00    -0.077 A  
HETATM   34  C   UNL     1      -7.323   4.734  66.288  1.00  0.00    -0.078 A  
HETATM   35  C   UNL     1      -8.325   3.764  66.264  1.00  0.00    -0.105 A  
HETATM   36  C   UNL     1      -9.367   3.816  67.181  1.00  0.00    -0.223 A  
HETATM   37  I   UNL     1      -8.295   2.273  64.813  1.00  0.00    -0.099 I  
HETATM   38  C   UNL     1      -9.433   4.894  68.064  1.00  0.00    -0.136 A  
HETATM   39  F   UNL     1     -10.464   4.948  68.923  1.00  0.00    -0.242 F  
ENDBRANCH  30  32
ENDBRANCH  10  30
TORSDOF 5
ENDMDL
MODEL      119
REMARK 921   NORMALIZED FREE ENERGY PREDICTED BY IDOCK:   -3.19 KCAL/MOL
REMARK 922        TOTAL FREE ENERGY PREDICTED BY IDOCK:   -4.34 KCAL/MOL
REMARK 923 INTER-LIGAND FREE ENERGY PREDICTED BY IDOCK:   -4.54 KCAL/MOL
REMARK 924 INTRA-LIGAND FREE ENERGY PREDICTED BY IDOCK:    0.20 KCAL/MOL
REMARK 927      BINDING AFFINITY PREDICTED BY RF-SCORE:    0.00 PKD
ROOT
HETATM    1  C   UNL     1      -6.187   8.384  68.651  1.00  0.00    -0.045 C  
HETATM    2  N   UNL     1      -7.391   9.126  69.008  1.00  0.00    -0.072 N  
HETATM    3  C   UNL     1      -7.433  10.438  68.572  1.00  0.00    -0.089 C  
HETATM    4  O   UNL     1      -6.449  11.030  68.127  1.00  0.00    -0.056 OA 
HETATM    5  C   UNL     1      -8.766  11.115  68.581  1.00  0.00    -0.153 C  
HETATM    6  C   UNL     1      -9.789  10.583  69.298  1.00  0.00    -0.205 C  
HETATM    7  C   UNL     1      -8.772  12.293  67.640  1.00  0.00    -0.175 C  
HETATM    8  N   UNL     1     -11.054  11.179  69.451  1.00  0.00    -0.244 N  
HETATM    9  C   UNL     1     -12.147  10.516  70.066  1.00  0.00    -0.274 C  
HETATM   10  C   UNL     1      -8.428   8.512  69.722  1.00  0.00    -0.129 C  
HETATM   11  O   UNL     1     -13.286  11.000  70.116  1.00  0.00     0.054 OA 
HETATM   12  O   UNL     1     -10.749   7.323  70.746  1.00  0.00    -0.225 OA 
HETATM   13  N   UNL     1     -11.912   9.280  70.650  1.00  0.00    -0.210 N  
HETATM   14  C   UNL     1      -9.590   9.218  69.857  1.00  0.00    -0.217 C  
HETATM   15  C   UNL     1     -10.766   8.525  70.472  1.00  0.00    -0.221 C  
ENDROOT
BRANCH   8  16
HETATM   16  C   UNL     1     -11.338  12.590  69.216  1.00  0.00    -0.245 A  
HETATM   17  C   UNL     1     -11.992  12.981  68.035  1.00  0.00    -0.335 A  
HETATM   18  C   UNL     1     -12.507  15.130  68.993  1.00  0.00     0.076 A  
HETATM   19  C   UNL     1     -11.766  14.813  70.137  1.00  0.00    -0.301 A  
HETATM   20  C   UNL     1     -11.174  13.540  70.241  1.00  0.00     0.305 A  
HETATM   21  C   UNL     1     -12.587  14.234  67.929  1.00  0.00     0.497 A  
BRANCH  19  22
HETATM   22  N   UNL     1     -11.705  15.807  71.142  1.00  0.00    -0.389 N  
HETATM   23  H   UNL     1     -11.082  16.594  70.963  1.00  0.00     0.000 HD 
HETATM   24  C   UNL     1     -12.089  17.057  73.178  1.00  0.00     0.226 C  
HETATM   25  O   UNL     1     -13.200  14.998  72.725  1.00  0.00    -0.393 OA 
HETATM   26  C   UNL     1     -12.395  15.831  72.337  1.00  0.00    -0.456 C  
ENDBRANCH  19  22
ENDBRANCH   8  16
BRANCH  13  27
HETATM   27  C   UNL     1     -13.050   8.601  71.270  1.00  0.00    -0.161 C  
HETATM   28  C   UNL     1     -12.842   7.314  72.035  1.00  0.00    -0.212 C  
HETATM   29  C   UNL     1     -13.302   8.538  72.761  1.00  0.00    -0.096 C  
ENDBRANCH  13  27
BRANCH  10  30
HETATM   30  N   UNL     1      -8.212   7.217  70.174  1.00  0.00    -0.133 NA 
HETATM   31  H   UNL     1      -8.202   7.108  71.189  1.00  0.00     0.000 HD 
BRANCH  30  32
HETATM   32  C   UNL     1      -8.006   6.029  69.441  1.00  0.00    -0.103 A  
HETATM   33  C   UNL     1      -7.011   5.096  69.747  1.00  0.00    -0.054 A  
HETATM   34  C   UNL     1      -6.731   4.031  68.875  1.00  0.00    -0.046 A  
HETATM   35  C   UNL     1      -7.456   3.879  67.692  1.00  0.00    -0.067 A  
HETATM   36  C   UNL     1      -8.506   4.742  67.405  1.00  0.00    -0.104 A  
HETATM   37  I   UNL     1      -6.924   2.401  66.329  1.00  0.00    -0.045 I  
HETATM   38  C   UNL     1      -8.764   5.802  68.274  1.00  0.00    -0.111 A  
HETATM   39  F   UNL     1      -9.761   6.647  67.964  1.00  0.00    -0.125 F  
ENDBRANCH  30  32
ENDBRANCH  10  30
TORSDOF 5
ENDMDL
MODEL      120
REMARK 921   NORMALIZED FREE ENERGY PREDICTED BY IDOCK:   -3.16 KCAL/MOL
REMARK 922        TOTAL FREE ENERGY PREDICTED BY IDOCK:   -4.29 KCAL/MOL
REMARK 923 INTER-LIGAND FREE ENERGY PREDICTED BY IDOCK:   -4.14 KCAL/MOL
REMARK 924 INTRA-LIGAND FREE ENERGY PREDICTED BY IDOCK:   -0.15 KCAL/MOL
REMARK 927      BINDING AFFINITY PREDICTED BY RF-SCORE:    0.00 PKD
ROOT
HETATM    1  C   UNL     1     -11.941   9.654  70.850  1.00  0.00    -0.309 C  
HETATM    2  N   UNL     1     -11.234  10.555  69.946  1.00  0.00    -0.286 N  
HETATM    3  C   UNL     1     -11.890  11.736  69.647  1.00  0.00    -0.339 C  
HETATM    4  O   UNL     1     -13.076  11.931  69.915  1.00  0.00     0.571 OA 
HETATM    5  C   UNL     1     -11.074  12.834  69.045  1.00  0.00    -0.285 C  
HETATM    6  C   UNL     1      -9.857  12.555  68.511  1.00  0.00    -0.149 C  
HETATM    7  C   UNL     1     -11.744  14.169  69.247  1.00  0.00    -0.368 C  
HETATM    8  N   UNL     1      -9.045  13.489  67.841  1.00  0.00    -0.194 N  
HETATM    9  C   UNL     1      -7.712  13.204  67.445  1.00  0.00    -0.145 C  
HETATM   10  C   UNL     1      -9.965  10.227  69.454  1.00  0.00    -0.233 C  
HETATM   11  O   UNL     1      -6.965  14.053  66.942  1.00  0.00     0.157 OA 
HETATM   12  O   UNL     1      -7.272   9.926  68.741  1.00  0.00    -0.073 OA 
HETATM   13  N   UNL     1      -7.246  11.909  67.618  1.00  0.00    -0.103 N  
HETATM   14  C   UNL     1      -9.298  11.199  68.762  1.00  0.00    -0.156 C  
HETATM   15  C   UNL     1      -7.879  10.932  68.366  1.00  0.00    -0.123 C  
ENDROOT
BRANCH   8  16
HETATM   16  C   UNL     1      -9.522  14.746  67.277  1.00  0.00    -0.214 A  
HETATM   17  C   UNL     1     -10.082  14.763  65.989  1.00  0.00    -0.327 A  
HETATM   18  C   UNL     1     -11.048  16.930  66.401  1.00  0.00     0.346 A  
HETATM   19  C   UNL     1     -10.410  16.993  67.645  1.00  0.00    -0.332 A  
HETATM   20  C   UNL     1      -9.639  15.898  68.077  1.00  0.00    -0.211 A  
HETATM   21  C   UNL     1     -10.854  15.838  65.559  1.00  0.00    -0.343 A  
BRANCH  19  22
HETATM   22  N   UNL     1     -10.633  18.164  68.407  1.00  0.00    -0.325 N  
HETATM   23  H   UNL     1     -11.602  18.369  68.648  1.00  0.00     0.000 HD 
HETATM   24  C   UNL     1     -10.282  20.208  69.655  1.00  0.00     0.104 C  
HETATM   25  O   UNL     1      -8.477  18.980  68.696  1.00  0.00    -0.351 OA 
HETATM   26  C   UNL     1      -9.686  19.060  68.861  1.00  0.00    -0.385 C  
ENDBRANCH  19  22
ENDBRANCH   8  16
BRANCH  13  27
HETATM   27  C   UNL     1      -5.867  11.631  67.218  1.00  0.00    -0.111 C  
HETATM   28  C   UNL     1      -5.580  10.634  66.118  1.00  0.00    -0.101 C  
HETATM   29  C   UNL     1      -5.247  12.077  65.911  1.00  0.00     1.235 C  
ENDBRANCH  13  27
BRANCH  10  30
HETATM   30  N   UNL     1      -9.465   8.969  69.763  1.00  0.00    -0.168 NA 
HETATM   31  H   UNL     1      -9.101   8.868  70.711  1.00  0.00     0.000 HD 
BRANCH  30  32
HETATM   32  C   UNL     1      -9.385   7.809  68.962  1.00  0.00    -0.150 A  
HETATM   33  C   UNL     1     -10.280   7.521  67.929  1.00  0.00    -0.245 A  
HETATM   34  C   UNL     1     -10.265   6.268  67.293  1.00  0.00    -0.237 A  
HETATM   35  C   UNL     1      -9.342   5.295  67.676  1.00  0.00    -0.118 A  
HETATM   36  C   UNL     1      -8.387   5.583  68.642  1.00  0.00    -0.101 A  
HETATM   37  I   UNL     1      -9.436   3.389  66.847  1.00  0.00     0.131 I  
HETATM   38  C   UNL     1      -8.421   6.827  69.273  1.00  0.00    -0.129 A  
HETATM   39  F   UNL     1      -7.512   7.078  70.229  1.00  0.00    -0.077 F  
ENDBRANCH  30  32
ENDBRANCH  10  30
TORSDOF 5
ENDMDL
MODEL      121
REMARK 921   NORMALIZED FREE ENERGY PREDICTED BY IDOCK:   -3.14 KCAL/MOL
REMARK 922        TOTAL FREE ENERGY PREDICTED BY IDOCK:   -4.28 KCAL/MOL
REMARK 923 INTER-LIGAND FREE ENERGY PREDICTED BY IDOCK:   -5.07 KCAL/MOL
REMARK 924 INTRA-LIGAND FREE ENERGY PREDICTED BY IDOCK:    0.79 KCAL/MOL
REMARK 927      BINDING AFFINITY PREDICTED BY RF-SCORE:    0.00 PKD
ROOT
HETATM    1  C   UNL     1      -6.512  10.160  70.602  1.00  0.00    -0.084 C  
HETATM    2  N   UNL     1      -7.109  11.278  69.881  1.00  0.00     0.033 N  
HETATM    3  C   UNL     1      -6.507  12.507  70.082  1.00  0.00     0.184 C  
HETATM    4  O   UNL     1      -5.684  12.714  70.975  1.00  0.00    -0.312 OA 
HETATM    5  C   UNL     1      -6.830  13.591  69.104  1.00  0.00    -0.084 C  
HETATM    6  C   UNL     1      -7.909  13.466  68.290  1.00  0.00    -0.143 C  
HETATM    7  C   UNL     1      -5.765  14.659  69.120  1.00  0.00    -0.095 C  
HETATM    8  N   UNL     1      -8.358  14.458  67.399  1.00  0.00    -0.189 N  
HETATM    9  C   UNL     1      -9.385  14.228  66.447  1.00  0.00    -0.245 C  
HETATM   10  C   UNL     1      -8.202  11.080  69.028  1.00  0.00    -0.098 C  
HETATM   11  O   UNL     1      -9.716  15.068  65.599  1.00  0.00    -0.339 OA 
HETATM   12  O   UNL     1     -10.085  10.786  66.973  1.00  0.00    -0.194 OA 
HETATM   13  N   UNL     1     -10.052  13.013  66.492  1.00  0.00    -0.264 N  
HETATM   14  C   UNL     1      -8.585  12.141  68.255  1.00  0.00    -0.175 C  
HETATM   15  C   UNL     1      -9.643  11.911  67.220  1.00  0.00    -0.177 C  
ENDROOT
BRANCH   8  16
HETATM   16  C   UNL     1      -8.004  15.870  67.485  1.00  0.00    -0.145 A  
HETATM   17  C   UNL     1      -6.952  16.373  66.702  1.00  0.00    -0.133 A  
HETATM   18  C   UNL     1      -7.704  18.629  67.083  1.00  0.00    -0.237 A  
HETATM   19  C   UNL     1      -8.692  18.167  67.959  1.00  0.00    -0.269 A  
HETATM   20  C   UNL     1      -8.834  16.782  68.164  1.00  0.00    -0.223 A  
HETATM   21  C   UNL     1      -6.812  17.741  66.487  1.00  0.00    -0.266 A  
BRANCH  19  22
HETATM   22  N   UNL     1      -9.518  19.151  68.551  1.00  0.00    -0.367 N  
HETATM   23  H   UNL     1      -9.451  19.249  69.563  1.00  0.00     0.000 HD 
HETATM   24  C   UNL     1     -11.128  20.931  68.861  1.00  0.00     1.468 C  
HETATM   25  O   UNL     1     -10.614  20.045  66.708  1.00  0.00    -0.442 OA 
HETATM   26  C   UNL     1     -10.405  19.993  67.912  1.00  0.00    -0.366 C  
ENDBRANCH  19  22
ENDBRANCH   8  16
BRANCH  13  27
HETATM   27  C   UNL     1     -11.101  12.784  65.497  1.00  0.00    -0.285 C  
HETATM   28  C   UNL     1     -11.112  13.574  64.209  1.00  0.00    -0.371 C  
HETATM   29  C   UNL     1     -10.884  12.097  64.166  1.00  0.00    -0.410 C  
ENDBRANCH  13  27
BRANCH  10  30
HETATM   30  N   UNL     1      -8.763   9.811  68.991  1.00  0.00    -0.139 NA 
HETATM   31  H   UNL     1      -9.604   9.691  69.556  1.00  0.00     0.000 HD 
BRANCH  30  32
HETATM   32  C   UNL     1      -8.343   8.660  68.290  1.00  0.00    -0.127 A  
HETATM   33  C   UNL     1      -8.847   7.380  68.535  1.00  0.00    -0.126 A  
HETATM   34  C   UNL     1      -8.260   6.250  67.942  1.00  0.00    -0.114 A  
HETATM   35  C   UNL     1      -7.170   6.392  67.082  1.00  0.00    -0.075 A  
HETATM   36  C   UNL     1      -6.702   7.658  66.755  1.00  0.00    -0.066 A  
HETATM   37  I   UNL     1      -6.203   4.705  66.341  1.00  0.00    -0.034 I  
HETATM   38  C   UNL     1      -7.287   8.770  67.362  1.00  0.00    -0.081 A  
HETATM   39  F   UNL     1      -6.801   9.985  67.060  1.00  0.00    -0.080 F  
ENDBRANCH  30  32
ENDBRANCH  10  30
TORSDOF 5
ENDMDL
MODEL      122
REMARK 921   NORMALIZED FREE ENERGY PREDICTED BY IDOCK:   -3.08 KCAL/MOL
REMARK 922        TOTAL FREE ENERGY PREDICTED BY IDOCK:   -4.19 KCAL/MOL
REMARK 923 INTER-LIGAND FREE ENERGY PREDICTED BY IDOCK:   -5.98 KCAL/MOL
REMARK 924 INTRA-LIGAND FREE ENERGY PREDICTED BY IDOCK:    1.79 KCAL/MOL
REMARK 927      BINDING AFFINITY PREDICTED BY RF-SCORE:    0.00 PKD
ROOT
HETATM    1  C   UNL     1     -10.870   8.389  68.927  1.00  0.00     0.034 C  
HETATM    2  N   UNL     1     -10.188   9.628  68.572  1.00  0.00    -0.185 N  
HETATM    3  C   UNL     1     -10.879  10.465  67.714  1.00  0.00    -0.297 C  
HETATM    4  O   UNL     1     -11.884  10.111  67.097  1.00  0.00     0.573 OA 
HETATM    5  C   UNL     1     -10.407  11.880  67.617  1.00  0.00    -0.217 C  
HETATM    6  C   UNL     1      -9.173  12.212  68.074  1.00  0.00    -0.194 C  
HETATM    7  C   UNL     1     -11.502  12.772  67.089  1.00  0.00    -0.394 C  
HETATM    8  N   UNL     1      -8.592  13.489  67.953  1.00  0.00    -0.170 N  
HETATM    9  C   UNL     1      -7.374  13.842  68.589  1.00  0.00    -0.117 C  
HETATM   10  C   UNL     1      -8.927   9.931  69.103  1.00  0.00    -0.169 C  
HETATM   11  O   UNL     1      -6.910  14.990  68.562  1.00  0.00    -0.096 OA 
HETATM   12  O   UNL     1      -6.634  10.880  70.403  1.00  0.00    -0.273 OA 
HETATM   13  N   UNL     1      -6.672  12.844  69.249  1.00  0.00    -0.093 N  
HETATM   14  C   UNL     1      -8.440  11.185  68.864  1.00  0.00    -0.095 C  
HETATM   15  C   UNL     1      -7.174  11.591  69.553  1.00  0.00     0.070 C  
ENDROOT
BRANCH   8  16
HETATM   16  C   UNL     1      -9.026  14.509  67.006  1.00  0.00    -0.240 A  
HETATM   17  C   UNL     1      -9.588  14.123  65.778  1.00  0.00    -0.165 A  
HETATM   18  C   UNL     1     -10.477  16.338  65.452  1.00  0.00    -0.365 A  
HETATM   19  C   UNL     1      -9.834  16.781  66.613  1.00  0.00    -0.277 A  
HETATM   20  C   UNL     1      -9.101  15.862  67.385  1.00  0.00    -0.205 A  
HETATM   21  C   UNL     1     -10.324  15.025  65.014  1.00  0.00    -0.390 A  
BRANCH  19  22
HETATM   22  N   UNL     1     -10.014  18.144  66.950  1.00  0.00    -0.324 N  
HETATM   23  H   UNL     1     -10.840  18.367  67.505  1.00  0.00     0.000 HD 
HETATM   24  C   UNL     1      -9.695  20.535  67.147  1.00  0.00    -0.581 C  
HETATM   25  O   UNL     1      -8.157  19.141  65.974  1.00  0.00    -0.396 OA 
HETATM   26  C   UNL     1      -9.198  19.204  66.612  1.00  0.00    -0.334 C  
ENDBRANCH  19  22
ENDBRANCH   8  16
BRANCH  13  27
HETATM   27  C   UNL     1      -5.424  13.224  69.911  1.00  0.00    -0.101 C  
HETATM   28  C   UNL     1      -5.399  14.386  70.877  1.00  0.00    -0.147 C  
HETATM   29  C   UNL     1      -5.131  13.004  71.380  1.00  0.00    -0.174 C  
ENDBRANCH  13  27
BRANCH  10  30
HETATM   30  N   UNL     1      -8.310   8.960  69.878  1.00  0.00    -0.120 NA 
HETATM   31  H   UNL     1      -8.413   9.079  70.887  1.00  0.00     0.000 HD 
BRANCH  30  32
HETATM   32  C   UNL     1      -7.561   7.831  69.482  1.00  0.00    -0.100 A  
HETATM   33  C   UNL     1      -6.745   7.805  68.347  1.00  0.00    -0.062 A  
HETATM   34  C   UNL     1      -6.175   6.602  67.899  1.00  0.00    -0.036 A  
HETATM   35  C   UNL     1      -6.404   5.413  68.591  1.00  0.00    -0.035 A  
HETATM   36  C   UNL     1      -7.142   5.423  69.768  1.00  0.00    -0.063 A  
HETATM   37  I   UNL     1      -5.695   3.612  67.827  1.00  0.00    -0.024 I  
HETATM   38  C   UNL     1      -7.712   6.623  70.194  1.00  0.00    -0.102 A  
HETATM   39  F   UNL     1      -8.450   6.610  71.316  1.00  0.00    -0.121 F  
ENDBRANCH  30  32
ENDBRANCH  10  30
TORSDOF 5
ENDMDL
MODEL      123
REMARK 921   NORMALIZED FREE ENERGY PREDICTED BY IDOCK:   -2.96 KCAL/MOL
REMARK 922        TOTAL FREE ENERGY PREDICTED BY IDOCK:   -4.03 KCAL/MOL
REMARK 923 INTER-LIGAND FREE ENERGY PREDICTED BY IDOCK:   -4.48 KCAL/MOL
REMARK 924 INTRA-LIGAND FREE ENERGY PREDICTED BY IDOCK:    0.44 KCAL/MOL
REMARK 927      BINDING AFFINITY PREDICTED BY RF-SCORE:    0.00 PKD
ROOT
HETATM    1  C   UNL     1     -10.481   7.293  66.830  1.00  0.00    -0.299 C  
HETATM    2  N   UNL     1      -9.509   8.240  67.365  1.00  0.00    -0.147 N  
HETATM    3  C   UNL     1      -9.605   9.532  66.879  1.00  0.00    -0.165 C  
HETATM    4  O   UNL     1     -10.288   9.831  65.900  1.00  0.00    -0.214 OA 
HETATM    5  C   UNL     1      -8.900  10.602  67.649  1.00  0.00    -0.131 C  
HETATM    6  C   UNL     1      -7.948  10.264  68.557  1.00  0.00    -0.107 C  
HETATM    7  C   UNL     1      -9.485  11.956  67.339  1.00  0.00    -0.175 C  
HETATM    8  N   UNL     1      -7.161  11.187  69.271  1.00  0.00    -0.120 N  
HETATM    9  C   UNL     1      -6.297  10.803  70.329  1.00  0.00    -0.142 C  
HETATM   10  C   UNL     1      -8.571   7.840  68.326  1.00  0.00    -0.124 C  
HETATM   11  O   UNL     1      -5.676  11.622  71.021  1.00  0.00    -0.339 OA 
HETATM   12  O   UNL     1      -6.941   7.317  70.544  1.00  0.00    -0.055 OA 
HETATM   13  N   UNL     1      -6.135   9.448  70.577  1.00  0.00    -0.052 N  
HETATM   14  C   UNL     1      -7.820   8.823  68.905  1.00  0.00    -0.104 C  
HETATM   15  C   UNL     1      -6.928   8.446  70.047  1.00  0.00    -0.043 C  
ENDROOT
BRANCH   8  16
HETATM   16  C   UNL     1      -6.958  12.577  68.881  1.00  0.00    -0.088 A  
HETATM   17  C   UNL     1      -5.979  12.896  67.925  1.00  0.00    -0.125 A  
HETATM   18  C   UNL     1      -6.959  15.072  67.599  1.00  0.00    -0.205 A  
HETATM   19  C   UNL     1      -7.877  14.827  68.627  1.00  0.00    -0.140 A  
HETATM   20  C   UNL     1      -7.867  13.577  69.273  1.00  0.00     0.406 A  
HETATM   21  C   UNL     1      -5.989  14.127  67.275  1.00  0.00     0.504 A  
BRANCH  19  22
HETATM   22  N   UNL     1      -8.793  15.867  68.913  1.00  0.00    -0.210 N  
HETATM   23  H   UNL     1      -8.548  16.485  69.686  1.00  0.00     0.000 HD 
HETATM   24  C   UNL     1     -10.712  17.339  68.835  1.00  0.00    -0.197 C  
HETATM   25  O   UNL     1     -10.435  15.533  67.304  1.00  0.00    -0.268 OA 
HETATM   26  C   UNL     1      -9.979  16.140  68.262  1.00  0.00    -0.226 C  
ENDBRANCH  19  22
ENDBRANCH   8  16
BRANCH  13  27
HETATM   27  C   UNL     1      -5.252   9.066  71.679  1.00  0.00    -0.045 C  
HETATM   28  C   UNL     1      -5.770   9.051  73.098  1.00  0.00    -0.065 C  
HETATM   29  C   UNL     1      -5.356   7.769  72.451  1.00  0.00    -0.036 C  
ENDBRANCH  13  27
BRANCH  10  30
HETATM   30  N   UNL     1      -8.530   6.492  68.655  1.00  0.00    -0.121 NA 
HETATM   31  H   UNL     1      -7.901   5.925  68.085  1.00  0.00     0.000 HD 
BRANCH  30  32
HETATM   32  C   UNL     1      -9.226   5.787  69.661  1.00  0.00    -0.138 A  
HETATM   33  C   UNL     1     -10.009   6.409  70.637  1.00  0.00    -0.213 A  
HETATM   34  C   UNL     1     -10.522   5.676  71.720  1.00  0.00    -0.284 A  
HETATM   35  C   UNL     1     -10.270   4.308  71.828  1.00  0.00    -0.112 A  
HETATM   36  C   UNL     1      -9.566   3.649  70.829  1.00  0.00    -0.249 A  
HETATM   37  I   UNL     1     -10.892   3.266  73.519  1.00  0.00    -0.265 I  
HETATM   38  C   UNL     1      -9.052   4.392  69.766  1.00  0.00    -0.112 A  
HETATM   39  F   UNL     1      -8.344   3.745  68.825  1.00  0.00    -0.072 F  
ENDBRANCH  30  32
ENDBRANCH  10  30
TORSDOF 5
ENDMDL
MODEL      124
REMARK 921   NORMALIZED FREE ENERGY PREDICTED BY IDOCK:   -2.94 KCAL/MOL
REMARK 922        TOTAL FREE ENERGY PREDICTED BY IDOCK:   -4.01 KCAL/MOL
REMARK 923 INTER-LIGAND FREE ENERGY PREDICTED BY IDOCK:   -4.60 KCAL/MOL
REMARK 924 INTRA-LIGAND FREE ENERGY PREDICTED BY IDOCK:    0.59 KCAL/MOL
REMARK 927      BINDING AFFINITY PREDICTED BY RF-SCORE:    0.00 PKD
ROOT
HETATM    1  C   UNL     1     -10.436  13.579  65.292  1.00  0.00    -0.336 C  
HETATM    2  N   UNL     1     -10.135  12.840  66.513  1.00  0.00    -0.253 N  
HETATM    3  C   UNL     1     -11.129  11.985  66.954  1.00  0.00    -0.302 C  
HETATM    4  O   UNL     1     -12.276  12.003  66.508  1.00  0.00    -0.548 OA 
HETATM    5  C   UNL     1     -10.739  10.949  67.959  1.00  0.00    -0.263 C  
HETATM    6  C   UNL     1      -9.573  11.078  68.643  1.00  0.00    -0.195 C  
HETATM    7  C   UNL     1     -11.725   9.808  67.960  1.00  0.00     1.053 C  
HETATM    8  N   UNL     1      -9.150  10.216  69.672  1.00  0.00    -0.200 N  
HETATM    9  C   UNL     1      -7.854  10.283  70.246  1.00  0.00     0.225 C  
HETATM   10  C   UNL     1      -8.899  12.990  67.156  1.00  0.00    -0.218 C  
HETATM   11  O   UNL     1      -7.447   9.466  71.083  1.00  0.00    -0.294 OA 
HETATM   12  O   UNL     1      -6.347  12.845  68.302  1.00  0.00    -0.071 OA 
HETATM   13  N   UNL     1      -7.025  11.325  69.859  1.00  0.00    -0.033 N  
HETATM   14  C   UNL     1      -8.628  12.133  68.185  1.00  0.00    -0.177 C  
HETATM   15  C   UNL     1      -7.255  12.163  68.782  1.00  0.00    -0.103 C  
ENDROOT
BRANCH   8  16
HETATM   16  C   UNL     1     -10.029   9.325  70.419  1.00  0.00    -0.237 A  
HETATM   17  C   UNL     1     -11.201   9.833  71.004  1.00  0.00    -0.451 A  
HETATM   18  C   UNL     1     -12.076   7.605  71.268  1.00  0.00    -0.337 A  
HETATM   19  C   UNL     1     -10.875   7.063  70.794  1.00  0.00    -0.246 A  
HETATM   20  C   UNL     1      -9.849   7.930  70.377  1.00  0.00    -0.183 A  
HETATM   21  C   UNL     1     -12.225   8.982  71.410  1.00  0.00    -0.387 A  
BRANCH  19  22
HETATM   22  N   UNL     1     -10.805   5.651  70.730  1.00  0.00    -0.253 N  
HETATM   23  H   UNL     1     -11.198   5.216  69.896  1.00  0.00     0.000 HD 
HETATM   24  C   UNL     1     -10.357   3.335  71.272  1.00  0.00     0.476 C  
HETATM   25  O   UNL     1      -9.731   5.121  72.721  1.00  0.00    -0.151 OA 
HETATM   26  C   UNL     1     -10.265   4.797  71.670  1.00  0.00    -0.179 C  
ENDBRANCH  19  22
ENDBRANCH   8  16
BRANCH  13  27
HETATM   27  C   UNL     1      -5.687  11.376  70.449  1.00  0.00    -0.151 C  
HETATM   28  C   UNL     1      -5.342  12.447  71.459  1.00  0.00     0.025 C  
HETATM   29  C   UNL     1      -5.369  11.014  71.884  1.00  0.00     0.259 C  
ENDBRANCH  13  27
BRANCH  10  30
HETATM   30  N   UNL     1      -8.031  13.950  66.655  1.00  0.00    -0.146 NA 
HETATM   31  H   UNL     1      -7.615  13.730  65.750  1.00  0.00     0.000 HD 
BRANCH  30  32
HETATM   32  C   UNL     1      -7.637  15.187  67.211  1.00  0.00    -0.203 A  
HETATM   33  C   UNL     1      -6.407  15.796  66.944  1.00  0.00     0.346 A  
HETATM   34  C   UNL     1      -5.993  16.926  67.668  1.00  0.00    -0.158 A  
HETATM   35  C   UNL     1      -6.815  17.470  68.657  1.00  0.00    -0.227 A  
HETATM   36  C   UNL     1      -8.076  16.936  68.884  1.00  0.00    -0.219 A  
HETATM   37  I   UNL     1      -6.124  19.038  69.837  1.00  0.00    -0.101 I  
HETATM   38  C   UNL     1      -8.469  15.806  68.167  1.00  0.00    -0.162 A  
HETATM   39  F   UNL     1      -9.679  15.281  68.422  1.00  0.00    -0.199 F  
ENDBRANCH  30  32
ENDBRANCH  10  30
TORSDOF 5
ENDMDL
MODEL      125
REMARK 921   NORMALIZED FREE ENERGY PREDICTED BY IDOCK:   -2.92 KCAL/MOL
REMARK 922        TOTAL FREE ENERGY PREDICTED BY IDOCK:   -3.99 KCAL/MOL
REMARK 923 INTER-LIGAND FREE ENERGY PREDICTED BY IDOCK:   -5.24 KCAL/MOL
REMARK 924 INTRA-LIGAND FREE ENERGY PREDICTED BY IDOCK:    1.25 KCAL/MOL
REMARK 927      BINDING AFFINITY PREDICTED BY RF-SCORE:    0.00 PKD
ROOT
HETATM    1  C   UNL     1     -10.827   8.689  67.088  1.00  0.00     0.010 C  
HETATM    2  N   UNL     1     -10.151   9.965  67.290  1.00  0.00    -0.199 N  
HETATM    3  C   UNL     1     -10.827  11.078  66.823  1.00  0.00    -0.251 C  
HETATM    4  O   UNL     1     -11.806  11.006  66.080  1.00  0.00     0.197 OA 
HETATM    5  C   UNL     1     -10.371  12.411  67.325  1.00  0.00    -0.227 C  
HETATM    6  C   UNL     1      -9.157  12.528  67.920  1.00  0.00    -0.199 C  
HETATM    7  C   UNL     1     -11.461  13.441  67.168  1.00  0.00    -0.373 C  
HETATM    8  N   UNL     1      -8.590  13.744  68.348  1.00  0.00    -0.168 N  
HETATM    9  C   UNL     1      -7.398  13.808  69.114  1.00  0.00     0.019 C  
HETATM   10  C   UNL     1      -8.913  10.026  67.942  1.00  0.00    -0.131 C  
HETATM   11  O   UNL     1      -6.949  14.867  69.572  1.00  0.00    -0.156 OA 
HETATM   12  O   UNL     1      -6.675  10.363  69.594  1.00  0.00    -0.066 OA 
HETATM   13  N   UNL     1      -6.704  12.627  69.336  1.00  0.00    -0.068 N  
HETATM   14  C   UNL     1      -8.435  11.269  68.250  1.00  0.00    -0.152 C  
HETATM   15  C   UNL     1      -7.198  11.359  69.087  1.00  0.00    -0.102 C  
ENDROOT
BRANCH   8  16
HETATM   16  C   UNL     1      -9.008  15.061  67.882  1.00  0.00    -0.175 A  
HETATM   17  C   UNL     1     -10.123  15.684  68.467  1.00  0.00    -0.211 A  
HETATM   18  C   UNL     1      -9.465  17.807  67.539  1.00  0.00    -0.257 A  
HETATM   19  C   UNL     1      -8.410  17.194  66.852  1.00  0.00    -0.224 A  
HETATM   20  C   UNL     1      -8.190  15.815  67.021  1.00  0.00    -0.262 A  
HETATM   21  C   UNL     1     -10.341  17.050  68.312  1.00  0.00    -0.347 A  
BRANCH  19  22
HETATM   22  N   UNL     1      -7.603  18.041  66.056  1.00  0.00    -0.240 N  
HETATM   23  H   UNL     1      -6.782  17.613  65.629  1.00  0.00     0.000 HD 
HETATM   24  C   UNL     1      -6.735  19.978  64.893  1.00  0.00    -0.240 C  
HETATM   25  O   UNL     1      -8.732  20.067  66.191  1.00  0.00    -0.344 OA 
HETATM   26  C   UNL     1      -7.801  19.381  65.793  1.00  0.00    -0.102 C  
ENDBRANCH  19  22
ENDBRANCH   8  16
BRANCH  13  27
HETATM   27  C   UNL     1      -5.483  12.705  70.138  1.00  0.00    -0.125 C  
HETATM   28  C   UNL     1      -5.505  13.370  71.495  1.00  0.00    -0.164 C  
HETATM   29  C   UNL     1      -5.231  11.903  71.397  1.00  0.00    -0.035 C  
ENDBRANCH  13  27
BRANCH  10  30
HETATM   30  N   UNL     1      -8.307   8.823  68.277  1.00  0.00    -0.125 NA 
HETATM   31  H   UNL     1      -8.246   8.631  69.277  1.00  0.00     0.000 HD 
BRANCH  30  32
HETATM   32  C   UNL     1      -7.762   7.824  67.441  1.00  0.00    -0.113 A  
HETATM   33  C   UNL     1      -8.259   6.520  67.372  1.00  0.00    -0.121 A  
HETATM   34  C   UNL     1      -7.564   5.522  66.669  1.00  0.00    -0.088 A  
HETATM   35  C   UNL     1      -6.370   5.824  66.012  1.00  0.00    -0.039 A  
HETATM   36  C   UNL     1      -5.898   7.130  65.994  1.00  0.00    -0.036 A  
HETATM   37  I   UNL     1      -5.263   4.308  65.116  1.00  0.00    -0.010 I  
HETATM   38  C   UNL     1      -6.592   8.108  66.707  1.00  0.00    -0.057 A  
HETATM   39  F   UNL     1      -6.104   9.359  66.707  1.00  0.00    -0.058 F  
ENDBRANCH  30  32
ENDBRANCH  10  30
TORSDOF 5
ENDMDL
MODEL      126
REMARK 921   NORMALIZED FREE ENERGY PREDICTED BY IDOCK:   -2.87 KCAL/MOL
REMARK 922        TOTAL FREE ENERGY PREDICTED BY IDOCK:   -3.92 KCAL/MOL
REMARK 923 INTER-LIGAND FREE ENERGY PREDICTED BY IDOCK:   -4.67 KCAL/MOL
REMARK 924 INTRA-LIGAND FREE ENERGY PREDICTED BY IDOCK:    0.75 KCAL/MOL
REMARK 927      BINDING AFFINITY PREDICTED BY RF-SCORE:    0.00 PKD
ROOT
HETATM    1  C   UNL     1      -6.118  12.899  70.669  1.00  0.00     0.112 C  
HETATM    2  N   UNL     1      -6.677  11.704  70.047  1.00  0.00     0.027 N  
HETATM    3  C   UNL     1      -6.665  10.563  70.829  1.00  0.00     0.311 C  
HETATM    4  O   UNL     1      -6.024  10.475  71.877  1.00  0.00    -0.172 OA 
HETATM    5  C   UNL     1      -7.542   9.432  70.397  1.00  0.00    -0.152 C  
HETATM    6  C   UNL     1      -8.040   9.409  69.133  1.00  0.00    -0.107 C  
HETATM    7  C   UNL     1      -7.828   8.507  71.552  1.00  0.00    -0.158 C  
HETATM    8  N   UNL     1      -8.799   8.355  68.592  1.00  0.00    -0.136 N  
HETATM    9  C   UNL     1      -9.441   8.440  67.330  1.00  0.00    -0.147 C  
HETATM   10  C   UNL     1      -7.207  11.750  68.750  1.00  0.00    -0.113 C  
HETATM   11  O   UNL     1     -10.187   7.552  66.894  1.00  0.00    -0.252 OA 
HETATM   12  O   UNL     1      -8.685  11.775  66.371  1.00  0.00    -0.193 OA 
HETATM   13  N   UNL     1      -9.199   9.563  66.552  1.00  0.00    -0.153 N  
HETATM   14  C   UNL     1      -7.870  10.639  68.313  1.00  0.00    -0.113 C  
HETATM   15  C   UNL     1      -8.584  10.718  66.999  1.00  0.00    -0.130 C  
ENDROOT
BRANCH   8  16
HETATM   16  C   UNL     1      -8.834   7.000  69.130  1.00  0.00    -0.135 A  
HETATM   17  C   UNL     1      -9.944   6.579  69.882  1.00  0.00    -0.191 A  
HETATM   18  C   UNL     1      -9.294   4.276  69.612  1.00  0.00    -0.235 A  
HETATM   19  C   UNL     1      -8.122   4.669  68.958  1.00  0.00    -0.077 A  
HETATM   20  C   UNL     1      -7.891   6.037  68.725  1.00  0.00    -0.100 A  
HETATM   21  C   UNL     1     -10.183   5.226  70.107  1.00  0.00    -0.350 A  
BRANCH  19  22
HETATM   22  N   UNL     1      -7.260   3.630  68.533  1.00  0.00    -0.051 N  
HETATM   23  H   UNL     1      -7.557   2.679  68.750  1.00  0.00     0.000 HD 
HETATM   24  C   UNL     1      -5.401   2.427  67.557  1.00  0.00    -0.017 C  
HETATM   25  O   UNL     1      -5.549   4.805  67.489  1.00  0.00    -0.015 OA 
HETATM   26  C   UNL     1      -6.063   3.759  67.858  1.00  0.00    -0.032 C  
ENDBRANCH  19  22
ENDBRANCH   8  16
BRANCH  13  27
HETATM   27  C   UNL     1      -9.877   9.644  65.258  1.00  0.00    -0.199 C  
HETATM   28  C   UNL     1      -9.509  10.730  64.274  1.00  0.00    -0.307 C  
HETATM   29  C   UNL     1      -9.235   9.301  63.931  1.00  0.00     0.136 C  
ENDBRANCH  13  27
BRANCH  10  30
HETATM   30  N   UNL     1      -7.071  12.939  68.047  1.00  0.00    -0.097 NA 
HETATM   31  H   UNL     1      -6.337  12.942  67.337  1.00  0.00     0.000 HD 
BRANCH  30  32
HETATM   32  C   UNL     1      -7.794  14.145  68.165  1.00  0.00    -0.142 A  
HETATM   33  C   UNL     1      -9.177  14.237  67.981  1.00  0.00    -0.192 A  
HETATM   34  C   UNL     1      -9.813  15.488  67.925  1.00  0.00    -0.216 A  
HETATM   35  C   UNL     1      -9.073  16.662  68.070  1.00  0.00    -0.218 A  
HETATM   36  C   UNL     1      -7.712  16.598  68.338  1.00  0.00    -0.200 A  
HETATM   37  I   UNL     1      -9.995  18.510  67.819  1.00  0.00    -0.460 I  
HETATM   38  C   UNL     1      -7.091  15.349  68.378  1.00  0.00    -0.111 A  
HETATM   39  F   UNL     1      -5.768  15.305  68.605  1.00  0.00    -0.083 F  
ENDBRANCH  30  32
ENDBRANCH  10  30
TORSDOF 5
ENDMDL
MODEL      127
REMARK 921   NORMALIZED FREE ENERGY PREDICTED BY IDOCK:   -2.80 KCAL/MOL
REMARK 922        TOTAL FREE ENERGY PREDICTED BY IDOCK:   -3.83 KCAL/MOL
REMARK 923 INTER-LIGAND FREE ENERGY PREDICTED BY IDOCK:   -4.71 KCAL/MOL
REMARK 924 INTRA-LIGAND FREE ENERGY PREDICTED BY IDOCK:    0.88 KCAL/MOL
REMARK 927      BINDING AFFINITY PREDICTED BY RF-SCORE:    0.00 PKD
ROOT
HETATM    1  C   UNL     1      -9.099  11.108  69.332  1.00  0.00     0.324 C  
HETATM    2  N   UNL     1      -8.725   9.742  68.982  1.00  0.00    -0.139 N  
HETATM    3  C   UNL     1      -8.564   8.876  70.049  1.00  0.00    -0.142 C  
HETATM    4  O   UNL     1      -8.501   9.256  71.218  1.00  0.00    -0.314 OA 
HETATM    5  C   UNL     1      -8.552   7.413  69.741  1.00  0.00    -0.140 C  
HETATM    6  C   UNL     1      -8.359   6.994  68.464  1.00  0.00    -0.121 C  
HETATM    7  C   UNL     1      -8.885   6.606  70.970  1.00  0.00    -0.142 C  
HETATM    8  N   UNL     1      -8.240   5.647  68.074  1.00  0.00    -0.101 N  
HETATM    9  C   UNL     1      -8.207   5.240  66.715  1.00  0.00    -0.108 C  
HETATM   10  C   UNL     1      -8.574   9.360  67.643  1.00  0.00    -0.116 C  
HETATM   11  O   UNL     1      -8.198   4.051  66.369  1.00  0.00    -0.101 OA 
HETATM   12  O   UNL     1      -8.661   8.337  65.036  1.00  0.00    -0.154 OA 
HETATM   13  N   UNL     1      -8.165   6.228  65.742  1.00  0.00    -0.129 N  
HETATM   14  C   UNL     1      -8.401   8.028  67.395  1.00  0.00    -0.123 C  
HETATM   15  C   UNL     1      -8.399   7.573  65.968  1.00  0.00    -0.136 C  
ENDROOT
BRANCH   8  16
HETATM   16  C   UNL     1      -7.911   4.550  68.977  1.00  0.00    -0.070 A  
HETATM   17  C   UNL     1      -6.582   4.364  69.390  1.00  0.00    -0.040 A  
HETATM   18  C   UNL     1      -7.306   2.934  71.188  1.00  0.00    -0.033 A  
HETATM   19  C   UNL     1      -8.627   3.008  70.732  1.00  0.00    -0.070 A  
HETATM   20  C   UNL     1      -8.925   3.814  69.618  1.00  0.00    -0.171 A  
HETATM   21  C   UNL     1      -6.281   3.576  70.498  1.00  0.00    -0.023 A  
BRANCH  19  22
HETATM   22  N   UNL     1      -9.589   2.283  71.474  1.00  0.00    -0.135 N  
HETATM   23  H   UNL     1      -9.872   1.382  71.089  1.00  0.00     0.000 HD 
HETATM   24  C   UNL     1     -11.177   1.631  73.180  1.00  0.00    -0.262 C  
HETATM   25  O   UNL     1      -9.971   3.684  73.287  1.00  0.00    -0.119 OA 
HETATM   26  C   UNL     1     -10.189   2.658  72.659  1.00  0.00    -0.159 C  
ENDBRANCH  19  22
ENDBRANCH   8  16
BRANCH  13  27
HETATM   27  C   UNL     1      -8.144   5.796  64.345  1.00  0.00    -0.133 C  
HETATM   28  C   UNL     1      -7.072   6.303  63.408  1.00  0.00    -0.053 C  
HETATM   29  C   UNL     1      -7.121   4.850  63.755  1.00  0.00    -0.049 C  
ENDBRANCH  13  27
BRANCH  10  30
HETATM   30  N   UNL     1      -8.676  10.354  66.679  1.00  0.00    -0.134 NA 
HETATM   31  H   UNL     1      -9.028  10.046  65.773  1.00  0.00     0.000 HD 
BRANCH  30  32
HETATM   32  C   UNL     1      -8.366  11.729  66.766  1.00  0.00    -0.165 A  
HETATM   33  C   UNL     1      -7.137  12.216  67.220  1.00  0.00    -0.144 A  
HETATM   34  C   UNL     1      -6.953  13.587  67.462  1.00  0.00    -0.157 A  
HETATM   35  C   UNL     1      -7.993  14.489  67.237  1.00  0.00    -0.191 A  
HETATM   36  C   UNL     1      -9.197  14.043  66.707  1.00  0.00    -0.280 A  
HETATM   37  I   UNL     1      -7.766  16.491  67.756  1.00  0.00    -0.196 I  
HETATM   38  C   UNL     1      -9.370  12.677  66.483  1.00  0.00    -0.228 A  
HETATM   39  F   UNL     1     -10.552  12.259  66.002  1.00  0.00    -0.258 F  
ENDBRANCH  30  32
ENDBRANCH  10  30
TORSDOF 5
ENDMDL
MODEL      128
REMARK 921   NORMALIZED FREE ENERGY PREDICTED BY IDOCK:   -2.78 KCAL/MOL
REMARK 922        TOTAL FREE ENERGY PREDICTED BY IDOCK:   -3.81 KCAL/MOL
REMARK 923 INTER-LIGAND FREE ENERGY PREDICTED BY IDOCK:   -3.62 KCAL/MOL
REMARK 924 INTRA-LIGAND FREE ENERGY PREDICTED BY IDOCK:   -0.19 KCAL/MOL
REMARK 927      BINDING AFFINITY PREDICTED BY RF-SCORE:    0.00 PKD
ROOT
HETATM    1  C   UNL     1      -6.386   5.020  69.805  1.00  0.00    -0.030 C  
HETATM    2  N   UNL     1      -6.587   6.268  69.078  1.00  0.00    -0.046 N  
HETATM    3  C   UNL     1      -7.016   7.340  69.840  1.00  0.00    -0.057 C  
HETATM    4  O   UNL     1      -7.432   7.220  70.993  1.00  0.00    -0.074 OA 
HETATM    5  C   UNL     1      -6.881   8.702  69.237  1.00  0.00    -0.050 C  
HETATM    6  C   UNL     1      -6.677   8.831  67.901  1.00  0.00    -0.066 C  
HETATM    7  C   UNL     1      -6.886   9.763  70.309  1.00  0.00    -0.123 C  
HETATM    8  N   UNL     1      -6.625  10.058  67.215  1.00  0.00    -0.069 N  
HETATM    9  C   UNL     1      -6.245  10.161  65.852  1.00  0.00    -0.096 C  
HETATM   10  C   UNL     1      -6.328   6.349  67.703  1.00  0.00    -0.040 C  
HETATM   11  O   UNL     1      -6.105  11.247  65.273  1.00  0.00     0.152 OA 
HETATM   12  O   UNL     1      -5.448   6.787  65.080  1.00  0.00    -0.025 OA 
HETATM   13  N   UNL     1      -6.042   8.986  65.143  1.00  0.00    -0.059 N  
HETATM   14  C   UNL     1      -6.369   7.591  67.137  1.00  0.00    -0.053 C  
HETATM   15  C   UNL     1      -5.938   7.728  65.709  1.00  0.00    -0.038 C  
ENDROOT
BRANCH   8  16
HETATM   16  C   UNL     1      -7.157  11.316  67.726  1.00  0.00    -0.087 A  
HETATM   17  C   UNL     1      -6.279  12.287  68.234  1.00  0.00    -0.054 A  
HETATM   18  C   UNL     1      -8.000  13.966  68.091  1.00  0.00    -0.148 A  
HETATM   19  C   UNL     1      -8.929  12.998  67.691  1.00  0.00    -0.192 A  
HETATM   20  C   UNL     1      -8.503  11.668  67.517  1.00  0.00    -0.150 A  
HETATM   21  C   UNL     1      -6.691  13.607  68.399  1.00  0.00    -0.100 A  
BRANCH  19  22
HETATM   22  N   UNL     1     -10.246  13.454  67.446  1.00  0.00    -0.235 N  
HETATM   23  H   UNL     1     -10.964  13.130  68.092  1.00  0.00     0.000 HD 
HETATM   24  C   UNL     1     -12.156  14.575  66.470  1.00  0.00    -0.330 C  
HETATM   25  O   UNL     1      -9.960  14.797  65.572  1.00  0.00    -0.342 OA 
HETATM   26  C   UNL     1     -10.666  14.289  66.430  1.00  0.00    -0.297 C  
ENDBRANCH  19  22
ENDBRANCH   8  16
BRANCH  13  27
HETATM   27  C   UNL     1      -5.639   9.106  63.742  1.00  0.00    -0.066 C  
HETATM   28  C   UNL     1      -6.492   8.500  62.651  1.00  0.00    -0.091 C  
HETATM   29  C   UNL     1      -6.331   9.985  62.723  1.00  0.00    -0.124 C  
ENDBRANCH  13  27
BRANCH  10  30
HETATM   30  N   UNL     1      -5.991   5.173  67.047  1.00  0.00    -0.025 NA 
HETATM   31  H   UNL     1      -4.996   4.944  67.051  1.00  0.00     0.000 HD 
BRANCH  30  32
HETATM   32  C   UNL     1      -6.816   4.246  66.375  1.00  0.00    -0.055 A  
HETATM   33  C   UNL     1      -6.351   3.038  65.848  1.00  0.00    -0.028 A  
HETATM   34  C   UNL     1      -7.174   2.247  65.029  1.00  0.00    -0.057 A  
HETATM   35  C   UNL     1      -8.479   2.650  64.742  1.00  0.00    -0.090 A  
HETATM   36  C   UNL     1      -8.994   3.803  65.320  1.00  0.00    -0.133 A  
HETATM   37  I   UNL     1      -9.631   1.560  63.396  1.00  0.00    -0.119 I  
HETATM   38  C   UNL     1      -8.162   4.584  66.121  1.00  0.00    -0.106 A  
HETATM   39  F   UNL     1      -8.665   5.714  66.646  1.00  0.00    -0.115 F  
ENDBRANCH  30  32
ENDBRANCH  10  30
TORSDOF 5
ENDMDL
MODEL      129
REMARK 921   NORMALIZED FREE ENERGY PREDICTED BY IDOCK:   -2.77 KCAL/MOL
REMARK 922        TOTAL FREE ENERGY PREDICTED BY IDOCK:   -3.79 KCAL/MOL
REMARK 923 INTER-LIGAND FREE ENERGY PREDICTED BY IDOCK:   -5.10 KCAL/MOL
REMARK 924 INTRA-LIGAND FREE ENERGY PREDICTED BY IDOCK:    1.31 KCAL/MOL
REMARK 927      BINDING AFFINITY PREDICTED BY RF-SCORE:    0.00 PKD
ROOT
HETATM    1  C   UNL     1      -6.337   8.952  66.969  1.00  0.00    -0.060 C  
HETATM    2  N   UNL     1      -7.432   9.641  67.643  1.00  0.00    -0.090 N  
HETATM    3  C   UNL     1      -7.578  10.980  67.328  1.00  0.00    -0.111 C  
HETATM    4  O   UNL     1      -6.724  11.623  66.717  1.00  0.00    -0.135 OA 
HETATM    5  C   UNL     1      -8.877  11.626  67.690  1.00  0.00    -0.159 C  
HETATM    6  C   UNL     1      -9.708  11.021  68.578  1.00  0.00    -0.189 C  
HETATM    7  C   UNL     1      -9.103  12.868  66.865  1.00  0.00    -0.224 C  
HETATM    8  N   UNL     1     -10.908  11.578  69.057  1.00  0.00    -0.214 N  
HETATM    9  C   UNL     1     -11.830  10.848  69.852  1.00  0.00    -0.349 C  
HETATM   10  C   UNL     1      -8.277   8.954  68.525  1.00  0.00    -0.116 C  
HETATM   11  O   UNL     1     -12.929  11.304  70.195  1.00  0.00    -0.023 OA 
HETATM   12  O   UNL     1     -10.298   7.645  69.956  1.00  0.00    -0.212 OA 
HETATM   13  N   UNL     1     -11.462   9.579  70.273  1.00  0.00    -0.237 N  
HETATM   14  C   UNL     1      -9.380   9.624  68.973  1.00  0.00    -0.159 C  
HETATM   15  C   UNL     1     -10.384   8.864  69.784  1.00  0.00    -0.207 C  
ENDROOT
BRANCH   8  16
HETATM   16  C   UNL     1     -11.244  12.995  68.999  1.00  0.00    -0.264 A  
HETATM   17  C   UNL     1     -11.017  13.810  70.120  1.00  0.00     0.388 A  
HETATM   18  C   UNL     1     -11.220  15.790  68.763  1.00  0.00    -0.342 A  
HETATM   19  C   UNL     1     -11.561  15.010  67.653  1.00  0.00    -0.312 A  
HETATM   20  C   UNL     1     -11.580  13.609  67.777  1.00  0.00    -0.373 A  
HETATM   21  C   UNL     1     -10.987  15.197  70.002  1.00  0.00    -0.291 A  
BRANCH  19  22
HETATM   22  N   UNL     1     -11.824  15.709  66.451  1.00  0.00     0.435 N  
HETATM   23  H   UNL     1     -12.326  16.591  66.542  1.00  0.00     0.000 HD 
HETATM   24  C   UNL     1     -11.918  16.326  64.113  1.00  0.00     0.507 C  
HETATM   25  O   UNL     1     -10.858  14.325  64.855  1.00  0.00    -0.373 OA 
HETATM   26  C   UNL     1     -11.477  15.331  65.170  1.00  0.00    -0.260 C  
ENDBRANCH  19  22
ENDBRANCH   8  16
BRANCH  13  27
HETATM   27  C   UNL     1     -12.426   8.832  71.082  1.00  0.00    -0.193 C  
HETATM   28  C   UNL     1     -11.985   8.161  72.362  1.00  0.00    -0.431 C  
HETATM   29  C   UNL     1     -12.960   9.293  72.421  1.00  0.00    -0.450 C  
ENDBRANCH  13  27
BRANCH  10  30
HETATM   30  N   UNL     1      -7.959   7.635  68.819  1.00  0.00    -0.123 NA 
HETATM   31  H   UNL     1      -7.999   6.993  68.027  1.00  0.00     0.000 HD 
BRANCH  30  32
HETATM   32  C   UNL     1      -7.588   7.050  70.048  1.00  0.00    -0.099 A  
HETATM   33  C   UNL     1      -6.894   7.733  71.051  1.00  0.00    -0.045 A  
HETATM   34  C   UNL     1      -6.388   7.049  72.169  1.00  0.00    -0.045 A  
HETATM   35  C   UNL     1      -6.585   5.674  72.303  1.00  0.00    -0.062 A  
HETATM   36  C   UNL     1      -7.342   4.985  71.364  1.00  0.00    -0.077 A  
HETATM   37  I   UNL     1      -5.691   4.644  73.873  1.00  0.00    -0.019 I  
HETATM   38  C   UNL     1      -7.827   5.675  70.253  1.00  0.00    -0.098 A  
HETATM   39  F   UNL     1      -8.529   4.987  69.337  1.00  0.00    -0.083 F  
ENDBRANCH  30  32
ENDBRANCH  10  30
TORSDOF 5
ENDMDL
MODEL      130
REMARK 921   NORMALIZED FREE ENERGY PREDICTED BY IDOCK:   -2.64 KCAL/MOL
REMARK 922        TOTAL FREE ENERGY PREDICTED BY IDOCK:   -3.62 KCAL/MOL
REMARK 923 INTER-LIGAND FREE ENERGY PREDICTED BY IDOCK:   -4.85 KCAL/MOL
REMARK 924 INTRA-LIGAND FREE ENERGY PREDICTED BY IDOCK:    1.23 KCAL/MOL
REMARK 927      BINDING AFFINITY PREDICTED BY RF-SCORE:    0.00 PKD
ROOT
HETATM    1  C   UNL     1     -11.996  14.028  66.492  1.00  0.00    -0.444 C  
HETATM    2  N   UNL     1     -10.924  13.186  67.012  1.00  0.00    -0.265 N  
HETATM    3  C   UNL     1     -10.877  11.900  66.505  1.00  0.00    -0.278 C  
HETATM    4  O   UNL     1     -11.792  11.403  65.849  1.00  0.00    -0.140 OA 
HETATM    5  C   UNL     1      -9.610  11.133  66.712  1.00  0.00    -0.215 C  
HETATM    6  C   UNL     1      -8.710  11.554  67.638  1.00  0.00    -0.142 C  
HETATM    7  C   UNL     1      -9.496  10.011  65.711  1.00  0.00    -0.270 C  
HETATM    8  N   UNL     1      -7.532  10.864  67.979  1.00  0.00    -0.088 N  
HETATM    9  C   UNL     1      -6.536  11.417  68.826  1.00  0.00    -0.064 C  
HETATM   10  C   UNL     1     -10.005  13.688  67.943  1.00  0.00    -0.244 C  
HETATM   11  O   UNL     1      -5.457  10.853  69.051  1.00  0.00    -0.041 OA 
HETATM   12  O   UNL     1      -7.852  14.656  69.451  1.00  0.00    -0.122 OA 
HETATM   13  N   UNL     1      -6.805  12.632  69.438  1.00  0.00    -0.022 N  
HETATM   14  C   UNL     1      -8.931  12.897  68.241  1.00  0.00    -0.175 C  
HETATM   15  C   UNL     1      -7.852  13.472  69.105  1.00  0.00     0.276 C  
ENDROOT
BRANCH   8  16
HETATM   16  C   UNL     1      -7.291   9.453  67.706  1.00  0.00    -0.083 A  
HETATM   17  C   UNL     1      -6.127   9.065  67.022  1.00  0.00    -0.058 A  
HETATM   18  C   UNL     1      -6.425   6.785  67.736  1.00  0.00    -0.050 A  
HETATM   19  C   UNL     1      -7.648   7.118  68.331  1.00  0.00    -0.118 A  
HETATM   20  C   UNL     1      -8.082   8.456  68.307  1.00  0.00    -0.120 A  
HETATM   21  C   UNL     1      -5.686   7.745  67.050  1.00  0.00    -0.032 A  
BRANCH  19  22
HETATM   22  N   UNL     1      -8.347   6.062  68.964  1.00  0.00    -0.110 N  
HETATM   23  H   UNL     1      -7.841   5.182  69.066  1.00  0.00     0.000 HD 
HETATM   24  C   UNL     1     -10.065   4.773  70.078  1.00  0.00    -0.308 C  
HETATM   25  O   UNL     1     -10.392   7.049  69.452  1.00  0.00    -0.193 OA 
HETATM   26  C   UNL     1      -9.635   6.090  69.458  1.00  0.00    -0.143 C  
ENDBRANCH  19  22
ENDBRANCH   8  16
BRANCH  13  27
HETATM   27  C   UNL     1      -5.766  13.196  70.299  1.00  0.00    -0.155 C  
HETATM   28  C   UNL     1      -5.943  14.570  70.905  1.00  0.00    -0.152 C  
HETATM   29  C   UNL     1      -5.896  13.371  71.797  1.00  0.00     0.321 C  
ENDBRANCH  13  27
BRANCH  10  30
HETATM   30  N   UNL     1     -10.226  14.967  68.433  1.00  0.00    -0.224 NA 
HETATM   31  H   UNL     1     -10.735  15.011  69.317  1.00  0.00     0.000 HD 
BRANCH  30  32
HETATM   32  C   UNL     1      -9.853  16.217  67.893  1.00  0.00    -0.235 A  
HETATM   33  C   UNL     1      -9.615  16.430  66.532  1.00  0.00    -0.291 A  
HETATM   34  C   UNL     1      -9.066  17.641  66.080  1.00  0.00    -0.041 A  
HETATM   35  C   UNL     1      -8.763  18.659  66.985  1.00  0.00    -0.280 A  
HETATM   36  C   UNL     1      -9.066  18.506  68.331  1.00  0.00    -0.345 A  
HETATM   37  I   UNL     1      -7.796  20.380  66.327  1.00  0.00     0.093 I  
HETATM   38  C   UNL     1      -9.600  17.294  68.768  1.00  0.00    -0.269 A  
HETATM   39  F   UNL     1      -9.857  17.150  70.078  1.00  0.00     0.176 F  
ENDBRANCH  30  32
ENDBRANCH  10  30
TORSDOF 5
ENDMDL
MODEL      131
REMARK 921   NORMALIZED FREE ENERGY PREDICTED BY IDOCK:   -2.60 KCAL/MOL
REMARK 922        TOTAL FREE ENERGY PREDICTED BY IDOCK:   -3.58 KCAL/MOL
REMARK 923 INTER-LIGAND FREE ENERGY PREDICTED BY IDOCK:   -4.16 KCAL/MOL
REMARK 924 INTRA-LIGAND FREE ENERGY PREDICTED BY IDOCK:    0.59 KCAL/MOL
REMARK 927      BINDING AFFINITY PREDICTED BY RF-SCORE:    0.00 PKD
ROOT
HETATM    1  C   UNL     1     -11.873   6.944  71.371  1.00  0.00    -0.330 C  
HETATM    2  N   UNL     1     -11.354   7.897  70.397  1.00  0.00    -0.238 N  
HETATM    3  C   UNL     1     -11.866   9.179  70.485  1.00  0.00    -0.095 C  
HETATM    4  O   UNL     1     -12.855   9.461  71.162  1.00  0.00    -0.310 OA 
HETATM    5  C   UNL     1     -11.116  10.262  69.778  1.00  0.00    -0.340 C  
HETATM    6  C   UNL     1     -10.197   9.939  68.832  1.00  0.00    -0.196 C  
HETATM    7  C   UNL     1     -11.456  11.612  70.356  1.00  0.00     0.001 C  
HETATM    8  N   UNL     1      -9.499  10.873  68.043  1.00  0.00    -0.159 N  
HETATM    9  C   UNL     1      -8.429  10.507  67.186  1.00  0.00    -0.127 C  
HETATM   10  C   UNL     1     -10.380   7.513  69.465  1.00  0.00    -0.216 C  
HETATM   11  O   UNL     1      -7.752  11.337  66.565  1.00  0.00    -0.152 OA 
HETATM   12  O   UNL     1      -8.145   7.029  67.847  1.00  0.00    -0.113 OA 
HETATM   13  N   UNL     1      -8.152   9.157  67.032  1.00  0.00    -0.109 N  
HETATM   14  C   UNL     1      -9.819   8.504  68.711  1.00  0.00    -0.180 C  
HETATM   15  C   UNL     1      -8.665   8.147  67.826  1.00  0.00    -0.130 C  
ENDROOT
BRANCH   8  16
HETATM   16  C   UNL     1      -9.916  12.253  67.832  1.00  0.00    -0.202 A  
HETATM   17  C   UNL     1      -9.202  13.297  68.444  1.00  0.00    -0.145 A  
HETATM   18  C   UNL     1     -10.214  14.903  66.962  1.00  0.00    -0.256 A  
HETATM   19  C   UNL     1     -11.023  13.904  66.409  1.00  0.00    -0.303 A  
HETATM   20  C   UNL     1     -10.875  12.577  66.854  1.00  0.00    -0.280 A  
HETATM   21  C   UNL     1      -9.336  14.610  68.002  1.00  0.00    -0.198 A  
BRANCH  19  22
HETATM   22  N   UNL     1     -11.916  14.310  65.390  1.00  0.00    -0.370 N  
HETATM   23  H   UNL     1     -12.577  15.046  65.635  1.00  0.00     0.000 HD 
HETATM   24  C   UNL     1     -13.073  14.493  63.272  1.00  0.00     2.471 C  
HETATM   25  O   UNL     1     -11.279  12.960  63.610  1.00  0.00    -0.430 OA 
HETATM   26  C   UNL     1     -11.993  13.822  64.101  1.00  0.00    -0.432 C  
ENDBRANCH  19  22
ENDBRANCH   8  16
BRANCH  13  27
HETATM   27  C   UNL     1      -7.039   8.793  66.154  1.00  0.00    -0.085 C  
HETATM   28  C   UNL     1      -6.840   7.355  65.735  1.00  0.00    -0.056 C  
HETATM   29  C   UNL     1      -7.188   8.382  64.706  1.00  0.00    -0.082 C  
ENDBRANCH  13  27
BRANCH  10  30
HETATM   30  N   UNL     1     -10.023   6.172  69.431  1.00  0.00    -0.159 NA 
HETATM   31  H   UNL     1     -10.228   5.690  68.555  1.00  0.00     0.000 HD 
BRANCH  30  32
HETATM   32  C   UNL     1      -9.419   5.374  70.426  1.00  0.00    -0.164 A  
HETATM   33  C   UNL     1      -8.998   5.870  71.663  1.00  0.00    -0.142 A  
HETATM   34  C   UNL     1      -8.235   5.075  72.535  1.00  0.00    -0.116 A  
HETATM   35  C   UNL     1      -7.900   3.767  72.184  1.00  0.00    -0.068 A  
HETATM   36  C   UNL     1      -8.375   3.221  70.999  1.00  0.00    -0.090 A  
HETATM   37  I   UNL     1      -6.632   2.656  73.404  1.00  0.00    -0.024 I  
HETATM   38  C   UNL     1      -9.121   4.026  70.137  1.00  0.00    -0.117 A  
HETATM   39  F   UNL     1      -9.545   3.493  68.980  1.00  0.00    -0.222 F  
ENDBRANCH  30  32
ENDBRANCH  10  30
TORSDOF 5
ENDMDL
MODEL      132
REMARK 921   NORMALIZED FREE ENERGY PREDICTED BY IDOCK:   -2.52 KCAL/MOL
REMARK 922        TOTAL FREE ENERGY PREDICTED BY IDOCK:   -3.46 KCAL/MOL
REMARK 923 INTER-LIGAND FREE ENERGY PREDICTED BY IDOCK:   -3.67 KCAL/MOL
REMARK 924 INTRA-LIGAND FREE ENERGY PREDICTED BY IDOCK:    0.20 KCAL/MOL
REMARK 927      BINDING AFFINITY PREDICTED BY RF-SCORE:    0.00 PKD
ROOT
HETATM    1  C   UNL     1      -7.557   8.227  69.975  1.00  0.00    -0.072 C  
HETATM    2  N   UNL     1      -8.208   9.062  68.972  1.00  0.00    -0.117 N  
HETATM    3  C   UNL     1      -8.966  10.108  69.466  1.00  0.00    -0.188 C  
HETATM    4  O   UNL     1      -9.278  10.207  70.653  1.00  0.00     0.188 OA 
HETATM    5  C   UNL     1      -9.338  11.192  68.507  1.00  0.00    -0.190 C  
HETATM    6  C   UNL     1      -9.231  10.976  67.170  1.00  0.00    -0.152 C  
HETATM    7  C   UNL     1      -9.687  12.461  69.244  1.00  0.00     0.674 C  
HETATM    8  N   UNL     1      -9.636  11.889  66.178  1.00  0.00    -0.231 N  
HETATM    9  C   UNL     1      -9.356  11.699  64.800  1.00  0.00     0.018 C  
HETATM   10  C   UNL     1      -8.034   8.809  67.605  1.00  0.00    -0.106 C  
HETATM   11  O   UNL     1      -9.627  12.545  63.937  1.00  0.00    -0.084 OA 
HETATM   12  O   UNL     1      -7.441   8.709  64.868  1.00  0.00    -0.087 OA 
HETATM   13  N   UNL     1      -8.772  10.502  64.414  1.00  0.00    -0.186 N  
HETATM   14  C   UNL     1      -8.527   9.740  66.735  1.00  0.00    -0.125 C  
HETATM   15  C   UNL     1      -8.213   9.578  65.279  1.00  0.00    -0.130 C  
ENDROOT
BRANCH   8  16
HETATM   16  C   UNL     1     -10.563  12.992  66.397  1.00  0.00    -0.284 A  
HETATM   17  C   UNL     1     -11.910  12.721  66.693  1.00  0.00    -0.462 A  
HETATM   18  C   UNL     1     -12.226  14.976  67.479  1.00  0.00     0.236 A  
HETATM   19  C   UNL     1     -10.923  15.308  67.090  1.00  0.00    -0.331 A  
HETATM   20  C   UNL     1     -10.095  14.312  66.540  1.00  0.00    -0.283 A  
HETATM   21  C   UNL     1     -12.731  13.700  67.247  1.00  0.00     0.563 A  
BRANCH  19  22
HETATM   22  N   UNL     1     -10.517  16.643  67.326  1.00  0.00    -0.320 N  
HETATM   23  H   UNL     1     -10.693  17.309  66.574  1.00  0.00     0.000 HD 
HETATM   24  C   UNL     1      -9.616  18.631  68.371  1.00  0.00    -0.396 C  
HETATM   25  O   UNL     1      -9.637  16.517  69.472  1.00  0.00    -0.164 OA 
HETATM   26  C   UNL     1      -9.911  17.145  68.460  1.00  0.00    -0.309 C  
ENDBRANCH  19  22
ENDBRANCH   8  16
BRANCH  13  27
HETATM   27  C   UNL     1      -8.478  10.324  62.992  1.00  0.00    -0.180 C  
HETATM   28  C   UNL     1      -7.303  11.037  62.364  1.00  0.00    -0.017 C  
HETATM   29  C   UNL     1      -7.299   9.545  62.452  1.00  0.00    -0.107 C  
ENDBRANCH  13  27
BRANCH  10  30
HETATM   30  N   UNL     1      -7.321   7.671  67.251  1.00  0.00    -0.089 NA 
HETATM   31  H   UNL     1      -6.327   7.692  67.482  1.00  0.00     0.000 HD 
BRANCH  30  32
HETATM   32  C   UNL     1      -7.765   6.490  66.620  1.00  0.00    -0.099 A  
HETATM   33  C   UNL     1      -9.068   5.996  66.733  1.00  0.00    -0.134 A  
HETATM   34  C   UNL     1      -9.400   4.723  66.240  1.00  0.00    -0.149 A  
HETATM   35  C   UNL     1      -8.433   3.936  65.614  1.00  0.00    -0.110 A  
HETATM   36  C   UNL     1      -7.152   4.434  65.414  1.00  0.00    -0.067 A  
HETATM   37  I   UNL     1      -8.890   1.989  65.039  1.00  0.00    -0.107 I  
HETATM   38  C   UNL     1      -6.834   5.695  65.919  1.00  0.00    -0.057 A  
HETATM   39  F   UNL     1      -5.581   6.149  65.747  1.00  0.00    -0.015 F  
ENDBRANCH  30  32
ENDBRANCH  10  30
TORSDOF 5
ENDMDL
MODEL      133
REMARK 921   NORMALIZED FREE ENERGY PREDICTED BY IDOCK:   -2.28 KCAL/MOL
REMARK 922        TOTAL FREE ENERGY PREDICTED BY IDOCK:   -3.15 KCAL/MOL
REMARK 923 INTER-LIGAND FREE ENERGY PREDICTED BY IDOCK:   -7.16 KCAL/MOL
REMARK 924 INTRA-LIGAND FREE ENERGY PREDICTED BY IDOCK:    4.00 KCAL/MOL
REMARK 927      BINDING AFFINITY PREDICTED BY RF-SCORE:    0.00 PKD
ROOT
HETATM    1  C   UNL     1     -11.929  11.719  66.659  1.00  0.00     0.252 C  
HETATM    2  N   UNL     1     -10.836  12.574  67.107  1.00  0.00    -0.244 N  
HETATM    3  C   UNL     1     -11.089  13.934  67.071  1.00  0.00    -0.301 C  
HETATM    4  O   UNL     1     -12.058  14.421  66.489  1.00  0.00    -0.418 OA 
HETATM    5  C   UNL     1     -10.169  14.818  67.851  1.00  0.00    -0.229 C  
HETATM    6  C   UNL     1      -8.970  14.340  68.272  1.00  0.00    -0.187 C  
HETATM    7  C   UNL     1     -10.826  16.143  68.147  1.00  0.00    -0.329 C  
HETATM    8  N   UNL     1      -7.992  15.106  68.933  1.00  0.00    -0.164 N  
HETATM    9  C   UNL     1      -6.825  14.535  69.504  1.00  0.00    -0.152 C  
HETATM   10  C   UNL     1      -9.632  12.021  67.562  1.00  0.00    -0.177 C  
HETATM   11  O   UNL     1      -6.011  15.191  70.168  1.00  0.00    -0.133 OA 
HETATM   12  O   UNL     1      -7.358  11.076  68.898  1.00  0.00    -0.094 OA 
HETATM   13  N   UNL     1      -6.589  13.186  69.286  1.00  0.00    -0.107 N  
HETATM   14  C   UNL     1      -8.732  12.878  68.130  1.00  0.00    -0.190 C  
HETATM   15  C   UNL     1      -7.511  12.293  68.770  1.00  0.00    -0.065 C  
ENDROOT
BRANCH   8  16
HETATM   16  C   UNL     1      -7.931  16.563  68.917  1.00  0.00    -0.239 A  
HETATM   17  C   UNL     1      -6.791  17.217  69.414  1.00  0.00    -0.165 A  
HETATM   18  C   UNL     1      -7.445  19.260  68.319  1.00  0.00    -0.335 A  
HETATM   19  C   UNL     1      -8.644  18.669  67.904  1.00  0.00    -0.284 A  
HETATM   20  C   UNL     1      -8.887  17.318  68.213  1.00  0.00    -0.258 A  
HETATM   21  C   UNL     1      -6.540  18.550  69.104  1.00  0.00    -0.281 A  
BRANCH  19  22
HETATM   22  N   UNL     1      -9.519  19.486  67.149  1.00  0.00    -0.319 N  
HETATM   23  H   UNL     1      -9.705  20.416  67.524  1.00  0.00     0.000 HD 
HETATM   24  C   UNL     1     -11.018  20.289  65.428  1.00  0.00     0.182 C  
HETATM   25  O   UNL     1     -10.039  18.117  65.346  1.00  0.00    -0.344 OA 
HETATM   26  C   UNL     1     -10.148  19.167  65.964  1.00  0.00    -0.373 C  
ENDBRANCH  19  22
ENDBRANCH   8  16
BRANCH  13  27
HETATM   27  C   UNL     1      -5.390  12.606  69.891  1.00  0.00    -0.094 C  
HETATM   28  C   UNL     1      -5.211  12.622  71.392  1.00  0.00    -0.123 C  
HETATM   29  C   UNL     1      -5.366  11.316  70.682  1.00  0.00    -0.124 C  
ENDBRANCH  13  27
BRANCH  10  30
HETATM   30  N   UNL     1      -9.482  10.645  67.458  1.00  0.00    -0.153 NA 
HETATM   31  H   UNL     1      -8.928  10.328  66.661  1.00  0.00     0.000 HD 
BRANCH  30  32
HETATM   32  C   UNL     1      -9.980   9.618  68.288  1.00  0.00    -0.155 A  
HETATM   33  C   UNL     1     -10.359   9.817  69.619  1.00  0.00    -0.259 A  
HETATM   34  C   UNL     1     -10.667   8.726  70.449  1.00  0.00    -0.254 A  
HETATM   35  C   UNL     1     -10.615   7.424  69.951  1.00  0.00    -0.236 A  
HETATM   36  C   UNL     1     -10.323   7.203  68.611  1.00  0.00    -0.200 A  
HETATM   37  I   UNL     1     -10.909   5.809  71.229  1.00  0.00    -0.182 I  
HETATM   38  C   UNL     1     -10.007   8.295  67.802  1.00  0.00    -0.186 A  
HETATM   39  F   UNL     1      -9.694   8.061  66.516  1.00  0.00    -0.240 F  
ENDBRANCH  30  32
ENDBRANCH  10  30
TORSDOF 5
ENDMDL
MODEL      134
REMARK 921   NORMALIZED FREE ENERGY PREDICTED BY IDOCK:   -2.20 KCAL/MOL
REMARK 922        TOTAL FREE ENERGY PREDICTED BY IDOCK:   -3.06 KCAL/MOL
REMARK 923 INTER-LIGAND FREE ENERGY PREDICTED BY IDOCK:   -7.68 KCAL/MOL
REMARK 924 INTRA-LIGAND FREE ENERGY PREDICTED BY IDOCK:    4.63 KCAL/MOL
REMARK 927      BINDING AFFINITY PREDICTED BY RF-SCORE:    0.00 PKD
ROOT
HETATM    1  C   UNL     1     -13.595  14.452  70.912  1.00  0.00    -0.102 C  
HETATM    2  N   UNL     1     -12.800  13.266  70.616  1.00  0.00    -0.125 N  
HETATM    3  C   UNL     1     -12.716  12.334  71.636  1.00  0.00    -0.203 C  
HETATM    4  O   UNL     1     -13.074  12.569  72.790  1.00  0.00    -0.082 OA 
HETATM    5  C   UNL     1     -12.242  10.965  71.269  1.00  0.00    -0.395 C  
HETATM    6  C   UNL     1     -11.607  10.765  70.085  1.00  0.00    -0.337 C  
HETATM    7  C   UNL     1     -12.677   9.955  72.300  1.00  0.00    -0.283 C  
HETATM    8  N   UNL     1     -11.041   9.543  69.677  1.00  0.00    -0.211 N  
HETATM    9  C   UNL     1     -10.536   9.329  68.369  1.00  0.00    -0.206 C  
HETATM   10  C   UNL     1     -12.195  13.101  69.363  1.00  0.00    -0.137 C  
HETATM   11  O   UNL     1     -10.125   8.228  67.979  1.00  0.00    -0.182 OA 
HETATM   12  O   UNL     1     -11.301  12.421  66.797  1.00  0.00    -0.295 OA 
HETATM   13  N   UNL     1     -10.487  10.414  67.505  1.00  0.00    -0.227 N  
HETATM   14  C   UNL     1     -11.622  11.887  69.107  1.00  0.00    -0.373 C  
HETATM   15  C   UNL     1     -11.114  11.628  67.723  1.00  0.00    -0.249 C  
ENDROOT
BRANCH   8  16
HETATM   16  C   UNL     1     -10.698   8.449  70.577  1.00  0.00    -0.227 A  
HETATM   17  C   UNL     1     -10.796   8.634  71.966  1.00  0.00    -0.430 A  
HETATM   18  C   UNL     1     -10.718   6.253  72.323  1.00  0.00    -0.263 A  
HETATM   19  C   UNL     1     -10.506   6.042  70.956  1.00  0.00    -0.229 A  
HETATM   20  C   UNL     1     -10.489   7.147  70.085  1.00  0.00    -0.231 A  
HETATM   21  C   UNL     1     -10.824   7.545  72.833  1.00  0.00    -0.425 A  
BRANCH  19  22
HETATM   22  N   UNL     1     -10.365   4.696  70.542  1.00  0.00    -0.130 N  
HETATM   23  H   UNL     1     -11.081   4.046  70.867  1.00  0.00     0.000 HD 
HETATM   24  C   UNL     1      -9.533   2.676  69.501  1.00  0.00    -0.134 C  
HETATM   25  O   UNL     1      -8.440   4.778  69.245  1.00  0.00    -0.080 OA 
HETATM   26  C   UNL     1      -9.369   4.164  69.748  1.00  0.00    -0.167 C  
ENDBRANCH  19  22
ENDBRANCH   8  16
BRANCH  13  27
HETATM   27  C   UNL     1      -9.976  10.177  66.155  1.00  0.00    -0.246 C  
HETATM   28  C   UNL     1      -8.507   9.894  65.938  1.00  0.00    -0.137 C  
HETATM   29  C   UNL     1      -9.515   8.832  65.636  1.00  0.00    -0.171 C  
ENDBRANCH  13  27
BRANCH  10  30
HETATM   30  N   UNL     1     -12.285  14.157  68.466  1.00  0.00    -0.561 NA 
HETATM   31  H   UNL     1     -13.076  14.114  67.823  1.00  0.00     0.000 HD 
BRANCH  30  32
HETATM   32  C   UNL     1     -11.446  15.281  68.310  1.00  0.00    -0.347 A  
HETATM   33  C   UNL     1     -11.924  16.579  68.108  1.00  0.00     0.688 A  
HETATM   34  C   UNL     1     -11.047  17.623  67.772  1.00  0.00     0.045 A  
HETATM   35  C   UNL     1      -9.678  17.383  67.650  1.00  0.00    -0.270 A  
HETATM   36  C   UNL     1      -9.166  16.122  67.928  1.00  0.00    -0.200 A  
HETATM   37  I   UNL     1      -8.411  18.895  66.990  1.00  0.00    -0.337 I  
HETATM   38  C   UNL     1     -10.050  15.091  68.248  1.00  0.00    -0.222 A  
HETATM   39  F   UNL     1      -9.542  13.870  68.481  1.00  0.00    -0.203 F  
ENDBRANCH  30  32
ENDBRANCH  10  30
TORSDOF 5
ENDMDL
MODEL      135
REMARK 921   NORMALIZED FREE ENERGY PREDICTED BY IDOCK:   -2.19 KCAL/MOL
REMARK 922        TOTAL FREE ENERGY PREDICTED BY IDOCK:   -3.05 KCAL/MOL
REMARK 923 INTER-LIGAND FREE ENERGY PREDICTED BY IDOCK:   -5.64 KCAL/MOL
REMARK 924 INTRA-LIGAND FREE ENERGY PREDICTED BY IDOCK:    2.60 KCAL/MOL
REMARK 927      BINDING AFFINITY PREDICTED BY RF-SCORE:    0.00 PKD
ROOT
HETATM    1  C   UNL     1      -6.692   8.445  70.082  1.00  0.00    -0.039 C  
HETATM    2  N   UNL     1      -7.436   8.963  68.940  1.00  0.00    -0.081 N  
HETATM    3  C   UNL     1      -8.208  10.084  69.190  1.00  0.00    -0.137 C  
HETATM    4  O   UNL     1      -8.455  10.489  70.326  1.00  0.00     0.269 OA 
HETATM    5  C   UNL     1      -8.683  10.861  68.005  1.00  0.00    -0.132 C  
HETATM    6  C   UNL     1      -8.647  10.298  66.770  1.00  0.00    -0.127 C  
HETATM    7  C   UNL     1      -9.043  12.271  68.400  1.00  0.00    -0.146 C  
HETATM    8  N   UNL     1      -9.148  10.901  65.601  1.00  0.00    -0.199 N  
HETATM    9  C   UNL     1      -8.943  10.356  64.307  1.00  0.00    -0.226 C  
HETATM   10  C   UNL     1      -7.333   8.358  67.681  1.00  0.00    -0.093 C  
HETATM   11  O   UNL     1      -9.300  10.932  63.271  1.00  0.00    -0.246 OA 
HETATM   12  O   UNL     1      -6.899   7.544  65.035  1.00  0.00    -0.046 OA 
HETATM   13  N   UNL     1      -8.331   9.115  64.214  1.00  0.00    -0.165 N  
HETATM   14  C   UNL     1      -7.916   9.009  66.631  1.00  0.00    -0.100 C  
HETATM   15  C   UNL     1      -7.683   8.471  65.253  1.00  0.00    -0.097 C  
ENDROOT
BRANCH   8  16
HETATM   16  C   UNL     1     -10.108  11.998  65.582  1.00  0.00    -0.243 A  
HETATM   17  C   UNL     1     -11.395  11.787  65.060  1.00  0.00    -0.288 A  
HETATM   18  C   UNL     1     -12.188  13.803  66.113  1.00  0.00    -0.499 A  
HETATM   19  C   UNL     1     -10.892  14.099  66.552  1.00  0.00    -0.298 A  
HETATM   20  C   UNL     1      -9.851  13.195  66.276  1.00  0.00    -0.284 A  
HETATM   21  C   UNL     1     -12.433  12.673  65.337  1.00  0.00    -0.421 A  
BRANCH  19  22
HETATM   22  N   UNL     1     -10.738  15.294  67.294  1.00  0.00    -0.305 N  
HETATM   23  H   UNL     1     -10.301  16.076  66.807  1.00  0.00     0.000 HD 
HETATM   24  C   UNL     1     -10.797  16.926  69.080  1.00  0.00    -0.237 C  
HETATM   25  O   UNL     1     -11.667  14.723  69.345  1.00  0.00    -0.289 OA 
HETATM   26  C   UNL     1     -11.112  15.521  68.603  1.00  0.00    -0.297 C  
ENDBRANCH  19  22
ENDBRANCH   8  16
BRANCH  13  27
HETATM   27  C   UNL     1      -8.114   8.570  62.874  1.00  0.00    -0.176 C  
HETATM   28  C   UNL     1      -6.911   7.699  62.593  1.00  0.00    -0.075 C  
HETATM   29  C   UNL     1      -8.283   7.112  62.503  1.00  0.00    -0.042 C  
ENDBRANCH  13  27
BRANCH  10  30
HETATM   30  N   UNL     1      -6.594   7.186  67.594  1.00  0.00    -0.054 NA 
HETATM   31  H   UNL     1      -5.617   7.308  67.325  1.00  0.00     0.000 HD 
BRANCH  30  32
HETATM   32  C   UNL     1      -6.990   5.851  67.824  1.00  0.00    -0.069 A  
HETATM   33  C   UNL     1      -7.957   5.191  67.059  1.00  0.00    -0.100 A  
HETATM   34  C   UNL     1      -8.445   3.933  67.449  1.00  0.00    -0.103 A  
HETATM   35  C   UNL     1      -7.959   3.314  68.602  1.00  0.00    -0.057 A  
HETATM   36  C   UNL     1      -6.940   3.909  69.334  1.00  0.00    -0.046 A  
HETATM   37  I   UNL     1      -8.806   1.532  69.262  1.00  0.00    -0.158 I  
HETATM   38  C   UNL     1      -6.473   5.164  68.942  1.00  0.00    -0.036 A  
HETATM   39  F   UNL     1      -5.510   5.741  69.679  1.00  0.00    -0.004 F  
ENDBRANCH  30  32
ENDBRANCH  10  30
TORSDOF 5
ENDMDL
MODEL      136
REMARK 921   NORMALIZED FREE ENERGY PREDICTED BY IDOCK:   -2.19 KCAL/MOL
REMARK 922        TOTAL FREE ENERGY PREDICTED BY IDOCK:   -3.05 KCAL/MOL
REMARK 923 INTER-LIGAND FREE ENERGY PREDICTED BY IDOCK:   -4.87 KCAL/MOL
REMARK 924 INTRA-LIGAND FREE ENERGY PREDICTED BY IDOCK:    1.83 KCAL/MOL
REMARK 927      BINDING AFFINITY PREDICTED BY RF-SCORE:    0.00 PKD
ROOT
HETATM    1  C   UNL     1     -13.653   9.636  71.362  1.00  0.00    -0.271 C  
HETATM    2  N   UNL     1     -12.268   9.449  70.946  1.00  0.00    -0.264 N  
HETATM    3  C   UNL     1     -11.679   8.263  71.349  1.00  0.00    -0.287 C  
HETATM    4  O   UNL     1     -12.180   7.518  72.191  1.00  0.00    -0.293 OA 
HETATM    5  C   UNL     1     -10.420   7.858  70.652  1.00  0.00    -0.216 C  
HETATM    6  C   UNL     1      -9.726   8.772  69.926  1.00  0.00    -0.178 C  
HETATM    7  C   UNL     1     -10.181   6.377  70.800  1.00  0.00    -0.228 C  
HETATM    8  N   UNL     1      -8.487   8.527  69.306  1.00  0.00    -0.126 N  
HETATM    9  C   UNL     1      -7.876   9.451  68.419  1.00  0.00    -0.090 C  
HETATM   10  C   UNL     1     -11.615  10.414  70.169  1.00  0.00    -0.312 C  
HETATM   11  O   UNL     1      -6.834   9.198  67.798  1.00  0.00    -0.074 OA 
HETATM   12  O   UNL     1     -10.325  12.019  68.269  1.00  0.00    -0.192 OA 
HETATM   13  N   UNL     1      -8.470  10.694  68.265  1.00  0.00    -0.122 N  
HETATM   14  C   UNL     1     -10.386  10.082  69.672  1.00  0.00    -0.274 C  
HETATM   15  C   UNL     1      -9.738  11.026  68.707  1.00  0.00    -0.191 C  
ENDROOT
BRANCH   8  16
HETATM   16  C   UNL     1      -7.588   7.434  69.656  1.00  0.00    -0.095 A  
HETATM   17  C   UNL     1      -6.599   7.634  70.634  1.00  0.00    -0.038 A  
HETATM   18  C   UNL     1      -6.291   5.256  70.856  1.00  0.00    -0.023 A  
HETATM   19  C   UNL     1      -7.189   5.028  69.807  1.00  0.00    -0.055 A  
HETATM   20  C   UNL     1      -7.831   6.125  69.202  1.00  0.00    -0.104 A  
HETATM   21  C   UNL     1      -5.967   6.553  71.243  1.00  0.00    -0.036 A  
BRANCH  19  22
HETATM   22  N   UNL     1      -7.418   3.676  69.457  1.00  0.00    -0.052 N  
HETATM   23  H   UNL     1      -6.590   3.088  69.359  1.00  0.00     0.000 HD 
HETATM   24  C   UNL     1      -8.507   1.594  68.879  1.00  0.00    -0.081 C  
HETATM   25  O   UNL     1      -9.735   3.588  69.322  1.00  0.00    -0.143 OA 
HETATM   26  C   UNL     1      -8.634   3.064  69.234  1.00  0.00    -0.068 C  
ENDBRANCH  19  22
ENDBRANCH   8  16
BRANCH  13  27
HETATM   27  C   UNL     1      -7.837  11.633  67.339  1.00  0.00    -0.147 C  
HETATM   28  C   UNL     1      -6.817  11.142  66.337  1.00  0.00    -0.095 C  
HETATM   29  C   UNL     1      -8.119  11.694  65.853  1.00  0.00     0.319 C  
ENDBRANCH  13  27
BRANCH  10  30
HETATM   30  N   UNL     1     -12.295  11.597  69.914  1.00  0.00    -0.204 NA 
HETATM   31  H   UNL     1     -12.810  11.621  69.034  1.00  0.00     0.000 HD 
BRANCH  30  32
HETATM   32  C   UNL     1     -12.382  12.772  70.692  1.00  0.00    -0.297 A  
HETATM   33  C   UNL     1     -11.420  13.785  70.670  1.00  0.00     0.158 A  
HETATM   34  C   UNL     1     -11.463  14.838  71.599  1.00  0.00    -0.167 A  
HETATM   35  C   UNL     1     -12.481  14.895  72.552  1.00  0.00    -0.346 A  
HETATM   36  C   UNL     1     -13.496  13.948  72.544  1.00  0.00    -0.676 A  
HETATM   37  I   UNL     1     -12.442  16.362  74.027  1.00  0.00    -0.124 I  
HETATM   38  C   UNL     1     -13.434  12.902  71.623  1.00  0.00    -0.174 A  
HETATM   39  F   UNL     1     -14.406  11.975  71.649  1.00  0.00     0.696 F  
ENDBRANCH  30  32
ENDBRANCH  10  30
TORSDOF 5
ENDMDL
MODEL      137
REMARK 921   NORMALIZED FREE ENERGY PREDICTED BY IDOCK:   -2.11 KCAL/MOL
REMARK 922        TOTAL FREE ENERGY PREDICTED BY IDOCK:   -2.94 KCAL/MOL
REMARK 923 INTER-LIGAND FREE ENERGY PREDICTED BY IDOCK:   -5.86 KCAL/MOL
REMARK 924 INTRA-LIGAND FREE ENERGY PREDICTED BY IDOCK:    2.93 KCAL/MOL
REMARK 927      BINDING AFFINITY PREDICTED BY RF-SCORE:    0.00 PKD
ROOT
HETATM    1  C   UNL     1     -12.774   9.571  72.475  1.00  0.00    -0.136 C  
HETATM    2  N   UNL     1     -11.676   8.996  71.706  1.00  0.00    -0.347 N  
HETATM    3  C   UNL     1     -10.878   8.094  72.388  1.00  0.00    -0.339 C  
HETATM    4  O   UNL     1     -10.921   7.951  73.610  1.00  0.00    -0.141 OA 
HETATM    5  C   UNL     1      -9.993   7.213  71.566  1.00  0.00    -0.190 C  
HETATM    6  C   UNL     1      -9.741   7.529  70.270  1.00  0.00    -0.179 C  
HETATM    7  C   UNL     1      -9.594   5.984  72.344  1.00  0.00    -0.162 C  
HETATM    8  N   UNL     1      -8.856   6.825  69.433  1.00  0.00    -0.135 N  
HETATM    9  C   UNL     1      -8.746   7.082  68.042  1.00  0.00    -0.126 C  
HETATM   10  C   UNL     1     -11.486   9.337  70.360  1.00  0.00    -0.213 C  
HETATM   11  O   UNL     1      -8.039   6.402  67.286  1.00  0.00    -0.111 OA 
HETATM   12  O   UNL     1     -11.238   9.571  67.580  1.00  0.00    -0.061 OA 
HETATM   13  N   UNL     1      -9.451   8.158  67.522  1.00  0.00    -0.149 N  
HETATM   14  C   UNL     1     -10.551   8.622  69.666  1.00  0.00    -0.219 C  
HETATM   15  C   UNL     1     -10.443   8.852  68.191  1.00  0.00    -0.202 C  
ENDROOT
BRANCH   8  16
HETATM   16  C   UNL     1      -7.806   5.931  69.904  1.00  0.00    -0.096 A  
HETATM   17  C   UNL     1      -6.468   6.184  69.556  1.00  0.00    -0.042 A  
HETATM   18  C   UNL     1      -5.701   4.695  71.288  1.00  0.00    -0.012 A  
HETATM   19  C   UNL     1      -7.022   4.336  71.582  1.00  0.00    -0.038 A  
HETATM   20  C   UNL     1      -8.074   4.953  70.880  1.00  0.00    -0.095 A  
HETATM   21  C   UNL     1      -5.423   5.585  70.253  1.00  0.00    -0.005 A  
BRANCH  19  22
HETATM   22  N   UNL     1      -7.199   3.390  72.619  1.00  0.00    -0.047 N  
HETATM   23  H   UNL     1      -6.671   3.553  73.475  1.00  0.00     0.000 HD 
HETATM   24  C   UNL     1      -7.957   1.478  73.894  1.00  0.00    -0.041 C  
HETATM   25  O   UNL     1      -8.732   1.916  71.683  1.00  0.00    -0.060 OA 
HETATM   26  C   UNL     1      -8.008   2.271  72.602  1.00  0.00    -0.054 C  
ENDBRANCH  19  22
ENDBRANCH   8  16
BRANCH  13  27
HETATM   27  C   UNL     1      -9.338   8.405  66.084  1.00  0.00    -0.201 C  
HETATM   28  C   UNL     1      -8.817   9.731  65.579  1.00  0.00    -0.192 C  
HETATM   29  C   UNL     1      -8.030   8.485  65.328  1.00  0.00    -0.120 C  
ENDBRANCH  13  27
BRANCH  10  30
HETATM   30  N   UNL     1     -12.306  10.324  69.830  1.00  0.00    -0.531 NA 
HETATM   31  H   UNL     1     -13.233  10.010  69.543  1.00  0.00     0.000 HD 
BRANCH  30  32
HETATM   32  C   UNL     1     -12.048  11.697  69.627  1.00  0.00    -0.280 A  
HETATM   33  C   UNL     1     -11.081  12.178  68.740  1.00  0.00    -0.297 A  
HETATM   34  C   UNL     1     -10.740  13.541  68.719  1.00  0.00    -0.261 A  
HETATM   35  C   UNL     1     -11.375  14.440  69.576  1.00  0.00    -0.276 A  
HETATM   36  C   UNL     1     -12.398  14.003  70.408  1.00  0.00    -0.429 A  
HETATM   37  I   UNL     1     -10.746  16.421  69.656  1.00  0.00    -0.142 I  
HETATM   38  C   UNL     1     -12.717  12.646  70.428  1.00  0.00     0.089 A  
HETATM   39  F   UNL     1     -13.686  12.234  71.262  1.00  0.00    -0.023 F  
ENDBRANCH  30  32
ENDBRANCH  10  30
TORSDOF 5
ENDMDL
MODEL      138
REMARK 921   NORMALIZED FREE ENERGY PREDICTED BY IDOCK:   -1.82 KCAL/MOL
REMARK 922        TOTAL FREE ENERGY PREDICTED BY IDOCK:   -2.56 KCAL/MOL
REMARK 923 INTER-LIGAND FREE ENERGY PREDICTED BY IDOCK:   -3.43 KCAL/MOL
REMARK 924 INTRA-LIGAND FREE ENERGY PREDICTED BY IDOCK:    0.87 KCAL/MOL
REMARK 927      BINDING AFFINITY PREDICTED BY RF-SCORE:    0.00 PKD
ROOT
HETATM    1  C   UNL     1     -11.081   8.934  67.267  1.00  0.00     0.408 C  
HETATM    2  N   UNL     1     -10.044   9.901  67.609  1.00  0.00    -0.185 N  
HETATM    3  C   UNL     1     -10.225  11.175  67.101  1.00  0.00    -0.200 C  
HETATM    4  O   UNL     1     -11.057  11.439  66.232  1.00  0.00    -0.289 OA 
HETATM    5  C   UNL     1      -9.416  12.273  67.713  1.00  0.00    -0.197 C  
HETATM    6  C   UNL     1      -8.330  11.970  68.470  1.00  0.00    -0.104 C  
HETATM    7  C   UNL     1     -10.054  13.614  67.453  1.00  0.00    -0.241 C  
HETATM    8  N   UNL     1      -7.447  12.919  69.018  1.00  0.00     0.029 N  
HETATM    9  C   UNL     1      -6.425  12.574  69.940  1.00  0.00     0.036 C  
HETATM   10  C   UNL     1      -8.963   9.537  68.423  1.00  0.00    -0.127 C  
HETATM   11  O   UNL     1      -5.709  13.418  70.496  1.00  0.00    -0.151 OA 
HETATM   12  O   UNL     1      -7.000   9.096  70.372  1.00  0.00    -0.052 OA 
HETATM   13  N   UNL     1      -6.215  11.229  70.205  1.00  0.00    -0.148 N  
HETATM   14  C   UNL     1      -8.137  10.542  68.842  1.00  0.00    -0.138 C  
HETATM   15  C   UNL     1      -7.073  10.207  69.841  1.00  0.00    -0.144 C  
ENDROOT
BRANCH   8  16
HETATM   16  C   UNL     1      -7.319  14.295  68.555  1.00  0.00    -0.117 A  
HETATM   17  C   UNL     1      -6.581  14.571  67.392  1.00  0.00     0.028 A  
HETATM   18  C   UNL     1      -7.579  16.758  67.238  1.00  0.00    -0.204 A  
HETATM   19  C   UNL     1      -8.240  16.556  68.455  1.00  0.00    -0.194 A  
HETATM   20  C   UNL     1      -8.101  15.322  69.116  1.00  0.00    -0.228 A  
HETATM   21  C   UNL     1      -6.722  15.786  66.728  1.00  0.00     0.344 A  
BRANCH  19  22
HETATM   22  N   UNL     1      -9.052  17.621  68.913  1.00  0.00    -0.194 N  
HETATM   23  H   UNL     1      -9.640  17.425  69.723  1.00  0.00     0.000 HD 
HETATM   24  C   UNL     1     -10.114  19.784  69.134  1.00  0.00    -0.372 C  
HETATM   25  O   UNL     1      -8.504  19.328  67.437  1.00  0.00    -0.280 OA 
HETATM   26  C   UNL     1      -9.138  18.894  68.387  1.00  0.00    -0.343 C  
ENDBRANCH  19  22
ENDBRANCH   8  16
BRANCH  13  27
HETATM   27  C   UNL     1      -5.166  10.887  71.165  1.00  0.00    -0.093 C  
HETATM   28  C   UNL     1      -5.133  11.550  72.523  1.00  0.00     0.357 C  
HETATM   29  C   UNL     1      -5.387  10.080  72.426  1.00  0.00     0.112 C  
ENDBRANCH  13  27
BRANCH  10  30
HETATM   30  N   UNL     1      -8.859   8.201  68.787  1.00  0.00    -0.138 NA 
HETATM   31  H   UNL     1      -9.279   7.963  69.686  1.00  0.00     0.000 HD 
BRANCH  30  32
HETATM   32  C   UNL     1      -8.260   7.124  68.101  1.00  0.00    -0.124 A  
HETATM   33  C   UNL     1      -8.484   5.782  68.424  1.00  0.00    -0.110 A  
HETATM   34  C   UNL     1      -7.719   4.763  67.833  1.00  0.00    -0.082 A  
HETATM   35  C   UNL     1      -6.730   5.076  66.899  1.00  0.00    -0.055 A  
HETATM   36  C   UNL     1      -6.543   6.392  66.498  1.00  0.00    -0.048 A  
HETATM   37  I   UNL     1      -5.491   3.578  66.156  1.00  0.00    -0.019 I  
HETATM   38  C   UNL     1      -7.302   7.395  67.102  1.00  0.00    -0.097 A  
HETATM   39  F   UNL     1      -7.086   8.666  66.727  1.00  0.00    -0.073 F  
ENDBRANCH  30  32
ENDBRANCH  10  30
TORSDOF 5
ENDMDL
MODEL      139
REMARK 921   NORMALIZED FREE ENERGY PREDICTED BY IDOCK:   -1.42 KCAL/MOL
REMARK 922        TOTAL FREE ENERGY PREDICTED BY IDOCK:   -2.05 KCAL/MOL
REMARK 923 INTER-LIGAND FREE ENERGY PREDICTED BY IDOCK:   -6.74 KCAL/MOL
REMARK 924 INTRA-LIGAND FREE ENERGY PREDICTED BY IDOCK:    4.69 KCAL/MOL
REMARK 927      BINDING AFFINITY PREDICTED BY RF-SCORE:    0.00 PKD
ROOT
HETATM    1  C   UNL     1     -11.860  11.724  66.707  1.00  0.00     0.019 C  
HETATM    2  N   UNL     1     -10.757  12.553  67.180  1.00  0.00    -0.234 N  
HETATM    3  C   UNL     1     -10.990  13.916  67.174  1.00  0.00    -0.291 C  
HETATM    4  O   UNL     1     -11.950  14.430  66.599  1.00  0.00    -0.407 OA 
HETATM    5  C   UNL     1     -10.062  14.769  67.979  1.00  0.00    -0.218 C  
HETATM    6  C   UNL     1      -8.872  14.264  68.395  1.00  0.00    -0.187 C  
HETATM    7  C   UNL     1     -10.702  16.095  68.302  1.00  0.00    -0.307 C  
HETATM    8  N   UNL     1      -7.887  15.001  69.078  1.00  0.00    -0.158 N  
HETATM    9  C   UNL     1      -6.732  14.400  69.642  1.00  0.00    -0.137 C  
HETATM   10  C   UNL     1      -9.563  11.972  67.628  1.00  0.00    -0.188 C  
HETATM   11  O   UNL     1      -5.912  15.029  70.324  1.00  0.00    -0.140 OA 
HETATM   12  O   UNL     1      -7.310  10.964  68.953  1.00  0.00    -0.093 OA 
HETATM   13  N   UNL     1      -6.513  13.053  69.394  1.00  0.00    -0.110 N  
HETATM   14  C   UNL     1      -8.654  12.803  68.220  1.00  0.00    -0.166 C  
HETATM   15  C   UNL     1      -7.445  12.186  68.852  1.00  0.00    -0.027 C  
ENDROOT
BRANCH   8  16
HETATM   16  C   UNL     1      -7.805  16.456  69.096  1.00  0.00    -0.214 A  
HETATM   17  C   UNL     1      -6.697  17.083  69.689  1.00  0.00    -0.063 A  
HETATM   18  C   UNL     1      -7.240  19.157  68.591  1.00  0.00    -0.356 A  
HETATM   19  C   UNL     1      -8.413  18.592  68.077  1.00  0.00    -0.291 A  
HETATM   20  C   UNL     1      -8.697  17.239  68.340  1.00  0.00    -0.261 A  
HETATM   21  C   UNL     1      -6.405  18.419  69.425  1.00  0.00    -0.259 A  
BRANCH  19  22
HETATM   22  N   UNL     1      -9.219  19.437  67.277  1.00  0.00    -0.307 N  
HETATM   23  H   UNL     1      -9.359  20.386  67.620  1.00  0.00     0.000 HD 
HETATM   24  C   UNL     1     -10.625  20.275  65.494  1.00  0.00    -0.122 C  
HETATM   25  O   UNL     1      -9.775  18.048  65.500  1.00  0.00    -0.291 OA 
HETATM   26  C   UNL     1      -9.837  19.120  66.084  1.00  0.00    -0.345 C  
ENDBRANCH  19  22
ENDBRANCH   8  16
BRANCH  13  27
HETATM   27  C   UNL     1      -5.325  12.442  69.991  1.00  0.00    -0.103 C  
HETATM   28  C   UNL     1      -5.159  12.413  71.493  1.00  0.00    -0.091 C  
HETATM   29  C   UNL     1      -5.323  11.129  70.744  1.00  0.00    -0.123 C  
ENDBRANCH  13  27
BRANCH  10  30
HETATM   30  N   UNL     1      -9.432  10.596  67.492  1.00  0.00    -0.153 NA 
HETATM   31  H   UNL     1     -10.025  10.041  68.110  1.00  0.00     0.000 HD 
BRANCH  30  32
HETATM   32  C   UNL     1      -8.601   9.851  66.629  1.00  0.00    -0.125 A  
HETATM   33  C   UNL     1      -7.396  10.333  66.110  1.00  0.00    -0.122 A  
HETATM   34  C   UNL     1      -6.708   9.624  65.111  1.00  0.00    -0.094 A  
HETATM   35  C   UNL     1      -7.212   8.415  64.632  1.00  0.00    -0.082 A  
HETATM   36  C   UNL     1      -8.363   7.871  65.188  1.00  0.00    -0.128 A  
HETATM   37  I   UNL     1      -6.278   7.457  63.038  1.00  0.00    -0.055 I  
HETATM   38  C   UNL     1      -9.042   8.592  66.170  1.00  0.00    -0.201 A  
HETATM   39  F   UNL     1     -10.171   8.069  66.674  1.00  0.00    -0.312 F  
ENDBRANCH  30  32
ENDBRANCH  10  30
TORSDOF 5
ENDMDL
MODEL      140
REMARK 921   NORMALIZED FREE ENERGY PREDICTED BY IDOCK:   -1.13 KCAL/MOL
REMARK 922        TOTAL FREE ENERGY PREDICTED BY IDOCK:   -1.67 KCAL/MOL
REMARK 923 INTER-LIGAND FREE ENERGY PREDICTED BY IDOCK:   -4.36 KCAL/MOL
REMARK 924 INTRA-LIGAND FREE ENERGY PREDICTED BY IDOCK:    2.68 KCAL/MOL
REMARK 927      BINDING AFFINITY PREDICTED BY RF-SCORE:    0.00 PKD
ROOT
HETATM    1  C   UNL     1      -7.446  13.369  68.854  1.00  0.00    -0.010 C  
HETATM    2  N   UNL     1      -7.493  11.937  69.125  1.00  0.00    -0.002 N  
HETATM    3  C   UNL     1      -6.414  11.425  69.822  1.00  0.00    -0.133 C  
HETATM    4  O   UNL     1      -5.372  12.056  70.004  1.00  0.00    -0.078 OA 
HETATM    5  C   UNL     1      -6.581  10.074  70.440  1.00  0.00    -0.132 C  
HETATM    6  C   UNL     1      -7.600   9.270  70.039  1.00  0.00    -0.099 C  
HETATM    7  C   UNL     1      -5.586   9.869  71.554  1.00  0.00    -0.032 C  
HETATM    8  N   UNL     1      -7.799   7.950  70.484  1.00  0.00    -0.093 N  
HETATM    9  C   UNL     1      -8.964   7.202  70.172  1.00  0.00    -0.145 C  
HETATM   10  C   UNL     1      -8.588  11.164  68.714  1.00  0.00    -0.132 C  
HETATM   11  O   UNL     1      -9.186   6.077  70.641  1.00  0.00    -0.148 OA 
HETATM   12  O   UNL     1     -10.873   9.583  68.355  1.00  0.00    -0.207 OA 
HETATM   13  N   UNL     1      -9.876   7.759  69.288  1.00  0.00    -0.170 N  
HETATM   14  C   UNL     1      -8.639   9.875  69.161  1.00  0.00    -0.157 C  
HETATM   15  C   UNL     1      -9.874   9.078  68.874  1.00  0.00    -0.175 C  
ENDROOT
BRANCH   8  16
HETATM   16  C   UNL     1      -6.774   7.123  71.108  1.00  0.00    -0.051 A  
HETATM   17  C   UNL     1      -6.386   7.377  72.434  1.00  0.00    -0.050 A  
HETATM   18  C   UNL     1      -5.343   5.211  72.579  1.00  0.00    -0.009 A  
HETATM   19  C   UNL     1      -5.615   4.975  71.227  1.00  0.00    -0.008 A  
HETATM   20  C   UNL     1      -6.326   5.940  70.491  1.00  0.00    -0.032 A  
HETATM   21  C   UNL     1      -5.691   6.422  73.171  1.00  0.00    -0.038 A  
BRANCH  19  22
HETATM   22  N   UNL     1      -5.180   3.733  70.706  1.00  0.00    -0.004 N  
HETATM   23  H   UNL     1      -4.174   3.624  70.577  1.00  0.00     0.000 HD 
HETATM   24  C   UNL     1      -5.159   1.477  69.830  1.00  0.00    -0.004 C  
HETATM   25  O   UNL     1      -7.179   2.578  70.454  1.00  0.00    -0.033 OA 
HETATM   26  C   UNL     1      -5.963   2.653  70.354  1.00  0.00    -0.019 C  
ENDBRANCH  19  22
ENDBRANCH   8  16
BRANCH  13  27
HETATM   27  C   UNL     1     -11.079   6.983  68.984  1.00  0.00    -0.074 C  
HETATM   28  C   UNL     1     -11.281   6.404  67.602  1.00  0.00    -0.269 C  
HETATM   29  C   UNL     1     -11.100   5.485  68.767  1.00  0.00     0.231 C  
ENDBRANCH  13  27
BRANCH  10  30
HETATM   30  N   UNL     1      -9.558  11.790  67.943  1.00  0.00    -0.181 NA 
HETATM   31  H   UNL     1     -10.233  11.164  67.503  1.00  0.00     0.000 HD 
BRANCH  30  32
HETATM   32  C   UNL     1      -9.750  13.163  67.676  1.00  0.00    -0.213 A  
HETATM   33  C   UNL     1      -9.163  13.830  66.597  1.00  0.00    -0.238 A  
HETATM   34  C   UNL     1      -9.237  15.228  66.490  1.00  0.00    -0.321 A  
HETATM   35  C   UNL     1      -9.914  15.974  67.455  1.00  0.00    -0.240 A  
HETATM   36  C   UNL     1     -10.577  15.331  68.492  1.00  0.00    -0.237 A  
HETATM   37  I   UNL     1      -9.876  18.053  67.379  1.00  0.00    -0.368 I  
HETATM   38  C   UNL     1     -10.485  13.943  68.593  1.00  0.00    -0.246 A  
HETATM   39  F   UNL     1     -11.104  13.339  69.621  1.00  0.00    -0.239 F  
ENDBRANCH  30  32
ENDBRANCH  10  30
TORSDOF 5
ENDMDL
MODEL      141
REMARK 921   NORMALIZED FREE ENERGY PREDICTED BY IDOCK:   -1.11 KCAL/MOL
REMARK 922        TOTAL FREE ENERGY PREDICTED BY IDOCK:   -1.65 KCAL/MOL
REMARK 923 INTER-LIGAND FREE ENERGY PREDICTED BY IDOCK:   -8.10 KCAL/MOL
REMARK 924 INTRA-LIGAND FREE ENERGY PREDICTED BY IDOCK:    6.45 KCAL/MOL
REMARK 927      BINDING AFFINITY PREDICTED BY RF-SCORE:    0.00 PKD
ROOT
HETATM    1  C   UNL     1      -9.665  16.198  65.108  1.00  0.00     0.505 C  
HETATM    2  N   UNL     1     -10.219  15.209  66.025  1.00  0.00    -0.287 N  
HETATM    3  C   UNL     1     -10.137  13.894  65.604  1.00  0.00    -0.313 C  
HETATM    4  O   UNL     1      -9.844  13.575  64.451  1.00  0.00    -0.175 OA 
HETATM    5  C   UNL     1     -10.340  12.834  66.639  1.00  0.00    -0.252 C  
HETATM    6  C   UNL     1     -10.911  13.154  67.829  1.00  0.00    -0.251 C  
HETATM    7  C   UNL     1      -9.735  11.527  66.191  1.00  0.00    -0.249 C  
HETATM    8  N   UNL     1     -11.231  12.225  68.837  1.00  0.00    -0.256 N  
HETATM    9  C   UNL     1     -11.671  12.615  70.129  1.00  0.00    -0.168 C  
HETATM   10  C   UNL     1     -10.765  15.597  67.255  1.00  0.00    -0.305 C  
HETATM   11  O   UNL     1     -11.861  11.806  71.047  1.00  0.00    -0.051 OA 
HETATM   12  O   UNL     1     -11.483  16.155  69.905  1.00  0.00    -0.324 OA 
HETATM   13  N   UNL     1     -11.912  13.963  70.354  1.00  0.00    -0.326 N  
HETATM   14  C   UNL     1     -11.096  14.600  68.129  1.00  0.00    -0.285 C  
HETATM   15  C   UNL     1     -11.529  14.988  69.509  1.00  0.00    -0.294 C  
ENDROOT
BRANCH   8  16
HETATM   16  C   UNL     1     -11.372  10.790  68.626  1.00  0.00    -0.291 A  
HETATM   17  C   UNL     1     -10.895  10.211  67.439  1.00  0.00    -0.323 A  
HETATM   18  C   UNL     1     -10.991   8.018  68.429  1.00  0.00     0.161 A  
HETATM   19  C   UNL     1     -11.575   8.551  69.584  1.00  0.00     0.500 A  
HETATM   20  C   UNL     1     -11.771   9.941  69.676  1.00  0.00    -0.026 A  
HETATM   21  C   UNL     1     -10.688   8.838  67.345  1.00  0.00    -0.216 A  
BRANCH  19  22
HETATM   22  N   UNL     1     -11.888   7.631  70.612  1.00  0.00    -0.463 N  
HETATM   23  H   UNL     1     -12.808   7.193  70.562  1.00  0.00     0.000 HD 
HETATM   24  C   UNL     1     -11.747   6.241  72.589  1.00  0.00    -0.164 C  
HETATM   25  O   UNL     1      -9.954   7.651  71.898  1.00  0.00    -0.172 OA 
HETATM   26  C   UNL     1     -11.090   7.258  71.675  1.00  0.00    -0.233 C  
ENDBRANCH  19  22
ENDBRANCH   8  16
BRANCH  13  27
HETATM   27  C   UNL     1     -12.353  14.353  71.693  1.00  0.00    -0.341 C  
HETATM   28  C   UNL     1     -13.622  15.155  71.872  1.00  0.00    -0.545 C  
HETATM   29  C   UNL     1     -13.549  13.761  72.408  1.00  0.00    -0.690 C  
ENDBRANCH  13  27
BRANCH  10  30
HETATM   30  N   UNL     1     -10.865  16.958  67.509  1.00  0.00    -0.264 NA 
HETATM   31  H   UNL     1     -11.789  17.278  67.803  1.00  0.00     0.000 HD 
BRANCH  30  32
HETATM   32  C   UNL     1      -9.881  17.966  67.421  1.00  0.00    -0.305 A  
HETATM   33  C   UNL     1      -8.920  18.021  66.407  1.00  0.00    -0.249 A  
HETATM   34  C   UNL     1      -7.854  18.933  66.475  1.00  0.00    -0.280 A  
HETATM   35  C   UNL     1      -7.748  19.813  67.553  1.00  0.00    -0.278 A  
HETATM   36  C   UNL     1      -8.734  19.838  68.531  1.00  0.00    -0.275 A  
HETATM   37  I   UNL     1      -6.079  21.043  67.730  1.00  0.00    -0.335 I  
HETATM   38  C   UNL     1      -9.779  18.918  68.457  1.00  0.00    -0.387 A  
HETATM   39  F   UNL     1     -10.707  18.932  69.428  1.00  0.00     0.106 F  
ENDBRANCH  30  32
ENDBRANCH  10  30
TORSDOF 5
ENDMDL
MODEL      142
REMARK 921   NORMALIZED FREE ENERGY PREDICTED BY IDOCK:   -0.94 KCAL/MOL
REMARK 922        TOTAL FREE ENERGY PREDICTED BY IDOCK:   -1.43 KCAL/MOL
REMARK 923 INTER-LIGAND FREE ENERGY PREDICTED BY IDOCK:   -6.73 KCAL/MOL
REMARK 924 INTRA-LIGAND FREE ENERGY PREDICTED BY IDOCK:    5.30 KCAL/MOL
REMARK 927      BINDING AFFINITY PREDICTED BY RF-SCORE:    0.00 PKD
ROOT
HETATM    1  C   UNL     1     -12.469  14.454  69.839  1.00  0.00    -0.261 C  
HETATM    2  N   UNL     1     -11.807  13.259  69.328  1.00  0.00    -0.322 N  
HETATM    3  C   UNL     1     -12.130  12.077  69.971  1.00  0.00    -0.280 C  
HETATM    4  O   UNL     1     -12.738  12.040  71.041  1.00  0.00    -0.334 OA 
HETATM    5  C   UNL     1     -11.783  10.804  69.269  1.00  0.00    -0.374 C  
HETATM    6  C   UNL     1     -10.899  10.821  68.239  1.00  0.00    -0.229 C  
HETATM    7  C   UNL     1     -12.615   9.661  69.793  1.00  0.00     0.846 C  
HETATM    8  N   UNL     1     -10.432   9.675  67.567  1.00  0.00    -0.245 N  
HETATM    9  C   UNL     1      -9.641   9.744  66.391  1.00  0.00    -0.200 C  
HETATM   10  C   UNL     1     -10.928  13.335  68.239  1.00  0.00    -0.256 C  
HETATM   11  O   UNL     1      -9.309   8.741  65.744  1.00  0.00    -0.225 OA 
HETATM   12  O   UNL     1      -9.507  13.248  65.827  1.00  0.00    -0.111 OA 
HETATM   13  N   UNL     1      -9.210  10.993  65.969  1.00  0.00    -0.187 N  
HETATM   14  C   UNL     1     -10.493  12.152  67.711  1.00  0.00    -0.222 C  
HETATM   15  C   UNL     1      -9.686  12.199  66.451  1.00  0.00    -0.231 C  
ENDROOT
BRANCH   8  16
HETATM   16  C   UNL     1     -10.500   8.319  68.097  1.00  0.00    -0.171 A  
HETATM   17  C   UNL     1     -10.188   7.231  67.266  1.00  0.00    -0.323 A  
HETATM   18  C   UNL     1      -9.954   5.791  69.183  1.00  0.00    -0.232 A  
HETATM   19  C   UNL     1     -10.373   6.826  70.027  1.00  0.00    -0.199 A  
HETATM   20  C   UNL     1     -10.653   8.090  69.477  1.00  0.00    -0.216 A  
HETATM   21  C   UNL     1      -9.899   5.980  67.804  1.00  0.00    -0.129 A  
BRANCH  19  22
HETATM   22  N   UNL     1     -10.440   6.522  71.407  1.00  0.00    -0.210 N  
HETATM   23  H   UNL     1     -10.983   7.163  71.985  1.00  0.00     0.000 HD 
HETATM   24  C   UNL     1     -10.139   5.438  73.550  1.00  0.00    -0.204 C  
HETATM   25  O   UNL     1      -9.187   4.571  71.544  1.00  0.00    -0.126 OA 
HETATM   26  C   UNL     1      -9.855   5.456  72.059  1.00  0.00    -0.168 C  
ENDBRANCH  19  22
ENDBRANCH   8  16
BRANCH  13  27
HETATM   27  C   UNL     1      -8.405  11.051  64.749  1.00  0.00     0.203 C  
HETATM   28  C   UNL     1      -7.081  10.327  64.677  1.00  0.00    -0.081 C  
HETATM   29  C   UNL     1      -8.208   9.892  63.796  1.00  0.00    -0.158 C  
ENDBRANCH  13  27
BRANCH  10  30
HETATM   30  N   UNL     1     -10.626  14.598  67.750  1.00  0.00    -0.249 NA 
HETATM   31  H   UNL     1     -11.431  15.197  67.566  1.00  0.00     0.000 HD 
BRANCH  30  32
HETATM   32  C   UNL     1      -9.371  15.178  67.467  1.00  0.00    -0.198 A  
HETATM   33  C   UNL     1      -8.190  14.823  68.126  1.00  0.00    -0.142 A  
HETATM   34  C   UNL     1      -7.011  15.563  67.938  1.00  0.00    -0.156 A  
HETATM   35  C   UNL     1      -6.997  16.659  67.074  1.00  0.00    -0.206 A  
HETATM   36  C   UNL     1      -8.133  16.983  66.344  1.00  0.00    -0.335 A  
HETATM   37  I   UNL     1      -5.296  17.848  66.930  1.00  0.00    -0.215 I  
HETATM   38  C   UNL     1      -9.300  16.247  66.550  1.00  0.00    -0.271 A  
HETATM   39  F   UNL     1     -10.399  16.594  65.861  1.00  0.00    -0.310 F  
ENDBRANCH  30  32
ENDBRANCH  10  30
TORSDOF 5
ENDMDL
MODEL      143
REMARK 921   NORMALIZED FREE ENERGY PREDICTED BY IDOCK:   -0.58 KCAL/MOL
REMARK 922        TOTAL FREE ENERGY PREDICTED BY IDOCK:   -0.96 KCAL/MOL
REMARK 923 INTER-LIGAND FREE ENERGY PREDICTED BY IDOCK:   -5.13 KCAL/MOL
REMARK 924 INTRA-LIGAND FREE ENERGY PREDICTED BY IDOCK:    4.18 KCAL/MOL
REMARK 927      BINDING AFFINITY PREDICTED BY RF-SCORE:    0.00 PKD
ROOT
HETATM    1  C   UNL     1      -5.518  11.365  70.886  1.00  0.00    -0.106 C  
HETATM    2  N   UNL     1      -6.414  11.157  69.755  1.00  0.00    -0.125 N  
HETATM    3  C   UNL     1      -7.088  12.282  69.313  1.00  0.00     0.061 C  
HETATM    4  O   UNL     1      -7.131  13.333  69.953  1.00  0.00     0.303 OA 
HETATM    5  C   UNL     1      -7.715  12.211  67.958  1.00  0.00    -0.134 C  
HETATM    6  C   UNL     1      -7.901  11.005  67.363  1.00  0.00    -0.118 C  
HETATM    7  C   UNL     1      -7.947  13.594  67.404  1.00  0.00    -0.177 C  
HETATM    8  N   UNL     1      -8.559  10.813  66.134  1.00  0.00    -0.163 N  
HETATM    9  C   UNL     1      -8.587   9.562  65.465  1.00  0.00    -0.146 C  
HETATM   10  C   UNL     1      -6.540   9.894  69.161  1.00  0.00    -0.052 C  
HETATM   11  O   UNL     1      -9.083   9.412  64.340  1.00  0.00    -0.217 OA 
HETATM   12  O   UNL     1      -6.572   7.566  67.603  1.00  0.00    -0.057 OA 
HETATM   13  N   UNL     1      -8.051   8.463  66.119  1.00  0.00    -0.102 N  
HETATM   14  C   UNL     1      -7.257   9.824  68.001  1.00  0.00    -0.080 C  
HETATM   15  C   UNL     1      -7.271   8.523  67.260  1.00  0.00    -0.084 C  
ENDROOT
BRANCH   8  16
HETATM   16  C   UNL     1      -9.463  11.778  65.519  1.00  0.00    -0.168 A  
HETATM   17  C   UNL     1     -10.643  11.331  64.902  1.00  0.00    -0.364 A  
HETATM   18  C   UNL     1     -11.542  13.565  64.927  1.00  0.00    -0.355 A  
HETATM   19  C   UNL     1     -10.336  14.059  65.437  1.00  0.00    -0.359 A  
HETATM   20  C   UNL     1      -9.293  13.159  65.725  1.00  0.00     0.143 A  
HETATM   21  C   UNL     1     -11.683  12.213  64.623  1.00  0.00    -0.400 A  
BRANCH  19  22
HETATM   22  N   UNL     1     -10.276  15.453  65.669  1.00  0.00    -0.345 N  
HETATM   23  H   UNL     1      -9.737  15.754  66.481  1.00  0.00     0.000 HD 
HETATM   24  C   UNL     1     -10.588  17.844  65.459  1.00  0.00    -0.016 C  
HETATM   25  O   UNL     1     -11.528  16.300  63.905  1.00  0.00    -0.940 OA 
HETATM   26  C   UNL     1     -10.864  16.452  64.920  1.00  0.00    -0.250 C  
ENDBRANCH  19  22
ENDBRANCH   8  16
BRANCH  13  27
HETATM   27  C   UNL     1      -8.076   7.181  65.414  1.00  0.00    -0.137 C  
HETATM   28  C   UNL     1      -7.608   7.094  63.979  1.00  0.00    -0.113 C  
HETATM   29  C   UNL     1      -6.845   6.380  65.048  1.00  0.00    -0.047 C  
ENDBRANCH  13  27
BRANCH  10  30
HETATM   30  N   UNL     1      -5.874   8.836  69.764  1.00  0.00    -0.029 NA 
HETATM   31  H   UNL     1      -5.030   8.524  69.283  1.00  0.00     0.000 HD 
BRANCH  30  32
HETATM   32  C   UNL     1      -6.190   8.126  70.943  1.00  0.00    -0.033 A  
HETATM   33  C   UNL     1      -5.291   7.942  71.997  1.00  0.00    -0.035 A  
HETATM   34  C   UNL     1      -5.595   7.071  73.057  1.00  0.00    -0.041 A  
HETATM   35  C   UNL     1      -6.811   6.387  73.080  1.00  0.00    -0.074 A  
HETATM   36  C   UNL     1      -7.756   6.616  72.089  1.00  0.00    -0.096 A  
HETATM   37  I   UNL     1      -7.181   4.976  74.563  1.00  0.00    -0.082 I  
HETATM   38  C   UNL     1      -7.436   7.473  71.037  1.00  0.00    -0.072 A  
HETATM   39  F   UNL     1      -8.349   7.658  70.069  1.00  0.00    -0.124 F  
ENDBRANCH  30  32
ENDBRANCH  10  30
TORSDOF 5
ENDMDL
MODEL      144
REMARK 921   NORMALIZED FREE ENERGY PREDICTED BY IDOCK:   -0.47 KCAL/MOL
REMARK 922        TOTAL FREE ENERGY PREDICTED BY IDOCK:   -0.81 KCAL/MOL
REMARK 923 INTER-LIGAND FREE ENERGY PREDICTED BY IDOCK:   -5.42 KCAL/MOL
REMARK 924 INTRA-LIGAND FREE ENERGY PREDICTED BY IDOCK:    4.60 KCAL/MOL
REMARK 927      BINDING AFFINITY PREDICTED BY RF-SCORE:    0.00 PKD
ROOT
HETATM    1  C   UNL     1      -7.454   3.743  70.248  1.00  0.00    -0.041 C  
HETATM    2  N   UNL     1      -8.059   4.935  69.666  1.00  0.00    -0.073 N  
HETATM    3  C   UNL     1      -8.867   5.669  70.515  1.00  0.00    -0.138 C  
HETATM    4  O   UNL     1      -9.254   5.247  71.605  1.00  0.00    -0.143 OA 
HETATM    5  C   UNL     1      -9.203   7.065  70.098  1.00  0.00    -0.152 C  
HETATM    6  C   UNL     1      -9.011   7.449  68.810  1.00  0.00    -0.129 C  
HETATM    7  C   UNL     1      -9.623   7.891  71.288  1.00  0.00    -0.186 C  
HETATM    8  N   UNL     1      -9.374   8.705  68.287  1.00  0.00    -0.137 N  
HETATM    9  C   UNL     1      -9.007   9.129  66.984  1.00  0.00    -0.123 C  
HETATM   10  C   UNL     1      -7.797   5.299  68.338  1.00  0.00    -0.087 C  
HETATM   11  O   UNL     1      -9.241  10.268  66.557  1.00  0.00    -0.149 OA 
HETATM   12  O   UNL     1      -7.037   6.391  65.873  1.00  0.00    -0.063 OA 
HETATM   13  N   UNL     1      -8.375   8.213  66.156  1.00  0.00    -0.119 N  
HETATM   14  C   UNL     1      -8.256   6.519  67.928  1.00  0.00    -0.116 C  
HETATM   15  C   UNL     1      -7.851   7.001  66.569  1.00  0.00    -0.106 C  
ENDROOT
BRANCH   8  16
HETATM   16  C   UNL     1     -10.335   9.611  68.903  1.00  0.00    -0.203 A  
HETATM   17  C   UNL     1     -11.181   9.141  69.921  1.00  0.00    -0.118 A  
HETATM   18  C   UNL     1     -11.705  11.399  70.574  1.00  0.00    -0.296 A  
HETATM   19  C   UNL     1     -10.961  11.897  69.499  1.00  0.00    -0.028 A  
HETATM   20  C   UNL     1     -10.282  10.996  68.658  1.00  0.00    -0.211 A  
HETATM   21  C   UNL     1     -11.848  10.027  70.763  1.00  0.00    -0.435 A  
BRANCH  19  22
HETATM   22  N   UNL     1     -10.914  13.305  69.365  1.00  0.00    -0.447 N  
HETATM   23  H   UNL     1     -10.646  13.829  70.198  1.00  0.00     0.000 HD 
HETATM   24  C   UNL     1     -11.035  15.542  68.451  1.00  0.00    -0.297 C  
HETATM   25  O   UNL     1     -11.505  13.608  67.139  1.00  0.00    -0.311 OA 
HETATM   26  C   UNL     1     -11.189  14.048  68.236  1.00  0.00    -0.268 C  
ENDBRANCH  19  22
ENDBRANCH   8  16
BRANCH  13  27
HETATM   27  C   UNL     1      -7.991   8.667  64.819  1.00  0.00    -0.141 C  
HETATM   28  C   UNL     1      -6.784   9.558  64.636  1.00  0.00    -0.094 C  
HETATM   29  C   UNL     1      -6.775   8.177  64.064  1.00  0.00    -0.066 C  
ENDBRANCH  13  27
BRANCH  10  30
HETATM   30  N   UNL     1      -7.041   4.421  67.573  1.00  0.00    -0.063 NA 
HETATM   31  H   UNL     1      -6.077   4.296  67.883  1.00  0.00     0.000 HD 
BRANCH  30  32
HETATM   32  C   UNL     1      -7.405   3.677  66.431  1.00  0.00    -0.072 A  
HETATM   33  C   UNL     1      -6.942   3.962  65.143  1.00  0.00    -0.061 A  
HETATM   34  C   UNL     1      -7.483   3.308  64.024  1.00  0.00    -0.067 A  
HETATM   35  C   UNL     1      -8.485   2.350  64.183  1.00  0.00    -0.083 A  
HETATM   36  C   UNL     1      -8.905   1.987  65.456  1.00  0.00    -0.121 A  
HETATM   37  I   UNL     1      -9.396   1.511  62.511  1.00  0.00    -0.081 I  
HETATM   38  C   UNL     1      -8.367   2.653  66.558  1.00  0.00    -0.091 A  
HETATM   39  F   UNL     1      -8.808   2.314  67.780  1.00  0.00    -0.103 F  
ENDBRANCH  30  32
ENDBRANCH  10  30
TORSDOF 5
ENDMDL
MODEL      145
REMARK 921   NORMALIZED FREE ENERGY PREDICTED BY IDOCK:   -0.38 KCAL/MOL
REMARK 922        TOTAL FREE ENERGY PREDICTED BY IDOCK:   -0.70 KCAL/MOL
REMARK 923 INTER-LIGAND FREE ENERGY PREDICTED BY IDOCK:   -3.84 KCAL/MOL
REMARK 924 INTRA-LIGAND FREE ENERGY PREDICTED BY IDOCK:    3.14 KCAL/MOL
REMARK 927      BINDING AFFINITY PREDICTED BY RF-SCORE:    0.00 PKD
ROOT
HETATM    1  C   UNL     1      -6.276   8.383  68.366  1.00  0.00    -0.054 C  
HETATM    2  N   UNL     1      -7.038   9.625  68.431  1.00  0.00    -0.070 N  
HETATM    3  C   UNL     1      -6.451  10.718  67.818  1.00  0.00    -0.059 C  
HETATM    4  O   UNL     1      -5.276  10.730  67.450  1.00  0.00    -0.037 OA 
HETATM    5  C   UNL     1      -7.331  11.892  67.532  1.00  0.00    -0.132 C  
HETATM    6  C   UNL     1      -8.534  12.000  68.152  1.00  0.00    -0.171 C  
HETATM    7  C   UNL     1      -6.735  12.754  66.448  1.00  0.00     1.862 C  
HETATM    8  N   UNL     1      -9.402  13.101  68.028  1.00  0.00    -0.213 N  
HETATM    9  C   UNL     1     -10.719  13.105  68.555  1.00  0.00    -0.259 C  
HETATM   10  C   UNL     1      -8.291   9.667  69.057  1.00  0.00    -0.122 C  
HETATM   11  O   UNL     1     -11.516  14.033  68.365  1.00  0.00    -0.270 OA 
HETATM   12  O   UNL     1     -10.967   9.815  69.871  1.00  0.00    -0.238 OA 
HETATM   13  N   UNL     1     -11.111  12.024  69.332  1.00  0.00    -0.180 N  
HETATM   14  C   UNL     1      -9.015  10.817  68.917  1.00  0.00    -0.158 C  
HETATM   15  C   UNL     1     -10.420  10.831  69.435  1.00  0.00    -0.200 C  
ENDROOT
BRANCH   8  16
HETATM   16  C   UNL     1      -9.000  14.423  67.562  1.00  0.00    -0.190 A  
HETATM   17  C   UNL     1      -9.502  14.913  66.345  1.00  0.00    -0.327 A  
HETATM   18  C   UNL     1      -8.830  17.151  66.931  1.00  0.00    -0.255 A  
HETATM   19  C   UNL     1      -8.221  16.676  68.098  1.00  0.00    -0.192 A  
HETATM   20  C   UNL     1      -8.301  15.305  68.406  1.00  0.00    -0.149 A  
HETATM   21  C   UNL     1      -9.434  16.269  66.038  1.00  0.00    -0.369 A  
BRANCH  19  22
HETATM   22  N   UNL     1      -7.594  17.644  68.918  1.00  0.00    -0.253 N  
HETATM   23  H   UNL     1      -6.712  17.368  69.350  1.00  0.00     0.000 HD 
HETATM   24  C   UNL     1      -7.110  19.689  70.119  1.00  0.00     0.160 C  
HETATM   25  O   UNL     1      -9.057  19.441  68.765  1.00  0.00    -0.371 OA 
HETATM   26  C   UNL     1      -8.041  18.919  69.199  1.00  0.00    -0.067 C  
ENDBRANCH  19  22
ENDBRANCH   8  16
BRANCH  13  27
HETATM   27  C   UNL     1     -12.476  12.035  69.859  1.00  0.00     0.048 C  
HETATM   28  C   UNL     1     -13.155  10.738  70.236  1.00  0.00    -0.004 C  
HETATM   29  C   UNL     1     -12.840  11.742  71.299  1.00  0.00    -0.409 C  
ENDBRANCH  13  27
BRANCH  10  30
HETATM   30  N   UNL     1      -8.717   8.518  69.710  1.00  0.00    -0.131 NA 
HETATM   31  H   UNL     1      -9.035   8.657  70.669  1.00  0.00     0.000 HD 
BRANCH  30  32
HETATM   32  C   UNL     1      -8.777   7.187  69.245  1.00  0.00    -0.136 A  
HETATM   33  C   UNL     1      -7.652   6.451  68.862  1.00  0.00    -0.100 A  
HETATM   34  C   UNL     1      -7.790   5.203  68.233  1.00  0.00    -0.087 A  
HETATM   35  C   UNL     1      -9.057   4.670  67.994  1.00  0.00    -0.120 A  
HETATM   36  C   UNL     1     -10.189   5.340  68.439  1.00  0.00    -0.206 A  
HETATM   37  I   UNL     1      -9.255   2.903  66.914  1.00  0.00     0.022 I  
HETATM   38  C   UNL     1     -10.038   6.584  69.051  1.00  0.00    -0.165 A  
HETATM   39  F   UNL     1     -11.144   7.235  69.446  1.00  0.00    -0.235 F  
ENDBRANCH  30  32
ENDBRANCH  10  30
TORSDOF 5
ENDMDL
MODEL      146
REMARK 921   NORMALIZED FREE ENERGY PREDICTED BY IDOCK:    0.30 KCAL/MOL
REMARK 922        TOTAL FREE ENERGY PREDICTED BY IDOCK:    0.18 KCAL/MOL
REMARK 923 INTER-LIGAND FREE ENERGY PREDICTED BY IDOCK:   -3.04 KCAL/MOL
REMARK 924 INTRA-LIGAND FREE ENERGY PREDICTED BY IDOCK:    3.21 KCAL/MOL
REMARK 927      BINDING AFFINITY PREDICTED BY RF-SCORE:    0.00 PKD
ROOT
HETATM    1  C   UNL     1     -12.210  13.115  67.295  1.00  0.00    -0.177 C  
HETATM    2  N   UNL     1     -11.010  12.452  67.792  1.00  0.00    -0.218 N  
HETATM    3  C   UNL     1     -10.958  11.084  67.592  1.00  0.00    -0.275 C  
HETATM    4  O   UNL     1     -11.934  10.419  67.242  1.00  0.00     0.438 OA 
HETATM    5  C   UNL     1      -9.624  10.425  67.738  1.00  0.00    -0.169 C  
HETATM    6  C   UNL     1      -8.614  11.079  68.367  1.00  0.00    -0.149 C  
HETATM    7  C   UNL     1      -9.601   9.101  67.016  1.00  0.00    -0.223 C  
HETATM    8  N   UNL     1      -7.349  10.524  68.639  1.00  0.00    -0.086 N  
HETATM    9  C   UNL     1      -6.267  11.290  69.145  1.00  0.00    -0.058 C  
HETATM   10  C   UNL     1      -9.985  13.186  68.403  1.00  0.00    -0.223 C  
HETATM   11  O   UNL     1      -5.129  10.827  69.295  1.00  0.00    -0.039 OA 
HETATM   12  O   UNL     1      -7.683  14.546  69.239  1.00  0.00    -0.119 OA 
HETATM   13  N   UNL     1      -6.514  12.607  69.501  1.00  0.00    -0.105 N  
HETATM   14  C   UNL     1      -8.824  12.519  68.677  1.00  0.00     0.045 C  
HETATM   15  C   UNL     1      -7.658  13.314  69.178  1.00  0.00     0.226 C  
ENDROOT
BRANCH   8  16
HETATM   16  C   UNL     1      -7.059   9.096  68.657  1.00  0.00    -0.071 A  
HETATM   17  C   UNL     1      -6.545   8.476  67.506  1.00  0.00    -0.058 A  
HETATM   18  C   UNL     1      -5.859   6.564  68.802  1.00  0.00    -0.021 A  
HETATM   19  C   UNL     1      -6.463   7.105  69.943  1.00  0.00    -0.039 A  
HETATM   20  C   UNL     1      -7.070   8.371  69.864  1.00  0.00    -0.051 A  
HETATM   21  C   UNL     1      -5.933   7.227  67.579  1.00  0.00    -0.034 A  
BRANCH  19  22
HETATM   22  N   UNL     1      -6.373   6.334  71.126  1.00  0.00    -0.047 N  
HETATM   23  H   UNL     1      -5.966   5.404  71.030  1.00  0.00     0.000 HD 
HETATM   24  C   UNL     1      -6.525   5.621  73.434  1.00  0.00    -0.072 C  
HETATM   25  O   UNL     1      -7.264   7.771  72.719  1.00  0.00    -0.072 OA 
HETATM   26  C   UNL     1      -6.775   6.699  72.395  1.00  0.00    -0.063 C  
ENDBRANCH  19  22
ENDBRANCH   8  16
BRANCH  13  27
HETATM   27  C   UNL     1      -5.387  13.389  70.011  1.00  0.00    -0.096 C  
HETATM   28  C   UNL     1      -5.206  14.828  69.584  1.00  0.00    -0.092 C  
HETATM   29  C   UNL     1      -5.510  14.516  71.014  1.00  0.00    -0.160 C  
ENDBRANCH  13  27
BRANCH  10  30
HETATM   30  N   UNL     1     -10.210  14.538  68.621  1.00  0.00    -0.238 NA 
HETATM   31  H   UNL     1     -10.808  14.756  69.418  1.00  0.00     0.000 HD 
BRANCH  30  32
HETATM   32  C   UNL     1      -9.736  15.658  67.903  1.00  0.00    -0.211 A  
HETATM   33  C   UNL     1      -8.777  16.544  68.401  1.00  0.00    -0.218 A  
HETATM   34  C   UNL     1      -8.483  17.739  67.724  1.00  0.00    -0.236 A  
HETATM   35  C   UNL     1      -9.137  18.054  66.532  1.00  0.00    -0.269 A  
HETATM   36  C   UNL     1     -10.033  17.153  65.972  1.00  0.00    -0.270 A  
HETATM   37  I   UNL     1      -8.819  19.900  65.628  1.00  0.00     1.051 I  
HETATM   38  C   UNL     1     -10.324  15.975  66.661  1.00  0.00    -0.298 A  
HETATM   39  F   UNL     1     -11.218  15.130  66.122  1.00  0.00    -0.336 F  
ENDBRANCH  30  32
ENDBRANCH  10  30
TORSDOF 5
ENDMDL
MODEL      147
REMARK 921   NORMALIZED FREE ENERGY PREDICTED BY IDOCK:    0.31 KCAL/MOL
REMARK 922        TOTAL FREE ENERGY PREDICTED BY IDOCK:    0.19 KCAL/MOL
REMARK 923 INTER-LIGAND FREE ENERGY PREDICTED BY IDOCK:   -5.78 KCAL/MOL
REMARK 924 INTRA-LIGAND FREE ENERGY PREDICTED BY IDOCK:    5.97 KCAL/MOL
REMARK 927      BINDING AFFINITY PREDICTED BY RF-SCORE:    0.00 PKD
ROOT
HETATM    1  C   UNL     1      -5.947  10.732  64.922  1.00  0.00     0.061 C  
HETATM    2  N   UNL     1      -6.893   9.900  65.656  1.00  0.00    -0.100 N  
HETATM    3  C   UNL     1      -6.503   8.588  65.858  1.00  0.00    -0.053 C  
HETATM    4  O   UNL     1      -5.550   8.073  65.271  1.00  0.00    -0.039 OA 
HETATM    5  C   UNL     1      -7.240   7.811  66.900  1.00  0.00    -0.089 C  
HETATM    6  C   UNL     1      -8.435   8.264  67.360  1.00  0.00    -0.125 C  
HETATM    7  C   UNL     1      -6.421   6.636  67.370  1.00  0.00    -0.048 C  
HETATM    8  N   UNL     1      -9.256   7.572  68.270  1.00  0.00    -0.139 N  
HETATM    9  C   UNL     1     -10.413   8.150  68.854  1.00  0.00    -0.185 C  
HETATM   10  C   UNL     1      -8.097  10.433  66.134  1.00  0.00    -0.139 C  
HETATM   11  O   UNL     1     -11.082   7.580  69.726  1.00  0.00    -0.224 OA 
HETATM   12  O   UNL     1     -10.313  11.441  67.521  1.00  0.00    -0.188 OA 
HETATM   13  N   UNL     1     -10.811   9.401  68.405  1.00  0.00    -0.158 N  
HETATM   14  C   UNL     1      -8.840   9.640  66.963  1.00  0.00    -0.142 C  
HETATM   15  C   UNL     1     -10.045  10.241  67.617  1.00  0.00    -0.191 C  
ENDROOT
BRANCH   8  16
HETATM   16  C   UNL     1      -9.163   6.144  68.548  1.00  0.00    -0.115 A  
HETATM   17  C   UNL     1      -9.358   5.676  69.858  1.00  0.00    -0.181 A  
HETATM   18  C   UNL     1      -9.669   3.430  69.046  1.00  0.00     0.010 A  
HETATM   19  C   UNL     1      -9.367   3.845  67.744  1.00  0.00    -0.183 A  
HETATM   20  C   UNL     1      -9.106   5.206  67.500  1.00  0.00    -0.118 A  
HETATM   21  C   UNL     1      -9.627   4.333  70.105  1.00  0.00    -0.269 A  
BRANCH  19  22
HETATM   22  N   UNL     1      -9.392   2.845  66.744  1.00  0.00    -0.350 N  
HETATM   23  H   UNL     1      -9.326   1.880  67.068  1.00  0.00     0.000 HD 
HETATM   24  C   UNL     1      -9.493   1.725  64.601  1.00  0.00    -0.084 C  
HETATM   25  O   UNL     1      -9.603   4.097  64.799  1.00  0.00    -0.159 OA 
HETATM   26  C   UNL     1      -9.494   3.027  65.380  1.00  0.00    -0.066 C  
ENDBRANCH  19  22
ENDBRANCH   8  16
BRANCH  13  27
HETATM   27  C   UNL     1     -11.999   9.991  69.023  1.00  0.00     0.449 C  
HETATM   28  C   UNL     1     -12.077  10.146  70.525  1.00  0.00    -0.380 C  
HETATM   29  C   UNL     1     -12.042  11.364  69.658  1.00  0.00    -0.373 C  
ENDBRANCH  13  27
BRANCH  10  30
HETATM   30  N   UNL     1      -8.402  11.740  65.781  1.00  0.00    -0.328 NA 
HETATM   31  H   UNL     1      -8.247  11.971  64.799  1.00  0.00     0.000 HD 
BRANCH  30  32
HETATM   32  C   UNL     1      -8.894  12.798  66.575  1.00  0.00    -0.038 A  
HETATM   33  C   UNL     1      -8.228  13.293  67.700  1.00  0.00    -0.179 A  
HETATM   34  C   UNL     1      -8.852  14.214  68.557  1.00  0.00    -0.173 A  
HETATM   35  C   UNL     1     -10.146  14.661  68.289  1.00  0.00    -0.228 A  
HETATM   36  C   UNL     1     -10.799  14.250  67.135  1.00  0.00    -0.296 A  
HETATM   37  I   UNL     1     -11.124  15.893  69.652  1.00  0.00    -0.377 I  
HETATM   38  C   UNL     1     -10.172  13.326  66.299  1.00  0.00    -0.296 A  
HETATM   39  F   UNL     1     -10.830  12.913  65.204  1.00  0.00    -0.289 F  
ENDBRANCH  30  32
ENDBRANCH  10  30
TORSDOF 5
ENDMDL
MODEL      148
REMARK 921   NORMALIZED FREE ENERGY PREDICTED BY IDOCK:    0.35 KCAL/MOL
REMARK 922        TOTAL FREE ENERGY PREDICTED BY IDOCK:    0.24 KCAL/MOL
REMARK 923 INTER-LIGAND FREE ENERGY PREDICTED BY IDOCK:   -2.96 KCAL/MOL
REMARK 924 INTRA-LIGAND FREE ENERGY PREDICTED BY IDOCK:    3.20 KCAL/MOL
REMARK 927      BINDING AFFINITY PREDICTED BY RF-SCORE:    0.00 PKD
ROOT
HETATM    1  C   UNL     1     -13.212  14.774  66.461  1.00  0.00     2.212 C  
HETATM    2  N   UNL     1     -12.024  13.968  66.717  1.00  0.00    -0.425 N  
HETATM    3  C   UNL     1     -12.065  12.674  66.230  1.00  0.00    -0.289 C  
HETATM    4  O   UNL     1     -13.098  12.143  65.822  1.00  0.00     0.961 OA 
HETATM    5  C   UNL     1     -10.765  11.942  66.134  1.00  0.00    -0.318 C  
HETATM    6  C   UNL     1      -9.680  12.402  66.809  1.00  0.00    -0.223 C  
HETATM    7  C   UNL     1     -10.865  10.803  65.150  1.00  0.00    -0.057 C  
HETATM    8  N   UNL     1      -8.436  11.747  66.864  1.00  0.00    -0.170 N  
HETATM    9  C   UNL     1      -7.281  12.338  67.438  1.00  0.00    -0.147 C  
HETATM   10  C   UNL     1     -10.921  14.509  67.391  1.00  0.00    -0.303 C  
HETATM   11  O   UNL     1      -6.164  11.805  67.402  1.00  0.00    -0.079 OA 
HETATM   12  O   UNL     1      -8.495  15.557  68.321  1.00  0.00    -0.151 OA 
HETATM   13  N   UNL     1      -7.427  13.558  68.081  1.00  0.00    -0.118 N  
HETATM   14  C   UNL     1      -9.786  13.750  67.430  1.00  0.00    -0.238 C  
HETATM   15  C   UNL     1      -8.546  14.367  68.000  1.00  0.00    -0.166 C  
ENDROOT
BRANCH   8  16
HETATM   16  C   UNL     1      -8.229  10.336  66.559  1.00  0.00    -0.127 A  
HETATM   17  C   UNL     1      -9.088   9.372  67.112  1.00  0.00    -0.148 A  
HETATM   18  C   UNL     1      -8.330   7.734  65.517  1.00  0.00    -0.151 A  
HETATM   19  C   UNL     1      -7.384   8.637  65.019  1.00  0.00    -0.086 A  
HETATM   20  C   UNL     1      -7.331   9.939  65.550  1.00  0.00    -0.122 A  
HETATM   21  C   UNL     1      -9.152   8.085  66.585  1.00  0.00    -0.199 A  
BRANCH  19  22
HETATM   22  N   UNL     1      -6.564   8.171  63.964  1.00  0.00    -0.066 N  
HETATM   23  H   UNL     1      -5.984   8.869  63.500  1.00  0.00     0.000 HD 
HETATM   24  C   UNL     1      -5.477   6.736  62.346  1.00  0.00    -0.032 C  
HETATM   25  O   UNL     1      -7.053   5.900  63.927  1.00  0.00    -0.048 OA 
HETATM   26  C   UNL     1      -6.461   6.878  63.493  1.00  0.00    -0.043 C  
ENDBRANCH  19  22
ENDBRANCH   8  16
BRANCH  13  27
HETATM   27  C   UNL     1      -6.226  14.164  68.658  1.00  0.00    -0.088 C  
HETATM   28  C   UNL     1      -5.270  14.940  67.782  1.00  0.00    -0.029 C  
HETATM   29  C   UNL     1      -6.027  15.650  68.857  1.00  0.00    -0.103 C  
ENDBRANCH  13  27
BRANCH  10  30
HETATM   30  N   UNL     1     -11.053  15.792  67.904  1.00  0.00    -0.333 NA 
HETATM   31  H   UNL     1     -11.748  15.895  68.644  1.00  0.00     0.000 HD 
BRANCH  30  32
HETATM   32  C   UNL     1     -10.368  16.977  67.556  1.00  0.00    -0.329 A  
HETATM   33  C   UNL     1      -9.713  17.160  66.335  1.00  0.00    -0.307 A  
HETATM   34  C   UNL     1      -8.894  18.280  66.120  1.00  0.00    -0.113 A  
HETATM   35  C   UNL     1      -8.733  19.239  67.121  1.00  0.00    -0.290 A  
HETATM   36  C   UNL     1      -9.438  19.125  68.312  1.00  0.00    -0.408 A  
HETATM   37  I   UNL     1      -7.388  20.804  66.856  1.00  0.00    -0.082 I  
HETATM   38  C   UNL     1     -10.238  18.001  68.517  1.00  0.00    -0.385 A  
HETATM   39  F   UNL     1     -10.887  17.889  69.687  1.00  0.00     0.039 F  
ENDBRANCH  30  32
ENDBRANCH  10  30
TORSDOF 5
ENDMDL
MODEL      149
REMARK 921   NORMALIZED FREE ENERGY PREDICTED BY IDOCK:    1.41 KCAL/MOL
REMARK 922        TOTAL FREE ENERGY PREDICTED BY IDOCK:    1.61 KCAL/MOL
REMARK 923 INTER-LIGAND FREE ENERGY PREDICTED BY IDOCK:   -2.34 KCAL/MOL
REMARK 924 INTRA-LIGAND FREE ENERGY PREDICTED BY IDOCK:    3.95 KCAL/MOL
REMARK 927      BINDING AFFINITY PREDICTED BY RF-SCORE:    0.00 PKD
ROOT
HETATM    1  C   UNL     1     -12.465  12.869  67.313  1.00  0.00     0.499 C  
HETATM    2  N   UNL     1     -11.235  12.140  67.596  1.00  0.00    -0.266 N  
HETATM    3  C   UNL     1     -11.235  10.805  67.232  1.00  0.00    -0.197 C  
HETATM    4  O   UNL     1     -12.256  10.196  66.913  1.00  0.00     2.520 OA 
HETATM    5  C   UNL     1      -9.907  10.121  67.154  1.00  0.00    -0.231 C  
HETATM    6  C   UNL     1      -8.822  10.685  67.742  1.00  0.00    -0.133 C  
HETATM    7  C   UNL     1      -9.991   8.893  66.283  1.00  0.00    -0.337 C  
HETATM    8  N   UNL     1      -7.548  10.090  67.809  1.00  0.00    -0.090 N  
HETATM    9  C   UNL     1      -6.402  10.779  68.282  1.00  0.00    -0.057 C  
HETATM   10  C   UNL     1     -10.134  12.785  68.176  1.00  0.00    -0.239 C  
HETATM   11  O   UNL     1      -5.264  10.291  68.252  1.00  0.00    -0.036 OA 
HETATM   12  O   UNL     1      -7.727  14.014  68.912  1.00  0.00    -0.130 OA 
HETATM   13  N   UNL     1      -6.580  12.047  68.816  1.00  0.00    -0.075 N  
HETATM   14  C   UNL     1      -8.966  12.080  68.241  1.00  0.00    -0.186 C  
HETATM   15  C   UNL     1      -7.736  12.798  68.704  1.00  0.00    -0.064 C  
ENDROOT
BRANCH   8  16
HETATM   16  C   UNL     1      -7.289   8.667  67.627  1.00  0.00    -0.089 A  
HETATM   17  C   UNL     1      -7.599   7.766  68.659  1.00  0.00    -0.105 A  
HETATM   18  C   UNL     1      -7.461   5.912  67.128  1.00  0.00    -0.084 A  
HETATM   19  C   UNL     1      -7.039   6.771  66.106  1.00  0.00    -0.066 A  
HETATM   20  C   UNL     1      -6.947   8.151  66.363  1.00  0.00    -0.067 A  
HETATM   21  C   UNL     1      -7.702   6.400  68.409  1.00  0.00    -0.104 A  
BRANCH  19  22
HETATM   22  N   UNL     1      -6.775   6.172  64.851  1.00  0.00    -0.042 N  
HETATM   23  H   UNL     1      -5.875   6.392  64.426  1.00  0.00     0.000 HD 
HETATM   24  C   UNL     1      -6.990   4.866  62.825  1.00  0.00    -0.034 C  
HETATM   25  O   UNL     1      -8.700   4.924  64.485  1.00  0.00    -0.149 OA 
HETATM   26  C   UNL     1      -7.598   5.324  64.139  1.00  0.00    -0.071 C  
ENDBRANCH  19  22
ENDBRANCH   8  16
BRANCH  13  27
HETATM   27  C   UNL     1      -5.388  12.752  69.289  1.00  0.00    -0.071 C  
HETATM   28  C   UNL     1      -5.221  14.229  69.017  1.00  0.00    -0.081 C  
HETATM   29  C   UNL     1      -5.378  13.752  70.425  1.00  0.00    -0.116 C  
ENDBRANCH  13  27
BRANCH  10  30
HETATM   30  N   UNL     1     -10.305  14.104  68.574  1.00  0.00    -0.245 NA 
HETATM   31  H   UNL     1     -11.098  14.271  69.194  1.00  0.00     0.000 HD 
BRANCH  30  32
HETATM   32  C   UNL     1      -9.546  15.249  68.250  1.00  0.00    -0.206 A  
HETATM   33  C   UNL     1      -8.732  15.921  69.166  1.00  0.00    -0.256 A  
HETATM   34  C   UNL     1      -8.151  17.158  68.840  1.00  0.00    -0.203 A  
HETATM   35  C   UNL     1      -8.366  17.728  67.585  1.00  0.00    -0.228 A  
HETATM   36  C   UNL     1      -9.101  17.043  66.626  1.00  0.00    -0.278 A  
HETATM   37  I   UNL     1      -7.641  19.634  67.171  1.00  0.00    -0.322 I  
HETATM   38  C   UNL     1      -9.682  15.822  66.968  1.00  0.00    -0.228 A  
HETATM   39  F   UNL     1     -10.418  15.188  66.040  1.00  0.00    -0.273 F  
ENDBRANCH  30  32
ENDBRANCH  10  30
TORSDOF 5
ENDMDL
MODEL      150
REMARK 921   NORMALIZED FREE ENERGY PREDICTED BY IDOCK:    2.10 KCAL/MOL
REMARK 922        TOTAL FREE ENERGY PREDICTED BY IDOCK:    2.50 KCAL/MOL
REMARK 923 INTER-LIGAND FREE ENERGY PREDICTED BY IDOCK:    1.66 KCAL/MOL
REMARK 924 INTRA-LIGAND FREE ENERGY PREDICTED BY IDOCK:    0.84 KCAL/MOL
REMARK 927      BINDING AFFINITY PREDICTED BY RF-SCORE:    0.00 PKD
ROOT
HETATM    1  C   UNL     1      -6.644   9.402  67.948  1.00  0.00    -0.063 C  
HETATM    2  N   UNL     1      -7.204  10.739  68.113  1.00  0.00    -0.081 N  
HETATM    3  C   UNL     1      -6.361  11.784  67.780  1.00  0.00    -0.067 C  
HETATM    4  O   UNL     1      -5.154  11.637  67.586  1.00  0.00    -0.048 OA 
HETATM    5  C   UNL     1      -6.989  13.125  67.575  1.00  0.00    -0.155 C  
HETATM    6  C   UNL     1      -8.247  13.359  68.032  1.00  0.00    -0.161 C  
HETATM    7  C   UNL     1      -6.096  14.012  66.745  1.00  0.00     2.124 C  
HETATM    8  N   UNL     1      -8.900  14.604  67.975  1.00  0.00    -0.163 N  
HETATM    9  C   UNL     1     -10.269  14.769  68.307  1.00  0.00    -0.227 C  
HETATM   10  C   UNL     1      -8.521  10.915  68.557  1.00  0.00    -0.147 C  
HETATM   11  O   UNL     1     -10.870  15.842  68.167  1.00  0.00    -0.291 OA 
HETATM   12  O   UNL     1     -11.240  11.424  69.005  1.00  0.00    -0.214 OA 
HETATM   13  N   UNL     1     -10.947  13.677  68.829  1.00  0.00    -0.258 N  
HETATM   14  C   UNL     1      -9.025  12.185  68.513  1.00  0.00    -0.082 C  
HETATM   15  C   UNL     1     -10.477  12.377  68.826  1.00  0.00    -0.154 C  
ENDROOT
BRANCH   8  16
HETATM   16  C   UNL     1      -8.226  15.884  67.797  1.00  0.00    -0.146 A  
HETATM   17  C   UNL     1      -7.749  16.249  66.527  1.00  0.00    -0.260 A  
HETATM   18  C   UNL     1      -7.546  18.545  67.226  1.00  0.00    -0.228 A  
HETATM   19  C   UNL     1      -7.909  18.194  68.531  1.00  0.00    -0.297 A  
HETATM   20  C   UNL     1      -8.242  16.856  68.815  1.00  0.00    -0.244 A  
HETATM   21  C   UNL     1      -7.428  17.572  66.237  1.00  0.00    -0.355 A  
BRANCH  19  22
HETATM   22  N   UNL     1      -7.956  19.246  69.475  1.00  0.00     0.035 N  
HETATM   23  H   UNL     1      -7.065  19.683  69.710  1.00  0.00     0.000 HD 
HETATM   24  C   UNL     1      -8.753  20.886  71.067  1.00  0.00     3.009 C  
HETATM   25  O   UNL     1     -10.225  19.378  69.954  1.00  0.00     0.097 OA 
HETATM   26  C   UNL     1      -9.071  19.749  70.114  1.00  0.00     1.097 C  
ENDBRANCH  19  22
ENDBRANCH   8  16
BRANCH  13  27
HETATM   27  C   UNL     1     -12.362  13.857  69.157  1.00  0.00    -0.122 C  
HETATM   28  C   UNL     1     -12.773  14.277  70.549  1.00  0.00    -0.391 C  
HETATM   29  C   UNL     1     -13.022  15.197  69.398  1.00  0.00     0.544 C  
ENDBRANCH  13  27
BRANCH  10  30
HETATM   30  N   UNL     1      -9.223   9.781  68.943  1.00  0.00    -0.149 NA 
HETATM   31  H   UNL     1     -10.060   9.581  68.394  1.00  0.00     0.000 HD 
BRANCH  30  32
HETATM   32  C   UNL     1      -8.953   8.863  69.980  1.00  0.00    -0.165 A  
HETATM   33  C   UNL     1      -8.390   9.227  71.206  1.00  0.00     0.027 A  
HETATM   34  C   UNL     1      -7.971   8.249  72.123  1.00  0.00    -0.186 A  
HETATM   35  C   UNL     1      -8.125   6.894  71.828  1.00  0.00    -0.101 A  
HETATM   36  C   UNL     1      -8.757   6.505  70.655  1.00  0.00    -0.144 A  
HETATM   37  I   UNL     1      -7.350   5.455  73.116  1.00  0.00    -0.093 I  
HETATM   38  C   UNL     1      -9.157   7.487  69.748  1.00  0.00    -0.140 A  
HETATM   39  F   UNL     1      -9.736   7.093  68.602  1.00  0.00    -0.140 F  
ENDBRANCH  30  32
ENDBRANCH  10  30
TORSDOF 5
ENDMDL
MODEL      151
REMARK 921   NORMALIZED FREE ENERGY PREDICTED BY IDOCK:    2.29 KCAL/MOL
REMARK 922        TOTAL FREE ENERGY PREDICTED BY IDOCK:    2.74 KCAL/MOL
REMARK 923 INTER-LIGAND FREE ENERGY PREDICTED BY IDOCK:   -3.62 KCAL/MOL
REMARK 924 INTRA-LIGAND FREE ENERGY PREDICTED BY IDOCK:    6.36 KCAL/MOL
REMARK 927      BINDING AFFINITY PREDICTED BY RF-SCORE:    0.00 PKD
ROOT
HETATM    1  C   UNL     1     -12.871  12.820  67.271  1.00  0.00     2.083 C  
HETATM    2  N   UNL     1     -11.432  12.641  67.423  1.00  0.00    -0.316 N  
HETATM    3  C   UNL     1     -10.984  11.334  67.366  1.00  0.00    -0.282 C  
HETATM    4  O   UNL     1     -11.739  10.363  67.423  1.00  0.00    -0.177 OA 
HETATM    5  C   UNL     1      -9.521  11.125  67.143  1.00  0.00    -0.187 C  
HETATM    6  C   UNL     1      -8.655  12.153  67.337  1.00  0.00    -0.175 C  
HETATM    7  C   UNL     1      -9.255   9.743  66.600  1.00  0.00    -0.184 C  
HETATM    8  N   UNL     1      -7.255  12.047  67.245  1.00  0.00    -0.143 N  
HETATM    9  C   UNL     1      -6.395  13.175  67.289  1.00  0.00     0.106 C  
HETATM   10  C   UNL     1     -10.585  13.745  67.588  1.00  0.00    -0.242 C  
HETATM   11  O   UNL     1      -5.172  13.095  67.112  1.00  0.00    -0.335 OA 
HETATM   12  O   UNL     1      -8.731  15.843  67.484  1.00  0.00    -0.173 OA 
HETATM   13  N   UNL     1      -6.959  14.412  67.561  1.00  0.00    -0.184 N  
HETATM   14  C   UNL     1      -9.240  13.506  67.541  1.00  0.00    -0.219 C  
HETATM   15  C   UNL     1      -8.316  14.684  67.551  1.00  0.00    -0.190 C  
ENDROOT
BRANCH   8  16
HETATM   16  C   UNL     1      -6.512  10.795  67.322  1.00  0.00    -0.070 A  
HETATM   17  C   UNL     1      -6.289  10.195  68.572  1.00  0.00    -0.048 A  
HETATM   18  C   UNL     1      -5.712   8.113  67.507  1.00  0.00    -0.039 A  
HETATM   19  C   UNL     1      -5.816   8.713  66.248  1.00  0.00    -0.047 A  
HETATM   20  C   UNL     1      -6.210  10.061  66.160  1.00  0.00    -0.076 A  
HETATM   21  C   UNL     1      -5.909   8.859  68.667  1.00  0.00    -0.041 A  
BRANCH  19  22
HETATM   22  N   UNL     1      -5.552   7.884  65.132  1.00  0.00    -0.036 N  
HETATM   23  H   UNL     1      -4.576   7.634  64.975  1.00  0.00     0.000 HD 
HETATM   24  C   UNL     1      -5.831   6.516  63.155  1.00  0.00    -0.030 C  
HETATM   25  O   UNL     1      -7.678   7.540  64.260  1.00  0.00    -0.114 OA 
HETATM   26  C   UNL     1      -6.467   7.375  64.233  1.00  0.00    -0.044 C  
ENDBRANCH  19  22
ENDBRANCH   8  16
BRANCH  13  27
HETATM   27  C   UNL     1      -6.064  15.569  67.592  1.00  0.00    -0.133 C  
HETATM   28  C   UNL     1      -6.546  16.890  68.145  1.00  0.00    -0.148 C  
HETATM   29  C   UNL     1      -5.456  16.149  68.851  1.00  0.00    -0.112 C  
ENDBRANCH  13  27
BRANCH  10  30
HETATM   30  N   UNL     1     -11.179  14.993  67.719  1.00  0.00    -0.311 NA 
HETATM   31  H   UNL     1     -12.190  14.979  67.857  1.00  0.00     0.000 HD 
BRANCH  30  32
HETATM   32  C   UNL     1     -10.594  16.277  67.689  1.00  0.00    -0.311 A  
HETATM   33  C   UNL     1     -10.313  17.024  68.837  1.00  0.00    -0.337 A  
HETATM   34  C   UNL     1      -9.908  18.366  68.740  1.00  0.00    -0.388 A  
HETATM   35  C   UNL     1      -9.765  18.970  67.490  1.00  0.00    -0.314 A  
HETATM   36  C   UNL     1      -9.957  18.228  66.332  1.00  0.00    -0.385 A  
HETATM   37  I   UNL     1      -9.329  21.000  67.361  1.00  0.00     0.641 I  
HETATM   38  C   UNL     1     -10.371  16.900  66.444  1.00  0.00    -0.300 A  
HETATM   39  F   UNL     1     -10.584  16.206  65.314  1.00  0.00    -0.359 F  
ENDBRANCH  30  32
ENDBRANCH  10  30
TORSDOF 5
ENDMDL
MODEL      152
REMARK 921   NORMALIZED FREE ENERGY PREDICTED BY IDOCK:    2.43 KCAL/MOL
REMARK 922        TOTAL FREE ENERGY PREDICTED BY IDOCK:    2.92 KCAL/MOL
REMARK 923 INTER-LIGAND FREE ENERGY PREDICTED BY IDOCK:   -4.68 KCAL/MOL
REMARK 924 INTRA-LIGAND FREE ENERGY PREDICTED BY IDOCK:    7.61 KCAL/MOL
REMARK 927      BINDING AFFINITY PREDICTED BY RF-SCORE:    0.00 PKD
ROOT
HETATM    1  C   UNL     1     -12.108   7.250  70.251  1.00  0.00     0.063 C  
HETATM    2  N   UNL     1     -11.803   8.514  69.591  1.00  0.00     0.664 N  
HETATM    3  C   UNL     1     -12.158   9.654  70.290  1.00  0.00     0.023 C  
HETATM    4  O   UNL     1     -12.889   9.632  71.281  1.00  0.00    -0.327 OA 
HETATM    5  C   UNL     1     -11.546  10.943  69.846  1.00  0.00    -0.410 C  
HETATM    6  C   UNL     1     -10.961  11.027  68.624  1.00  0.00    -0.224 C  
HETATM    7  C   UNL     1     -11.593  11.966  70.954  1.00  0.00     0.707 C  
HETATM    8  N   UNL     1     -10.435  12.208  68.068  1.00  0.00    -0.206 N  
HETATM    9  C   UNL     1      -9.684  12.223  66.864  1.00  0.00    -0.212 C  
HETATM   10  C   UNL     1     -11.167   8.537  68.342  1.00  0.00     0.575 C  
HETATM   11  O   UNL     1      -9.140  13.244  66.424  1.00  0.00    -0.173 OA 
HETATM   12  O   UNL     1      -9.526   8.762  66.083  1.00  0.00    -0.218 OA 
HETATM   13  N   UNL     1      -9.579  11.039  66.149  1.00  0.00    -0.200 N  
HETATM   14  C   UNL     1     -10.757   9.755  67.878  1.00  0.00    -0.312 C  
HETATM   15  C   UNL     1      -9.933   9.790  66.628  1.00  0.00    -0.229 C  
ENDROOT
BRANCH   8  16
HETATM   16  C   UNL     1     -10.774  13.554  68.513  1.00  0.00    -0.255 A  
HETATM   17  C   UNL     1     -10.719  14.622  67.602  1.00  0.00    -0.271 A  
HETATM   18  C   UNL     1     -12.032  15.996  69.081  1.00  0.00    -0.187 A  
HETATM   19  C   UNL     1     -12.009  14.992  70.056  1.00  0.00    -0.332 A  
HETATM   20  C   UNL     1     -11.370  13.772  69.769  1.00  0.00    -0.200 A  
HETATM   21  C   UNL     1     -11.358  15.829  67.875  1.00  0.00    -0.277 A  
BRANCH  19  22
HETATM   22  N   UNL     1     -12.685  15.275  71.267  1.00  0.00    -0.365 N  
HETATM   23  H   UNL     1     -12.872  16.258  71.460  1.00  0.00     0.000 HD 
HETATM   24  C   UNL     1     -13.812  15.027  73.394  1.00  0.00     0.699 C  
HETATM   25  O   UNL     1     -13.009  13.154  72.157  1.00  0.00    -0.327 OA 
HETATM   26  C   UNL     1     -13.118  14.370  72.214  1.00  0.00    -0.389 C  
ENDBRANCH  19  22
ENDBRANCH   8  16
BRANCH  13  27
HETATM   27  C   UNL     1      -8.792  11.064  64.916  1.00  0.00    -0.057 C  
HETATM   28  C   UNL     1      -8.315   9.773  64.292  1.00  0.00    -0.168 C  
HETATM   29  C   UNL     1      -9.306  10.623  63.562  1.00  0.00    -0.319 C  
ENDBRANCH  13  27
BRANCH  10  30
HETATM   30  N   UNL     1     -10.950   7.319  67.713  1.00  0.00    -0.502 NA 
HETATM   31  H   UNL     1     -11.397   7.215  66.802  1.00  0.00     0.000 HD 
BRANCH  30  32
HETATM   32  C   UNL     1     -10.205   6.201  68.146  1.00  0.00    -0.175 A  
HETATM   33  C   UNL     1      -9.486   6.169  69.344  1.00  0.00    -0.153 A  
HETATM   34  C   UNL     1      -8.614   5.106  69.631  1.00  0.00    -0.100 A  
HETATM   35  C   UNL     1      -8.463   4.054  68.727  1.00  0.00    -0.082 A  
HETATM   36  C   UNL     1      -9.227   4.019  67.567  1.00  0.00    -0.194 A  
HETATM   37  I   UNL     1      -7.047   2.572  69.082  1.00  0.00    -0.044 I  
HETATM   38  C   UNL     1     -10.080   5.087  67.290  1.00  0.00    -0.184 A  
HETATM   39  F   UNL     1     -10.787   5.054  66.148  1.00  0.00    -0.322 F  
ENDBRANCH  30  32
ENDBRANCH  10  30
TORSDOF 5
ENDMDL
MODEL      153
REMARK 921   NORMALIZED FREE ENERGY PREDICTED BY IDOCK:    2.48 KCAL/MOL
REMARK 922        TOTAL FREE ENERGY PREDICTED BY IDOCK:    2.99 KCAL/MOL
REMARK 923 INTER-LIGAND FREE ENERGY PREDICTED BY IDOCK:   -0.71 KCAL/MOL
REMARK 924 INTRA-LIGAND FREE ENERGY PREDICTED BY IDOCK:    3.70 KCAL/MOL
REMARK 927      BINDING AFFINITY PREDICTED BY RF-SCORE:    0.00 PKD
ROOT
HETATM    1  C   UNL     1      -5.126  11.456  71.223  1.00  0.00    -0.092 C  
HETATM    2  N   UNL     1      -6.089  11.862  70.206  1.00  0.00    -0.150 N  
HETATM    3  C   UNL     1      -6.533  13.169  70.293  1.00  0.00     0.217 C  
HETATM    4  O   UNL     1      -6.333  13.882  71.277  1.00  0.00    -0.093 OA 
HETATM    5  C   UNL     1      -7.213  13.738  69.089  1.00  0.00    -0.016 C  
HETATM    6  C   UNL     1      -7.667  12.908  68.115  1.00  0.00    -0.138 C  
HETATM    7  C   UNL     1      -7.176  15.246  69.118  1.00  0.00    -0.169 C  
HETATM    8  N   UNL     1      -8.398  13.325  66.986  1.00  0.00    -0.132 N  
HETATM    9  C   UNL     1      -8.710  12.455  65.910  1.00  0.00     0.429 C  
HETATM   10  C   UNL     1      -6.496  10.969  69.205  1.00  0.00    -0.079 C  
HETATM   11  O   UNL     1      -9.269  12.840  64.874  1.00  0.00     0.459 OA 
HETATM   12  O   UNL     1      -7.068   9.468  66.910  1.00  0.00    -0.084 OA 
HETATM   13  N   UNL     1      -8.387  11.112  66.044  1.00  0.00    -0.150 N  
HETATM   14  C   UNL     1      -7.257  11.480  68.192  1.00  0.00    -0.080 C  
HETATM   15  C   UNL     1      -7.568  10.590  67.029  1.00  0.00    -0.107 C  
ENDROOT
BRANCH   8  16
HETATM   16  C   UNL     1      -9.106  14.594  66.881  1.00  0.00    -0.252 A  
HETATM   17  C   UNL     1      -9.808  14.904  65.704  1.00  0.00    -0.372 A  
HETATM   18  C   UNL     1     -11.012  16.653  66.842  1.00  0.00     0.050 A  
HETATM   19  C   UNL     1     -10.249  16.444  67.997  1.00  0.00    -0.264 A  
HETATM   20  C   UNL     1      -9.289  15.416  68.009  1.00  0.00    -0.196 A  
HETATM   21  C   UNL     1     -10.767  15.913  65.688  1.00  0.00    -0.350 A  
BRANCH  19  22
HETATM   22  N   UNL     1     -10.542  17.277  69.102  1.00  0.00    -0.346 N  
HETATM   23  H   UNL     1     -11.352  17.014  69.664  1.00  0.00     0.000 HD 
HETATM   24  C   UNL     1     -10.450  19.054  70.743  1.00  0.00     2.178 C  
HETATM   25  O   UNL     1      -8.854  18.868  68.982  1.00  0.00    -0.258 OA 
HETATM   26  C   UNL     1      -9.856  18.404  69.506  1.00  0.00     0.256 C  
ENDBRANCH  19  22
ENDBRANCH   8  16
BRANCH  13  27
HETATM   27  C   UNL     1      -8.703  10.228  64.922  1.00  0.00    -0.185 C  
HETATM   28  C   UNL     1      -9.275   8.852  65.176  1.00  0.00    -0.100 C  
HETATM   29  C   UNL     1     -10.106   9.879  64.475  1.00  0.00     0.195 C  
ENDBRANCH  13  27
BRANCH  10  30
HETATM   30  N   UNL     1      -6.040   9.661  69.292  1.00  0.00    -0.037 NA 
HETATM   31  H   UNL     1      -5.029   9.548  69.212  1.00  0.00     0.000 HD 
BRANCH  30  32
HETATM   32  C   UNL     1      -6.765   8.464  69.475  1.00  0.00    -0.041 A  
HETATM   33  C   UNL     1      -6.496   7.284  68.775  1.00  0.00    -0.040 A  
HETATM   34  C   UNL     1      -7.366   6.185  68.859  1.00  0.00    -0.085 A  
HETATM   35  C   UNL     1      -8.508   6.249  69.659  1.00  0.00    -0.129 A  
HETATM   36  C   UNL     1      -8.754   7.377  70.430  1.00  0.00    -0.145 A  
HETATM   37  I   UNL     1      -9.875   4.681  69.647  1.00  0.00    -0.116 I  
HETATM   38  C   UNL     1      -7.889   8.466  70.327  1.00  0.00    -0.096 A  
HETATM   39  F   UNL     1      -8.160   9.563  71.054  1.00  0.00    -0.194 F  
ENDBRANCH  30  32
ENDBRANCH  10  30
TORSDOF 5
ENDMDL
MODEL      154
REMARK 921   NORMALIZED FREE ENERGY PREDICTED BY IDOCK:    2.97 KCAL/MOL
REMARK 922        TOTAL FREE ENERGY PREDICTED BY IDOCK:    3.62 KCAL/MOL
REMARK 923 INTER-LIGAND FREE ENERGY PREDICTED BY IDOCK:    0.79 KCAL/MOL
REMARK 924 INTRA-LIGAND FREE ENERGY PREDICTED BY IDOCK:    2.83 KCAL/MOL
REMARK 927      BINDING AFFINITY PREDICTED BY RF-SCORE:    0.00 PKD
ROOT
HETATM    1  C   UNL     1     -12.634   6.138  70.376  1.00  0.00     1.571 C  
HETATM    2  N   UNL     1     -11.417   6.878  70.066  1.00  0.00    -0.298 N  
HETATM    3  C   UNL     1     -11.399   7.508  68.834  1.00  0.00     0.465 C  
HETATM    4  O   UNL     1     -12.229   7.282  67.953  1.00  0.00     2.294 OA 
HETATM    5  C   UNL     1     -10.361   8.564  68.625  1.00  0.00    -0.224 C  
HETATM    6  C   UNL     1      -9.297   8.640  69.465  1.00  0.00    -0.153 C  
HETATM    7  C   UNL     1     -10.761   9.490  67.505  1.00  0.00    -0.311 C  
HETATM    8  N   UNL     1      -8.219   9.532  69.311  1.00  0.00    -0.105 N  
HETATM    9  C   UNL     1      -7.213   9.698  70.297  1.00  0.00    -0.135 C  
HETATM   10  C   UNL     1     -10.364   6.948  70.988  1.00  0.00    -0.205 C  
HETATM   11  O   UNL     1      -6.317  10.548  70.207  1.00  0.00    -0.112 OA 
HETATM   12  O   UNL     1      -8.379   7.547  72.872  1.00  0.00    -0.108 OA 
HETATM   13  N   UNL     1      -7.233   8.851  71.395  1.00  0.00    -0.097 N  
HETATM   14  C   UNL     1      -9.341   7.806  70.697  1.00  0.00    -0.162 C  
HETATM   15  C   UNL     1      -8.287   8.023  71.738  1.00  0.00    -0.127 C  
ENDROOT
BRANCH   8  16
HETATM   16  C   UNL     1      -7.877  10.209  68.066  1.00  0.00    -0.096 A  
HETATM   17  C   UNL     1      -7.112   9.538  67.097  1.00  0.00    -0.086 A  
HETATM   18  C   UNL     1      -7.749  11.153  65.428  1.00  0.00     0.338 A  
HETATM   19  C   UNL     1      -8.426  11.905  66.395  1.00  0.00    -0.039 A  
HETATM   20  C   UNL     1      -8.480  11.432  67.719  1.00  0.00    -0.128 A  
HETATM   21  C   UNL     1      -7.062   9.995  65.783  1.00  0.00    -0.117 A  
BRANCH  19  22
HETATM   22  N   UNL     1      -9.054  13.090  65.944  1.00  0.00    -0.410 N  
HETATM   23  H   UNL     1      -8.696  13.489  65.076  1.00  0.00     0.000 HD 
HETATM   24  C   UNL     1     -10.524  15.006  65.781  1.00  0.00    -0.353 C  
HETATM   25  O   UNL     1     -10.672  13.441  67.573  1.00  0.00    -0.250 OA 
HETATM   26  C   UNL     1     -10.095  13.767  66.546  1.00  0.00    -0.286 C  
ENDBRANCH  19  22
ENDBRANCH   8  16
BRANCH  13  27
HETATM   27  C   UNL     1      -6.197   9.040  72.411  1.00  0.00     0.036 C  
HETATM   28  C   UNL     1      -6.513   9.777  73.692  1.00  0.00     1.116 C  
HETATM   29  C   UNL     1      -6.163   8.325  73.744  1.00  0.00    -0.124 C  
ENDBRANCH  13  27
BRANCH  10  30
HETATM   30  N   UNL     1     -10.479   6.193  72.147  1.00  0.00    -0.198 NA 
HETATM   31  H   UNL     1     -11.358   6.307  72.654  1.00  0.00     0.000 HD 
BRANCH  30  32
HETATM   32  C   UNL     1      -9.563   5.292  72.730  1.00  0.00    -0.149 A  
HETATM   33  C   UNL     1      -8.322   4.981  72.168  1.00  0.00    -0.124 A  
HETATM   34  C   UNL     1      -7.537   3.940  72.691  1.00  0.00    -0.072 A  
HETATM   35  C   UNL     1      -7.979   3.208  73.794  1.00  0.00    -0.069 A  
HETATM   36  C   UNL     1      -9.169   3.551  74.423  1.00  0.00    -0.105 A  
HETATM   37  I   UNL     1      -6.890   1.564  74.456  1.00  0.00    -0.024 I  
HETATM   38  C   UNL     1      -9.944   4.578  73.886  1.00  0.00    -0.159 A  
HETATM   39  F   UNL     1     -11.108   4.875  74.487  1.00  0.00    -0.202 F  
ENDBRANCH  30  32
ENDBRANCH  10  30
TORSDOF 5
ENDMDL
MODEL      155
REMARK 921   NORMALIZED FREE ENERGY PREDICTED BY IDOCK:    3.10 KCAL/MOL
REMARK 922        TOTAL FREE ENERGY PREDICTED BY IDOCK:    3.79 KCAL/MOL
REMARK 923 INTER-LIGAND FREE ENERGY PREDICTED BY IDOCK:    0.23 KCAL/MOL
REMARK 924 INTRA-LIGAND FREE ENERGY PREDICTED BY IDOCK:    3.56 KCAL/MOL
REMARK 927      BINDING AFFINITY PREDICTED BY RF-SCORE:    0.00 PKD
ROOT
HETATM    1  C   UNL     1      -8.931  11.736  65.751  1.00  0.00    -0.010 C  
HETATM    2  N   UNL     1      -8.333  12.678  66.690  1.00  0.00    -0.003 N  
HETATM    3  C   UNL     1      -8.695  14.002  66.518  1.00  0.00     0.079 C  
HETATM    4  O   UNL     1      -9.281  14.413  65.516  1.00  0.00     0.105 OA 
HETATM    5  C   UNL     1      -8.419  14.936  67.653  1.00  0.00    -0.176 C  
HETATM    6  C   UNL     1      -7.556  14.568  68.635  1.00  0.00    -0.131 C  
HETATM    7  C   UNL     1      -9.290  16.163  67.558  1.00  0.00    -0.217 C  
HETATM    8  N   UNL     1      -7.155  15.397  69.699  1.00  0.00    -0.191 N  
HETATM    9  C   UNL     1      -6.386  14.925  70.794  1.00  0.00     0.089 C  
HETATM   10  C   UNL     1      -7.475  12.234  67.704  1.00  0.00    -0.134 C  
HETATM   11  O   UNL     1      -6.113  15.627  71.776  1.00  0.00     0.881 OA 
HETATM   12  O   UNL     1      -6.109  11.467  70.027  1.00  0.00    -0.125 OA 
HETATM   13  N   UNL     1      -5.910  13.623  70.739  1.00  0.00    -0.191 N  
HETATM   14  C   UNL     1      -7.104  13.150  68.647  1.00  0.00    -0.103 C  
HETATM   15  C   UNL     1      -6.322  12.666  69.829  1.00  0.00    -0.070 C  
ENDROOT
BRANCH   8  16
HETATM   16  C   UNL     1      -7.272  16.850  69.705  1.00  0.00     0.432 A  
HETATM   17  C   UNL     1      -6.133  17.639  69.933  1.00  0.00    -0.178 A  
HETATM   18  C   UNL     1      -7.266  19.584  69.075  1.00  0.00    -0.397 A  
HETATM   19  C   UNL     1      -8.451  18.851  68.943  1.00  0.00    -0.234 A  
HETATM   20  C   UNL     1      -8.451  17.482  69.268  1.00  0.00     0.243 A  
HETATM   21  C   UNL     1      -6.122  18.992  69.605  1.00  0.00    -0.293 A  
BRANCH  19  22
HETATM   22  N   UNL     1      -9.571  19.553  68.439  1.00  0.00    -0.370 N  
HETATM   23  H   UNL     1     -10.176  19.995  69.130  1.00  0.00     0.000 HD 
HETATM   24  C   UNL     1     -11.200  20.529  66.938  1.00  0.00     1.512 C  
HETATM   25  O   UNL     1      -9.335  19.275  66.145  1.00  0.00    -0.361 OA 
HETATM   26  C   UNL     1      -9.936  19.708  67.117  1.00  0.00    -0.387 C  
ENDBRANCH  19  22
ENDBRANCH   8  16
BRANCH  13  27
HETATM   27  C   UNL     1      -5.129  13.144  71.880  1.00  0.00    -0.123 C  
HETATM   28  C   UNL     1      -5.577  13.448  73.290  1.00  0.00     0.372 C  
HETATM   29  C   UNL     1      -5.564  12.032  72.810  1.00  0.00     1.373 C  
ENDBRANCH  13  27
BRANCH  10  30
HETATM   30  N   UNL     1      -7.127  10.890  67.703  1.00  0.00    -0.085 NA 
HETATM   31  H   UNL     1      -6.135  10.699  67.849  1.00  0.00     0.000 HD 
BRANCH  30  32
HETATM   32  C   UNL     1      -7.938   9.749  67.531  1.00  0.00    -0.106 A  
HETATM   33  C   UNL     1      -8.958   9.386  68.416  1.00  0.00    -0.128 A  
HETATM   34  C   UNL     1      -9.605   8.144  68.297  1.00  0.00    -0.154 A  
HETATM   35  C   UNL     1      -9.248   7.258  67.280  1.00  0.00    -0.131 A  
HETATM   36  C   UNL     1      -8.297   7.628  66.337  1.00  0.00    -0.129 A  
HETATM   37  I   UNL     1     -10.092   5.358  67.213  1.00  0.00    -0.272 I  
HETATM   38  C   UNL     1      -7.654   8.858  66.475  1.00  0.00    -0.092 A  
HETATM   39  F   UNL     1      -6.713   9.186  65.574  1.00  0.00    -0.069 F  
ENDBRANCH  30  32
ENDBRANCH  10  30
TORSDOF 5
ENDMDL
MODEL      156
REMARK 921   NORMALIZED FREE ENERGY PREDICTED BY IDOCK:    3.72 KCAL/MOL
REMARK 922        TOTAL FREE ENERGY PREDICTED BY IDOCK:    4.59 KCAL/MOL
REMARK 923 INTER-LIGAND FREE ENERGY PREDICTED BY IDOCK:    2.84 KCAL/MOL
REMARK 924 INTRA-LIGAND FREE ENERGY PREDICTED BY IDOCK:    1.75 KCAL/MOL
REMARK 927      BINDING AFFINITY PREDICTED BY RF-SCORE:    0.00 PKD
ROOT
HETATM    1  C   UNL     1     -13.077   9.893  68.328  1.00  0.00     7.334 C  
HETATM    2  N   UNL     1     -11.696  10.325  68.506  1.00  0.00    -0.007 N  
HETATM    3  C   UNL     1     -11.392  11.575  67.997  1.00  0.00    -0.298 C  
HETATM    4  O   UNL     1     -12.142  12.193  67.241  1.00  0.00    -0.565 OA 
HETATM    5  C   UNL     1     -10.124  12.212  68.470  1.00  0.00    -0.192 C  
HETATM    6  C   UNL     1      -9.177  11.456  69.082  1.00  0.00     0.179 C  
HETATM    7  C   UNL     1     -10.170  13.706  68.268  1.00  0.00    -0.243 C  
HETATM    8  N   UNL     1      -7.914  11.929  69.486  1.00  0.00     0.598 N  
HETATM    9  C   UNL     1      -7.019  11.156  70.270  1.00  0.00     0.467 C  
HETATM   10  C   UNL     1     -10.771   9.514  69.176  1.00  0.00    -0.210 C  
HETATM   11  O   UNL     1      -5.950  11.603  70.706  1.00  0.00    -0.335 OA 
HETATM   12  O   UNL     1      -8.936   8.224  70.854  1.00  0.00    -0.139 OA 
HETATM   13  N   UNL     1      -7.360   9.838  70.535  1.00  0.00    -0.140 N  
HETATM   14  C   UNL     1      -9.553  10.066  69.458  1.00  0.00    -0.249 C  
HETATM   15  C   UNL     1      -8.607   9.282  70.313  1.00  0.00    -0.210 C  
ENDROOT
BRANCH   8  16
HETATM   16  C   UNL     1      -7.283  13.141  68.978  1.00  0.00     0.005 A  
HETATM   17  C   UNL     1      -7.335  13.429  67.604  1.00  0.00    -0.173 A  
HETATM   18  C   UNL     1      -6.710  15.716  68.026  1.00  0.00    -0.148 A  
HETATM   19  C   UNL     1      -6.540  15.433  69.385  1.00  0.00    -0.155 A  
HETATM   20  C   UNL     1      -6.821  14.138  69.857  1.00  0.00     0.025 A  
HETATM   21  C   UNL     1      -7.068  14.711  67.131  1.00  0.00     0.161 A  
BRANCH  19  22
HETATM   22  N   UNL     1      -6.129  16.511  70.205  1.00  0.00    -0.082 N  
HETATM   23  H   UNL     1      -5.835  16.272  71.152  1.00  0.00     0.000 HD 
HETATM   24  C   UNL     1      -5.587  18.732  70.998  1.00  0.00    -0.127 C  
HETATM   25  O   UNL     1      -6.372  18.331  68.783  1.00  0.00    -0.204 OA 
HETATM   26  C   UNL     1      -6.083  17.848  69.868  1.00  0.00    -0.166 C  
ENDBRANCH  19  22
ENDBRANCH   8  16
BRANCH  13  27
HETATM   27  C   UNL     1      -6.434   9.055  71.355  1.00  0.00    -0.079 C  
HETATM   28  C   UNL     1      -6.291   7.568  71.130  1.00  0.00    -0.035 C  
HETATM   29  C   UNL     1      -5.131   8.470  70.854  1.00  0.00    -0.024 C  
ENDBRANCH  13  27
BRANCH  10  30
HETATM   30  N   UNL     1     -11.189   8.245  69.553  1.00  0.00    -0.439 NA 
HETATM   31  H   UNL     1     -11.857   8.220  70.324  1.00  0.00     0.000 HD 
BRANCH  30  32
HETATM   32  C   UNL     1     -10.829   6.985  69.031  1.00  0.00    -0.182 A  
HETATM   33  C   UNL     1     -10.785   5.816  69.796  1.00  0.00    -0.418 A  
HETATM   34  C   UNL     1     -10.240   4.633  69.271  1.00  0.00    -0.059 A  
HETATM   35  C   UNL     1      -9.747   4.603  67.965  1.00  0.00    -0.140 A  
HETATM   36  C   UNL     1      -9.855   5.725  67.155  1.00  0.00    -0.163 A  
HETATM   37  I   UNL     1      -8.791   2.897  67.254  1.00  0.00    -0.199 I  
HETATM   38  C   UNL     1     -10.386   6.897  67.695  1.00  0.00    -0.205 A  
HETATM   39  F   UNL     1     -10.453   7.984  66.908  1.00  0.00    -0.340 F  
ENDBRANCH  30  32
ENDBRANCH  10  30
TORSDOF 5
ENDMDL
MODEL      157
REMARK 921   NORMALIZED FREE ENERGY PREDICTED BY IDOCK:    5.08 KCAL/MOL
REMARK 922        TOTAL FREE ENERGY PREDICTED BY IDOCK:    6.35 KCAL/MOL
REMARK 923 INTER-LIGAND FREE ENERGY PREDICTED BY IDOCK:   -2.06 KCAL/MOL
REMARK 924 INTRA-LIGAND FREE ENERGY PREDICTED BY IDOCK:    8.42 KCAL/MOL
REMARK 927      BINDING AFFINITY PREDICTED BY RF-SCORE:    0.00 PKD
ROOT
HETATM    1  C   UNL     1     -10.754  12.317  66.901  1.00  0.00    -0.232 C  
HETATM    2  N   UNL     1     -10.507  10.966  67.390  1.00  0.00    -0.210 N  
HETATM    3  C   UNL     1      -9.780  10.148  66.543  1.00  0.00    -0.200 C  
HETATM    4  O   UNL     1      -9.553  10.433  65.367  1.00  0.00    -0.208 OA 
HETATM    5  C   UNL     1      -9.189   8.909  67.135  1.00  0.00    -0.169 C  
HETATM    6  C   UNL     1      -9.637   8.453  68.333  1.00  0.00    -0.148 C  
HETATM    7  C   UNL     1      -8.044   8.408  66.290  1.00  0.00    -0.105 C  
HETATM    8  N   UNL     1      -9.218   7.254  68.939  1.00  0.00    -0.142 N  
HETATM    9  C   UNL     1      -9.581   6.896  70.263  1.00  0.00    -0.168 C  
HETATM   10  C   UNL     1     -10.967  10.563  68.651  1.00  0.00    -0.248 C  
HETATM   11  O   UNL     1      -9.138   5.889  70.833  1.00  0.00    -0.147 OA 
HETATM   12  O   UNL     1     -11.428   9.750  71.292  1.00  0.00    -0.353 OA 
HETATM   13  N   UNL     1     -10.488   7.706  70.930  1.00  0.00    -0.206 N  
HETATM   14  C   UNL     1     -10.540   9.348  69.106  1.00  0.00    -0.234 C  
HETATM   15  C   UNL     1     -10.882   8.964  70.513  1.00  0.00    -0.236 C  
ENDROOT
BRANCH   8  16
HETATM   16  C   UNL     1      -8.572   6.153  68.236  1.00  0.00    -0.116 A  
HETATM   17  C   UNL     1      -8.716   4.841  68.717  1.00  0.00    -0.109 A  
HETATM   18  C   UNL     1      -7.953   3.950  66.613  1.00  0.00    -0.096 A  
HETATM   19  C   UNL     1      -7.692   5.243  66.146  1.00  0.00    -0.088 A  
HETATM   20  C   UNL     1      -7.996   6.345  66.966  1.00  0.00    -0.109 A  
HETATM   21  C   UNL     1      -8.426   3.746  67.907  1.00  0.00    -0.106 A  
BRANCH  19  22
HETATM   22  N   UNL     1      -7.169   5.344  64.834  1.00  0.00    -0.064 N  
HETATM   23  H   UNL     1      -6.455   4.662  64.579  1.00  0.00     0.000 HD 
HETATM   24  C   UNL     1      -6.754   6.073  62.564  1.00  0.00    -0.040 C  
HETATM   25  O   UNL     1      -8.362   7.137  63.965  1.00  0.00     0.011 OA 
HETATM   26  C   UNL     1      -7.518   6.259  63.863  1.00  0.00    -0.080 C  
ENDBRANCH  19  22
ENDBRANCH   8  16
BRANCH  13  27
HETATM   27  C   UNL     1     -10.845   7.332  72.299  1.00  0.00    -0.238 C  
HETATM   28  C   UNL     1      -9.921   7.672  73.445  1.00  0.00    -0.373 C  
HETATM   29  C   UNL     1     -11.271   8.311  73.371  1.00  0.00     0.909 C  
ENDBRANCH  13  27
BRANCH  10  30
HETATM   30  N   UNL     1     -11.761  11.456  69.356  1.00  0.00    -0.307 NA 
HETATM   31  H   UNL     1     -12.684  11.105  69.615  1.00  0.00     0.000 HD 
BRANCH  30  32
HETATM   32  C   UNL     1     -11.485  12.778  69.768  1.00  0.00    -0.129 A  
HETATM   33  C   UNL     1     -12.405  13.584  70.444  1.00  0.00    -0.397 A  
HETATM   34  C   UNL     1     -12.143  14.947  70.660  1.00  0.00    -0.366 A  
HETATM   35  C   UNL     1     -10.948  15.515  70.216  1.00  0.00    -0.334 A  
HETATM   36  C   UNL     1      -9.981  14.719  69.616  1.00  0.00     0.038 A  
HETATM   37  I   UNL     1     -10.643  17.565  70.392  1.00  0.00     2.599 I  
HETATM   38  C   UNL     1     -10.260  13.370  69.396  1.00  0.00     0.482 A  
HETATM   39  F   UNL     1      -9.327  12.621  68.785  1.00  0.00    -0.144 F  
ENDBRANCH  30  32
ENDBRANCH  10  30
TORSDOF 5
ENDMDL
MODEL      158
REMARK 921   NORMALIZED FREE ENERGY PREDICTED BY IDOCK:    6.73 KCAL/MOL
REMARK 922        TOTAL FREE ENERGY PREDICTED BY IDOCK:    8.48 KCAL/MOL
REMARK 923 INTER-LIGAND FREE ENERGY PREDICTED BY IDOCK:    5.08 KCAL/MOL
REMARK 924 INTRA-LIGAND FREE ENERGY PREDICTED BY IDOCK:    3.41 KCAL/MOL
REMARK 927      BINDING AFFINITY PREDICTED BY RF-SCORE:    0.00 PKD
ROOT
HETATM    1  C   UNL     1      -6.666  13.869  70.739  1.00  0.00     0.602 C  
HETATM    2  N   UNL     1      -6.847  12.621  70.007  1.00  0.00     0.353 N  
HETATM    3  C   UNL     1      -6.141  11.536  70.494  1.00  0.00    -0.021 C  
HETATM    4  O   UNL     1      -5.241  11.640  71.328  1.00  0.00    -0.210 OA 
HETATM    5  C   UNL     1      -6.567  10.182  70.026  1.00  0.00    -0.117 C  
HETATM    6  C   UNL     1      -7.362  10.065  68.931  1.00  0.00    -0.080 C  
HETATM    7  C   UNL     1      -6.096   9.114  70.981  1.00  0.00    -0.063 C  
HETATM    8  N   UNL     1      -7.749   8.843  68.351  1.00  0.00    -0.098 N  
HETATM    9  C   UNL     1      -8.713   8.756  67.313  1.00  0.00    -0.129 C  
HETATM   10  C   UNL     1      -7.707  12.555  68.903  1.00  0.00     0.085 C  
HETATM   11  O   UNL     1      -9.125   7.677  66.867  1.00  0.00    -0.133 OA 
HETATM   12  O   UNL     1      -9.700  12.151  66.975  1.00  0.00    -0.197 OA 
HETATM   13  N   UNL     1      -9.191   9.940  66.770  1.00  0.00    -0.146 N  
HETATM   14  C   UNL     1      -7.958  11.315  68.387  1.00  0.00    -0.140 C  
HETATM   15  C   UNL     1      -8.997  11.196  67.315  1.00  0.00    -0.147 C  
ENDROOT
BRANCH   8  16
HETATM   16  C   UNL     1      -7.070   7.571  68.569  1.00  0.00    -0.081 A  
HETATM   17  C   UNL     1      -6.674   7.207  69.866  1.00  0.00    -0.048 A  
HETATM   18  C   UNL     1      -6.390   4.918  69.173  1.00  0.00    -0.031 A  
HETATM   19  C   UNL     1      -6.670   5.271  67.848  1.00  0.00    -0.055 A  
HETATM   20  C   UNL     1      -7.003   6.604  67.548  1.00  0.00    -0.082 A  
HETATM   21  C   UNL     1      -6.353   5.887  70.172  1.00  0.00    -0.031 A  
BRANCH  19  22
HETATM   22  N   UNL     1      -6.637   4.222  66.898  1.00  0.00    -0.045 N  
HETATM   23  H   UNL     1      -5.736   3.766  66.759  1.00  0.00     0.000 HD 
HETATM   24  C   UNL     1      -7.293   2.606  65.221  1.00  0.00    -0.063 C  
HETATM   25  O   UNL     1      -8.844   4.143  66.177  1.00  0.00    -0.113 OA 
HETATM   26  C   UNL     1      -7.688   3.747  66.140  1.00  0.00    -0.089 C  
ENDBRANCH  19  22
ENDBRANCH   8  16
BRANCH  13  27
HETATM   27  C   UNL     1     -10.193   9.837  65.709  1.00  0.00    -0.152 C  
HETATM   28  C   UNL     1     -11.648   9.619  66.055  1.00  0.00     3.376 C  
HETATM   29  C   UNL     1     -11.229  10.897  65.403  1.00  0.00     0.212 C  
ENDBRANCH  13  27
BRANCH  10  30
HETATM   30  N   UNL     1      -8.282  13.742  68.469  1.00  0.00    -0.209 NA 
HETATM   31  H   UNL     1      -9.298  13.787  68.548  1.00  0.00     0.000 HD 
BRANCH  30  32
HETATM   32  C   UNL     1      -7.671  14.896  67.933  1.00  0.00    -0.141 A  
HETATM   33  C   UNL     1      -8.084  16.197  68.231  1.00  0.00    -0.153 A  
HETATM   34  C   UNL     1      -7.564  17.296  67.526  1.00  0.00    -0.194 A  
HETATM   35  C   UNL     1      -6.613  17.104  66.524  1.00  0.00    -0.242 A  
HETATM   36  C   UNL     1      -6.123  15.830  66.264  1.00  0.00     2.430 A  
HETATM   37  I   UNL     1      -5.975  18.715  65.373  1.00  0.00    -0.254 I  
HETATM   38  C   UNL     1      -6.657  14.748  66.963  1.00  0.00     0.755 A  
HETATM   39  F   UNL     1      -6.197  13.519  66.677  1.00  0.00     0.729 F  
ENDBRANCH  30  32
ENDBRANCH  10  30
TORSDOF 5
ENDMDL
MODEL      159
REMARK 921   NORMALIZED FREE ENERGY PREDICTED BY IDOCK:    7.26 KCAL/MOL
REMARK 922        TOTAL FREE ENERGY PREDICTED BY IDOCK:    9.16 KCAL/MOL
REMARK 923 INTER-LIGAND FREE ENERGY PREDICTED BY IDOCK:   -0.22 KCAL/MOL
REMARK 924 INTRA-LIGAND FREE ENERGY PREDICTED BY IDOCK:    9.38 KCAL/MOL
REMARK 927      BINDING AFFINITY PREDICTED BY RF-SCORE:    0.00 PKD
ROOT
HETATM    1  C   UNL     1     -11.170  13.634  65.030  1.00  0.00    -0.321 C  
HETATM    2  N   UNL     1     -11.565  13.564  66.432  1.00  0.00    -0.335 N  
HETATM    3  C   UNL     1     -11.863  12.299  66.905  1.00  0.00    -0.264 C  
HETATM    4  O   UNL     1     -12.023  11.327  66.167  1.00  0.00     0.028 OA 
HETATM    5  C   UNL     1     -11.907  12.121  68.389  1.00  0.00    -0.360 C  
HETATM    6  C   UNL     1     -11.994  13.209  69.197  1.00  0.00    -0.281 C  
HETATM    7  C   UNL     1     -11.727  10.671  68.758  1.00  0.00    -0.259 C  
HETATM    8  N   UNL     1     -12.131  13.157  70.597  1.00  0.00    -0.325 N  
HETATM    9  C   UNL     1     -12.050  14.310  71.420  1.00  0.00    -0.279 C  
HETATM   10  C   UNL     1     -11.603  14.719  67.225  1.00  0.00    -0.369 C  
HETATM   11  O   UNL     1     -12.075  14.255  72.657  1.00  0.00    -0.022 OA 
HETATM   12  O   UNL     1     -11.309  16.836  69.036  1.00  0.00    -0.176 OA 
HETATM   13  N   UNL     1     -11.958  15.547  70.799  1.00  0.00    -0.343 N  
HETATM   14  C   UNL     1     -11.807  14.543  68.564  1.00  0.00    -0.355 C  
HETATM   15  C   UNL     1     -11.691  15.741  69.456  1.00  0.00    -0.360 C  
ENDROOT
BRANCH   8  16
HETATM   16  C   UNL     1     -12.590  11.990  71.340  1.00  0.00    -0.225 A  
HETATM   17  C   UNL     1     -13.679  12.109  72.219  1.00  0.00    -0.107 A  
HETATM   18  C   UNL     1     -13.942   9.716  72.272  1.00  0.00    -0.207 A  
HETATM   19  C   UNL     1     -12.792   9.559  71.489  1.00  0.00    -0.377 A  
HETATM   20  C   UNL     1     -12.113  10.703  71.031  1.00  0.00    -0.473 A  
HETATM   21  C   UNL     1     -14.362  10.983  72.669  1.00  0.00     1.555 A  
BRANCH  19  22
HETATM   22  N   UNL     1     -12.421   8.230  71.177  1.00  0.00    -0.461 N  
HETATM   23  H   UNL     1     -12.961   7.770  70.445  1.00  0.00     0.000 HD 
HETATM   24  C   UNL     1     -11.289   6.091  71.169  1.00  0.00    -0.300 C  
HETATM   25  O   UNL     1     -10.641   7.864  72.624  1.00  0.00    -0.275 OA 
HETATM   26  C   UNL     1     -11.410   7.487  71.752  1.00  0.00    -0.254 C  
ENDBRANCH  19  22
ENDBRANCH   8  16
BRANCH  13  27
HETATM   27  C   UNL     1     -11.862  16.726  71.659  1.00  0.00     0.435 C  
HETATM   28  C   UNL     1     -12.490  16.718  73.034  1.00  0.00     0.177 C  
HETATM   29  C   UNL     1     -11.004  16.813  72.903  1.00  0.00     2.362 C  
ENDBRANCH  13  27
BRANCH  10  30
HETATM   30  N   UNL     1     -11.368  15.934  66.596  1.00  0.00     0.069 NA 
HETATM   31  H   UNL     1     -11.618  15.966  65.607  1.00  0.00     0.000 HD 
BRANCH  30  32
HETATM   32  C   UNL     1     -10.834  17.131  67.119  1.00  0.00    -0.080 A  
HETATM   33  C   UNL     1     -11.486  18.365  67.042  1.00  0.00     1.098 A  
HETATM   34  C   UNL     1     -10.827  19.550  67.410  1.00  0.00    -0.536 A  
HETATM   35  C   UNL     1      -9.511  19.510  67.874  1.00  0.00    -0.336 A  
HETATM   36  C   UNL     1      -8.869  18.290  68.039  1.00  0.00    -0.290 A  
HETATM   37  I   UNL     1      -8.489  21.282  68.255  1.00  0.00     2.444 I  
HETATM   38  C   UNL     1      -9.531  17.123  67.658  1.00  0.00    -0.241 A  
HETATM   39  F   UNL     1      -8.884  15.954  67.794  1.00  0.00    -0.171 F  
ENDBRANCH  30  32
ENDBRANCH  10  30
TORSDOF 5
ENDMDL
MODEL      160
REMARK 921   NORMALIZED FREE ENERGY PREDICTED BY IDOCK:    9.60 KCAL/MOL
REMARK 922        TOTAL FREE ENERGY PREDICTED BY IDOCK:   12.19 KCAL/MOL
REMARK 923 INTER-LIGAND FREE ENERGY PREDICTED BY IDOCK:    7.35 KCAL/MOL
REMARK 924 INTRA-LIGAND FREE ENERGY PREDICTED BY IDOCK:    4.84 KCAL/MOL
REMARK 927      BINDING AFFINITY PREDICTED BY RF-SCORE:    0.00 PKD
ROOT
HETATM    1  C   UNL     1      -5.161  11.728  68.750  1.00  0.00    -0.046 C  
HETATM    2  N   UNL     1      -6.537  12.210  68.712  1.00  0.00    -0.077 N  
HETATM    3  C   UNL     1      -6.686  13.577  68.558  1.00  0.00    -0.095 C  
HETATM    4  O   UNL     1      -5.754  14.372  68.681  1.00  0.00    -0.080 OA 
HETATM    5  C   UNL     1      -8.035  14.072  68.145  1.00  0.00    -0.149 C  
HETATM    6  C   UNL     1      -9.116  13.258  68.260  1.00  0.00    -0.184 C  
HETATM    7  C   UNL     1      -7.935  15.445  67.531  1.00  0.00    -0.192 C  
HETATM    8  N   UNL     1     -10.441  13.647  67.987  1.00  0.00    -0.242 N  
HETATM    9  C   UNL     1     -11.521  12.726  67.956  1.00  0.00    -0.318 C  
HETATM   10  C   UNL     1      -7.613  11.317  68.802  1.00  0.00    -0.130 C  
HETATM   11  O   UNL     1     -12.669  13.048  67.624  1.00  0.00     0.316 OA 
HETATM   12  O   UNL     1      -9.845   9.647  68.528  1.00  0.00    -0.151 OA 
HETATM   13  N   UNL     1     -11.268  11.416  68.336  1.00  0.00    -0.238 N  
HETATM   14  C   UNL     1      -8.861  11.827  68.578  1.00  0.00    -0.122 C  
HETATM   15  C   UNL     1     -10.009  10.869  68.506  1.00  0.00    -0.182 C  
ENDROOT
BRANCH   8  16
HETATM   16  C   UNL     1     -10.904  15.028  67.931  1.00  0.00    -0.280 A  
HETATM   17  C   UNL     1     -12.236  15.329  68.261  1.00  0.00     0.146 A  
HETATM   18  C   UNL     1     -11.684  17.661  68.500  1.00  0.00     1.753 A  
HETATM   19  C   UNL     1     -10.378  17.410  68.064  1.00  0.00    -0.362 A  
HETATM   20  C   UNL     1      -9.994  16.089  67.772  1.00  0.00    -0.234 A  
HETATM   21  C   UNL     1     -12.621  16.633  68.561  1.00  0.00     2.352 A  
BRANCH  19  22
HETATM   22  N   UNL     1      -9.514  18.529  67.991  1.00  0.00    -0.294 N  
HETATM   23  H   UNL     1      -9.732  19.310  68.610  1.00  0.00     0.000 HD 
HETATM   24  C   UNL     1      -7.710  20.015  67.366  1.00  0.00    -0.330 C  
HETATM   25  O   UNL     1      -7.973  17.857  66.388  1.00  0.00    -0.251 OA 
HETATM   26  C   UNL     1      -8.409  18.682  67.178  1.00  0.00    -0.264 C  
ENDBRANCH  19  22
ENDBRANCH   8  16
BRANCH  13  27
HETATM   27  C   UNL     1     -12.387  10.474  68.288  1.00  0.00     1.494 C  
HETATM   28  C   UNL     1     -12.341   9.198  69.098  1.00  0.00     2.307 C  
HETATM   29  C   UNL     1     -13.361  10.242  69.423  1.00  0.00     2.144 C  
ENDBRANCH  13  27
BRANCH  10  30
HETATM   30  N   UNL     1      -7.317   9.983  69.045  1.00  0.00    -0.078 NA 
HETATM   31  H   UNL     1      -7.278   9.389  68.216  1.00  0.00     0.000 HD 
BRANCH  30  32
HETATM   32  C   UNL     1      -7.063   9.325  70.267  1.00  0.00    -0.084 A  
HETATM   33  C   UNL     1      -7.516   9.791  71.505  1.00  0.00     0.954 A  
HETATM   34  C   UNL     1      -7.075   9.201  72.701  1.00  0.00     0.497 A  
HETATM   35  C   UNL     1      -6.186   8.126  72.670  1.00  0.00    -0.072 A  
HETATM   36  C   UNL     1      -5.785   7.589  71.454  1.00  0.00    -0.035 A  
HETATM   37  I   UNL     1      -5.409   7.368  74.445  1.00  0.00    -0.058 I  
HETATM   38  C   UNL     1      -6.221   8.193  70.274  1.00  0.00    -0.032 A  
HETATM   39  F   UNL     1      -5.797   7.683  69.106  1.00  0.00    -0.027 F  
ENDBRANCH  30  32
ENDBRANCH  10  30
TORSDOF 5
ENDMDL
MODEL      161
REMARK 921   NORMALIZED FREE ENERGY PREDICTED BY IDOCK:   10.93 KCAL/MOL
REMARK 922        TOTAL FREE ENERGY PREDICTED BY IDOCK:   13.91 KCAL/MOL
REMARK 923 INTER-LIGAND FREE ENERGY PREDICTED BY IDOCK:   11.59 KCAL/MOL
REMARK 924 INTRA-LIGAND FREE ENERGY PREDICTED BY IDOCK:    2.32 KCAL/MOL
REMARK 927      BINDING AFFINITY PREDICTED BY RF-SCORE:    0.00 PKD
ROOT
HETATM    1  C   UNL     1      -7.560  15.186  70.036  1.00  0.00     0.133 C  
HETATM    2  N   UNL     1      -7.264  13.798  69.700  1.00  0.00     0.186 N  
HETATM    3  C   UNL     1      -6.996  12.968  70.774  1.00  0.00     2.347 C  
HETATM    4  O   UNL     1      -6.782  13.390  71.911  1.00  0.00     1.665 OA 
HETATM    5  C   UNL     1      -7.056  11.495  70.527  1.00  0.00     1.661 C  
HETATM    6  C   UNL     1      -7.030  11.022  69.255  1.00  0.00    -0.116 C  
HETATM    7  C   UNL     1      -7.258  10.745  71.820  1.00  0.00     4.309 C  
HETATM    8  N   UNL     1      -6.992   9.659  68.909  1.00  0.00    -0.058 N  
HETATM    9  C   UNL     1      -7.134   9.201  67.574  1.00  0.00    -0.079 C  
HETATM   10  C   UNL     1      -7.285  13.362  68.369  1.00  0.00    -0.110 C  
HETATM   11  O   UNL     1      -7.196   8.000  67.278  1.00  0.00    -0.084 OA 
HETATM   12  O   UNL     1      -7.712  12.244  65.836  1.00  0.00     0.887 OA 
HETATM   13  N   UNL     1      -7.186  10.149  66.563  1.00  0.00    -0.100 N  
HETATM   14  C   UNL     1      -7.176  12.016  68.157  1.00  0.00    -0.090 C  
HETATM   15  C   UNL     1      -7.358  11.508  66.760  1.00  0.00    -0.111 C  
ENDROOT
BRANCH   8  16
HETATM   16  C   UNL     1      -6.583   8.588  69.810  1.00  0.00    -0.039 A  
HETATM   17  C   UNL     1      -5.459   8.763  70.634  1.00  0.00    -0.027 A  
HETATM   18  C   UNL     1      -6.134   6.903  72.007  1.00  0.00    -0.038 A  
HETATM   19  C   UNL     1      -7.199   6.633  71.140  1.00  0.00    -0.078 A  
HETATM   20  C   UNL     1      -7.416   7.476  70.035  1.00  0.00    -0.083 A  
HETATM   21  C   UNL     1      -5.244   7.939  71.735  1.00  0.00    -0.035 A  
BRANCH  19  22
HETATM   22  N   UNL     1      -8.020   5.531  71.478  1.00  0.00    -0.114 N  
HETATM   23  H   UNL     1      -7.705   4.616  71.155  1.00  0.00     0.000 HD 
HETATM   24  C   UNL     1      -9.817   4.179  72.373  1.00  0.00    -0.220 C  
HETATM   25  O   UNL     1      -9.729   6.541  72.683  1.00  0.00    -0.161 OA 
HETATM   26  C   UNL     1      -9.199   5.554  72.194  1.00  0.00    -0.143 C  
ENDBRANCH  19  22
ENDBRANCH   8  16
BRANCH  13  27
HETATM   27  C   UNL     1      -7.345   9.664  65.192  1.00  0.00    -0.115 C  
HETATM   28  C   UNL     1      -6.641  10.363  64.052  1.00  0.00    -0.007 C  
HETATM   29  C   UNL     1      -6.265   8.959  64.401  1.00  0.00    -0.071 C  
ENDBRANCH  13  27
BRANCH  10  30
HETATM   30  N   UNL     1      -7.479  14.321  67.385  1.00  0.00    -0.258 NA 
HETATM   31  H   UNL     1      -6.651  14.864  67.139  1.00  0.00     0.000 HD 
BRANCH  30  32
HETATM   32  C   UNL     1      -8.650  14.659  66.673  1.00  0.00    -0.094 A  
HETATM   33  C   UNL     1      -9.684  13.754  66.414  1.00  0.00    -0.304 A  
HETATM   34  C   UNL     1     -10.733  14.092  65.543  1.00  0.00    -0.317 A  
HETATM   35  C   UNL     1     -10.768  15.347  64.934  1.00  0.00    -0.393 A  
HETATM   36  C   UNL     1      -9.799  16.294  65.239  1.00  0.00     0.178 A  
HETATM   37  I   UNL     1     -12.232  15.776  63.520  1.00  0.00     4.003 I  
HETATM   38  C   UNL     1      -8.756  15.941  66.095  1.00  0.00    -0.293 A  
HETATM   39  F   UNL     1      -7.809  16.858  66.354  1.00  0.00    -0.237 F  
ENDBRANCH  30  32
ENDBRANCH  10  30
TORSDOF 5
ENDMDL
MODEL      162
REMARK 921   NORMALIZED FREE ENERGY PREDICTED BY IDOCK:   11.23 KCAL/MOL
REMARK 922        TOTAL FREE ENERGY PREDICTED BY IDOCK:   14.30 KCAL/MOL
REMARK 923 INTER-LIGAND FREE ENERGY PREDICTED BY IDOCK:   13.91 KCAL/MOL
REMARK 924 INTRA-LIGAND FREE ENERGY PREDICTED BY IDOCK:    0.39 KCAL/MOL
REMARK 927      BINDING AFFINITY PREDICTED BY RF-SCORE:    0.00 PKD
ROOT
HETATM    1  C   UNL     1      -7.530   7.398  69.342  1.00  0.00    -0.091 C  
HETATM    2  N   UNL     1      -7.819   8.570  68.524  1.00  0.00    -0.107 N  
HETATM    3  C   UNL     1      -8.328   9.662  69.204  1.00  0.00    -0.130 C  
HETATM    4  O   UNL     1      -8.738   9.599  70.363  1.00  0.00    -0.221 OA 
HETATM    5  C   UNL     1      -8.290  10.980  68.500  1.00  0.00    -0.149 C  
HETATM    6  C   UNL     1      -8.090  11.023  67.158  1.00  0.00    -0.134 C  
HETATM    7  C   UNL     1      -8.377  12.116  69.489  1.00  0.00     1.231 C  
HETATM    8  N   UNL     1      -8.125  12.197  66.382  1.00  0.00     0.111 N  
HETATM    9  C   UNL     1      -7.748  12.224  65.014  1.00  0.00     3.516 C  
HETATM   10  C   UNL     1      -7.561   8.565  67.147  1.00  0.00    -0.096 C  
HETATM   11  O   UNL     1      -7.686  13.270  64.355  1.00  0.00     7.878 OA 
HETATM   12  O   UNL     1      -6.703   8.869  64.497  1.00  0.00    -0.070 OA 
HETATM   13  N   UNL     1      -7.457  11.017  64.396  1.00  0.00     0.543 N  
HETATM   14  C   UNL     1      -7.689   9.756  66.489  1.00  0.00    -0.105 C  
HETATM   15  C   UNL     1      -7.263   9.816  65.054  1.00  0.00    -0.127 C  
ENDROOT
BRANCH   8  16
HETATM   16  C   UNL     1      -8.749  13.446  66.798  1.00  0.00    -0.078 A  
HETATM   17  C   UNL     1     -10.150  13.557  66.800  1.00  0.00    -0.268 A  
HETATM   18  C   UNL     1     -10.026  15.518  68.193  1.00  0.00    -0.217 A  
HETATM   19  C   UNL     1      -8.629  15.501  68.115  1.00  0.00    -0.152 A  
HETATM   20  C   UNL     1      -7.993  14.464  67.408  1.00  0.00    -0.220 A  
HETATM   21  C   UNL     1     -10.785  14.574  67.507  1.00  0.00    -0.276 A  
BRANCH  19  22
HETATM   22  N   UNL     1      -7.948  16.529  68.809  1.00  0.00    -0.225 N  
HETATM   23  H   UNL     1      -8.334  16.796  69.714  1.00  0.00     0.000 HD 
HETATM   24  C   UNL     1      -6.356  18.254  69.399  1.00  0.00    -0.256 C  
HETATM   25  O   UNL     1      -6.200  17.026  67.362  1.00  0.00    -0.126 OA 
HETATM   26  C   UNL     1      -6.820  17.211  68.399  1.00  0.00    -0.191 C  
ENDBRANCH  19  22
ENDBRANCH   8  16
BRANCH  13  27
HETATM   27  C   UNL     1      -7.058  11.060  62.989  1.00  0.00     0.465 C  
HETATM   28  C   UNL     1      -6.494  12.331  62.397  1.00  0.00     2.910 C  
HETATM   29  C   UNL     1      -5.625  11.120  62.506  1.00  0.00    -0.046 C  
ENDBRANCH  13  27
BRANCH  10  30
HETATM   30  N   UNL     1      -7.135   7.372  66.581  1.00  0.00    -0.073 NA 
HETATM   31  H   UNL     1      -6.162   7.359  66.273  1.00  0.00     0.000 HD 
BRANCH  30  32
HETATM   32  C   UNL     1      -7.847   6.172  66.366  1.00  0.00    -0.104 A  
HETATM   33  C   UNL     1      -7.248   4.908  66.368  1.00  0.00    -0.077 A  
HETATM   34  C   UNL     1      -7.968   3.772  65.963  1.00  0.00    -0.090 A  
HETATM   35  C   UNL     1      -9.301   3.885  65.568  1.00  0.00    -0.160 A  
HETATM   36  C   UNL     1      -9.945   5.114  65.637  1.00  0.00    -0.033 A  
HETATM   37  I   UNL     1     -10.307   2.228  64.813  1.00  0.00     1.301 I  
HETATM   38  C   UNL     1      -9.214   6.236  66.028  1.00  0.00    -0.078 A  
HETATM   39  F   UNL     1      -9.843   7.423  66.058  1.00  0.00    -0.148 F  
ENDBRANCH  30  32
ENDBRANCH  10  30
TORSDOF 5
ENDMDL
MODEL      163
REMARK 921   NORMALIZED FREE ENERGY PREDICTED BY IDOCK:   11.36 KCAL/MOL
REMARK 922        TOTAL FREE ENERGY PREDICTED BY IDOCK:   14.46 KCAL/MOL
REMARK 923 INTER-LIGAND FREE ENERGY PREDICTED BY IDOCK:    4.30 KCAL/MOL
REMARK 924 INTRA-LIGAND FREE ENERGY PREDICTED BY IDOCK:   10.16 KCAL/MOL
REMARK 927      BINDING AFFINITY PREDICTED BY RF-SCORE:    0.00 PKD
ROOT
HETATM    1  C   UNL     1     -11.698  13.026  71.238  1.00  0.00     1.219 C  
HETATM    2  N   UNL     1     -11.517  13.296  69.816  1.00  0.00    -0.208 N  
HETATM    3  C   UNL     1     -11.639  14.622  69.441  1.00  0.00    -0.305 C  
HETATM    4  O   UNL     1     -12.098  15.490  70.183  1.00  0.00    -0.340 OA 
HETATM    5  C   UNL     1     -11.106  14.999  68.096  1.00  0.00    -0.296 C  
HETATM    6  C   UNL     1     -10.843  14.033  67.178  1.00  0.00    -0.286 C  
HETATM    7  C   UNL     1     -10.831  16.481  68.027  1.00  0.00    -0.337 C  
HETATM    8  N   UNL     1     -10.426  14.278  65.857  1.00  0.00    -0.296 N  
HETATM    9  C   UNL     1     -10.002  13.245  64.981  1.00  0.00    -0.145 C  
HETATM   10  C   UNL     1     -11.215  12.261  68.922  1.00  0.00    -0.273 C  
HETATM   11  O   UNL     1      -9.544  13.467  63.852  1.00  0.00     0.468 OA 
HETATM   12  O   UNL     1     -10.187  10.399  67.098  1.00  0.00    -0.201 OA 
HETATM   13  N   UNL     1     -10.128  11.934  65.415  1.00  0.00    -0.247 N  
HETATM   14  C   UNL     1     -10.885  12.621  67.646  1.00  0.00    -0.248 C  
HETATM   15  C   UNL     1     -10.401  11.552  66.716  1.00  0.00    -0.226 C  
ENDROOT
BRANCH   8  16
HETATM   16  C   UNL     1     -10.588  15.548  65.160  1.00  0.00    -0.431 A  
HETATM   17  C   UNL     1     -11.588  15.684  64.183  1.00  0.00    -0.082 A  
HETATM   18  C   UNL     1     -11.401  18.083  64.276  1.00  0.00     4.272 A  
HETATM   19  C   UNL     1     -10.325  17.978  65.164  1.00  0.00     0.892 A  
HETATM   20  C   UNL     1      -9.915  16.704  65.599  1.00  0.00    -0.197 A  
HETATM   21  C   UNL     1     -12.006  16.941  63.756  1.00  0.00     3.417 A  
BRANCH  19  22
HETATM   22  N   UNL     1      -9.748  19.195  65.599  1.00  0.00     0.181 N  
HETATM   23  H   UNL     1      -8.929  19.517  65.084  1.00  0.00     0.000 HD 
HETATM   24  C   UNL     1      -9.313  21.234  66.828  1.00  0.00     0.673 C  
HETATM   25  O   UNL     1     -11.136  19.794  67.363  1.00  0.00    -0.338 OA 
HETATM   26  C   UNL     1     -10.169  19.994  66.642  1.00  0.00    -0.471 C  
ENDBRANCH  19  22
ENDBRANCH   8  16
BRANCH  13  27
HETATM   27  C   UNL     1      -9.676  10.879  64.507  1.00  0.00    -0.282 C  
HETATM   28  C   UNL     1      -8.677  11.190  63.417  1.00  0.00     0.050 C  
HETATM   29  C   UNL     1      -8.292  10.266  64.527  1.00  0.00    -0.168 C  
ENDBRANCH  13  27
BRANCH  10  30
HETATM   30  N   UNL     1     -11.214  10.965  69.421  1.00  0.00    -0.250 NA 
HETATM   31  H   UNL     1     -11.676  10.847  70.323  1.00  0.00     0.000 HD 
BRANCH  30  32
HETATM   32  C   UNL     1     -10.669   9.787  68.868  1.00  0.00    -0.217 A  
HETATM   33  C   UNL     1     -11.125   9.209  67.679  1.00  0.00     0.161 A  
HETATM   34  C   UNL     1     -10.674   7.940  67.278  1.00  0.00    -0.299 A  
HETATM   35  C   UNL     1      -9.749   7.242  68.055  1.00  0.00    -0.141 A  
HETATM   36  C   UNL     1      -9.217   7.828  69.196  1.00  0.00    -0.144 A  
HETATM   37  I   UNL     1      -9.216   5.298  67.541  1.00  0.00    -0.145 I  
HETATM   38  C   UNL     1      -9.682   9.083  69.589  1.00  0.00    -0.172 A  
HETATM   39  F   UNL     1      -9.182   9.621  70.713  1.00  0.00    -0.284 F  
ENDBRANCH  30  32
ENDBRANCH  10  30
TORSDOF 5
ENDMDL
MODEL      164
REMARK 921   NORMALIZED FREE ENERGY PREDICTED BY IDOCK:   12.53 KCAL/MOL
REMARK 922        TOTAL FREE ENERGY PREDICTED BY IDOCK:   15.98 KCAL/MOL
REMARK 923 INTER-LIGAND FREE ENERGY PREDICTED BY IDOCK:    9.24 KCAL/MOL
REMARK 924 INTRA-LIGAND FREE ENERGY PREDICTED BY IDOCK:    6.74 KCAL/MOL
REMARK 927      BINDING AFFINITY PREDICTED BY RF-SCORE:    0.00 PKD
ROOT
HETATM    1  C   UNL     1      -8.166   7.736  65.532  1.00  0.00    -0.137 C  
HETATM    2  N   UNL     1      -8.725   9.073  65.698  1.00  0.00    -0.164 N  
HETATM    3  C   UNL     1      -8.376   9.724  66.867  1.00  0.00    -0.120 C  
HETATM    4  O   UNL     1      -7.835   9.156  67.816  1.00  0.00    -0.099 OA 
HETATM    5  C   UNL     1      -8.605  11.201  66.918  1.00  0.00    -0.148 C  
HETATM    6  C   UNL     1      -9.424  11.788  66.007  1.00  0.00    -0.230 C  
HETATM    7  C   UNL     1      -7.743  11.839  67.977  1.00  0.00    -0.123 C  
HETATM    8  N   UNL     1      -9.781  13.149  66.014  1.00  0.00    -0.261 N  
HETATM    9  C   UNL     1     -10.501  13.760  64.955  1.00  0.00    -0.418 C  
HETATM   10  C   UNL     1      -9.538   9.639  64.707  1.00  0.00    -0.127 C  
HETATM   11  O   UNL     1     -10.734  14.976  64.913  1.00  0.00    -0.400 OA 
HETATM   12  O   UNL     1     -10.800  11.070  62.655  1.00  0.00     0.354 OA 
HETATM   13  N   UNL     1     -10.975  12.945  63.937  1.00  0.00    -0.402 N  
HETATM   14  C   UNL     1      -9.871  10.956  64.857  1.00  0.00    -0.339 C  
HETATM   15  C   UNL     1     -10.600  11.629  63.736  1.00  0.00    -0.416 C  
ENDROOT
BRANCH   8  16
HETATM   16  C   UNL     1      -9.669  14.029  67.171  1.00  0.00    -0.242 A  
HETATM   17  C   UNL     1      -9.508  13.475  68.453  1.00  0.00    -0.185 A  
HETATM   18  C   UNL     1      -8.781  15.602  69.317  1.00  0.00    -0.267 A  
HETATM   19  C   UNL     1      -9.039  16.207  68.082  1.00  0.00    -0.189 A  
HETATM   20  C   UNL     1      -9.492  15.416  67.010  1.00  0.00    -0.232 A  
HETATM   21  C   UNL     1      -9.051  14.251  69.515  1.00  0.00     0.551 A  
BRANCH  19  22
HETATM   22  N   UNL     1      -8.776  17.595  67.994  1.00  0.00    -0.246 N  
HETATM   23  H   UNL     1      -8.595  18.077  68.874  1.00  0.00     0.000 HD 
HETATM   24  C   UNL     1      -8.420  19.827  67.130  1.00  0.00    -0.364 C  
HETATM   25  O   UNL     1      -8.903  17.977  65.707  1.00  0.00    -0.476 OA 
HETATM   26  C   UNL     1      -8.736  18.369  66.852  1.00  0.00    -0.272 C  
ENDBRANCH  19  22
ENDBRANCH   8  16
BRANCH  13  27
HETATM   27  C   UNL     1     -11.705  13.589  62.844  1.00  0.00     1.095 C  
HETATM   28  C   UNL     1     -13.206  13.443  62.743  1.00  0.00     2.558 C  
HETATM   29  C   UNL     1     -12.612  14.789  63.009  1.00  0.00     2.165 C  
ENDBRANCH  13  27
BRANCH  10  30
HETATM   30  N   UNL     1      -9.882   8.838  63.627  1.00  0.00     1.391 NA 
HETATM   31  H   UNL     1     -10.654   9.185  63.057  1.00  0.00     0.000 HD 
BRANCH  30  32
HETATM   32  C   UNL     1      -9.324   7.614  63.199  1.00  0.00     2.415 A  
HETATM   33  C   UNL     1     -10.075   6.453  62.995  1.00  0.00     4.492 A  
HETATM   34  C   UNL     1      -9.443   5.222  62.753  1.00  0.00     0.453 A  
HETATM   35  C   UNL     1      -8.051   5.143  62.697  1.00  0.00    -0.092 A  
HETATM   36  C   UNL     1      -7.283   6.294  62.813  1.00  0.00    -0.054 A  
HETATM   37  I   UNL     1      -7.121   3.291  62.506  1.00  0.00    -0.033 I  
HETATM   38  C   UNL     1      -7.924   7.508  63.066  1.00  0.00    -0.111 A  
HETATM   39  F   UNL     1      -7.165   8.607  63.209  1.00  0.00    -0.089 F  
ENDBRANCH  30  32
ENDBRANCH  10  30
TORSDOF 5
ENDMDL
MODEL      165
REMARK 921   NORMALIZED FREE ENERGY PREDICTED BY IDOCK:   15.53 KCAL/MOL
REMARK 922        TOTAL FREE ENERGY PREDICTED BY IDOCK:   19.85 KCAL/MOL
REMARK 923 INTER-LIGAND FREE ENERGY PREDICTED BY IDOCK:   15.51 KCAL/MOL
REMARK 924 INTRA-LIGAND FREE ENERGY PREDICTED BY IDOCK:    4.34 KCAL/MOL
REMARK 927      BINDING AFFINITY PREDICTED BY RF-SCORE:    0.00 PKD
ROOT
HETATM    1  C   UNL     1     -11.445  10.263  69.256  1.00  0.00    -0.160 C  
HETATM    2  N   UNL     1     -11.116  11.682  69.338  1.00  0.00    -0.233 N  
HETATM    3  C   UNL     1     -10.536  12.225  68.206  1.00  0.00    -0.227 C  
HETATM    4  O   UNL     1     -10.102  11.540  67.279  1.00  0.00    -0.195 OA 
HETATM    5  C   UNL     1     -10.524  13.716  68.097  1.00  0.00    -0.250 C  
HETATM    6  C   UNL     1     -10.752  14.475  69.199  1.00  0.00    -0.252 C  
HETATM    7  C   UNL     1     -10.355  14.145  66.661  1.00  0.00    -0.277 C  
HETATM    8  N   UNL     1     -10.676  15.880  69.232  1.00  0.00    -0.238 N  
HETATM    9  C   UNL     1     -11.084  16.645  70.356  1.00  0.00     0.009 C  
HETATM   10  C   UNL     1     -11.407  12.421  70.492  1.00  0.00     0.867 C  
HETATM   11  O   UNL     1     -11.108  17.884  70.353  1.00  0.00     1.385 OA 
HETATM   12  O   UNL     1     -12.310  14.118  72.530  1.00  0.00    -0.145 OA 
HETATM   13  N   UNL     1     -11.450  15.964  71.507  1.00  0.00    -0.422 N  
HETATM   14  C   UNL     1     -11.233  13.774  70.420  1.00  0.00     0.286 C  
HETATM   15  C   UNL     1     -11.689  14.604  71.581  1.00  0.00    -0.177 C  
ENDROOT
BRANCH   8  16
HETATM   16  C   UNL     1      -9.979  16.695  68.245  1.00  0.00    -0.261 A  
HETATM   17  C   UNL     1      -8.631  16.431  67.952  1.00  0.00    -0.175 A  
HETATM   18  C   UNL     1      -8.780  17.734  65.932  1.00  0.00     0.110 A  
HETATM   19  C   UNL     1     -10.089  18.108  66.254  1.00  0.00    -0.371 A  
HETATM   20  C   UNL     1     -10.684  17.591  67.419  1.00  0.00    -0.250 A  
HETATM   21  C   UNL     1      -8.039  16.931  66.795  1.00  0.00    -0.276 A  
BRANCH  19  22
HETATM   22  N   UNL     1     -10.743  18.964  65.335  1.00  0.00    -0.087 N  
HETATM   23  H   UNL     1     -10.663  18.715  64.350  1.00  0.00     0.000 HD 
HETATM   24  C   UNL     1     -12.041  20.773  64.387  1.00  0.00     5.049 C  
HETATM   25  O   UNL     1     -11.705  20.547  66.736  1.00  0.00     1.867 OA 
HETATM   26  C   UNL     1     -11.476  20.097  65.623  1.00  0.00     1.139 C  
ENDBRANCH  19  22
ENDBRANCH   8  16
BRANCH  13  27
HETATM   27  C   UNL     1     -11.880  16.764  72.655  1.00  0.00    -0.009 C  
HETATM   28  C   UNL     1     -10.998  16.875  73.877  1.00  0.00     3.237 C  
HETATM   29  C   UNL     1     -11.270  18.091  73.051  1.00  0.00     2.192 C  
ENDBRANCH  13  27
BRANCH  10  30
HETATM   30  N   UNL     1     -11.906  11.727  71.586  1.00  0.00     0.690 NA 
HETATM   31  H   UNL     1     -12.090  12.296  72.413  1.00  0.00     0.000 HD 
BRANCH  30  32
HETATM   32  C   UNL     1     -12.196  10.353  71.726  1.00  0.00    -0.126 A  
HETATM   33  C   UNL     1     -11.389   9.337  71.208  1.00  0.00    -0.423 A  
HETATM   34  C   UNL     1     -11.823   8.001  71.214  1.00  0.00    -0.321 A  
HETATM   35  C   UNL     1     -13.065   7.666  71.754  1.00  0.00    -0.323 A  
HETATM   36  C   UNL     1     -13.850   8.643  72.351  1.00  0.00    -0.418 A  
HETATM   37  I   UNL     1     -13.770   5.714  71.608  1.00  0.00     4.102 I  
HETATM   38  C   UNL     1     -13.412   9.967  72.327  1.00  0.00    -0.246 A  
HETATM   39  F   UNL     1     -14.199  10.906  72.879  1.00  0.00     0.441 F  
ENDBRANCH  30  32
ENDBRANCH  10  30
TORSDOF 5
ENDMDL
MODEL      166
REMARK 921   NORMALIZED FREE ENERGY PREDICTED BY IDOCK:   16.92 KCAL/MOL
REMARK 922        TOTAL FREE ENERGY PREDICTED BY IDOCK:   21.65 KCAL/MOL
REMARK 923 INTER-LIGAND FREE ENERGY PREDICTED BY IDOCK:   15.97 KCAL/MOL
REMARK 924 INTRA-LIGAND FREE ENERGY PREDICTED BY IDOCK:    5.68 KCAL/MOL
REMARK 927      BINDING AFFINITY PREDICTED BY RF-SCORE:    0.00 PKD
ROOT
HETATM    1  C   UNL     1     -11.297  13.657  65.625  1.00  0.00    -0.299 C  
HETATM    2  N   UNL     1     -11.505  12.959  66.889  1.00  0.00    -0.323 N  
HETATM    3  C   UNL     1     -11.103  11.635  66.912  1.00  0.00    -0.308 C  
HETATM    4  O   UNL     1     -10.813  11.004  65.895  1.00  0.00    -0.215 OA 
HETATM    5  C   UNL     1     -10.947  10.995  68.254  1.00  0.00    -0.287 C  
HETATM    6  C   UNL     1     -11.501  11.577  69.348  1.00  0.00    -0.309 C  
HETATM    7  C   UNL     1     -10.046   9.789  68.168  1.00  0.00    -0.193 C  
HETATM    8  N   UNL     1     -11.494  11.019  70.640  1.00  0.00    -0.176 N  
HETATM    9  C   UNL     1     -11.935  11.731  71.786  1.00  0.00     1.385 C  
HETATM   10  C   UNL     1     -12.052  13.623  67.994  1.00  0.00    -0.274 C  
HETATM   11  O   UNL     1     -11.841  11.279  72.935  1.00  0.00     4.084 OA 
HETATM   12  O   UNL     1     -12.715  14.905  70.396  1.00  0.00    -0.350 OA 
HETATM   13  N   UNL     1     -12.512  12.978  71.595  1.00  0.00    -0.097 N  
HETATM   14  C   UNL     1     -12.045  12.952  69.185  1.00  0.00    -0.216 C  
HETATM   15  C   UNL     1     -12.473  13.696  70.413  1.00  0.00    -0.294 C  
ENDROOT
BRANCH   8  16
HETATM   16  C   UNL     1     -11.261   9.611  70.933  1.00  0.00    -0.352 A  
HETATM   17  C   UNL     1     -11.262   9.167  72.266  1.00  0.00    -0.017 A  
HETATM   18  C   UNL     1     -11.495   6.882  71.540  1.00  0.00    -0.315 A  
HETATM   19  C   UNL     1     -11.382   7.281  70.204  1.00  0.00    -0.207 A  
HETATM   20  C   UNL     1     -11.257   8.650  69.904  1.00  0.00    -0.045 A  
HETATM   21  C   UNL     1     -11.396   7.815  72.569  1.00  0.00    -0.429 A  
BRANCH  19  22
HETATM   22  N   UNL     1     -11.449   6.253  69.233  1.00  0.00    -0.558 N  
HETATM   23  H   UNL     1     -12.384   5.953  68.956  1.00  0.00     0.000 HD 
HETATM   24  C   UNL     1     -10.833   4.556  67.622  1.00  0.00     1.206 C  
HETATM   25  O   UNL     1      -9.205   5.841  68.798  1.00  0.00    -0.117 OA 
HETATM   26  C   UNL     1     -10.393   5.612  68.620  1.00  0.00    -0.208 C  
ENDBRANCH  19  22
ENDBRANCH   8  16
BRANCH  13  27
HETATM   27  C   UNL     1     -12.951  13.706  72.785  1.00  0.00    -0.176 C  
HETATM   28  C   UNL     1     -12.723  15.197  72.892  1.00  0.00    -0.522 C  
HETATM   29  C   UNL     1     -14.119  14.667  72.820  1.00  0.00    -0.112 C  
ENDBRANCH  13  27
BRANCH  10  30
HETATM   30  N   UNL     1     -12.495  14.925  67.803  1.00  0.00    -0.284 NA 
HETATM   31  H   UNL     1     -13.295  15.023  67.178  1.00  0.00     0.000 HD 
BRANCH  30  32
HETATM   32  C   UNL     1     -12.004  16.132  68.344  1.00  0.00     0.202 A  
HETATM   33  C   UNL     1     -12.796  17.037  69.056  1.00  0.00     4.660 A  
HETATM   34  C   UNL     1     -12.301  18.305  69.406  1.00  0.00     9.142 A  
HETATM   35  C   UNL     1     -11.001  18.674  69.060  1.00  0.00     1.309 A  
HETATM   36  C   UNL     1     -10.165  17.764  68.426  1.00  0.00    -0.384 A  
HETATM   37  I   UNL     1     -10.336  20.610  69.434  1.00  0.00     1.608 I  
HETATM   38  C   UNL     1     -10.673  16.514  68.074  1.00  0.00    -0.343 A  
HETATM   39  F   UNL     1      -9.862  15.657  67.432  1.00  0.00    -0.220 F  
ENDBRANCH  30  32
ENDBRANCH  10  30
TORSDOF 5
ENDMDL
MODEL      167
REMARK 921   NORMALIZED FREE ENERGY PREDICTED BY IDOCK:   18.35 KCAL/MOL
REMARK 922        TOTAL FREE ENERGY PREDICTED BY IDOCK:   23.50 KCAL/MOL
REMARK 923 INTER-LIGAND FREE ENERGY PREDICTED BY IDOCK:   18.54 KCAL/MOL
REMARK 924 INTRA-LIGAND FREE ENERGY PREDICTED BY IDOCK:    4.96 KCAL/MOL
REMARK 927      BINDING AFFINITY PREDICTED BY RF-SCORE:    0.00 PKD
ROOT
HETATM    1  C   UNL     1     -12.734  12.133  71.003  1.00  0.00    -0.228 C  
HETATM    2  N   UNL     1     -11.991  12.974  70.073  1.00  0.00    -0.338 N  
HETATM    3  C   UNL     1     -11.705  14.251  70.522  1.00  0.00    -0.243 C  
HETATM    4  O   UNL     1     -12.228  14.744  71.521  1.00  0.00    -0.316 OA 
HETATM    5  C   UNL     1     -10.649  15.011  69.784  1.00  0.00    -0.232 C  
HETATM    6  C   UNL     1     -10.258  14.599  68.551  1.00  0.00    -0.240 C  
HETATM    7  C   UNL     1     -10.087  16.115  70.645  1.00  0.00     0.922 C  
HETATM    8  N   UNL     1      -9.342  15.285  67.732  1.00  0.00    -0.195 N  
HETATM    9  C   UNL     1      -8.833  14.740  66.525  1.00  0.00    -0.188 C  
HETATM   10  C   UNL     1     -11.586  12.482  68.825  1.00  0.00    -0.322 C  
HETATM   11  O   UNL     1      -7.956  15.298  65.852  1.00  0.00     0.967 OA 
HETATM   12  O   UNL     1     -10.337  11.522  66.508  1.00  0.00    -0.218 OA 
HETATM   13  N   UNL     1      -9.363  13.537  66.081  1.00  0.00    -0.133 N  
HETATM   14  C   UNL     1     -10.743  13.269  68.092  1.00  0.00    -0.264 C  
HETATM   15  C   UNL     1     -10.167  12.700  66.833  1.00  0.00    -0.234 C  
ENDROOT
BRANCH   8  16
HETATM   16  C   UNL     1      -8.984  16.690  67.887  1.00  0.00    -0.217 A  
HETATM   17  C   UNL     1      -7.770  17.160  67.361  1.00  0.00    -0.191 A  
HETATM   18  C   UNL     1      -8.534  19.437  67.543  1.00  0.00    -0.328 A  
HETATM   19  C   UNL     1      -9.707  19.006  68.174  1.00  0.00    -0.353 A  
HETATM   20  C   UNL     1      -9.925  17.628  68.351  1.00  0.00    -0.356 A  
HETATM   21  C   UNL     1      -7.551  18.522  67.173  1.00  0.00    -0.230 A  
BRANCH  19  22
HETATM   22  N   UNL     1     -10.623  20.016  68.553  1.00  0.00    -0.401 N  
HETATM   23  H   UNL     1     -10.230  20.941  68.727  1.00  0.00     0.000 HD 
HETATM   24  C   UNL     1     -12.663  21.185  69.128  1.00  0.00     6.085 C  
HETATM   25  O   UNL     1     -12.647  18.876  68.535  1.00  0.00     5.089 OA 
HETATM   26  C   UNL     1     -11.988  19.890  68.715  1.00  0.00     4.598 C  
ENDBRANCH  19  22
ENDBRANCH   8  16
BRANCH  13  27
HETATM   27  C   UNL     1      -8.820  12.980  64.842  1.00  0.00     2.050 C  
HETATM   28  C   UNL     1      -9.732  12.278  63.861  1.00  0.00    -0.090 C  
HETATM   29  C   UNL     1      -9.064  13.556  63.464  1.00  0.00     5.927 C  
ENDBRANCH  13  27
BRANCH  10  30
HETATM   30  N   UNL     1     -12.021  11.213  68.468  1.00  0.00    -0.635 NA 
HETATM   31  H   UNL     1     -13.031  11.113  68.363  1.00  0.00     0.000 HD 
BRANCH  30  32
HETATM   32  C   UNL     1     -11.275  10.039  68.228  1.00  0.00    -0.132 A  
HETATM   33  C   UNL     1     -11.061   9.507  66.953  1.00  0.00     0.276 A  
HETATM   34  C   UNL     1     -10.474   8.241  66.792  1.00  0.00    -0.313 A  
HETATM   35  C   UNL     1     -10.081   7.499  67.907  1.00  0.00    -0.182 A  
HETATM   36  C   UNL     1     -10.205   8.038  69.180  1.00  0.00    -0.221 A  
HETATM   37  I   UNL     1      -9.369   5.559  67.666  1.00  0.00    -0.144 I  
HETATM   38  C   UNL     1     -10.800   9.291  69.326  1.00  0.00    -0.152 A  
HETATM   39  F   UNL     1     -10.944   9.784  70.567  1.00  0.00    -0.274 F  
ENDBRANCH  30  32
ENDBRANCH  10  30
TORSDOF 5
ENDMDL
MODEL      168
REMARK 921   NORMALIZED FREE ENERGY PREDICTED BY IDOCK:   20.25 KCAL/MOL
REMARK 922        TOTAL FREE ENERGY PREDICTED BY IDOCK:   25.95 KCAL/MOL
REMARK 923 INTER-LIGAND FREE ENERGY PREDICTED BY IDOCK:   23.42 KCAL/MOL
REMARK 924 INTRA-LIGAND FREE ENERGY PREDICTED BY IDOCK:    2.53 KCAL/MOL
REMARK 927      BINDING AFFINITY PREDICTED BY RF-SCORE:    0.00 PKD
ROOT
HETATM    1  C   UNL     1      -7.706  11.141  67.403  1.00  0.00    -0.120 C  
HETATM    2  N   UNL     1      -8.241  12.435  67.810  1.00  0.00    -0.151 N  
HETATM    3  C   UNL     1      -7.325  13.471  67.858  1.00  0.00    -0.149 C  
HETATM    4  O   UNL     1      -6.107  13.294  67.800  1.00  0.00    -0.132 OA 
HETATM    5  C   UNL     1      -7.871  14.862  67.901  1.00  0.00    -0.145 C  
HETATM    6  C   UNL     1      -9.174  15.065  68.225  1.00  0.00    -0.184 C  
HETATM    7  C   UNL     1      -6.836  15.857  67.439  1.00  0.00    -0.228 C  
HETATM    8  N   UNL     1      -9.771  16.330  68.383  1.00  0.00    -0.217 N  
HETATM    9  C   UNL     1     -11.169  16.503  68.556  1.00  0.00    -0.296 C  
HETATM   10  C   UNL     1      -9.603  12.591  68.100  1.00  0.00    -0.215 C  
HETATM   11  O   UNL     1     -11.708  17.617  68.599  1.00  0.00     1.091 OA 
HETATM   12  O   UNL     1     -12.339  13.161  68.284  1.00  0.00    -0.130 OA 
HETATM   13  N   UNL     1     -11.952  15.367  68.701  1.00  0.00    -0.283 N  
HETATM   14  C   UNL     1     -10.053  13.866  68.296  1.00  0.00    -0.241 C  
HETATM   15  C   UNL     1     -11.528  14.075  68.446  1.00  0.00    -0.306 C  
ENDROOT
BRANCH   8  16
HETATM   16  C   UNL     1      -9.038  17.568  68.614  1.00  0.00    -0.263 A  
HETATM   17  C   UNL     1      -8.300  18.145  67.567  1.00  0.00    -0.237 A  
HETATM   18  C   UNL     1      -8.176  20.233  68.761  1.00  0.00     0.300 A  
HETATM   19  C   UNL     1      -8.809  19.654  69.866  1.00  0.00     0.844 A  
HETATM   20  C   UNL     1      -9.233  18.314  69.791  1.00  0.00     1.028 A  
HETATM   21  C   UNL     1      -7.887  19.473  67.631  1.00  0.00    -0.314 A  
BRANCH  19  22
HETATM   22  N   UNL     1      -9.017  20.496  70.984  1.00  0.00     1.391 N  
HETATM   23  H   UNL     1      -8.602  21.426  70.933  1.00  0.00     0.000 HD 
HETATM   24  C   UNL     1      -9.742  21.346  73.131  1.00  0.00     7.237 C  
HETATM   25  O   UNL     1     -10.304  19.155  72.378  1.00  0.00     2.357 OA 
HETATM   26  C   UNL     1      -9.719  20.201  72.135  1.00  0.00     2.911 C  
ENDBRANCH  19  22
ENDBRANCH   8  16
BRANCH  13  27
HETATM   27  C   UNL     1     -13.393  15.559  68.866  1.00  0.00     2.650 C  
HETATM   28  C   UNL     1     -14.002  15.588  70.249  1.00  0.00     1.086 C  
HETATM   29  C   UNL     1     -14.033  16.821  69.404  1.00  0.00     7.715 C  
ENDBRANCH  13  27
BRANCH  10  30
HETATM   30  N   UNL     1     -10.390  11.447  68.100  1.00  0.00    -0.182 NA 
HETATM   31  H   UNL     1     -11.348  11.580  67.776  1.00  0.00     0.000 HD 
BRANCH  30  32
HETATM   32  C   UNL     1     -10.064  10.128  68.481  1.00  0.00    -0.169 A  
HETATM   33  C   UNL     1      -9.380   9.811  69.659  1.00  0.00    -0.237 A  
HETATM   34  C   UNL     1      -8.919   8.505  69.893  1.00  0.00    -0.145 A  
HETATM   35  C   UNL     1      -9.151   7.497  68.956  1.00  0.00    -0.140 A  
HETATM   36  C   UNL     1      -9.899   7.765  67.818  1.00  0.00    -0.200 A  
HETATM   37  I   UNL     1      -8.320   5.610  69.233  1.00  0.00    -0.107 I  
HETATM   38  C   UNL     1     -10.340   9.069  67.592  1.00  0.00    -0.257 A  
HETATM   39  F   UNL     1     -11.034   9.319  66.470  1.00  0.00    -0.142 F  
ENDBRANCH  30  32
ENDBRANCH  10  30
TORSDOF 5
ENDMDL
MODEL      169
REMARK 921   NORMALIZED FREE ENERGY PREDICTED BY IDOCK:   21.21 KCAL/MOL
REMARK 922        TOTAL FREE ENERGY PREDICTED BY IDOCK:   27.20 KCAL/MOL
REMARK 923 INTER-LIGAND FREE ENERGY PREDICTED BY IDOCK:   22.79 KCAL/MOL
REMARK 924 INTRA-LIGAND FREE ENERGY PREDICTED BY IDOCK:    4.41 KCAL/MOL
REMARK 927      BINDING AFFINITY PREDICTED BY RF-SCORE:    0.00 PKD
ROOT
HETATM    1  C   UNL     1      -8.918   9.592  67.343  1.00  0.00    -0.131 C  
HETATM    2  N   UNL     1      -9.061  10.882  68.007  1.00  0.00    -0.148 N  
HETATM    3  C   UNL     1      -8.107  11.830  67.681  1.00  0.00    -0.144 C  
HETATM    4  O   UNL     1      -7.074  11.559  67.068  1.00  0.00    -0.129 OA 
HETATM    5  C   UNL     1      -8.412  13.251  68.031  1.00  0.00    -0.170 C  
HETATM    6  C   UNL     1      -9.399  13.529  68.921  1.00  0.00     0.193 C  
HETATM    7  C   UNL     1      -7.586  14.196  67.196  1.00  0.00     0.024 C  
HETATM    8  N   UNL     1      -9.712  14.819  69.391  1.00  0.00    -0.100 N  
HETATM    9  C   UNL     1     -10.853  15.090  70.189  1.00  0.00    -0.190 C  
HETATM   10  C   UNL     1     -10.121  11.121  68.892  1.00  0.00    -0.186 C  
HETATM   11  O   UNL     1     -11.183  16.236  70.523  1.00  0.00    -0.376 OA 
HETATM   12  O   UNL     1     -12.400  11.895  70.326  1.00  0.00    -0.274 OA 
HETATM   13  N   UNL     1     -11.614  14.014  70.621  1.00  0.00    -0.143 N  
HETATM   14  C   UNL     1     -10.285  12.405  69.329  1.00  0.00     0.351 C  
HETATM   15  C   UNL     1     -11.502  12.721  70.143  1.00  0.00     0.084 C  
ENDROOT
BRANCH   8  16
HETATM   16  C   UNL     1      -8.814  15.965  69.320  1.00  0.00    -0.249 A  
HETATM   17  C   UNL     1      -8.141  16.248  68.120  1.00  0.00    -0.158 A  
HETATM   18  C   UNL     1      -7.631  18.472  68.891  1.00  0.00    -0.261 A  
HETATM   19  C   UNL     1      -8.195  18.183  70.138  1.00  0.00     2.407 A  
HETATM   20  C   UNL     1      -8.781  16.922  70.352  1.00  0.00     3.141 A  
HETATM   21  C   UNL     1      -7.568  17.497  67.898  1.00  0.00    -0.204 A  
BRANCH  19  22
HETATM   22  N   UNL     1      -8.170  19.225  71.096  1.00  0.00     3.405 N  
HETATM   23  H   UNL     1      -7.644  20.060  70.842  1.00  0.00     0.000 HD 
HETATM   24  C   UNL     1      -8.543  20.525  73.103  1.00  0.00     4.755 C  
HETATM   25  O   UNL     1      -9.466  18.347  72.812  1.00  0.00     7.932 OA 
HETATM   26  C   UNL     1      -8.778  19.237  72.335  1.00  0.00     6.398 C  
ENDBRANCH  19  22
ENDBRANCH   8  16
BRANCH  13  27
HETATM   27  C   UNL     1     -12.796  14.308  71.433  1.00  0.00    -0.344 C  
HETATM   28  C   UNL     1     -13.236  15.738  71.645  1.00  0.00    -0.462 C  
HETATM   29  C   UNL     1     -14.115  14.802  70.879  1.00  0.00    -0.035 C  
ENDBRANCH  13  27
BRANCH  10  30
HETATM   30  N   UNL     1     -10.951  10.051  69.198  1.00  0.00    -0.256 NA 
HETATM   31  H   UNL     1     -11.860  10.061  68.733  1.00  0.00     0.000 HD 
BRANCH  30  32
HETATM   32  C   UNL     1     -10.728   8.953  70.055  1.00  0.00    -0.228 A  
HETATM   33  C   UNL     1      -9.687   8.037  69.880  1.00  0.00    -0.180 A  
HETATM   34  C   UNL     1      -9.626   6.862  70.649  1.00  0.00    -0.171 A  
HETATM   35  C   UNL     1     -10.600   6.600  71.614  1.00  0.00    -0.217 A  
HETATM   36  C   UNL     1     -11.597   7.533  71.866  1.00  0.00    -0.312 A  
HETATM   37  I   UNL     1     -10.596   4.784  72.628  1.00  0.00    -0.214 I  
HETATM   38  C   UNL     1     -11.652   8.688  71.086  1.00  0.00    -0.281 A  
HETATM   39  F   UNL     1     -12.643   9.565  71.320  1.00  0.00    -0.339 F  
ENDBRANCH  30  32
ENDBRANCH  10  30
TORSDOF 5
ENDMDL
MODEL      170
REMARK 921   NORMALIZED FREE ENERGY PREDICTED BY IDOCK:   21.70 KCAL/MOL
REMARK 922        TOTAL FREE ENERGY PREDICTED BY IDOCK:   27.83 KCAL/MOL
REMARK 923 INTER-LIGAND FREE ENERGY PREDICTED BY IDOCK:   25.15 KCAL/MOL
REMARK 924 INTRA-LIGAND FREE ENERGY PREDICTED BY IDOCK:    2.68 KCAL/MOL
REMARK 927      BINDING AFFINITY PREDICTED BY RF-SCORE:    0.00 PKD
ROOT
HETATM    1  C   UNL     1     -10.288  13.876  63.985  1.00  0.00     0.831 C  
HETATM    2  N   UNL     1     -10.180  12.692  64.830  1.00  0.00    -0.300 N  
HETATM    3  C   UNL     1     -10.641  11.514  64.268  1.00  0.00    -0.347 C  
HETATM    4  O   UNL     1     -11.312  11.481  63.236  1.00  0.00    -0.317 OA 
HETATM    5  C   UNL     1     -10.221  10.238  64.923  1.00  0.00    -0.261 C  
HETATM    6  C   UNL     1      -9.714  10.261  66.183  1.00  0.00    -0.211 C  
HETATM    7  C   UNL     1     -10.341   9.081  63.964  1.00  0.00     4.353 C  
HETATM    8  N   UNL     1      -9.371   9.117  66.927  1.00  0.00    -0.149 N  
HETATM    9  C   UNL     1      -8.691   9.185  68.171  1.00  0.00    -0.129 C  
HETATM   10  C   UNL     1      -9.617  12.772  66.110  1.00  0.00    -0.212 C  
HETATM   11  O   UNL     1      -8.304   8.180  68.781  1.00  0.00    -0.123 OA 
HETATM   12  O   UNL     1      -8.134  12.679  68.486  1.00  0.00    -0.143 OA 
HETATM   13  N   UNL     1      -8.473  10.438  68.724  1.00  0.00    -0.124 N  
HETATM   14  C   UNL     1      -9.388  11.593  66.761  1.00  0.00    -0.193 C  
HETATM   15  C   UNL     1      -8.640  11.639  68.058  1.00  0.00    -0.152 C  
ENDROOT
BRANCH   8  16
HETATM   16  C   UNL     1      -9.856   7.771  66.647  1.00  0.00    -0.225 A  
HETATM   17  C   UNL     1     -11.026   7.309  67.271  1.00  0.00    -0.284 A  
HETATM   18  C   UNL     1     -11.207   5.512  65.677  1.00  0.00     1.033 A  
HETATM   19  C   UNL     1      -9.984   5.880  65.105  1.00  0.00     1.152 A  
HETATM   20  C   UNL     1      -9.306   7.009  65.599  1.00  0.00     0.277 A  
HETATM   21  C   UNL     1     -11.708   6.198  66.781  1.00  0.00     1.166 A  
BRANCH  19  22
HETATM   22  N   UNL     1      -9.538   5.092  64.017  1.00  0.00    -0.142 N  
HETATM   23  H   UNL     1      -9.945   5.306  63.107  1.00  0.00     0.000 HD 
HETATM   24  C   UNL     1      -8.370   3.440  62.689  1.00  0.00    -0.073 C  
HETATM   25  O   UNL     1      -8.001   3.676  65.032  1.00  0.00    -0.088 OA 
HETATM   26  C   UNL     1      -8.613   4.068  64.049  1.00  0.00    -0.102 C  
ENDBRANCH  19  22
ENDBRANCH   8  16
BRANCH  13  27
HETATM   27  C   UNL     1      -7.759  10.496  70.000  1.00  0.00     0.124 C  
HETATM   28  C   UNL     1      -7.959   9.410  71.032  1.00  0.00    -0.025 C  
HETATM   29  C   UNL     1      -6.620   9.577  70.388  1.00  0.00    -0.086 C  
ENDBRANCH  13  27
BRANCH  10  30
HETATM   30  N   UNL     1      -9.279  14.033  66.582  1.00  0.00    -0.354 NA 
HETATM   31  H   UNL     1      -8.480  14.060  67.215  1.00  0.00     0.000 HD 
BRANCH  30  32
HETATM   32  C   UNL     1      -9.877  15.284  66.317  1.00  0.00    -0.294 A  
HETATM   33  C   UNL     1     -11.082  15.701  66.888  1.00  0.00    -0.181 A  
HETATM   34  C   UNL     1     -11.722  16.870  66.445  1.00  0.00     1.742 A  
HETATM   35  C   UNL     1     -11.152  17.646  65.434  1.00  0.00     0.452 A  
HETATM   36  C   UNL     1      -9.914  17.301  64.907  1.00  0.00     1.776 A  
HETATM   37  I   UNL     1     -12.186  19.281  64.670  1.00  0.00    13.024 I  
HETATM   38  C   UNL     1      -9.297  16.130  65.348  1.00  0.00     0.375 A  
HETATM   39  F   UNL     1      -8.116  15.792  64.805  1.00  0.00     3.355 F  
ENDBRANCH  30  32
ENDBRANCH  10  30
TORSDOF 5
ENDMDL
MODEL      171
REMARK 921   NORMALIZED FREE ENERGY PREDICTED BY IDOCK:   22.33 KCAL/MOL
REMARK 922        TOTAL FREE ENERGY PREDICTED BY IDOCK:   28.64 KCAL/MOL
REMARK 923 INTER-LIGAND FREE ENERGY PREDICTED BY IDOCK:   25.36 KCAL/MOL
REMARK 924 INTRA-LIGAND FREE ENERGY PREDICTED BY IDOCK:    3.29 KCAL/MOL
REMARK 927      BINDING AFFINITY PREDICTED BY RF-SCORE:    0.00 PKD
ROOT
HETATM    1  C   UNL     1      -5.787  10.174  67.940  1.00  0.00    -0.041 C  
HETATM    2  N   UNL     1      -6.586  11.390  68.045  1.00  0.00    -0.057 N  
HETATM    3  C   UNL     1      -6.433  12.105  69.219  1.00  0.00    -0.111 C  
HETATM    4  O   UNL     1      -5.859  11.653  70.210  1.00  0.00    -0.135 OA 
HETATM    5  C   UNL     1      -6.926  13.517  69.225  1.00  0.00    -0.008 C  
HETATM    6  C   UNL     1      -7.777  13.938  68.255  1.00  0.00    -0.136 C  
HETATM    7  C   UNL     1      -6.260  14.310  70.321  1.00  0.00    -0.163 C  
HETATM    8  N   UNL     1      -8.373  15.213  68.213  1.00  0.00    -0.145 N  
HETATM    9  C   UNL     1      -9.122  15.673  67.099  1.00  0.00    -0.210 C  
HETATM   10  C   UNL     1      -7.423  11.791  66.996  1.00  0.00    -0.137 C  
HETATM   11  O   UNL     1      -9.566  16.827  67.019  1.00  0.00    -0.229 OA 
HETATM   12  O   UNL     1      -8.789  12.951  64.842  1.00  0.00     1.281 OA 
HETATM   13  N   UNL     1      -9.378  14.777  66.072  1.00  0.00    -0.259 N  
HETATM   14  C   UNL     1      -7.995  13.028  67.098  1.00  0.00    -0.095 C  
HETATM   15  C   UNL     1      -8.761  13.548  65.921  1.00  0.00     0.989 C  
ENDROOT
BRANCH   8  16
HETATM   16  C   UNL     1      -8.492  16.109  69.356  1.00  0.00    -0.091 A  
HETATM   17  C   UNL     1      -7.738  17.294  69.393  1.00  0.00     0.194 A  
HETATM   18  C   UNL     1      -9.146  18.174  71.138  1.00  0.00     6.945 A  
HETATM   19  C   UNL     1      -9.844  16.964  71.203  1.00  0.00     3.985 A  
HETATM   20  C   UNL     1      -9.508  15.927  70.313  1.00  0.00     0.730 A  
HETATM   21  C   UNL     1      -8.072  18.327  70.264  1.00  0.00     2.672 A  
BRANCH  19  22
HETATM   22  N   UNL     1     -10.889  16.892  72.155  1.00  0.00     1.753 N  
HETATM   23  H   UNL     1     -11.350  17.771  72.388  1.00  0.00     0.000 HD 
HETATM   24  C   UNL     1     -12.494  16.057  73.763  1.00  0.00    -0.716 C  
HETATM   25  O   UNL     1     -10.951  14.623  72.648  1.00  0.00     0.761 OA 
HETATM   26  C   UNL     1     -11.354  15.766  72.804  1.00  0.00     0.101 C  
ENDBRANCH  19  22
ENDBRANCH   8  16
BRANCH  13  27
HETATM   27  C   UNL     1     -10.141  15.268  64.925  1.00  0.00    -0.079 C  
HETATM   28  C   UNL     1     -10.962  14.310  64.092  1.00  0.00     0.145 C  
HETATM   29  C   UNL     1     -11.650  15.377  64.882  1.00  0.00    -0.248 C  
ENDBRANCH  13  27
BRANCH  10  30
HETATM   30  N   UNL     1      -7.549  10.930  65.914  1.00  0.00    -0.302 NA 
HETATM   31  H   UNL     1      -6.710  10.396  65.685  1.00  0.00     0.000 HD 
BRANCH  30  32
HETATM   32  C   UNL     1      -8.663  10.683  65.084  1.00  0.00    -0.186 A  
HETATM   33  C   UNL     1      -8.584  10.599  63.690  1.00  0.00    -0.110 A  
HETATM   34  C   UNL     1      -9.748  10.540  62.907  1.00  0.00    -0.304 A  
HETATM   35  C   UNL     1     -11.006  10.549  63.511  1.00  0.00     1.194 A  
HETATM   36  C   UNL     1     -11.112  10.547  64.896  1.00  0.00     0.695 A  
HETATM   37  I   UNL     1     -12.722  10.630  62.339  1.00  0.00     8.149 I  
HETATM   38  C   UNL     1      -9.948  10.619  65.661  1.00  0.00    -0.268 A  
HETATM   39  F   UNL     1     -10.069  10.650  66.998  1.00  0.00    -0.210 F  
ENDBRANCH  30  32
ENDBRANCH  10  30
TORSDOF 5
ENDMDL
MODEL      172
REMARK 921   NORMALIZED FREE ENERGY PREDICTED BY IDOCK:   26.90 KCAL/MOL
REMARK 922        TOTAL FREE ENERGY PREDICTED BY IDOCK:   34.55 KCAL/MOL
REMARK 923 INTER-LIGAND FREE ENERGY PREDICTED BY IDOCK:   26.15 KCAL/MOL
REMARK 924 INTRA-LIGAND FREE ENERGY PREDICTED BY IDOCK:    8.40 KCAL/MOL
REMARK 927      BINDING AFFINITY PREDICTED BY RF-SCORE:    0.00 PKD
ROOT
HETATM    1  C   UNL     1     -12.276   9.799  73.402  1.00  0.00     4.890 C  
HETATM    2  N   UNL     1     -11.883   9.767  71.999  1.00  0.00    -0.130 N  
HETATM    3  C   UNL     1     -11.437   8.543  71.532  1.00  0.00    -0.287 C  
HETATM    4  O   UNL     1     -11.158   7.602  72.275  1.00  0.00    -0.249 OA 
HETATM    5  C   UNL     1     -11.380   8.360  70.049  1.00  0.00    -0.003 C  
HETATM    6  C   UNL     1     -11.429   9.444  69.233  1.00  0.00     0.273 C  
HETATM    7  C   UNL     1     -11.388   6.895  69.691  1.00  0.00    -0.254 C  
HETATM    8  N   UNL     1     -11.293   9.398  67.833  1.00  0.00     0.272 N  
HETATM    9  C   UNL     1     -11.517  10.526  67.002  1.00  0.00     0.429 C  
HETATM   10  C   UNL     1     -11.987  10.911  71.197  1.00  0.00    -0.212 C  
HETATM   11  O   UNL     1     -11.492  10.466  65.765  1.00  0.00     0.639 OA 
HETATM   12  O   UNL     1     -12.542  12.964  69.373  1.00  0.00     0.128 OA 
HETATM   13  N   UNL     1     -11.753  11.748  67.615  1.00  0.00    -0.287 N  
HETATM   14  C   UNL     1     -11.771  10.751  69.858  1.00  0.00    -0.412 C  
HETATM   15  C   UNL     1     -12.034  11.919  68.958  1.00  0.00    -0.262 C  
ENDROOT
BRANCH   8  16
HETATM   16  C   UNL     1     -10.702   8.289  67.095  1.00  0.00    -0.170 A  
HETATM   17  C   UNL     1     -11.531   7.412  66.375  1.00  0.00     2.558 A  
HETATM   18  C   UNL     1      -9.636   6.580  65.142  1.00  0.00     1.122 A  
HETATM   19  C   UNL     1      -8.772   7.359  65.920  1.00  0.00    -0.140 A  
HETATM   20  C   UNL     1      -9.310   8.208  66.904  1.00  0.00    -0.219 A  
HETATM   21  C   UNL     1     -11.006   6.576  65.393  1.00  0.00     3.732 A  
BRANCH  19  22
HETATM   22  N   UNL     1      -7.393   7.259  65.618  1.00  0.00    -0.073 N  
HETATM   23  H   UNL     1      -6.949   6.364  65.820  1.00  0.00     0.000 HD 
HETATM   24  C   UNL     1      -5.146   7.783  64.886  1.00  0.00    -0.029 C  
HETATM   25  O   UNL     1      -6.925   9.364  64.753  1.00  0.00    -0.092 OA 
HETATM   26  C   UNL     1      -6.581   8.238  65.082  1.00  0.00    -0.055 C  
ENDBRANCH  19  22
ENDBRANCH   8  16
BRANCH  13  27
HETATM   27  C   UNL     1     -11.994  12.901  66.747  1.00  0.00    -0.350 C  
HETATM   28  C   UNL     1     -11.342  14.231  67.051  1.00  0.00    -0.354 C  
HETATM   29  C   UNL     1     -10.968  13.494  65.805  1.00  0.00    -0.285 C  
ENDBRANCH  13  27
BRANCH  10  30
HETATM   30  N   UNL     1     -12.363  12.094  71.819  1.00  0.00     0.119 NA 
HETATM   31  H   UNL     1     -12.464  12.038  72.833  1.00  0.00     0.000 HD 
BRANCH  30  32
HETATM   32  C   UNL     1     -12.626  13.363  71.259  1.00  0.00    -0.322 A  
HETATM   33  C   UNL     1     -13.738  13.637  70.457  1.00  0.00     0.944 A  
HETATM   34  C   UNL     1     -13.848  14.860  69.776  1.00  0.00     2.219 A  
HETATM   35  C   UNL     1     -12.853  15.830  69.903  1.00  0.00     0.321 A  
HETATM   36  C   UNL     1     -11.780  15.618  70.759  1.00  0.00    -0.408 A  
HETATM   37  I   UNL     1     -12.942  17.567  68.762  1.00  0.00    11.198 I  
HETATM   38  C   UNL     1     -11.677  14.393  71.419  1.00  0.00    -0.070 A  
HETATM   39  F   UNL     1     -10.616  14.190  72.217  1.00  0.00     1.968 F  
ENDBRANCH  30  32
ENDBRANCH  10  30
TORSDOF 5
ENDMDL
MODEL      173
REMARK 921   NORMALIZED FREE ENERGY PREDICTED BY IDOCK:   27.93 KCAL/MOL
REMARK 922        TOTAL FREE ENERGY PREDICTED BY IDOCK:   35.88 KCAL/MOL
REMARK 923 INTER-LIGAND FREE ENERGY PREDICTED BY IDOCK:   32.80 KCAL/MOL
REMARK 924 INTRA-LIGAND FREE ENERGY PREDICTED BY IDOCK:    3.08 KCAL/MOL
REMARK 927      BINDING AFFINITY PREDICTED BY RF-SCORE:    0.00 PKD
ROOT
HETATM    1  C   UNL     1      -7.461  14.869  69.882  1.00  0.00     0.015 C  
HETATM    2  N   UNL     1      -7.919  13.686  69.162  1.00  0.00     0.182 N  
HETATM    3  C   UNL     1      -8.663  12.787  69.906  1.00  0.00     2.980 C  
HETATM    4  O   UNL     1      -8.744  12.837  71.133  1.00  0.00     9.541 OA 
HETATM    5  C   UNL     1      -9.457  11.771  69.149  1.00  0.00     0.314 C  
HETATM    6  C   UNL     1      -9.180  11.537  67.840  1.00  0.00    -0.168 C  
HETATM    7  C   UNL     1     -10.574  11.224  70.001  1.00  0.00     0.419 C  
HETATM    8  N   UNL     1      -9.800  10.545  67.057  1.00  0.00    -0.177 N  
HETATM    9  C   UNL     1      -9.606  10.441  65.655  1.00  0.00    -0.226 C  
HETATM   10  C   UNL     1      -7.630  13.516  67.802  1.00  0.00    -0.162 C  
HETATM   11  O   UNL     1     -10.222   9.631  64.949  1.00  0.00     0.064 OA 
HETATM   12  O   UNL     1      -7.517  13.242  65.016  1.00  0.00     6.431 OA 
HETATM   13  N   UNL     1      -8.669  11.276  65.065  1.00  0.00     0.041 N  
HETATM   14  C   UNL     1      -8.245  12.477  67.163  1.00  0.00    -0.168 C  
HETATM   15  C   UNL     1      -8.083  12.369  65.678  1.00  0.00     1.658 C  
ENDROOT
BRANCH   8  16
HETATM   16  C   UNL     1     -10.512   9.392  67.593  1.00  0.00    -0.268 A  
HETATM   17  C   UNL     1     -11.268   8.579  66.732  1.00  0.00     1.241 A  
HETATM   18  C   UNL     1     -11.338   6.833  68.389  1.00  0.00    -0.033 A  
HETATM   19  C   UNL     1     -10.686   7.661  69.309  1.00  0.00    -0.161 A  
HETATM   20  C   UNL     1     -10.281   8.948  68.908  1.00  0.00    -0.220 A  
HETATM   21  C   UNL     1     -11.663   7.302  67.119  1.00  0.00     1.671 A  
BRANCH  19  22
HETATM   22  N   UNL     1     -10.441   7.109  70.589  1.00  0.00    -0.208 N  
HETATM   23  H   UNL     1     -11.231   7.097  71.235  1.00  0.00     0.000 HD 
HETATM   24  C   UNL     1      -9.354   6.075  72.488  1.00  0.00    -0.143 C  
HETATM   25  O   UNL     1      -8.208   6.489  70.439  1.00  0.00    -0.121 OA 
HETATM   26  C   UNL     1      -9.255   6.585  71.062  1.00  0.00    -0.160 C  
ENDBRANCH  19  22
ENDBRANCH   8  16
BRANCH  13  27
HETATM   27  C   UNL     1      -8.488  11.168  63.617  1.00  0.00     0.294 C  
HETATM   28  C   UNL     1      -7.370  10.322  63.052  1.00  0.00    -0.125 C  
HETATM   29  C   UNL     1      -8.791   9.927  62.806  1.00  0.00    -0.242 C  
ENDBRANCH  13  27
BRANCH  10  30
HETATM   30  N   UNL     1      -6.797  14.452  67.204  1.00  0.00    -0.373 NA 
HETATM   31  H   UNL     1      -5.841  14.137  67.036  1.00  0.00     0.000 HD 
BRANCH  30  32
HETATM   32  C   UNL     1      -7.074  15.774  66.795  1.00  0.00     0.110 A  
HETATM   33  C   UNL     1      -8.186  16.500  67.230  1.00  0.00    -0.196 A  
HETATM   34  C   UNL     1      -8.510  17.736  66.646  1.00  0.00    -0.283 A  
HETATM   35  C   UNL     1      -7.715  18.266  65.629  1.00  0.00     0.193 A  
HETATM   36  C   UNL     1      -6.558  17.606  65.236  1.00  0.00     0.616 A  
HETATM   37  I   UNL     1      -8.296  20.011  64.657  1.00  0.00     4.245 I  
HETATM   38  C   UNL     1      -6.255  16.374  65.816  1.00  0.00     2.631 A  
HETATM   39  F   UNL     1      -5.150  15.733  65.400  1.00  0.00     3.594 F  
ENDBRANCH  30  32
ENDBRANCH  10  30
TORSDOF 5
ENDMDL
MODEL      174
REMARK 921   NORMALIZED FREE ENERGY PREDICTED BY IDOCK:   28.05 KCAL/MOL
REMARK 922        TOTAL FREE ENERGY PREDICTED BY IDOCK:   36.04 KCAL/MOL
REMARK 923 INTER-LIGAND FREE ENERGY PREDICTED BY IDOCK:   32.67 KCAL/MOL
REMARK 924 INTRA-LIGAND FREE ENERGY PREDICTED BY IDOCK:    3.37 KCAL/MOL
REMARK 927      BINDING AFFINITY PREDICTED BY RF-SCORE:    0.00 PKD
ROOT
HETATM    1  C   UNL     1     -13.427  14.239  67.458  1.00  0.00     4.931 C  
HETATM    2  N   UNL     1     -12.541  13.110  67.718  1.00  0.00     0.428 N  
HETATM    3  C   UNL     1     -12.855  11.939  67.050  1.00  0.00     3.570 C  
HETATM    4  O   UNL     1     -13.925  11.766  66.466  1.00  0.00     9.297 OA 
HETATM    5  C   UNL     1     -11.794  10.888  66.986  1.00  0.00     0.815 C  
HETATM    6  C   UNL     1     -10.730  10.950  67.827  1.00  0.00    -0.235 C  
HETATM    7  C   UNL     1     -12.054   9.937  65.845  1.00  0.00     6.202 C  
HETATM    8  N   UNL     1      -9.723   9.971  67.916  1.00  0.00    -0.145 N  
HETATM    9  C   UNL     1      -8.544  10.150  68.684  1.00  0.00    -0.123 C  
HETATM   10  C   UNL     1     -11.438  13.244  68.572  1.00  0.00    -0.312 C  
HETATM   11  O   UNL     1      -7.613   9.332  68.689  1.00  0.00    -0.079 OA 
HETATM   12  O   UNL     1      -8.974  13.464  69.886  1.00  0.00     1.862 OA 
HETATM   13  N   UNL     1      -8.450  11.285  69.476  1.00  0.00     0.378 N  
HETATM   14  C   UNL     1     -10.561  12.198  68.620  1.00  0.00    -0.248 C  
HETATM   15  C   UNL     1      -9.293  12.378  69.396  1.00  0.00     1.176 C  
ENDROOT
BRANCH   8  16
HETATM   16  C   UNL     1      -9.856   8.600  67.437  1.00  0.00    -0.192 A  
HETATM   17  C   UNL     1     -11.079   7.926  67.589  1.00  0.00     0.219 A  
HETATM   18  C   UNL     1     -10.405   6.270  65.976  1.00  0.00     0.367 A  
HETATM   19  C   UNL     1      -9.136   6.854  65.887  1.00  0.00    -0.009 A  
HETATM   20  C   UNL     1      -8.863   8.018  66.628  1.00  0.00    -0.166 A  
HETATM   21  C   UNL     1     -11.359   6.779  66.852  1.00  0.00     0.119 A  
BRANCH  19  22
HETATM   22  N   UNL     1      -8.220   6.236  65.003  1.00  0.00    -0.154 N  
HETATM   23  H   UNL     1      -7.231   6.414  65.179  1.00  0.00     0.000 HD 
HETATM   24  C   UNL     1      -7.278   4.926  63.198  1.00  0.00    -0.048 C  
HETATM   25  O   UNL     1      -9.629   5.070  63.570  1.00  0.00     0.242 OA 
HETATM   26  C   UNL     1      -8.514   5.419  63.930  1.00  0.00    -0.070 C  
ENDBRANCH  19  22
ENDBRANCH   8  16
BRANCH  13  27
HETATM   27  C   UNL     1      -7.223  11.464  70.254  1.00  0.00     1.121 C  
HETATM   28  C   UNL     1      -7.028  10.710  71.549  1.00  0.00     2.449 C  
HETATM   29  C   UNL     1      -6.133  10.423  70.386  1.00  0.00    -0.118 C  
ENDBRANCH  13  27
BRANCH  10  30
HETATM   30  N   UNL     1     -11.296  14.449  69.246  1.00  0.00    -0.270 NA 
HETATM   31  H   UNL     1     -12.001  14.633  69.960  1.00  0.00     0.000 HD 
BRANCH  30  32
HETATM   32  C   UNL     1     -10.322  15.459  69.091  1.00  0.00    -0.240 A  
HETATM   33  C   UNL     1      -9.592  15.654  67.915  1.00  0.00    -0.206 A  
HETATM   34  C   UNL     1      -8.509  16.548  67.881  1.00  0.00    -0.182 A  
HETATM   35  C   UNL     1      -8.153  17.268  69.021  1.00  0.00    -0.102 A  
HETATM   36  C   UNL     1      -8.912  17.157  70.179  1.00  0.00     2.255 A  
HETATM   37  I   UNL     1      -6.448  18.460  69.009  1.00  0.00    -0.239 I  
HETATM   38  C   UNL     1      -9.978  16.256  70.202  1.00  0.00     0.396 A  
HETATM   39  F   UNL     1     -10.681  16.135  71.340  1.00  0.00    -0.024 F  
ENDBRANCH  30  32
ENDBRANCH  10  30
TORSDOF 5
ENDMDL
MODEL      175
REMARK 921   NORMALIZED FREE ENERGY PREDICTED BY IDOCK:   28.54 KCAL/MOL
REMARK 922        TOTAL FREE ENERGY PREDICTED BY IDOCK:   36.67 KCAL/MOL
REMARK 923 INTER-LIGAND FREE ENERGY PREDICTED BY IDOCK:   33.36 KCAL/MOL
REMARK 924 INTRA-LIGAND FREE ENERGY PREDICTED BY IDOCK:    3.31 KCAL/MOL
REMARK 927      BINDING AFFINITY PREDICTED BY RF-SCORE:    0.00 PKD
ROOT
HETATM    1  C   UNL     1      -9.430  19.050  68.073  1.00  0.00    -0.319 C  
HETATM    2  N   UNL     1     -10.071  17.845  68.584  1.00  0.00    -0.381 N  
HETATM    3  C   UNL     1     -10.152  16.789  67.694  1.00  0.00    -0.275 C  
HETATM    4  O   UNL     1      -9.927  16.908  66.489  1.00  0.00    -0.274 OA 
HETATM    5  C   UNL     1     -10.450  15.439  68.265  1.00  0.00    -0.241 C  
HETATM    6  C   UNL     1     -10.951  15.334  69.522  1.00  0.00    -0.277 C  
HETATM    7  C   UNL     1     -10.011  14.351  67.318  1.00  0.00    -0.247 C  
HETATM    8  N   UNL     1     -11.351  14.127  70.125  1.00  0.00    -0.152 N  
HETATM    9  C   UNL     1     -11.710  14.034  71.495  1.00  0.00     0.460 C  
HETATM   10  C   UNL     1     -10.539  17.785  69.904  1.00  0.00     0.852 C  
HETATM   11  O   UNL     1     -11.970  12.959  72.051  1.00  0.00     0.994 OA 
HETATM   12  O   UNL     1     -11.122  17.355  72.610  1.00  0.00     1.075 OA 
HETATM   13  N   UNL     1     -11.789  15.210  72.227  1.00  0.00    -0.398 N  
HETATM   14  C   UNL     1     -10.960  16.566  70.356  1.00  0.00    -0.135 C  
HETATM   15  C   UNL     1     -11.311  16.438  71.807  1.00  0.00     0.026 C  
ENDROOT
BRANCH   8  16
HETATM   16  C   UNL     1     -11.662  12.902  69.399  1.00  0.00    -0.321 A  
HETATM   17  C   UNL     1     -12.442  12.964  68.232  1.00  0.00     0.504 A  
HETATM   18  C   UNL     1     -11.739  10.748  67.603  1.00  0.00     0.107 A  
HETATM   19  C   UNL     1     -11.044  10.612  68.810  1.00  0.00    -0.265 A  
HETATM   20  C   UNL     1     -11.014  11.692  69.712  1.00  0.00    -0.001 A  
HETATM   21  C   UNL     1     -12.468  11.903  67.332  1.00  0.00     1.361 A  
BRANCH  19  22
HETATM   22  N   UNL     1     -10.373   9.383  69.014  1.00  0.00    -0.205 N  
HETATM   23  H   UNL     1     -10.698   8.593  68.458  1.00  0.00     0.000 HD 
HETATM   24  C   UNL     1      -8.847   7.695  69.838  1.00  0.00    -0.143 C  
HETATM   25  O   UNL     1      -8.785   9.948  70.613  1.00  0.00    -0.105 OA 
HETATM   26  C   UNL     1      -9.328   9.134  69.880  1.00  0.00    -0.186 C  
ENDBRANCH  19  22
ENDBRANCH   8  16
BRANCH  13  27
HETATM   27  C   UNL     1     -12.149  15.100  73.641  1.00  0.00    -0.467 C  
HETATM   28  C   UNL     1     -12.789  16.268  74.355  1.00  0.00    -0.216 C  
HETATM   29  C   UNL     1     -13.568  15.007  74.159  1.00  0.00     2.428 C  
ENDBRANCH  13  27
BRANCH  10  30
HETATM   30  N   UNL     1     -10.474  18.948  70.657  1.00  0.00     1.060 NA 
HETATM   31  H   UNL     1     -11.371  19.406  70.827  1.00  0.00     0.000 HD 
BRANCH  30  32
HETATM   32  C   UNL     1      -9.355  19.595  71.225  1.00  0.00     2.783 A  
HETATM   33  C   UNL     1      -8.361  20.222  70.469  1.00  0.00     1.661 A  
HETATM   34  C   UNL     1      -7.180  20.682  71.075  1.00  0.00     1.673 A  
HETATM   35  C   UNL     1      -6.988  20.532  72.449  1.00  0.00     2.020 A  
HETATM   36  C   UNL     1      -7.995  19.988  73.236  1.00  0.00     4.781 A  
HETATM   37  I   UNL     1      -5.170  21.062  73.309  1.00  0.00     9.884 I  
HETATM   38  C   UNL     1      -9.157  19.525  72.619  1.00  0.00     4.748 A  
HETATM   39  F   UNL     1     -10.107  18.971  73.391  1.00  0.00     1.544 F  
ENDBRANCH  30  32
ENDBRANCH  10  30
TORSDOF 5
ENDMDL
MODEL      176
REMARK 921   NORMALIZED FREE ENERGY PREDICTED BY IDOCK:   28.93 KCAL/MOL
REMARK 922        TOTAL FREE ENERGY PREDICTED BY IDOCK:   37.17 KCAL/MOL
REMARK 923 INTER-LIGAND FREE ENERGY PREDICTED BY IDOCK:   33.39 KCAL/MOL
REMARK 924 INTRA-LIGAND FREE ENERGY PREDICTED BY IDOCK:    3.78 KCAL/MOL
REMARK 927      BINDING AFFINITY PREDICTED BY RF-SCORE:    0.00 PKD
ROOT
HETATM    1  C   UNL     1      -9.493   9.949  72.443  1.00  0.00     4.452 C  
HETATM    2  N   UNL     1      -9.863  10.664  71.227  1.00  0.00     3.116 N  
HETATM    3  C   UNL     1     -10.040  12.029  71.369  1.00  0.00     9.698 C  
HETATM    4  O   UNL     1     -10.121  12.585  72.465  1.00  0.00    14.079 OA 
HETATM    5  C   UNL     1     -10.049  12.848  70.118  1.00  0.00     2.743 C  
HETATM    6  C   UNL     1     -10.223  12.241  68.916  1.00  0.00    -0.020 C  
HETATM    7  C   UNL     1      -9.734  14.291  70.422  1.00  0.00     1.862 C  
HETATM    8  N   UNL     1     -10.338  12.918  67.688  1.00  0.00    -0.216 N  
HETATM    9  C   UNL     1     -10.351  12.246  66.438  1.00  0.00    -0.225 C  
HETATM   10  C   UNL     1      -9.995   9.988  70.008  1.00  0.00    -0.222 C  
HETATM   11  O   UNL     1     -10.356  12.843  65.353  1.00  0.00    -0.288 OA 
HETATM   12  O   UNL     1      -9.871   8.872  67.441  1.00  0.00    -0.169 OA 
HETATM   13  N   UNL     1     -10.379  10.859  66.447  1.00  0.00    -0.245 N  
HETATM   14  C   UNL     1     -10.166  10.754  68.890  1.00  0.00    -0.219 C  
HETATM   15  C   UNL     1     -10.147  10.069  67.558  1.00  0.00    -0.198 C  
ENDROOT
BRANCH   8  16
HETATM   16  C   UNL     1     -10.681  14.328  67.549  1.00  0.00    -0.270 A  
HETATM   17  C   UNL     1     -11.723  14.870  68.320  1.00  0.00    -0.342 A  
HETATM   18  C   UNL     1     -10.956  17.104  67.846  1.00  0.00    -0.208 A  
HETATM   19  C   UNL     1      -9.978  16.599  66.982  1.00  0.00    -0.271 A  
HETATM   20  C   UNL     1      -9.849  15.206  66.829  1.00  0.00    -0.251 A  
HETATM   21  C   UNL     1     -11.850  16.247  68.483  1.00  0.00     0.062 A  
BRANCH  19  22
HETATM   22  N   UNL     1      -9.148  17.553  66.347  1.00  0.00    -0.258 N  
HETATM   23  H   UNL     1      -8.193  17.257  66.145  1.00  0.00     0.000 HD 
HETATM   24  C   UNL     1      -8.342  19.584  65.308  1.00  0.00     1.034 C  
HETATM   25  O   UNL     1     -10.578  19.367  66.105  1.00  0.00    -0.463 OA 
HETATM   26  C   UNL     1      -9.484  18.837  65.970  1.00  0.00    -0.057 C  
ENDBRANCH  19  22
ENDBRANCH   8  16
BRANCH  13  27
HETATM   27  C   UNL     1     -10.379  10.178  65.152  1.00  0.00    -0.038 C  
HETATM   28  C   UNL     1      -9.075   9.878  64.450  1.00  0.00    -0.299 C  
HETATM   29  C   UNL     1      -9.928   8.750  64.934  1.00  0.00     1.530 C  
ENDBRANCH  13  27
BRANCH  10  30
HETATM   30  N   UNL     1      -9.878   8.604  70.029  1.00  0.00    -0.177 NA 
HETATM   31  H   UNL     1     -10.753   8.093  69.907  1.00  0.00     0.000 HD 
BRANCH  30  32
HETATM   32  C   UNL     1      -8.731   7.799  70.194  1.00  0.00    -0.140 A  
HETATM   33  C   UNL     1      -7.969   7.313  69.128  1.00  0.00    -0.119 A  
HETATM   34  C   UNL     1      -6.954   6.366  69.343  1.00  0.00    -0.071 A  
HETATM   35  C   UNL     1      -6.680   5.907  70.631  1.00  0.00    -0.053 A  
HETATM   36  C   UNL     1      -7.364   6.435  71.718  1.00  0.00    -0.088 A  
HETATM   37  I   UNL     1      -5.292   4.384  70.919  1.00  0.00    -0.004 I  
HETATM   38  C   UNL     1      -8.378   7.366  71.489  1.00  0.00    -0.108 A  
HETATM   39  F   UNL     1      -9.053   7.842  72.548  1.00  0.00    -0.169 F  
ENDBRANCH  30  32
ENDBRANCH  10  30
TORSDOF 5
ENDMDL
MODEL      177
REMARK 921   NORMALIZED FREE ENERGY PREDICTED BY IDOCK:   29.54 KCAL/MOL
REMARK 922        TOTAL FREE ENERGY PREDICTED BY IDOCK:   37.96 KCAL/MOL
REMARK 923 INTER-LIGAND FREE ENERGY PREDICTED BY IDOCK:   34.14 KCAL/MOL
REMARK 924 INTRA-LIGAND FREE ENERGY PREDICTED BY IDOCK:    3.82 KCAL/MOL
REMARK 927      BINDING AFFINITY PREDICTED BY RF-SCORE:    0.00 PKD
ROOT
HETATM    1  C   UNL     1      -8.380  15.208  70.958  1.00  0.00     2.783 C  
HETATM    2  N   UNL     1      -8.591  14.208  69.917  1.00  0.00     1.053 N  
HETATM    3  C   UNL     1      -8.589  12.892  70.344  1.00  0.00     5.488 C  
HETATM    4  O   UNL     1      -8.205  12.551  71.463  1.00  0.00    10.486 OA 
HETATM    5  C   UNL     1      -9.159  11.873  69.411  1.00  0.00     0.924 C  
HETATM    6  C   UNL     1      -9.340  12.184  68.101  1.00  0.00    -0.204 C  
HETATM    7  C   UNL     1      -9.564  10.629  70.161  1.00  0.00     0.672 C  
HETATM    8  N   UNL     1      -9.783  11.279  67.119  1.00  0.00    -0.180 N  
HETATM    9  C   UNL     1     -10.119  11.680  65.800  1.00  0.00    -0.240 C  
HETATM   10  C   UNL     1      -8.805  14.592  68.586  1.00  0.00    -0.180 C  
HETATM   11  O   UNL     1     -10.599  10.904  64.963  1.00  0.00    -0.286 OA 
HETATM   12  O   UNL     1      -9.674  15.199  65.993  1.00  0.00    -0.287 OA 
HETATM   13  N   UNL     1      -9.875  12.997  65.440  1.00  0.00    -0.173 N  
HETATM   14  C   UNL     1      -9.171  13.610  67.710  1.00  0.00    -0.214 C  
HETATM   15  C   UNL     1      -9.564  14.015  66.323  1.00  0.00    -0.265 C  
ENDROOT
BRANCH   8  16
HETATM   16  C   UNL     1      -9.738   9.827  67.249  1.00  0.00    -0.169 A  
HETATM   17  C   UNL     1     -10.311   9.021  66.252  1.00  0.00    -0.130 A  
HETATM   18  C   UNL     1      -9.117   7.098  67.074  1.00  0.00    -0.149 A  
HETATM   19  C   UNL     1      -8.619   7.848  68.146  1.00  0.00    -0.123 A  
HETATM   20  C   UNL     1      -8.940   9.215  68.234  1.00  0.00    -0.129 A  
HETATM   21  C   UNL     1      -9.990   7.670  66.153  1.00  0.00     0.132 A  
BRANCH  19  22
HETATM   22  N   UNL     1      -7.776   7.165  69.054  1.00  0.00    -0.107 N  
HETATM   23  H   UNL     1      -8.240   6.576  69.746  1.00  0.00     0.000 HD 
HETATM   24  C   UNL     1      -5.818   6.342  70.215  1.00  0.00    -0.018 C  
HETATM   25  O   UNL     1      -5.662   7.830  68.359  1.00  0.00    -0.027 OA 
HETATM   26  C   UNL     1      -6.398   7.205  69.109  1.00  0.00    -0.035 C  
ENDBRANCH  19  22
ENDBRANCH   8  16
BRANCH  13  27
HETATM   27  C   UNL     1     -10.237  13.402  64.081  1.00  0.00     0.067 C  
HETATM   28  C   UNL     1     -11.690  13.558  63.696  1.00  0.00    -0.298 C  
HETATM   29  C   UNL     1     -10.798  14.757  63.711  1.00  0.00     1.710 C  
ENDBRANCH  13  27
BRANCH  10  30
HETATM   30  N   UNL     1      -8.690  15.942  68.284  1.00  0.00    -0.171 NA 
HETATM   31  H   UNL     1      -7.744  16.259  68.069  1.00  0.00     0.000 HD 
BRANCH  30  32
HETATM   32  C   UNL     1      -9.685  16.941  68.230  1.00  0.00    -0.256 A  
HETATM   33  C   UNL     1     -10.760  17.009  69.121  1.00  0.00    -0.253 A  
HETATM   34  C   UNL     1     -11.817  17.909  68.905  1.00  0.00     3.245 A  
HETATM   35  C   UNL     1     -11.801  18.763  67.802  1.00  0.00     2.207 A  
HETATM   36  C   UNL     1     -10.706  18.775  66.947  1.00  0.00    -0.406 A  
HETATM   37  I   UNL     1     -13.446  19.972  67.398  1.00  0.00    10.229 I  
HETATM   38  C   UNL     1      -9.670  17.867  67.167  1.00  0.00    -0.289 A  
HETATM   39  F   UNL     1      -8.634  17.869  66.312  1.00  0.00    -0.267 F  
ENDBRANCH  30  32
ENDBRANCH  10  30
TORSDOF 5
ENDMDL
MODEL      178
REMARK 921   NORMALIZED FREE ENERGY PREDICTED BY IDOCK:   31.52 KCAL/MOL
REMARK 922        TOTAL FREE ENERGY PREDICTED BY IDOCK:   40.52 KCAL/MOL
REMARK 923 INTER-LIGAND FREE ENERGY PREDICTED BY IDOCK:   36.12 KCAL/MOL
REMARK 924 INTRA-LIGAND FREE ENERGY PREDICTED BY IDOCK:    4.40 KCAL/MOL
REMARK 927      BINDING AFFINITY PREDICTED BY RF-SCORE:    0.00 PKD
ROOT
HETATM    1  C   UNL     1      -6.780  13.834  71.022  1.00  0.00     1.103 C  
HETATM    2  N   UNL     1      -7.317  12.706  70.269  1.00  0.00     1.741 N  
HETATM    3  C   UNL     1      -6.380  11.925  69.616  1.00  0.00    -0.124 C  
HETATM    4  O   UNL     1      -5.207  12.267  69.468  1.00  0.00    -0.065 OA 
HETATM    5  C   UNL     1      -6.825  10.575  69.152  1.00  0.00    -0.074 C  
HETATM    6  C   UNL     1      -8.151  10.292  69.072  1.00  0.00    -0.132 C  
HETATM    7  C   UNL     1      -5.641   9.665  68.944  1.00  0.00    -0.036 C  
HETATM    8  N   UNL     1      -8.683   9.091  68.566  1.00  0.00    -0.133 N  
HETATM    9  C   UNL     1     -10.061   8.765  68.652  1.00  0.00    -0.189 C  
HETATM   10  C   UNL     1      -8.694  12.445  70.250  1.00  0.00     4.907 C  
HETATM   11  O   UNL     1     -10.516   7.670  68.295  1.00  0.00    -0.199 OA 
HETATM   12  O   UNL     1     -11.335  11.539  70.468  1.00  0.00    -0.019 OA 
HETATM   13  N   UNL     1     -10.928   9.730  69.143  1.00  0.00    -0.207 N  
HETATM   14  C   UNL     1      -9.094  11.273  69.674  1.00  0.00     0.840 C  
HETATM   15  C   UNL     1     -10.538  10.892  69.784  1.00  0.00    -0.074 C  
ENDROOT
BRANCH   8  16
HETATM   16  C   UNL     1      -7.957   8.160  67.710  1.00  0.00    -0.127 A  
HETATM   17  C   UNL     1      -6.607   7.879  67.977  1.00  0.00    -0.056 A  
HETATM   18  C   UNL     1      -6.701   5.926  66.569  1.00  0.00    -0.057 A  
HETATM   19  C   UNL     1      -8.013   6.243  66.196  1.00  0.00    -0.112 A  
HETATM   20  C   UNL     1      -8.636   7.369  66.765  1.00  0.00    -0.127 A  
HETATM   21  C   UNL     1      -5.987   6.761  67.425  1.00  0.00    -0.021 A  
BRANCH  19  22
HETATM   22  N   UNL     1      -8.638   5.358  65.286  1.00  0.00    -0.149 N  
HETATM   23  H   UNL     1      -8.216   5.289  64.360  1.00  0.00     0.000 HD 
HETATM   24  C   UNL     1     -10.150   3.742  64.307  1.00  0.00    -0.221 C  
HETATM   25  O   UNL     1     -10.386   4.502  66.554  1.00  0.00    -0.238 OA 
HETATM   26  C   UNL     1      -9.754   4.577  65.510  1.00  0.00    -0.195 C  
ENDBRANCH  19  22
ENDBRANCH   8  16
BRANCH  13  27
HETATM   27  C   UNL     1     -12.344   9.377  69.238  1.00  0.00     1.747 C  
HETATM   28  C   UNL     1     -12.850   8.572  70.413  1.00  0.00     0.889 C  
HETATM   29  C   UNL     1     -13.313   9.981  70.232  1.00  0.00     0.306 C  
ENDBRANCH  13  27
BRANCH  10  30
HETATM   30  N   UNL     1      -9.526  13.364  70.874  1.00  0.00     5.788 NA 
HETATM   31  H   UNL     1     -10.304  12.960  71.397  1.00  0.00     0.000 HD 
BRANCH  30  32
HETATM   32  C   UNL     1      -9.459  14.774  70.893  1.00  0.00     2.235 A  
HETATM   33  C   UNL     1      -9.604  15.538  72.054  1.00  0.00     4.595 A  
HETATM   34  C   UNL     1      -9.717  16.937  71.985  1.00  0.00     7.936 A  
HETATM   35  C   UNL     1      -9.669  17.587  70.752  1.00  0.00     3.639 A  
HETATM   36  C   UNL     1      -9.442  16.861  69.590  1.00  0.00     0.403 A  
HETATM   37  I   UNL     1     -10.003  19.638  70.644  1.00  0.00     2.926 I  
HETATM   38  C   UNL     1      -9.344  15.472  69.673  1.00  0.00    -0.223 A  
HETATM   39  F   UNL     1      -9.158  14.780  68.536  1.00  0.00    -0.162 F  
ENDBRANCH  30  32
ENDBRANCH  10  30
TORSDOF 5
ENDMDL
MODEL      179
REMARK 921   NORMALIZED FREE ENERGY PREDICTED BY IDOCK:   37.51 KCAL/MOL
REMARK 922        TOTAL FREE ENERGY PREDICTED BY IDOCK:   48.26 KCAL/MOL
REMARK 923 INTER-LIGAND FREE ENERGY PREDICTED BY IDOCK:   42.16 KCAL/MOL
REMARK 924 INTRA-LIGAND FREE ENERGY PREDICTED BY IDOCK:    6.10 KCAL/MOL
REMARK 927      BINDING AFFINITY PREDICTED BY RF-SCORE:    0.00 PKD
ROOT
HETATM    1  C   UNL     1     -10.675  11.101  69.938  1.00  0.00     0.095 C  
HETATM    2  N   UNL     1     -10.439  12.513  70.217  1.00  0.00     2.007 N  
HETATM    3  C   UNL     1      -9.522  13.139  69.391  1.00  0.00     1.083 C  
HETATM    4  O   UNL     1      -8.775  12.524  68.630  1.00  0.00    -0.088 OA 
HETATM    5  C   UNL     1      -9.521  14.634  69.386  1.00  0.00     0.078 C  
HETATM    6  C   UNL     1     -10.138  15.313  70.387  1.00  0.00     0.125 C  
HETATM    7  C   UNL     1      -8.883  15.163  68.126  1.00  0.00    -0.169 C  
HETATM    8  N   UNL     1     -10.122  16.713  70.532  1.00  0.00     0.985 N  
HETATM    9  C   UNL     1     -10.915  17.394  71.491  1.00  0.00     1.873 C  
HETATM   10  C   UNL     1     -11.131  13.168  71.244  1.00  0.00     3.376 C  
HETATM   11  O   UNL     1     -10.976  18.630  71.558  1.00  0.00     2.257 OA 
HETATM   12  O   UNL     1     -12.733  14.712  72.946  1.00  0.00    -0.400 OA 
HETATM   13  N   UNL     1     -11.633  16.632  72.401  1.00  0.00    -0.244 N  
HETATM   14  C   UNL     1     -10.987  14.525  71.321  1.00  0.00     0.675 C  
HETATM   15  C   UNL     1     -11.840  15.268  72.302  1.00  0.00    -0.437 C  
ENDROOT
BRANCH   8  16
HETATM   16  C   UNL     1      -9.154  17.600  69.899  1.00  0.00     1.547 A  
HETATM   17  C   UNL     1      -8.709  18.744  70.581  1.00  0.00     3.644 A  
HETATM   18  C   UNL     1      -6.846  18.961  69.070  1.00  0.00    -0.336 A  
HETATM   19  C   UNL     1      -7.327  17.894  68.303  1.00  0.00    -0.249 A  
HETATM   20  C   UNL     1      -8.490  17.219  68.718  1.00  0.00    -0.233 A  
HETATM   21  C   UNL     1      -7.554  19.411  70.181  1.00  0.00     0.708 A  
BRANCH  19  22
HETATM   22  N   UNL     1      -6.562  17.542  67.166  1.00  0.00    -0.156 N  
HETATM   23  H   UNL     1      -5.577  17.333  67.331  1.00  0.00     0.000 HD 
HETATM   24  C   UNL     1      -5.902  17.040  64.892  1.00  0.00     3.269 C  
HETATM   25  O   UNL     1      -8.138  17.636  65.462  1.00  0.00    -0.335 OA 
HETATM   26  C   UNL     1      -6.997  17.448  65.860  1.00  0.00    -0.106 C  
ENDBRANCH  19  22
ENDBRANCH   8  16
BRANCH  13  27
HETATM   27  C   UNL     1     -12.456  17.347  73.377  1.00  0.00     1.542 C  
HETATM   28  C   UNL     1     -11.804  18.138  74.487  1.00  0.00     1.296 C  
HETATM   29  C   UNL     1     -12.597  18.852  73.440  1.00  0.00     9.974 C  
ENDBRANCH  13  27
BRANCH  10  30
HETATM   30  N   UNL     1     -11.954  12.396  72.053  1.00  0.00     1.171 NA 
HETATM   31  H   UNL     1     -12.233  12.834  72.931  1.00  0.00     0.000 HD 
BRANCH  30  32
HETATM   32  C   UNL     1     -12.462  11.096  71.843  1.00  0.00     0.106 A  
HETATM   33  C   UNL     1     -11.959   9.959  72.480  1.00  0.00     1.096 A  
HETATM   34  C   UNL     1     -12.376   8.674  72.093  1.00  0.00    -0.452 A  
HETATM   35  C   UNL     1     -13.314   8.516  71.072  1.00  0.00     0.131 A  
HETATM   36  C   UNL     1     -13.892   9.631  70.479  1.00  0.00     0.524 A  
HETATM   37  I   UNL     1     -13.799   6.610  70.392  1.00  0.00     5.622 I  
HETATM   38  C   UNL     1     -13.459  10.899  70.865  1.00  0.00     0.384 A  
HETATM   39  F   UNL     1     -14.004  11.967  70.258  1.00  0.00     1.794 F  
ENDBRANCH  30  32
ENDBRANCH  10  30
TORSDOF 5
ENDMDL
MODEL      180
REMARK 921   NORMALIZED FREE ENERGY PREDICTED BY IDOCK:   37.54 KCAL/MOL
REMARK 922        TOTAL FREE ENERGY PREDICTED BY IDOCK:   48.30 KCAL/MOL
REMARK 923 INTER-LIGAND FREE ENERGY PREDICTED BY IDOCK:   34.52 KCAL/MOL
REMARK 924 INTRA-LIGAND FREE ENERGY PREDICTED BY IDOCK:   13.78 KCAL/MOL
REMARK 927      BINDING AFFINITY PREDICTED BY RF-SCORE:    0.00 PKD
ROOT
HETATM    1  C   UNL     1     -13.004   9.352  68.969  1.00  0.00     4.541 C  
HETATM    2  N   UNL     1     -11.847  10.220  69.153  1.00  0.00    -0.052 N  
HETATM    3  C   UNL     1     -11.956  11.485  68.605  1.00  0.00    -0.246 C  
HETATM    4  O   UNL     1     -12.847  11.800  67.815  1.00  0.00     1.386 OA 
HETATM    5  C   UNL     1     -10.981  12.517  69.075  1.00  0.00    -0.237 C  
HETATM    6  C   UNL     1      -9.855  12.133  69.730  1.00  0.00     1.725 C  
HETATM    7  C   UNL     1     -11.509  13.906  68.818  1.00  0.00    -0.327 C  
HETATM    8  N   UNL     1      -8.830  13.007  70.136  1.00  0.00     3.580 N  
HETATM    9  C   UNL     1      -7.752  12.594  70.962  1.00  0.00     6.935 C  
HETATM   10  C   UNL     1     -10.725   9.778  69.867  1.00  0.00    -0.268 C  
HETATM   11  O   UNL     1      -6.901  13.381  71.399  1.00  0.00     1.309 OA 
HETATM   12  O   UNL     1      -8.615   9.213  71.621  1.00  0.00    -0.342 OA 
HETATM   13  N   UNL     1      -7.648  11.246  71.270  1.00  0.00     4.840 N  
HETATM   14  C   UNL     1      -9.764  10.708  70.149  1.00  0.00     0.588 C  
HETATM   15  C   UNL     1      -8.636  10.304  71.047  1.00  0.00     2.205 C  
ENDROOT
BRANCH   8  16
HETATM   16  C   UNL     1      -8.618  14.344  69.595  1.00  0.00     0.564 A  
HETATM   17  C   UNL     1      -8.079  14.495  68.306  1.00  0.00    -0.140 A  
HETATM   18  C   UNL     1      -8.806  16.791  68.236  1.00  0.00    -0.228 A  
HETATM   19  C   UNL     1      -9.251  16.704  69.561  1.00  0.00     0.196 A  
HETATM   20  C   UNL     1      -9.147  15.477  70.241  1.00  0.00     0.743 A  
HETATM   21  C   UNL     1      -8.188  15.704  67.624  1.00  0.00    -0.165 A  
BRANCH  19  22
HETATM   22  N   UNL     1      -9.824  17.876  70.109  1.00  0.00     1.101 N  
HETATM   23  H   UNL     1     -10.600  17.739  70.757  1.00  0.00     0.000 HD 
HETATM   24  C   UNL     1     -10.286  20.193  70.631  1.00  0.00     1.386 C  
HETATM   25  O   UNL     1      -8.538  19.551  69.143  1.00  0.00    -0.293 OA 
HETATM   26  C   UNL     1      -9.451  19.182  69.866  1.00  0.00     0.684 C  
ENDBRANCH  19  22
ENDBRANCH   8  16
BRANCH  13  27
HETATM   27  C   UNL     1      -6.539  10.836  72.132  1.00  0.00     3.066 C  
HETATM   28  C   UNL     1      -5.178  11.473  71.974  1.00  0.00     0.278 C  
HETATM   29  C   UNL     1      -5.951  11.688  73.236  1.00  0.00     2.786 C  
ENDBRANCH  13  27
BRANCH  10  30
HETATM   30  N   UNL     1     -10.714   8.454  70.284  1.00  0.00    -0.231 NA 
HETATM   31  H   UNL     1     -11.608   7.968  70.209  1.00  0.00     0.000 HD 
BRANCH  30  32
HETATM   32  C   UNL     1      -9.651   7.679  70.795  1.00  0.00    -0.166 A  
HETATM   33  C   UNL     1      -9.821   6.664  71.741  1.00  0.00    -0.171 A  
HETATM   34  C   UNL     1      -8.710   6.056  72.351  1.00  0.00    -0.126 A  
HETATM   35  C   UNL     1      -7.416   6.448  72.007  1.00  0.00    -0.093 A  
HETATM   36  C   UNL     1      -7.217   7.394  71.010  1.00  0.00    -0.068 A  
HETATM   37  I   UNL     1      -5.785   5.663  73.034  1.00  0.00    -0.029 I  
HETATM   38  C   UNL     1      -8.328   7.998  70.422  1.00  0.00    -0.120 A  
HETATM   39  F   UNL     1      -8.119   8.935  69.483  1.00  0.00    -0.091 F  
ENDBRANCH  30  32
ENDBRANCH  10  30
TORSDOF 5
ENDMDL
MODEL      181
REMARK 921   NORMALIZED FREE ENERGY PREDICTED BY IDOCK:   39.46 KCAL/MOL
REMARK 922        TOTAL FREE ENERGY PREDICTED BY IDOCK:   50.78 KCAL/MOL
REMARK 923 INTER-LIGAND FREE ENERGY PREDICTED BY IDOCK:   48.04 KCAL/MOL
REMARK 924 INTRA-LIGAND FREE ENERGY PREDICTED BY IDOCK:    2.74 KCAL/MOL
REMARK 927      BINDING AFFINITY PREDICTED BY RF-SCORE:    0.00 PKD
ROOT
HETATM    1  C   UNL     1     -11.171   9.811  63.483  1.00  0.00     5.907 C  
HETATM    2  N   UNL     1     -10.784  10.795  64.488  1.00  0.00    -0.213 N  
HETATM    3  C   UNL     1     -11.292  12.068  64.304  1.00  0.00    -0.364 C  
HETATM    4  O   UNL     1     -11.833  12.430  63.259  1.00  0.00    -0.466 OA 
HETATM    5  C   UNL     1     -11.239  12.997  65.474  1.00  0.00    -0.315 C  
HETATM    6  C   UNL     1     -10.429  12.713  66.526  1.00  0.00    -0.247 C  
HETATM    7  C   UNL     1     -12.246  14.109  65.318  1.00  0.00    -0.440 C  
HETATM    8  N   UNL     1     -10.232  13.557  67.635  1.00  0.00    -0.236 N  
HETATM    9  C   UNL     1      -9.512  13.153  68.789  1.00  0.00     0.109 C  
HETATM   10  C   UNL     1      -9.971  10.433  65.571  1.00  0.00    -0.282 C  
HETATM   11  O   UNL     1      -9.418  13.858  69.803  1.00  0.00     0.865 OA 
HETATM   12  O   UNL     1      -8.734   9.779  67.998  1.00  0.00    -0.119 OA 
HETATM   13  N   UNL     1      -8.873  11.923  68.758  1.00  0.00    -0.023 N  
HETATM   14  C   UNL     1      -9.804  11.362  66.558  1.00  0.00    -0.237 C  
HETATM   15  C   UNL     1      -9.077  10.947  67.799  1.00  0.00    -0.149 C  
ENDROOT
BRANCH   8  16
HETATM   16  C   UNL     1     -10.532  14.983  67.653  1.00  0.00    -0.247 A  
HETATM   17  C   UNL     1     -11.857  15.414  67.830  1.00  0.00    -0.045 A  
HETATM   18  C   UNL     1     -11.098  17.636  68.366  1.00  0.00     0.186 A  
HETATM   19  C   UNL     1      -9.778  17.267  68.086  1.00  0.00    -0.284 A  
HETATM   20  C   UNL     1      -9.499  15.937  67.721  1.00  0.00    -0.216 A  
HETATM   21  C   UNL     1     -12.139  16.726  68.201  1.00  0.00     1.213 A  
BRANCH  19  22
HETATM   22  N   UNL     1      -8.797  18.276  68.239  1.00  0.00    -0.281 N  
HETATM   23  H   UNL     1      -8.054  18.293  67.542  1.00  0.00     0.000 HD 
HETATM   24  C   UNL     1      -7.541  20.166  69.081  1.00  0.00     0.079 C  
HETATM   25  O   UNL     1      -9.536  19.397  70.135  1.00  0.00     0.520 OA 
HETATM   26  C   UNL     1      -8.734  19.238  69.226  1.00  0.00     0.005 C  
ENDBRANCH  19  22
ENDBRANCH   8  16
BRANCH  13  27
HETATM   27  C   UNL     1      -8.143  11.514  69.959  1.00  0.00     1.875 C  
HETATM   28  C   UNL     1      -7.485  10.154  70.022  1.00  0.00    -0.171 C  
HETATM   29  C   UNL     1      -6.637  11.386  70.045  1.00  0.00    -0.033 C  
ENDBRANCH  13  27
BRANCH  10  30
HETATM   30  N   UNL     1      -9.458   9.143  65.581  1.00  0.00    -0.353 NA 
HETATM   31  H   UNL     1      -8.439   9.081  65.565  1.00  0.00     0.000 HD 
BRANCH  30  32
HETATM   32  C   UNL     1     -10.133   7.904  65.610  1.00  0.00     1.303 A  
HETATM   33  C   UNL     1     -11.426   7.718  65.113  1.00  0.00    10.301 A  
HETATM   34  C   UNL     1     -12.117   6.516  65.338  1.00  0.00     7.147 A  
HETATM   35  C   UNL     1     -11.514   5.479  66.052  1.00  0.00     1.091 A  
HETATM   36  C   UNL     1     -10.200   5.606  66.485  1.00  0.00    -0.259 A  
HETATM   37  I   UNL     1     -12.603   3.771  66.525  1.00  0.00    22.592 I  
HETATM   38  C   UNL     1      -9.531   6.810  66.265  1.00  0.00    -0.067 A  
HETATM   39  F   UNL     1      -8.273   6.928  66.720  1.00  0.00    -0.107 F  
ENDBRANCH  30  32
ENDBRANCH  10  30
TORSDOF 5
ENDMDL
MODEL      182
REMARK 921   NORMALIZED FREE ENERGY PREDICTED BY IDOCK:   39.67 KCAL/MOL
REMARK 922        TOTAL FREE ENERGY PREDICTED BY IDOCK:   51.05 KCAL/MOL
REMARK 923 INTER-LIGAND FREE ENERGY PREDICTED BY IDOCK:   42.83 KCAL/MOL
REMARK 924 INTRA-LIGAND FREE ENERGY PREDICTED BY IDOCK:    8.22 KCAL/MOL
REMARK 927      BINDING AFFINITY PREDICTED BY RF-SCORE:    0.00 PKD
ROOT
HETATM    1  C   UNL     1     -11.066  11.595  73.305  1.00  0.00    14.771 C  
HETATM    2  N   UNL     1     -10.958  10.931  72.011  1.00  0.00     3.910 N  
HETATM    3  C   UNL     1     -11.543  11.595  70.948  1.00  0.00     0.628 C  
HETATM    4  O   UNL     1     -12.306  12.551  71.093  1.00  0.00    -0.309 OA 
HETATM    5  C   UNL     1     -11.149  11.160  69.574  1.00  0.00    -0.311 C  
HETATM    6  C   UNL     1     -10.528   9.966  69.396  1.00  0.00    -0.231 C  
HETATM    7  C   UNL     1     -11.430  12.248  68.568  1.00  0.00    -0.349 C  
HETATM    8  N   UNL     1     -10.194   9.417  68.143  1.00  0.00    -0.190 N  
HETATM    9  C   UNL     1      -9.400   8.249  68.004  1.00  0.00    -0.132 C  
HETATM   10  C   UNL     1     -10.276   9.713  71.884  1.00  0.00     0.930 C  
HETATM   11  O   UNL     1      -9.025   7.819  66.905  1.00  0.00    -0.124 OA 
HETATM   12  O   UNL     1      -8.592   7.530  71.387  1.00  0.00    -0.118 OA 
HETATM   13  N   UNL     1      -9.052   7.559  69.155  1.00  0.00    -0.138 N  
HETATM   14  C   UNL     1     -10.066   9.250  70.616  1.00  0.00    -0.339 C  
HETATM   15  C   UNL     1      -9.202   8.040  70.443  1.00  0.00    -0.155 C  
ENDROOT
BRANCH   8  16
HETATM   16  C   UNL     1     -10.788   9.824  66.876  1.00  0.00    -0.050 A  
HETATM   17  C   UNL     1     -11.963   9.199  66.425  1.00  0.00     6.449 A  
HETATM   18  C   UNL     1     -12.342  10.976  64.845  1.00  0.00     2.377 A  
HETATM   19  C   UNL     1     -11.120  11.564  65.192  1.00  0.00    -0.194 A  
HETATM   20  C   UNL     1     -10.340  10.978  66.206  1.00  0.00    -0.304 A  
HETATM   21  C   UNL     1     -12.744   9.778  65.430  1.00  0.00    12.868 A  
BRANCH  19  22
HETATM   22  N   UNL     1     -10.779  12.755  64.508  1.00  0.00    -0.335 N  
HETATM   23  H   UNL     1     -11.239  12.910  63.612  1.00  0.00     0.000 HD 
HETATM   24  C   UNL     1      -9.771  14.879  63.934  1.00  0.00     4.995 C  
HETATM   25  O   UNL     1      -9.260  13.740  65.965  1.00  0.00    -0.091 OA 
HETATM   26  C   UNL     1      -9.893  13.730  64.918  1.00  0.00     0.003 C  
ENDBRANCH  19  22
ENDBRANCH   8  16
BRANCH  13  27
HETATM   27  C   UNL     1      -8.223   6.363  68.998  1.00  0.00    -0.115 C  
HETATM   28  C   UNL     1      -8.674   5.238  68.096  1.00  0.00    -0.102 C  
HETATM   29  C   UNL     1      -7.447   6.016  67.746  1.00  0.00    -0.085 C  
ENDBRANCH  13  27
BRANCH  10  30
HETATM   30  N   UNL     1      -9.816   9.114  73.049  1.00  0.00     1.069 NA 
HETATM   31  H   UNL     1      -9.537   9.760  73.788  1.00  0.00     0.000 HD 
BRANCH  30  32
HETATM   32  C   UNL     1      -9.677   7.745  73.364  1.00  0.00    -0.290 A  
HETATM   33  C   UNL     1      -8.836   7.268  74.374  1.00  0.00    -0.234 A  
HETATM   34  C   UNL     1      -8.595   5.891  74.517  1.00  0.00    -0.119 A  
HETATM   35  C   UNL     1      -9.206   4.976  73.659  1.00  0.00    -0.122 A  
HETATM   36  C   UNL     1     -10.110   5.416  72.701  1.00  0.00    -0.211 A  
HETATM   37  I   UNL     1      -8.713   2.957  73.770  1.00  0.00    -0.074 I  
HETATM   38  C   UNL     1     -10.330   6.787  72.563  1.00  0.00    -0.198 A  
HETATM   39  F   UNL     1     -11.182   7.199  71.609  1.00  0.00    -0.246 F  
ENDBRANCH  30  32
ENDBRANCH  10  30
TORSDOF 5
ENDMDL
MODEL      183
REMARK 921   NORMALIZED FREE ENERGY PREDICTED BY IDOCK:   40.67 KCAL/MOL
REMARK 922        TOTAL FREE ENERGY PREDICTED BY IDOCK:   52.34 KCAL/MOL
REMARK 923 INTER-LIGAND FREE ENERGY PREDICTED BY IDOCK:   46.79 KCAL/MOL
REMARK 924 INTRA-LIGAND FREE ENERGY PREDICTED BY IDOCK:    5.56 KCAL/MOL
REMARK 927      BINDING AFFINITY PREDICTED BY RF-SCORE:    0.00 PKD
ROOT
HETATM    1  C   UNL     1     -13.109   6.043  69.892  1.00  0.00     5.417 C  
HETATM    2  N   UNL     1     -12.006   6.485  69.047  1.00  0.00     0.512 N  
HETATM    3  C   UNL     1     -12.358   6.895  67.773  1.00  0.00     4.697 C  
HETATM    4  O   UNL     1     -13.469   6.688  67.285  1.00  0.00    11.743 OA 
HETATM    5  C   UNL     1     -11.348   7.692  67.012  1.00  0.00     0.881 C  
HETATM    6  C   UNL     1     -10.053   7.704  67.418  1.00  0.00    -0.222 C  
HETATM    7  C   UNL     1     -12.012   8.485  65.914  1.00  0.00     9.089 C  
HETATM    8  N   UNL     1      -9.005   8.344  66.729  1.00  0.00    -0.139 N  
HETATM    9  C   UNL     1      -7.699   8.477  67.269  1.00  0.00    -0.097 C  
HETATM   10  C   UNL     1     -10.693   6.506  69.533  1.00  0.00    -0.270 C  
HETATM   11  O   UNL     1      -6.803   9.121  66.708  1.00  0.00    -0.078 OA 
HETATM   12  O   UNL     1      -8.107   7.020  70.483  1.00  0.00    -0.111 OA 
HETATM   13  N   UNL     1      -7.424   7.835  68.467  1.00  0.00    -0.101 N  
HETATM   14  C   UNL     1      -9.749   7.101  68.744  1.00  0.00    -0.145 C  
HETATM   15  C   UNL     1      -8.374   7.283  69.307  1.00  0.00    -0.132 C  
ENDROOT
BRANCH   8  16
HETATM   16  C   UNL     1      -9.055   8.737  65.326  1.00  0.00    -0.096 A  
HETATM   17  C   UNL     1      -8.995   7.753  64.326  1.00  0.00     0.908 A  
HETATM   18  C   UNL     1      -9.812   9.320  62.689  1.00  0.00     1.646 A  
HETATM   19  C   UNL     1      -9.775  10.349  63.636  1.00  0.00    -0.277 A  
HETATM   20  C   UNL     1      -9.387  10.054  64.956  1.00  0.00    -0.314 A  
HETATM   21  C   UNL     1      -9.387   8.036  63.020  1.00  0.00     2.052 A  
BRANCH  19  22
HETATM   22  N   UNL     1     -10.183  11.628  63.191  1.00  0.00    -0.612 N  
HETATM   23  H   UNL     1     -11.084  11.676  62.716  1.00  0.00     0.000 HD 
HETATM   24  C   UNL     1     -10.237  14.004  62.730  1.00  0.00     8.036 C  
HETATM   25  O   UNL     1      -8.420  12.975  63.880  1.00  0.00     3.463 OA 
HETATM   26  C   UNL     1      -9.499  12.819  63.326  1.00  0.00     2.044 C  
ENDBRANCH  19  22
ENDBRANCH   8  16
BRANCH  13  27
HETATM   27  C   UNL     1      -6.077   7.990  69.019  1.00  0.00    -0.039 C  
HETATM   28  C   UNL     1      -5.433   9.356  69.081  1.00  0.00    -0.036 C  
HETATM   29  C   UNL     1      -5.766   8.639  70.350  1.00  0.00    -0.027 C  
ENDBRANCH  13  27
BRANCH  10  30
HETATM   30  N   UNL     1     -10.472   5.981  70.799  1.00  0.00    -0.226 NA 
HETATM   31  H   UNL     1     -11.307   5.873  71.376  1.00  0.00     0.000 HD 
BRANCH  30  32
HETATM   32  C   UNL     1      -9.265   5.575  71.409  1.00  0.00    -0.146 A  
HETATM   33  C   UNL     1      -8.630   4.361  71.129  1.00  0.00    -0.120 A  
HETATM   34  C   UNL     1      -7.539   3.927  71.900  1.00  0.00    -0.061 A  
HETATM   35  C   UNL     1      -7.061   4.712  72.951  1.00  0.00    -0.077 A  
HETATM   36  C   UNL     1      -7.620   5.959  73.197  1.00  0.00    -0.098 A  
HETATM   37  I   UNL     1      -5.556   3.985  74.190  1.00  0.00    -0.005 I  
HETATM   38  C   UNL     1      -8.711   6.371  72.432  1.00  0.00    -0.120 A  
HETATM   39  F   UNL     1      -9.261   7.566  72.704  1.00  0.00    -0.152 F  
ENDBRANCH  30  32
ENDBRANCH  10  30
TORSDOF 5
ENDMDL
MODEL      184
REMARK 921   NORMALIZED FREE ENERGY PREDICTED BY IDOCK:   41.76 KCAL/MOL
REMARK 922        TOTAL FREE ENERGY PREDICTED BY IDOCK:   53.75 KCAL/MOL
REMARK 923 INTER-LIGAND FREE ENERGY PREDICTED BY IDOCK:   48.98 KCAL/MOL
REMARK 924 INTRA-LIGAND FREE ENERGY PREDICTED BY IDOCK:    4.77 KCAL/MOL
REMARK 927      BINDING AFFINITY PREDICTED BY RF-SCORE:    0.00 PKD
ROOT
HETATM    1  C   UNL     1     -11.862  14.457  71.299  1.00  0.00    -0.220 C  
HETATM    2  N   UNL     1     -11.599  13.247  70.528  1.00  0.00     0.020 N  
HETATM    3  C   UNL     1     -11.886  12.056  71.170  1.00  0.00     0.700 C  
HETATM    4  O   UNL     1     -12.118  11.983  72.377  1.00  0.00     1.548 OA 
HETATM    5  C   UNL     1     -11.990  10.832  70.318  1.00  0.00    -0.438 C  
HETATM    6  C   UNL     1     -11.489  10.843  69.056  1.00  0.00    -0.302 C  
HETATM    7  C   UNL     1     -12.784   9.759  71.020  1.00  0.00    -0.392 C  
HETATM    8  N   UNL     1     -11.451   9.726  68.201  1.00  0.00     0.131 N  
HETATM    9  C   UNL     1     -11.076   9.816  66.835  1.00  0.00     0.233 C  
HETATM   10  C   UNL     1     -11.113  13.324  69.216  1.00  0.00    -0.153 C  
HETATM   11  O   UNL     1     -11.133   8.855  66.057  1.00  0.00     1.348 OA 
HETATM   12  O   UNL     1     -10.567  13.312  66.468  1.00  0.00    -0.281 OA 
HETATM   13  N   UNL     1     -10.607  11.036  66.370  1.00  0.00    -0.262 N  
HETATM   14  C   UNL     1     -11.065  12.158  68.504  1.00  0.00    -0.295 C  
HETATM   15  C   UNL     1     -10.705  12.235  67.053  1.00  0.00    -0.231 C  
ENDROOT
BRANCH   8  16
HETATM   16  C   UNL     1     -11.564   8.341  68.642  1.00  0.00     1.400 A  
HETATM   17  C   UNL     1     -10.756   7.355  68.052  1.00  0.00    -0.191 A  
HETATM   18  C   UNL     1     -11.228   5.838  69.863  1.00  0.00    -0.193 A  
HETATM   19  C   UNL     1     -12.128   6.757  70.415  1.00  0.00    -0.211 A  
HETATM   20  C   UNL     1     -12.299   8.008  69.795  1.00  0.00     1.521 A  
HETATM   21  C   UNL     1     -10.574   6.119  68.666  1.00  0.00    -0.324 A  
BRANCH  19  22
HETATM   22  N   UNL     1     -12.777   6.361  71.608  1.00  0.00    -0.096 N  
HETATM   23  H   UNL     1     -13.289   7.088  72.108  1.00  0.00     0.000 HD 
HETATM   24  C   UNL     1     -13.597   5.035  73.460  1.00  0.00     4.588 C  
HETATM   25  O   UNL     1     -12.265   4.098  71.719  1.00  0.00     3.222 OA 
HETATM   26  C   UNL     1     -12.796   5.101  72.172  1.00  0.00     1.890 C  
ENDBRANCH  19  22
ENDBRANCH   8  16
BRANCH  13  27
HETATM   27  C   UNL     1     -10.235  11.119  64.957  1.00  0.00    -0.296 C  
HETATM   28  C   UNL     1      -9.071  10.312  64.429  1.00  0.00    -0.275 C  
HETATM   29  C   UNL     1     -10.455  10.015  63.946  1.00  0.00     1.294 C  
ENDBRANCH  13  27
BRANCH  10  30
HETATM   30  N   UNL     1     -10.783  14.581  68.729  1.00  0.00    -0.246 NA 
HETATM   31  H   UNL     1      -9.784  14.750  68.604  1.00  0.00     0.000 HD 
BRANCH  30  32
HETATM   32  C   UNL     1     -11.621  15.662  68.381  1.00  0.00    -0.350 A  
HETATM   33  C   UNL     1     -12.881  15.504  67.796  1.00  0.00     2.250 A  
HETATM   34  C   UNL     1     -13.587  16.613  67.301  1.00  0.00     7.916 A  
HETATM   35  C   UNL     1     -13.046  17.895  67.401  1.00  0.00     7.770 A  
HETATM   36  C   UNL     1     -11.835  18.091  68.052  1.00  0.00     2.162 A  
HETATM   37  I   UNL     1     -14.020  19.507  66.516  1.00  0.00    16.163 I  
HETATM   38  C   UNL     1     -11.139  16.979  68.528  1.00  0.00    -0.156 A  
HETATM   39  F   UNL     1      -9.954  17.182  69.126  1.00  0.00    -0.263 F  
ENDBRANCH  30  32
ENDBRANCH  10  30
TORSDOF 5
ENDMDL
MODEL      185
REMARK 921   NORMALIZED FREE ENERGY PREDICTED BY IDOCK:   45.16 KCAL/MOL
REMARK 922        TOTAL FREE ENERGY PREDICTED BY IDOCK:   58.14 KCAL/MOL
REMARK 923 INTER-LIGAND FREE ENERGY PREDICTED BY IDOCK:   48.39 KCAL/MOL
REMARK 924 INTRA-LIGAND FREE ENERGY PREDICTED BY IDOCK:    9.76 KCAL/MOL
REMARK 927      BINDING AFFINITY PREDICTED BY RF-SCORE:    0.00 PKD
ROOT
HETATM    1  C   UNL     1      -8.672   7.960  64.311  1.00  0.00     0.429 C  
HETATM    2  N   UNL     1      -8.948   9.337  64.704  1.00  0.00    -0.189 N  
HETATM    3  C   UNL     1      -8.180   9.825  65.747  1.00  0.00    -0.122 C  
HETATM    4  O   UNL     1      -7.481   9.105  66.460  1.00  0.00    -0.091 OA 
HETATM    5  C   UNL     1      -8.157  11.308  65.938  1.00  0.00     0.050 C  
HETATM    6  C   UNL     1      -9.103  12.080  65.346  1.00  0.00     0.211 C  
HETATM    7  C   UNL     1      -6.938  11.725  66.722  1.00  0.00    -0.047 C  
HETATM    8  N   UNL     1      -9.231  13.469  65.529  1.00  0.00     0.385 N  
HETATM    9  C   UNL     1     -10.124  14.266  64.766  1.00  0.00    -0.133 C  
HETATM   10  C   UNL     1      -9.916  10.096  64.033  1.00  0.00     0.023 C  
HETATM   11  O   UNL     1     -10.170  15.500  64.858  1.00  0.00    -0.374 OA 
HETATM   12  O   UNL     1     -11.483  11.865  62.528  1.00  0.00     0.747 OA 
HETATM   13  N   UNL     1     -10.991  13.619  63.897  1.00  0.00    -0.038 N  
HETATM   14  C   UNL     1      -9.986  11.425  64.342  1.00  0.00    -0.321 C  
HETATM   15  C   UNL     1     -10.896  12.290  63.526  1.00  0.00    -0.454 C  
ENDROOT
BRANCH   8  16
HETATM   16  C   UNL     1      -8.655  14.214  66.642  1.00  0.00     0.035 A  
HETATM   17  C   UNL     1      -7.287  14.530  66.634  1.00  0.00     1.240 A  
HETATM   18  C   UNL     1      -7.623  16.179  68.357  1.00  0.00    -0.158 A  
HETATM   19  C   UNL     1      -8.967  15.807  68.469  1.00  0.00    -0.194 A  
HETATM   20  C   UNL     1      -9.479  14.815  67.612  1.00  0.00    -0.204 A  
HETATM   21  C   UNL     1      -6.776  15.517  67.472  1.00  0.00    -0.220 A  
BRANCH  19  22
HETATM   22  N   UNL     1      -9.735  16.507  69.429  1.00  0.00    -0.185 N  
HETATM   23  H   UNL     1      -9.705  17.525  69.378  1.00  0.00     0.000 HD 
HETATM   24  C   UNL     1     -11.210  17.017  71.280  1.00  0.00     0.839 C  
HETATM   25  O   UNL     1     -10.705  14.777  70.640  1.00  0.00    -0.018 OA 
HETATM   26  C   UNL     1     -10.521  15.967  70.427  1.00  0.00    -0.083 C  
ENDBRANCH  19  22
ENDBRANCH   8  16
BRANCH  13  27
HETATM   27  C   UNL     1     -11.898  14.452  63.107  1.00  0.00     1.474 C  
HETATM   28  C   UNL     1     -13.367  14.518  63.456  1.00  0.00     2.977 C  
HETATM   29  C   UNL     1     -12.521  15.742  63.596  1.00  0.00     1.201 C  
ENDBRANCH  13  27
BRANCH  10  30
HETATM   30  N   UNL     1     -10.676   9.451  63.066  1.00  0.00     3.363 NA 
HETATM   31  H   UNL     1     -11.285  10.058  62.517  1.00  0.00     0.000 HD 
BRANCH  30  32
HETATM   32  C   UNL     1     -10.731   8.081  62.729  1.00  0.00    10.554 A  
HETATM   33  C   UNL     1     -11.925   7.387  62.516  1.00  0.00    16.201 A  
HETATM   34  C   UNL     1     -11.928   5.990  62.370  1.00  0.00     6.342 A  
HETATM   35  C   UNL     1     -10.731   5.274  62.420  1.00  0.00     1.478 A  
HETATM   36  C   UNL     1      -9.523   5.946  62.546  1.00  0.00     0.949 A  
HETATM   37  I   UNL     1     -10.761   3.194  62.370  1.00  0.00    -0.088 I  
HETATM   38  C   UNL     1      -9.537   7.332  62.703  1.00  0.00     2.967 A  
HETATM   39  F   UNL     1      -8.362   7.965  62.858  1.00  0.00    -0.160 F  
ENDBRANCH  30  32
ENDBRANCH  10  30
TORSDOF 5
ENDMDL
MODEL      186
REMARK 921   NORMALIZED FREE ENERGY PREDICTED BY IDOCK:   48.98 KCAL/MOL
REMARK 922        TOTAL FREE ENERGY PREDICTED BY IDOCK:   63.08 KCAL/MOL
REMARK 923 INTER-LIGAND FREE ENERGY PREDICTED BY IDOCK:   57.65 KCAL/MOL
REMARK 924 INTRA-LIGAND FREE ENERGY PREDICTED BY IDOCK:    5.43 KCAL/MOL
REMARK 927      BINDING AFFINITY PREDICTED BY RF-SCORE:    0.00 PKD
ROOT
HETATM    1  C   UNL     1      -8.894   9.961  71.988  1.00  0.00     3.467 C  
HETATM    2  N   UNL     1      -9.187  11.042  71.054  1.00  0.00     4.685 N  
HETATM    3  C   UNL     1     -10.262  11.845  71.389  1.00  0.00     8.648 C  
HETATM    4  O   UNL     1     -11.070  11.551  72.270  1.00  0.00     5.433 OA 
HETATM    5  C   UNL     1     -10.374  13.161  70.688  1.00  0.00     3.932 C  
HETATM    6  C   UNL     1      -9.661  13.383  69.553  1.00  0.00     1.090 C  
HETATM    7  C   UNL     1     -11.234  14.115  71.477  1.00  0.00     1.287 C  
HETATM    8  N   UNL     1      -9.757  14.545  68.764  1.00  0.00    -0.222 N  
HETATM    9  C   UNL     1      -8.878  14.813  67.683  1.00  0.00    -0.179 C  
HETATM   10  C   UNL     1      -8.395  11.242  69.915  1.00  0.00     1.311 C  
HETATM   11  O   UNL     1      -8.898  15.876  67.048  1.00  0.00    -0.191 OA 
HETATM   12  O   UNL     1      -6.668  12.038  67.858  1.00  0.00    -0.067 OA 
HETATM   13  N   UNL     1      -7.976  13.824  67.318  1.00  0.00    -0.154 N  
HETATM   14  C   UNL     1      -8.624  12.379  69.193  1.00  0.00     0.634 C  
HETATM   15  C   UNL     1      -7.688  12.699  68.069  1.00  0.00    -0.139 C  
ENDROOT
BRANCH   8  16
HETATM   16  C   UNL     1     -10.872  15.482  68.803  1.00  0.00    -0.256 A  
HETATM   17  C   UNL     1     -11.876  15.330  69.773  1.00  0.00    -0.357 A  
HETATM   18  C   UNL     1     -12.649  17.576  69.376  1.00  0.00     6.887 A  
HETATM   19  C   UNL     1     -11.734  17.719  68.326  1.00  0.00     1.698 A  
HETATM   20  C   UNL     1     -10.850  16.663  68.037  1.00  0.00    -0.337 A  
HETATM   21  C   UNL     1     -12.747  16.374  70.071  1.00  0.00     1.672 A  
BRANCH  19  22
HETATM   22  N   UNL     1     -11.742  18.962  67.650  1.00  0.00     0.932 N  
HETATM   23  H   UNL     1     -12.526  19.128  67.018  1.00  0.00     0.000 HD 
HETATM   24  C   UNL     1     -11.137  21.175  66.880  1.00  0.00     3.525 C  
HETATM   25  O   UNL     1      -9.818  19.977  68.463  1.00  0.00    -0.364 OA 
HETATM   26  C   UNL     1     -10.810  19.975  67.749  1.00  0.00    -0.028 C  
ENDBRANCH  19  22
ENDBRANCH   8  16
BRANCH  13  27
HETATM   27  C   UNL     1      -7.067  14.118  66.210  1.00  0.00     3.510 C  
HETATM   28  C   UNL     1      -7.395  15.221  65.230  1.00  0.00     8.099 C  
HETATM   29  C   UNL     1      -6.198  15.353  66.117  1.00  0.00     3.980 C  
ENDBRANCH  13  27
BRANCH  10  30
HETATM   30  N   UNL     1      -7.404  10.305  69.654  1.00  0.00    -0.134 NA 
HETATM   31  H   UNL     1      -6.481  10.536  70.023  1.00  0.00     0.000 HD 
BRANCH  30  32
HETATM   32  C   UNL     1      -7.482   9.082  68.955  1.00  0.00    -0.074 A  
HETATM   33  C   UNL     1      -6.979   7.876  69.451  1.00  0.00    -0.059 A  
HETATM   34  C   UNL     1      -6.916   6.734  68.636  1.00  0.00    -0.080 A  
HETATM   35  C   UNL     1      -7.371   6.783  67.317  1.00  0.00    -0.091 A  
HETATM   36  C   UNL     1      -7.952   7.944  66.825  1.00  0.00    -0.107 A  
HETATM   37  I   UNL     1      -7.120   5.138  66.069  1.00  0.00    -0.074 I  
HETATM   38  C   UNL     1      -7.997   9.074  67.642  1.00  0.00    -0.101 A  
HETATM   39  F   UNL     1      -8.532  10.199  67.140  1.00  0.00    -0.122 F  
ENDBRANCH  30  32
ENDBRANCH  10  30
TORSDOF 5
ENDMDL
MODEL      187
REMARK 921   NORMALIZED FREE ENERGY PREDICTED BY IDOCK:   58.37 KCAL/MOL
REMARK 922        TOTAL FREE ENERGY PREDICTED BY IDOCK:   75.22 KCAL/MOL
REMARK 923 INTER-LIGAND FREE ENERGY PREDICTED BY IDOCK:   69.83 KCAL/MOL
REMARK 924 INTRA-LIGAND FREE ENERGY PREDICTED BY IDOCK:    5.38 KCAL/MOL
REMARK 927      BINDING AFFINITY PREDICTED BY RF-SCORE:    0.00 PKD
ROOT
HETATM    1  C   UNL     1      -8.918   9.592  67.343  1.00  0.00    -0.131 C  
HETATM    2  N   UNL     1      -9.061  10.882  68.007  1.00  0.00    -0.148 N  
HETATM    3  C   UNL     1      -8.107  11.830  67.681  1.00  0.00    -0.144 C  
HETATM    4  O   UNL     1      -7.074  11.559  67.068  1.00  0.00    -0.129 OA 
HETATM    5  C   UNL     1      -8.412  13.251  68.031  1.00  0.00    -0.170 C  
HETATM    6  C   UNL     1      -9.399  13.529  68.921  1.00  0.00     0.193 C  
HETATM    7  C   UNL     1      -7.586  14.196  67.196  1.00  0.00     0.024 C  
HETATM    8  N   UNL     1      -9.712  14.819  69.391  1.00  0.00    -0.100 N  
HETATM    9  C   UNL     1     -10.853  15.090  70.189  1.00  0.00    -0.190 C  
HETATM   10  C   UNL     1     -10.121  11.121  68.892  1.00  0.00    -0.186 C  
HETATM   11  O   UNL     1     -11.183  16.236  70.523  1.00  0.00    -0.376 OA 
HETATM   12  O   UNL     1     -12.400  11.895  70.326  1.00  0.00    -0.274 OA 
HETATM   13  N   UNL     1     -11.614  14.014  70.621  1.00  0.00    -0.143 N  
HETATM   14  C   UNL     1     -10.285  12.405  69.329  1.00  0.00     0.351 C  
HETATM   15  C   UNL     1     -11.502  12.721  70.143  1.00  0.00     0.084 C  
ENDROOT
BRANCH   8  16
HETATM   16  C   UNL     1      -8.814  15.965  69.320  1.00  0.00    -0.249 A  
HETATM   17  C   UNL     1      -8.141  16.248  68.120  1.00  0.00    -0.158 A  
HETATM   18  C   UNL     1      -7.631  18.472  68.891  1.00  0.00    -0.261 A  
HETATM   19  C   UNL     1      -8.195  18.183  70.138  1.00  0.00     2.407 A  
HETATM   20  C   UNL     1      -8.781  16.922  70.352  1.00  0.00     3.141 A  
HETATM   21  C   UNL     1      -7.568  17.497  67.898  1.00  0.00    -0.204 A  
BRANCH  19  22
HETATM   22  N   UNL     1      -8.170  19.225  71.096  1.00  0.00     3.405 N  
HETATM   23  H   UNL     1      -7.644  20.060  70.842  1.00  0.00     0.000 HD 
HETATM   24  C   UNL     1      -8.543  20.525  73.103  1.00  0.00     4.755 C  
HETATM   25  O   UNL     1      -9.466  18.347  72.812  1.00  0.00     7.932 OA 
HETATM   26  C   UNL     1      -8.778  19.237  72.335  1.00  0.00     6.398 C  
ENDBRANCH  19  22
ENDBRANCH   8  16
BRANCH  13  27
HETATM   27  C   UNL     1     -12.796  14.308  71.433  1.00  0.00    -0.344 C  
HETATM   28  C   UNL     1     -13.236  15.738  71.645  1.00  0.00    -0.462 C  
HETATM   29  C   UNL     1     -14.115  14.802  70.879  1.00  0.00    -0.035 C  
ENDBRANCH  13  27
BRANCH  10  30
HETATM   30  N   UNL     1     -10.951  10.051  69.198  1.00  0.00    -0.256 NA 
HETATM   31  H   UNL     1     -11.297  10.031  70.158  1.00  0.00     0.000 HD 
BRANCH  30  32
HETATM   32  C   UNL     1     -11.390   8.988  68.380  1.00  0.00     0.603 A  
HETATM   33  C   UNL     1     -11.617   9.113  67.006  1.00  0.00     2.453 A  
HETATM   34  C   UNL     1     -12.230   8.078  66.282  1.00  0.00     8.995 A  
HETATM   35  C   UNL     1     -12.609   6.897  66.923  1.00  0.00     7.721 A  
HETATM   36  C   UNL     1     -12.319   6.713  68.268  1.00  0.00     3.951 A  
HETATM   37  I   UNL     1     -13.666   5.441  65.879  1.00  0.00    20.430 I  
HETATM   38  C   UNL     1     -11.721   7.754  68.978  1.00  0.00     1.236 A  
HETATM   39  F   UNL     1     -11.478   7.573  70.286  1.00  0.00    -0.285 F  
ENDBRANCH  30  32
ENDBRANCH  10  30
TORSDOF 5
ENDMDL
MODEL      188
REMARK 921   NORMALIZED FREE ENERGY PREDICTED BY IDOCK:   73.73 KCAL/MOL
REMARK 922        TOTAL FREE ENERGY PREDICTED BY IDOCK:   95.06 KCAL/MOL
REMARK 923 INTER-LIGAND FREE ENERGY PREDICTED BY IDOCK:   90.37 KCAL/MOL
REMARK 924 INTRA-LIGAND FREE ENERGY PREDICTED BY IDOCK:    4.69 KCAL/MOL
REMARK 927      BINDING AFFINITY PREDICTED BY RF-SCORE:    0.00 PKD
ROOT
HETATM    1  C   UNL     1     -11.873  14.462  71.318  1.00  0.00    -0.220 C  
HETATM    2  N   UNL     1     -11.515  13.540  70.247  1.00  0.00    -0.044 N  
HETATM    3  C   UNL     1     -11.769  12.203  70.501  1.00  0.00     0.077 C  
HETATM    4  O   UNL     1     -12.050  11.775  71.620  1.00  0.00     0.219 OA 
HETATM    5  C   UNL     1     -11.773  11.277  69.327  1.00  0.00    -0.403 C  
HETATM    6  C   UNL     1     -11.219  11.673  68.153  1.00  0.00    -0.263 C  
HETATM    7  C   UNL     1     -12.541  10.018  69.644  1.00  0.00     0.516 C  
HETATM    8  N   UNL     1     -11.086  10.855  67.015  1.00  0.00    -0.251 N  
HETATM    9  C   UNL     1     -10.656  11.351  65.758  1.00  0.00    -0.260 C  
HETATM   10  C   UNL     1     -10.976  14.012  69.043  1.00  0.00    -0.259 C  
HETATM   11  O   UNL     1     -10.630  10.656  64.733  1.00  0.00    -0.291 OA 
HETATM   12  O   UNL     1     -10.311  14.819  66.444  1.00  0.00    -0.278 OA 
HETATM   13  N   UNL     1     -10.231  12.670  65.691  1.00  0.00    -0.271 N  
HETATM   14  C   UNL     1     -10.838  13.106  68.029  1.00  0.00    -0.261 C  
HETATM   15  C   UNL     1     -10.419  13.614  66.684  1.00  0.00    -0.272 C  
ENDROOT
BRANCH   8  16
HETATM   16  C   UNL     1     -11.148   9.398  67.031  1.00  0.00     0.347 A  
HETATM   17  C   UNL     1     -10.198   8.654  66.311  1.00  0.00    -0.121 A  
HETATM   18  C   UNL     1     -10.777   6.664  67.539  1.00  0.00    -0.387 A  
HETATM   19  C   UNL     1     -11.807   7.351  68.192  1.00  0.00     1.868 A  
HETATM   20  C   UNL     1     -11.994   8.721  67.928  1.00  0.00     3.616 A  
HETATM   21  C   UNL     1     -10.001   7.301  66.574  1.00  0.00    -0.182 A  
BRANCH  19  22
HETATM   22  N   UNL     1     -12.570   6.605  69.122  1.00  0.00     1.921 N  
HETATM   23  H   UNL     1     -13.175   7.140  69.743  1.00  0.00     0.000 HD 
HETATM   24  C   UNL     1     -13.528   4.772  70.378  1.00  0.00    14.835 C  
HETATM   25  O   UNL     1     -11.953   4.421  68.624  1.00  0.00     8.067 OA 
HETATM   26  C   UNL     1     -12.586   5.234  69.281  1.00  0.00     9.755 C  
ENDBRANCH  19  22
ENDBRANCH   8  16
BRANCH  13  27
HETATM   27  C   UNL     1      -9.801  13.174  64.386  1.00  0.00     0.104 C  
HETATM   28  C   UNL     1     -10.327  14.493  63.870  1.00  0.00     2.119 C  
HETATM   29  C   UNL     1      -8.873  14.352  64.185  1.00  0.00     7.411 C  
ENDBRANCH  13  27
BRANCH  10  30
HETATM   30  N   UNL     1     -10.690  15.367  68.959  1.00  0.00    -0.231 NA 
HETATM   31  H   UNL     1      -9.698  15.598  68.891  1.00  0.00     0.000 HD 
BRANCH  30  32
HETATM   32  C   UNL     1     -11.565  16.475  68.954  1.00  0.00    -0.037 A  
HETATM   33  C   UNL     1     -12.816  16.468  68.330  1.00  0.00     3.074 A  
HETATM   34  C   UNL     1     -13.558  17.653  68.196  1.00  0.00     8.951 A  
HETATM   35  C   UNL     1     -13.063  18.856  68.700  1.00  0.00    11.663 A  
HETATM   36  C   UNL     1     -11.863  18.876  69.398  1.00  0.00     6.464 A  
HETATM   37  I   UNL     1     -14.090  20.631  68.350  1.00  0.00    11.854 I  
HETATM   38  C   UNL     1     -11.130  17.695  69.513  1.00  0.00     1.117 A  
HETATM   39  F   UNL     1      -9.955  17.738  70.162  1.00  0.00     0.423 F  
ENDBRANCH  30  32
ENDBRANCH  10  30
TORSDOF 5
ENDMDL
MODEL      189
REMARK 921   NORMALIZED FREE ENERGY PREDICTED BY IDOCK:   83.69 KCAL/MOL
REMARK 922        TOTAL FREE ENERGY PREDICTED BY IDOCK:  107.94 KCAL/MOL
REMARK 923 INTER-LIGAND FREE ENERGY PREDICTED BY IDOCK:   96.84 KCAL/MOL
REMARK 924 INTRA-LIGAND FREE ENERGY PREDICTED BY IDOCK:   11.11 KCAL/MOL
REMARK 927      BINDING AFFINITY PREDICTED BY RF-SCORE:    0.00 PKD
ROOT
HETATM    1  C   UNL     1     -11.597  12.876  67.995  1.00  0.00    -0.342 C  
HETATM    2  N   UNL     1     -11.385  11.508  68.456  1.00  0.00    -0.250 N  
HETATM    3  C   UNL     1     -11.872  10.516  67.625  1.00  0.00     0.844 C  
HETATM    4  O   UNL     1     -12.636  10.742  66.686  1.00  0.00     3.103 OA 
HETATM    5  C   UNL     1     -11.366   9.128  67.853  1.00  0.00     0.626 C  
HETATM    6  C   UNL     1     -10.743   8.820  69.019  1.00  0.00    -0.112 C  
HETATM    7  C   UNL     1     -11.552   8.283  66.618  1.00  0.00     3.421 C  
HETATM    8  N   UNL     1     -10.308   7.530  69.377  1.00  0.00    -0.208 N  
HETATM    9  C   UNL     1      -9.515   7.278  70.526  1.00  0.00    -0.165 C  
HETATM   10  C   UNL     1     -10.706  11.252  69.655  1.00  0.00    -0.030 C  
HETATM   11  O   UNL     1      -9.051   6.161  70.791  1.00  0.00    -0.148 OA 
HETATM   12  O   UNL     1      -9.005  10.565  71.772  1.00  0.00     4.203 OA 
HETATM   13  N   UNL     1      -9.272   8.334  71.392  1.00  0.00    -0.155 N  
HETATM   14  C   UNL     1     -10.392   9.949  69.922  1.00  0.00    -0.298 C  
HETATM   15  C   UNL     1      -9.527   9.664  71.111  1.00  0.00     0.260 C  
ENDROOT
BRANCH   8  16
HETATM   16  C   UNL     1     -10.789   6.296  68.768  1.00  0.00    -0.333 A  
HETATM   17  C   UNL     1     -12.159   6.138  68.503  1.00  0.00     2.737 A  
HETATM   18  C   UNL     1     -11.696   4.296  67.022  1.00  0.00     6.871 A  
HETATM   19  C   UNL     1     -10.337   4.355  67.353  1.00  0.00     0.222 A  
HETATM   20  C   UNL     1      -9.888   5.355  68.236  1.00  0.00    -0.196 A  
HETATM   21  C   UNL     1     -12.609   5.158  67.623  1.00  0.00    11.644 A  
BRANCH  19  22
HETATM   22  N   UNL     1      -9.495   3.407  66.725  1.00  0.00    -0.336 N  
HETATM   23  H   UNL     1      -8.494   3.515  66.884  1.00  0.00     0.000 HD 
HETATM   24  C   UNL     1      -8.705   1.532  65.415  1.00  0.00    -0.112 C  
HETATM   25  O   UNL     1     -11.023   2.043  65.629  1.00  0.00     3.212 OA 
HETATM   26  C   UNL     1      -9.877   2.352  65.920  1.00  0.00     0.651 C  
ENDBRANCH  19  22
ENDBRANCH   8  16
BRANCH  13  27
HETATM   27  C   UNL     1      -8.443   8.064  72.567  1.00  0.00    -0.162 C  
HETATM   28  C   UNL     1      -8.822   6.961  73.528  1.00  0.00    -0.161 C  
HETATM   29  C   UNL     1      -7.562   6.845  72.733  1.00  0.00    -0.089 C  
ENDBRANCH  13  27
BRANCH  10  30
HETATM   30  N   UNL     1     -10.352  12.344  70.435  1.00  0.00     2.138 NA 
HETATM   31  H   UNL     1     -11.048  13.089  70.480  1.00  0.00     0.000 HD 
BRANCH  30  32
HETATM   32  C   UNL     1      -9.174  12.580  71.175  1.00  0.00    12.534 A  
HETATM   33  C   UNL     1      -8.107  11.678  71.236  1.00  0.00     8.836 A  
HETATM   34  C   UNL     1      -7.046  11.879  72.135  1.00  0.00     8.401 A  
HETATM   35  C   UNL     1      -7.034  12.995  72.973  1.00  0.00     6.909 A  
HETATM   36  C   UNL     1      -8.038  13.949  72.875  1.00  0.00     9.731 A  
HETATM   37  I   UNL     1      -5.548  13.196  74.415  1.00  0.00     0.779 I  
HETATM   38  C   UNL     1      -9.092  13.730  71.986  1.00  0.00    11.620 A  
HETATM   39  F   UNL     1     -10.072  14.647  71.927  1.00  0.00     1.190 F  
ENDBRANCH  30  32
ENDBRANCH  10  30
TORSDOF 5
ENDMDL
