MODEL        1
REMARK 921   NORMALIZED FREE ENERGY PREDICTED BY IDOCK:   -5.76 KCAL/MOL
REMARK 922        TOTAL FREE ENERGY PREDICTED BY IDOCK:   -7.95 KCAL/MOL
REMARK 923 INTER-LIGAND FREE ENERGY PREDICTED BY IDOCK:   -7.10 KCAL/MOL
REMARK 924 INTRA-LIGAND FREE ENERGY PREDICTED BY IDOCK:   -0.85 KCAL/MOL
REMARK 927      BINDING AFFINITY PREDICTED BY RF-SCORE:    0.00 PKD
ROOT
HETATM    1  C   UNL     1     -12.785  10.558  71.542  1.00  0.00    -0.452 C  
HETATM    2  O   UNL     1     -13.425  11.657  72.172  1.00  0.00    -0.423 OA 
ENDROOT
BRANCH   2   3
HETATM    3  C   UNL     1     -13.188  12.902  71.653  1.00  0.00    -0.324 A  
HETATM    4  C   UNL     1     -13.854  14.073  71.976  1.00  0.00    -0.582 A  
HETATM    5  C   UNL     1     -13.507  15.264  71.332  1.00  0.00    -0.588 A  
HETATM    6  C   UNL     1     -12.513  15.273  70.347  1.00  0.00    -0.426 A  
HETATM    7  C   UNL     1     -11.831  14.096  69.982  1.00  0.00    -0.388 A  
HETATM    8  C   UNL     1     -12.168  12.929  70.687  1.00  0.00    -0.386 A  
BRANCH   7   9
HETATM    9  C   UNL     1     -10.787  14.133  68.850  1.00  0.00    -0.258 C  
HETATM   10  O   UNL     1      -9.658  14.842  69.393  1.00  0.00    -0.378 OA 
HETATM   11  C   UNL     1     -10.241  12.752  68.405  1.00  0.00    -0.237 C  
HETATM   12  C   UNL     1     -11.191  11.930  67.529  1.00  0.00    -0.359 C  
HETATM   13  H   UNL     1      -9.014  14.864  68.695  1.00  0.00     0.000 HD 
HETATM   14  C   UNL     1     -11.893  12.724  66.432  1.00  0.00    -0.472 C  
HETATM   15  C   UNL     1     -12.405  14.082  66.901  1.00  0.00    -0.321 C  
HETATM   16  C   UNL     1     -11.311  14.915  67.595  1.00  0.00    -0.348 C  
BRANCH  16  17
HETATM   17  C   UNL     1     -10.156  15.304  66.620  1.00  0.00    -0.261 C  
BRANCH  17  18
HETATM   18  N   UNL     1      -9.521  16.621  66.859  1.00  0.00    -0.228 NA 
HETATM   19  C   UNL     1      -8.163  16.673  66.314  1.00  0.00    -0.330 C  
HETATM   20  C   UNL     1     -10.340  17.678  66.255  1.00  0.00    -0.342 C  
ENDBRANCH  17  18
ENDBRANCH  16  17
ENDBRANCH   7   9
ENDBRANCH   2   3
TORSDOF 4
ENDMDL
MODEL        2
REMARK 921   NORMALIZED FREE ENERGY PREDICTED BY IDOCK:   -5.75 KCAL/MOL
REMARK 922        TOTAL FREE ENERGY PREDICTED BY IDOCK:   -7.94 KCAL/MOL
REMARK 923 INTER-LIGAND FREE ENERGY PREDICTED BY IDOCK:   -7.07 KCAL/MOL
REMARK 924 INTRA-LIGAND FREE ENERGY PREDICTED BY IDOCK:   -0.88 KCAL/MOL
REMARK 927      BINDING AFFINITY PREDICTED BY RF-SCORE:    0.00 PKD
ROOT
HETATM    1  C   UNL     1     -13.200  15.906  73.240  1.00  0.00    -0.595 C  
HETATM    2  O   UNL     1     -13.720  15.455  71.998  1.00  0.00    -0.431 OA 
ENDROOT
BRANCH   2   3
HETATM    3  C   UNL     1     -13.221  14.282  71.499  1.00  0.00    -0.348 A  
HETATM    4  C   UNL     1     -13.480  13.006  71.972  1.00  0.00    -0.584 A  
HETATM    5  C   UNL     1     -12.867  11.907  71.364  1.00  0.00    -0.411 A  
HETATM    6  C   UNL     1     -11.976  12.091  70.300  1.00  0.00    -0.398 A  
HETATM    7  C   UNL     1     -11.677  13.376  69.808  1.00  0.00    -0.355 A  
HETATM    8  C   UNL     1     -12.351  14.453  70.409  1.00  0.00    -0.406 A  
BRANCH   7   9
HETATM    9  C   UNL     1     -10.645  13.545  68.678  1.00  0.00    -0.244 C  
HETATM   10  O   UNL     1      -9.473  14.093  69.308  1.00  0.00    -0.401 OA 
HETATM   11  C   UNL     1     -10.182  12.231  67.999  1.00  0.00    -0.206 C  
HETATM   12  C   UNL     1     -11.185  11.618  67.018  1.00  0.00    -0.376 C  
HETATM   13  H   UNL     1      -8.836  14.197  68.611  1.00  0.00     0.000 HD 
HETATM   14  C   UNL     1     -11.853  12.619  66.082  1.00  0.00    -0.477 C  
HETATM   15  C   UNL     1     -12.285  13.905  66.780  1.00  0.00    -0.438 C  
HETATM   16  C   UNL     1     -11.138  14.552  67.580  1.00  0.00    -0.316 C  
BRANCH  16  17
HETATM   17  C   UNL     1      -9.974  15.036  66.660  1.00  0.00    -0.256 C  
BRANCH  17  18
HETATM   18  N   UNL     1      -9.165  16.165  67.177  1.00  0.00    -0.204 NA 
HETATM   19  C   UNL     1      -8.140  16.580  66.217  1.00  0.00    -0.306 C  
HETATM   20  C   UNL     1     -10.045  17.298  67.484  1.00  0.00    -0.315 C  
ENDBRANCH  17  18
ENDBRANCH  16  17
ENDBRANCH   7   9
ENDBRANCH   2   3
TORSDOF 4
ENDMDL
MODEL        3
REMARK 921   NORMALIZED FREE ENERGY PREDICTED BY IDOCK:   -5.69 KCAL/MOL
REMARK 922        TOTAL FREE ENERGY PREDICTED BY IDOCK:   -7.86 KCAL/MOL
REMARK 923 INTER-LIGAND FREE ENERGY PREDICTED BY IDOCK:   -7.02 KCAL/MOL
REMARK 924 INTRA-LIGAND FREE ENERGY PREDICTED BY IDOCK:   -0.84 KCAL/MOL
REMARK 927      BINDING AFFINITY PREDICTED BY RF-SCORE:    0.00 PKD
ROOT
HETATM    1  C   UNL     1     -14.368  15.070  71.735  1.00  0.00    -0.580 C  
HETATM    2  O   UNL     1     -13.621  14.058  72.394  1.00  0.00    -0.465 OA 
ENDROOT
BRANCH   2   3
HETATM    3  C   UNL     1     -13.052  13.089  71.612  1.00  0.00    -0.347 A  
HETATM    4  C   UNL     1     -13.135  11.719  71.800  1.00  0.00    -0.480 A  
HETATM    5  C   UNL     1     -12.470  10.860  70.921  1.00  0.00    -0.507 A  
HETATM    6  C   UNL     1     -11.703  11.376  69.871  1.00  0.00    -0.424 A  
HETATM    7  C   UNL     1     -11.583  12.764  69.663  1.00  0.00    -0.322 A  
HETATM    8  C   UNL     1     -12.307  13.596  70.534  1.00  0.00    -0.425 A  
BRANCH   7   9
HETATM    9  C   UNL     1     -10.680  13.297  68.535  1.00  0.00    -0.262 C  
HETATM   10  O   UNL     1      -9.606  13.988  69.199  1.00  0.00    -0.411 OA 
HETATM   11  C   UNL     1     -10.004  12.213  67.657  1.00  0.00    -0.199 C  
HETATM   12  C   UNL     1     -10.922  11.542  66.631  1.00  0.00    -0.349 C  
HETATM   13  H   UNL     1      -9.049  14.316  68.502  1.00  0.00     0.000 HD 
HETATM   14  C   UNL     1     -11.838  12.499  65.874  1.00  0.00    -0.489 C  
HETATM   15  C   UNL     1     -12.475  13.560  66.766  1.00  0.00    -0.213 C  
HETATM   16  C   UNL     1     -11.435  14.317  67.613  1.00  0.00    -0.370 C  
BRANCH  16  17
HETATM   17  C   UNL     1     -10.454  15.154  66.734  1.00  0.00    -0.283 C  
BRANCH  17  18
HETATM   18  N   UNL     1      -9.711  16.228  67.435  1.00  0.00    -0.232 NA 
HETATM   19  C   UNL     1      -8.698  16.838  66.571  1.00  0.00    -0.275 C  
HETATM   20  C   UNL     1     -10.652  17.254  67.898  1.00  0.00    -0.384 C  
ENDBRANCH  17  18
ENDBRANCH  16  17
ENDBRANCH   7   9
ENDBRANCH   2   3
TORSDOF 4
ENDMDL
MODEL        4
REMARK 921   NORMALIZED FREE ENERGY PREDICTED BY IDOCK:   -5.59 KCAL/MOL
REMARK 922        TOTAL FREE ENERGY PREDICTED BY IDOCK:   -7.74 KCAL/MOL
REMARK 923 INTER-LIGAND FREE ENERGY PREDICTED BY IDOCK:   -7.14 KCAL/MOL
REMARK 924 INTRA-LIGAND FREE ENERGY PREDICTED BY IDOCK:   -0.60 KCAL/MOL
REMARK 927      BINDING AFFINITY PREDICTED BY RF-SCORE:    0.00 PKD
ROOT
HETATM    1  C   UNL     1     -10.972  10.371  67.911  1.00  0.00    -0.297 C  
HETATM    2  O   UNL     1     -11.015   9.888  69.245  1.00  0.00    -0.224 OA 
ENDROOT
BRANCH   2   3
HETATM    3  C   UNL     1     -11.765  10.598  70.144  1.00  0.00    -0.332 A  
HETATM    4  C   UNL     1     -12.522  10.079  71.183  1.00  0.00    -0.480 A  
HETATM    5  C   UNL     1     -13.257  10.943  71.999  1.00  0.00    -0.456 A  
HETATM    6  C   UNL     1     -13.252  12.321  71.758  1.00  0.00    -0.428 A  
HETATM    7  C   UNL     1     -12.509  12.878  70.699  1.00  0.00    -0.333 A  
HETATM    8  C   UNL     1     -11.741  11.987  69.932  1.00  0.00    -0.374 A  
BRANCH   7   9
HETATM    9  C   UNL     1     -12.578  14.393  70.426  1.00  0.00    -0.345 C  
HETATM   10  O   UNL     1     -12.530  14.525  68.993  1.00  0.00    -0.571 OA 
HETATM   11  C   UNL     1     -13.891  15.089  70.869  1.00  0.00    -0.269 C  
HETATM   12  C   UNL     1     -14.019  15.336  72.375  1.00  0.00    -0.642 C  
HETATM   13  H   UNL     1     -12.573  15.459  68.825  1.00  0.00     0.000 HD 
HETATM   14  C   UNL     1     -12.756  15.868  73.043  1.00  0.00    -0.611 C  
HETATM   15  C   UNL     1     -11.483  15.170  72.574  1.00  0.00    -0.364 C  
HETATM   16  C   UNL     1     -11.352  15.155  71.039  1.00  0.00    -0.358 C  
BRANCH  16  17
HETATM   17  C   UNL     1     -11.194  16.590  70.445  1.00  0.00    -0.107 C  
BRANCH  17  18
HETATM   18  N   UNL     1     -10.495  16.678  69.141  1.00  0.00    -0.314 NA 
HETATM   19  C   UNL     1     -10.120  18.057  68.821  1.00  0.00    -0.381 C  
HETATM   20  C   UNL     1      -9.297  15.831  69.168  1.00  0.00    -0.258 C  
ENDBRANCH  17  18
ENDBRANCH  16  17
ENDBRANCH   7   9
ENDBRANCH   2   3
TORSDOF 4
ENDMDL
MODEL        5
REMARK 921   NORMALIZED FREE ENERGY PREDICTED BY IDOCK:   -5.46 KCAL/MOL
REMARK 922        TOTAL FREE ENERGY PREDICTED BY IDOCK:   -7.59 KCAL/MOL
REMARK 923 INTER-LIGAND FREE ENERGY PREDICTED BY IDOCK:   -6.96 KCAL/MOL
REMARK 924 INTRA-LIGAND FREE ENERGY PREDICTED BY IDOCK:   -0.63 KCAL/MOL
REMARK 927      BINDING AFFINITY PREDICTED BY RF-SCORE:    0.00 PKD
ROOT
HETATM    1  C   UNL     1     -13.101  11.497  71.642  1.00  0.00    -0.373 C  
HETATM    2  O   UNL     1     -13.557  12.616  72.388  1.00  0.00    -0.550 OA 
ENDROOT
BRANCH   2   3
HETATM    3  C   UNL     1     -12.970  13.825  72.128  1.00  0.00    -0.343 A  
HETATM    4  C   UNL     1     -12.835  14.886  73.009  1.00  0.00    -0.586 A  
HETATM    5  C   UNL     1     -12.231  16.069  72.576  1.00  0.00    -0.612 A  
HETATM    6  C   UNL     1     -11.785  16.195  71.256  1.00  0.00    -0.480 A  
HETATM    7  C   UNL     1     -11.924  15.143  70.331  1.00  0.00    -0.364 A  
HETATM    8  C   UNL     1     -12.489  13.950  70.814  1.00  0.00    -0.445 A  
BRANCH   7   9
HETATM    9  C   UNL     1     -11.479  15.340  68.869  1.00  0.00    -0.332 C  
HETATM   10  O   UNL     1     -12.521  14.752  68.069  1.00  0.00    -0.571 OA 
HETATM   11  C   UNL     1     -11.371  16.814  68.401  1.00  0.00    -0.068 C  
HETATM   12  C   UNL     1     -10.133  17.565  68.900  1.00  0.00    -0.346 C  
HETATM   13  H   UNL     1     -12.246  14.874  67.168  1.00  0.00     0.000 HD 
HETATM   14  C   UNL     1      -8.832  16.772  68.821  1.00  0.00    -0.258 C  
HETATM   15  C   UNL     1      -8.978  15.323  69.277  1.00  0.00    -0.241 C  
HETATM   16  C   UNL     1     -10.133  14.596  68.561  1.00  0.00    -0.238 C  
BRANCH  16  17
HETATM   17  C   UNL     1      -9.879  14.448  67.029  1.00  0.00    -0.252 C  
BRANCH  17  18
HETATM   18  N   UNL     1     -10.758  13.493  66.315  1.00  0.00    -0.286 NA 
HETATM   19  C   UNL     1     -11.028  13.927  64.943  1.00  0.00    -0.386 C  
HETATM   20  C   UNL     1     -10.132  12.165  66.302  1.00  0.00    -0.224 C  
ENDBRANCH  17  18
ENDBRANCH  16  17
ENDBRANCH   7   9
ENDBRANCH   2   3
TORSDOF 4
ENDMDL
MODEL        6
REMARK 921   NORMALIZED FREE ENERGY PREDICTED BY IDOCK:   -5.46 KCAL/MOL
REMARK 922        TOTAL FREE ENERGY PREDICTED BY IDOCK:   -7.58 KCAL/MOL
REMARK 923 INTER-LIGAND FREE ENERGY PREDICTED BY IDOCK:   -6.97 KCAL/MOL
REMARK 924 INTRA-LIGAND FREE ENERGY PREDICTED BY IDOCK:   -0.61 KCAL/MOL
REMARK 927      BINDING AFFINITY PREDICTED BY RF-SCORE:    0.00 PKD
ROOT
HETATM    1  C   UNL     1     -12.768  15.607  71.599  1.00  0.00    -0.456 C  
HETATM    2  O   UNL     1     -12.613  14.230  71.908  1.00  0.00    -0.332 OA 
ENDROOT
BRANCH   2   3
HETATM    3  C   UNL     1     -12.364  13.378  70.866  1.00  0.00    -0.353 A  
HETATM    4  C   UNL     1     -12.309  11.995  70.923  1.00  0.00    -0.384 A  
HETATM    5  C   UNL     1     -12.015  11.267  69.767  1.00  0.00    -0.431 A  
HETATM    6  C   UNL     1     -11.751  11.928  68.562  1.00  0.00    -0.388 A  
HETATM    7  C   UNL     1     -11.781  13.334  68.475  1.00  0.00    -0.388 A  
HETATM    8  C   UNL     1     -12.131  14.030  69.643  1.00  0.00    -0.408 A  
BRANCH   7   9
HETATM    9  C   UNL     1     -11.424  14.028  67.147  1.00  0.00    -0.352 C  
HETATM   10  O   UNL     1     -12.673  14.184  66.449  1.00  0.00    -0.529 OA 
HETATM   11  C   UNL     1     -10.836  15.457  67.282  1.00  0.00    -0.316 C  
HETATM   12  C   UNL     1      -9.373  15.518  67.729  1.00  0.00    -0.195 C  
HETATM   13  H   UNL     1     -12.452  14.613  65.630  1.00  0.00     0.000 HD 
HETATM   14  C   UNL     1      -8.455  14.511  67.045  1.00  0.00    -0.222 C  
HETATM   15  C   UNL     1      -9.069  13.120  66.917  1.00  0.00    -0.231 C  
HETATM   16  C   UNL     1     -10.465  13.152  66.266  1.00  0.00    -0.291 C  
BRANCH  16  17
HETATM   17  C   UNL     1     -10.416  13.641  64.785  1.00  0.00    -0.418 C  
BRANCH  17  18
HETATM   18  N   UNL     1     -10.798  12.642  63.760  1.00  0.00    -0.427 NA 
HETATM   19  C   UNL     1     -10.650  11.272  64.257  1.00  0.00    -0.358 C  
HETATM   20  C   UNL     1     -12.186  12.872  63.342  1.00  0.00    -0.490 C  
ENDBRANCH  17  18
ENDBRANCH  16  17
ENDBRANCH   7   9
ENDBRANCH   2   3
TORSDOF 4
ENDMDL
MODEL        7
REMARK 921   NORMALIZED FREE ENERGY PREDICTED BY IDOCK:   -5.42 KCAL/MOL
REMARK 922        TOTAL FREE ENERGY PREDICTED BY IDOCK:   -7.53 KCAL/MOL
REMARK 923 INTER-LIGAND FREE ENERGY PREDICTED BY IDOCK:   -6.66 KCAL/MOL
REMARK 924 INTRA-LIGAND FREE ENERGY PREDICTED BY IDOCK:   -0.88 KCAL/MOL
REMARK 927      BINDING AFFINITY PREDICTED BY RF-SCORE:    0.00 PKD
ROOT
HETATM    1  C   UNL     1     -13.310   9.335  72.250  1.00  0.00    -0.477 C  
HETATM    2  O   UNL     1     -12.847   9.851  71.011  1.00  0.00    -0.337 OA 
ENDROOT
BRANCH   2   3
HETATM    3  C   UNL     1     -12.670  11.206  70.923  1.00  0.00    -0.344 A  
HETATM    4  C   UNL     1     -13.273  12.172  71.713  1.00  0.00    -0.423 A  
HETATM    5  C   UNL     1     -13.005  13.522  71.476  1.00  0.00    -0.440 A  
HETATM    6  C   UNL     1     -12.154  13.904  70.432  1.00  0.00    -0.421 A  
HETATM    7  C   UNL     1     -11.540  12.948  69.600  1.00  0.00    -0.318 A  
HETATM    8  C   UNL     1     -11.791  11.598  69.900  1.00  0.00    -0.434 A  
BRANCH   7   9
HETATM    9  C   UNL     1     -10.659  13.406  68.422  1.00  0.00    -0.248 C  
HETATM   10  O   UNL     1      -9.452  13.912  69.021  1.00  0.00    -0.404 OA 
HETATM   11  C   UNL     1     -10.209  12.283  67.453  1.00  0.00    -0.213 C  
HETATM   12  C   UNL     1     -11.286  11.793  66.481  1.00  0.00    -0.380 C  
HETATM   13  H   UNL     1      -8.909  14.195  68.295  1.00  0.00     0.000 HD 
HETATM   14  C   UNL     1     -12.114  12.899  65.837  1.00  0.00    -0.503 C  
HETATM   15  C   UNL     1     -12.529  13.993  66.816  1.00  0.00    -0.238 C  
HETATM   16  C   UNL     1     -11.332  14.562  67.603  1.00  0.00    -0.354 C  
BRANCH  16  17
HETATM   17  C   UNL     1     -10.313  15.299  66.679  1.00  0.00    -0.280 C  
BRANCH  17  18
HETATM   18  N   UNL     1      -9.595  16.443  67.288  1.00  0.00    -0.232 NA 
HETATM   19  C   UNL     1      -8.928  17.264  66.275  1.00  0.00    -0.217 C  
HETATM   20  C   UNL     1     -10.541  17.266  68.050  1.00  0.00    -0.394 C  
ENDBRANCH  17  18
ENDBRANCH  16  17
ENDBRANCH   7   9
ENDBRANCH   2   3
TORSDOF 4
ENDMDL
MODEL        8
REMARK 921   NORMALIZED FREE ENERGY PREDICTED BY IDOCK:   -5.42 KCAL/MOL
REMARK 922        TOTAL FREE ENERGY PREDICTED BY IDOCK:   -7.53 KCAL/MOL
REMARK 923 INTER-LIGAND FREE ENERGY PREDICTED BY IDOCK:   -6.91 KCAL/MOL
REMARK 924 INTRA-LIGAND FREE ENERGY PREDICTED BY IDOCK:   -0.62 KCAL/MOL
REMARK 927      BINDING AFFINITY PREDICTED BY RF-SCORE:    0.00 PKD
ROOT
HETATM    1  C   UNL     1     -13.255  15.194  72.955  1.00  0.00    -0.499 C  
HETATM    2  O   UNL     1     -13.662  13.854  72.717  1.00  0.00    -0.686 OA 
ENDROOT
BRANCH   2   3
HETATM    3  C   UNL     1     -13.049  13.187  71.691  1.00  0.00    -0.353 A  
HETATM    4  C   UNL     1     -12.705  11.845  71.666  1.00  0.00    -0.340 A  
HETATM    5  C   UNL     1     -12.055  11.320  70.545  1.00  0.00    -0.481 A  
HETATM    6  C   UNL     1     -11.731  12.145  69.463  1.00  0.00    -0.402 A  
HETATM    7  C   UNL     1     -12.051  13.517  69.465  1.00  0.00    -0.352 A  
HETATM    8  C   UNL     1     -12.749  13.999  70.584  1.00  0.00    -0.373 A  
BRANCH   7   9
HETATM    9  C   UNL     1     -11.622  14.408  68.283  1.00  0.00    -0.328 C  
HETATM   10  O   UNL     1     -12.660  14.262  67.297  1.00  0.00    -0.544 OA 
HETATM   11  C   UNL     1     -11.543  15.925  68.590  1.00  0.00    -0.383 C  
HETATM   12  C   UNL     1     -10.314  16.364  69.391  1.00  0.00    -0.290 C  
HETATM   13  H   UNL     1     -12.396  14.811  66.569  1.00  0.00     0.000 HD 
HETATM   14  C   UNL     1      -9.001  15.734  68.938  1.00  0.00    -0.226 C  
HETATM   15  C   UNL     1      -9.118  14.243  68.633  1.00  0.00    -0.160 C  
HETATM   16  C   UNL     1     -10.266  13.933  67.654  1.00  0.00    -0.242 C  
BRANCH  16  17
HETATM   17  C   UNL     1     -10.023  14.553  66.242  1.00  0.00    -0.305 C  
BRANCH  17  18
HETATM   18  N   UNL     1     -11.032  14.225  65.208  1.00  0.00    -0.324 NA 
HETATM   19  C   UNL     1     -11.396  15.401  64.415  1.00  0.00    -0.238 C  
HETATM   20  C   UNL     1     -10.508  13.175  64.327  1.00  0.00    -0.389 C  
ENDBRANCH  17  18
ENDBRANCH  16  17
ENDBRANCH   7   9
ENDBRANCH   2   3
TORSDOF 4
ENDMDL
MODEL        9
REMARK 921   NORMALIZED FREE ENERGY PREDICTED BY IDOCK:   -5.38 KCAL/MOL
REMARK 922        TOTAL FREE ENERGY PREDICTED BY IDOCK:   -7.48 KCAL/MOL
REMARK 923 INTER-LIGAND FREE ENERGY PREDICTED BY IDOCK:   -6.68 KCAL/MOL
REMARK 924 INTRA-LIGAND FREE ENERGY PREDICTED BY IDOCK:   -0.80 KCAL/MOL
REMARK 927      BINDING AFFINITY PREDICTED BY RF-SCORE:    0.00 PKD
ROOT
HETATM    1  C   UNL     1     -12.136  10.841  70.344  1.00  0.00    -0.354 C  
HETATM    2  O   UNL     1     -12.617  11.924  71.127  1.00  0.00    -0.372 OA 
ENDROOT
BRANCH   2   3
HETATM    3  C   UNL     1     -12.390  13.188  70.655  1.00  0.00    -0.326 A  
HETATM    4  C   UNL     1     -12.545  14.373  71.356  1.00  0.00    -0.426 A  
HETATM    5  C   UNL     1     -12.297  15.591  70.716  1.00  0.00    -0.463 A  
HETATM    6  C   UNL     1     -11.918  15.619  69.369  1.00  0.00    -0.349 A  
HETATM    7  C   UNL     1     -11.770  14.434  68.624  1.00  0.00    -0.367 A  
HETATM    8  C   UNL     1     -11.977  13.227  69.313  1.00  0.00    -0.354 A  
BRANCH   7   9
HETATM    9  C   UNL     1     -11.412  14.507  67.127  1.00  0.00    -0.368 C  
HETATM   10  O   UNL     1     -12.666  14.401  66.429  1.00  0.00    -0.486 OA 
HETATM   11  C   UNL     1     -10.782  15.844  66.659  1.00  0.00    -0.270 C  
HETATM   12  C   UNL     1      -9.311  16.037  67.040  1.00  0.00    -0.233 C  
HETATM   13  H   UNL     1     -12.445  14.446  65.506  1.00  0.00     0.000 HD 
HETATM   14  C   UNL     1      -8.433  14.808  66.831  1.00  0.00    -0.230 C  
HETATM   15  C   UNL     1      -9.089  13.509  67.290  1.00  0.00    -0.225 C  
HETATM   16  C   UNL     1     -10.492  13.315  66.686  1.00  0.00    -0.279 C  
BRANCH  16  17
HETATM   17  C   UNL     1     -10.451  13.147  65.135  1.00  0.00    -0.324 C  
BRANCH  17  18
HETATM   18  N   UNL     1     -11.313  12.079  64.575  1.00  0.00    -0.328 NA 
HETATM   19  C   UNL     1     -12.189  12.590  63.519  1.00  0.00    -0.558 C  
HETATM   20  C   UNL     1     -10.473  10.999  64.045  1.00  0.00    -0.366 C  
ENDBRANCH  17  18
ENDBRANCH  16  17
ENDBRANCH   7   9
ENDBRANCH   2   3
TORSDOF 4
ENDMDL
MODEL       10
REMARK 921   NORMALIZED FREE ENERGY PREDICTED BY IDOCK:   -5.31 KCAL/MOL
REMARK 922        TOTAL FREE ENERGY PREDICTED BY IDOCK:   -7.39 KCAL/MOL
REMARK 923 INTER-LIGAND FREE ENERGY PREDICTED BY IDOCK:   -6.80 KCAL/MOL
REMARK 924 INTRA-LIGAND FREE ENERGY PREDICTED BY IDOCK:   -0.59 KCAL/MOL
REMARK 927      BINDING AFFINITY PREDICTED BY RF-SCORE:    0.00 PKD
ROOT
HETATM    1  C   UNL     1     -10.024   9.770  66.010  1.00  0.00    -0.272 C  
HETATM    2  O   UNL     1     -10.242  10.261  64.695  1.00  0.00    -0.322 OA 
ENDROOT
BRANCH   2   3
HETATM    3  C   UNL     1     -10.841  11.487  64.576  1.00  0.00    -0.327 A  
HETATM    4  C   UNL     1     -11.501  11.980  63.462  1.00  0.00    -0.536 A  
HETATM    5  C   UNL     1     -12.038  13.269  63.492  1.00  0.00    -0.550 A  
HETATM    6  C   UNL     1     -11.890  14.071  64.630  1.00  0.00    -0.433 A  
HETATM    7  C   UNL     1     -11.209  13.607  65.771  1.00  0.00    -0.302 A  
HETATM    8  C   UNL     1     -10.728  12.288  65.725  1.00  0.00    -0.298 A  
BRANCH   7   9
HETATM    9  C   UNL     1     -11.012  14.540  66.981  1.00  0.00    -0.312 C  
HETATM   10  O   UNL     1     -12.322  14.705  67.555  1.00  0.00    -0.585 OA 
HETATM   11  C   UNL     1     -10.123  13.974  68.118  1.00  0.00    -0.244 C  
HETATM   12  C   UNL     1      -8.618  13.991  67.836  1.00  0.00    -0.181 C  
HETATM   13  H   UNL     1     -12.200  15.281  68.301  1.00  0.00     0.000 HD 
HETATM   14  C   UNL     1      -8.103  15.279  67.202  1.00  0.00    -0.248 C  
HETATM   15  C   UNL     1      -9.008  15.814  66.097  1.00  0.00    -0.372 C  
HETATM   16  C   UNL     1     -10.473  15.950  66.552  1.00  0.00    -0.305 C  
BRANCH  16  17
HETATM   17  C   UNL     1     -10.646  17.014  67.680  1.00  0.00    -0.333 C  
BRANCH  17  18
HETATM   18  N   UNL     1      -9.895  18.278  67.500  1.00  0.00    -0.306 NA 
HETATM   19  C   UNL     1     -10.512  19.135  66.484  1.00  0.00    -0.448 C  
HETATM   20  C   UNL     1      -9.826  18.995  68.779  1.00  0.00    -0.425 C  
ENDBRANCH  17  18
ENDBRANCH  16  17
ENDBRANCH   7   9
ENDBRANCH   2   3
TORSDOF 4
ENDMDL
MODEL       11
REMARK 921   NORMALIZED FREE ENERGY PREDICTED BY IDOCK:   -5.29 KCAL/MOL
REMARK 922        TOTAL FREE ENERGY PREDICTED BY IDOCK:   -7.37 KCAL/MOL
REMARK 923 INTER-LIGAND FREE ENERGY PREDICTED BY IDOCK:   -7.05 KCAL/MOL
REMARK 924 INTRA-LIGAND FREE ENERGY PREDICTED BY IDOCK:   -0.32 KCAL/MOL
REMARK 927      BINDING AFFINITY PREDICTED BY RF-SCORE:    0.00 PKD
ROOT
HETATM    1  C   UNL     1     -13.500  15.358  72.054  1.00  0.00    -0.466 C  
HETATM    2  O   UNL     1     -13.331  14.037  72.547  1.00  0.00    -0.464 OA 
ENDROOT
BRANCH   2   3
HETATM    3  C   UNL     1     -12.993  13.068  71.641  1.00  0.00    -0.321 A  
HETATM    4  C   UNL     1     -13.062  11.698  71.832  1.00  0.00    -0.490 A  
HETATM    5  C   UNL     1     -12.651  10.838  70.810  1.00  0.00    -0.476 A  
HETATM    6  C   UNL     1     -12.149  11.353  69.609  1.00  0.00    -0.373 A  
HETATM    7  C   UNL     1     -12.049  12.740  69.392  1.00  0.00    -0.248 A  
HETATM    8  C   UNL     1     -12.519  13.575  70.419  1.00  0.00    -0.345 A  
BRANCH   7   9
HETATM    9  C   UNL     1     -11.433  13.271  68.083  1.00  0.00    -0.312 C  
HETATM   10  O   UNL     1     -12.279  14.361  67.676  1.00  0.00    -0.598 OA 
HETATM   11  C   UNL     1     -10.009  13.869  68.214  1.00  0.00    -0.238 C  
HETATM   12  C   UNL     1      -8.882  12.842  68.350  1.00  0.00    -0.117 C  
HETATM   13  H   UNL     1     -11.899  14.687  66.869  1.00  0.00     0.000 HD 
HETATM   14  C   UNL     1      -8.989  11.649  67.406  1.00  0.00    -0.166 C  
HETATM   15  C   UNL     1     -10.406  11.093  67.292  1.00  0.00    -0.243 C  
HETATM   16  C   UNL     1     -11.439  12.184  66.951  1.00  0.00    -0.414 C  
BRANCH  16  17
HETATM   17  C   UNL     1     -11.200  12.804  65.539  1.00  0.00    -0.294 C  
BRANCH  17  18
HETATM   18  N   UNL     1     -12.416  13.106  64.749  1.00  0.00    -0.571 NA 
HETATM   19  C   UNL     1     -12.402  14.477  64.235  1.00  0.00    -0.369 C  
HETATM   20  C   UNL     1     -12.524  12.159  63.633  1.00  0.00    -0.549 C  
ENDBRANCH  17  18
ENDBRANCH  16  17
ENDBRANCH   7   9
ENDBRANCH   2   3
TORSDOF 4
ENDMDL
MODEL       12
REMARK 921   NORMALIZED FREE ENERGY PREDICTED BY IDOCK:   -5.28 KCAL/MOL
REMARK 922        TOTAL FREE ENERGY PREDICTED BY IDOCK:   -7.36 KCAL/MOL
REMARK 923 INTER-LIGAND FREE ENERGY PREDICTED BY IDOCK:   -6.90 KCAL/MOL
REMARK 924 INTRA-LIGAND FREE ENERGY PREDICTED BY IDOCK:   -0.47 KCAL/MOL
REMARK 927      BINDING AFFINITY PREDICTED BY RF-SCORE:    0.00 PKD
ROOT
HETATM    1  C   UNL     1      -9.076  10.272  64.340  1.00  0.00    -0.239 C  
HETATM    2  O   UNL     1     -10.171  10.751  63.573  1.00  0.00    -0.338 OA 
ENDROOT
BRANCH   2   3
HETATM    3  C   UNL     1     -10.977  11.693  64.152  1.00  0.00    -0.376 A  
HETATM    4  C   UNL     1     -11.819  12.577  63.497  1.00  0.00    -0.616 A  
HETATM    5  C   UNL     1     -12.561  13.501  64.238  1.00  0.00    -0.206 A  
HETATM    6  C   UNL     1     -12.438  13.555  65.631  1.00  0.00    -0.528 A  
HETATM    7  C   UNL     1     -11.577  12.683  66.325  1.00  0.00    -0.440 A  
HETATM    8  C   UNL     1     -10.887  11.733  65.554  1.00  0.00    -0.348 A  
BRANCH   7   9
HETATM    9  C   UNL     1     -11.420  12.813  67.852  1.00  0.00    -0.317 C  
HETATM   10  O   UNL     1     -12.186  11.730  68.409  1.00  0.00    -0.467 OA 
HETATM   11  C   UNL     1      -9.978  12.628  68.390  1.00  0.00    -0.210 C  
HETATM   12  C   UNL     1      -9.045  13.824  68.173  1.00  0.00    -0.194 C  
HETATM   13  H   UNL     1     -12.089  11.810  69.351  1.00  0.00     0.000 HD 
HETATM   14  C   UNL     1      -9.670  15.182  68.473  1.00  0.00    -0.214 C  
HETATM   15  C   UNL     1     -11.093  15.324  67.942  1.00  0.00    -0.321 C  
HETATM   16  C   UNL     1     -12.006  14.166  68.388  1.00  0.00    -0.366 C  
BRANCH  16  17
HETATM   17  C   UNL     1     -12.219  14.144  69.934  1.00  0.00    -0.359 C  
BRANCH  17  18
HETATM   18  N   UNL     1     -12.727  15.398  70.537  1.00  0.00    -0.421 NA 
HETATM   19  C   UNL     1     -13.986  15.184  71.253  1.00  0.00    -0.463 C  
HETATM   20  C   UNL     1     -11.720  15.944  71.455  1.00  0.00    -0.475 C  
ENDBRANCH  17  18
ENDBRANCH  16  17
ENDBRANCH   7   9
ENDBRANCH   2   3
TORSDOF 4
ENDMDL
MODEL       13
REMARK 921   NORMALIZED FREE ENERGY PREDICTED BY IDOCK:   -5.28 KCAL/MOL
REMARK 922        TOTAL FREE ENERGY PREDICTED BY IDOCK:   -7.36 KCAL/MOL
REMARK 923 INTER-LIGAND FREE ENERGY PREDICTED BY IDOCK:   -6.82 KCAL/MOL
REMARK 924 INTRA-LIGAND FREE ENERGY PREDICTED BY IDOCK:   -0.53 KCAL/MOL
REMARK 927      BINDING AFFINITY PREDICTED BY RF-SCORE:    0.00 PKD
ROOT
HETATM    1  C   UNL     1     -12.516  12.211  63.469  1.00  0.00    -0.555 C  
HETATM    2  O   UNL     1     -12.940  12.688  64.737  1.00  0.00    -0.816 OA 
ENDROOT
BRANCH   2   3
HETATM    3  C   UNL     1     -12.015  12.694  65.746  1.00  0.00    -0.446 A  
HETATM    4  C   UNL     1     -11.302  11.605  66.222  1.00  0.00    -0.293 A  
HETATM    5  C   UNL     1     -10.409  11.775  67.282  1.00  0.00    -0.231 A  
HETATM    6  C   UNL     1     -10.249  13.031  67.880  1.00  0.00    -0.234 A  
HETATM    7  C   UNL     1     -10.972  14.153  67.433  1.00  0.00    -0.306 A  
HETATM    8  C   UNL     1     -11.822  13.957  66.332  1.00  0.00    -0.436 A  
BRANCH   7   9
HETATM    9  C   UNL     1     -10.817  15.505  68.156  1.00  0.00    -0.296 C  
HETATM   10  O   UNL     1     -12.130  15.828  68.648  1.00  0.00    -0.533 OA 
HETATM   11  C   UNL     1      -9.893  15.490  69.400  1.00  0.00    -0.283 C  
HETATM   12  C   UNL     1      -8.393  15.460  69.096  1.00  0.00    -0.242 C  
HETATM   13  H   UNL     1     -12.034  16.662  69.093  1.00  0.00     0.000 HD 
HETATM   14  C   UNL     1      -7.950  16.402  67.982  1.00  0.00    -0.159 C  
HETATM   15  C   UNL     1      -8.888  16.401  66.778  1.00  0.00    -0.255 C  
HETATM   16  C   UNL     1     -10.356  16.642  67.178  1.00  0.00    -0.300 C  
BRANCH  16  17
HETATM   17  C   UNL     1     -10.578  18.064  67.783  1.00  0.00    -0.394 C  
BRANCH  17  18
HETATM   18  N   UNL     1      -9.940  19.185  67.055  1.00  0.00    -0.327 NA 
HETATM   19  C   UNL     1     -10.638  19.485  65.803  1.00  0.00    -0.427 C  
HETATM   20  C   UNL     1      -9.920  20.378  67.910  1.00  0.00    -0.288 C  
ENDBRANCH  17  18
ENDBRANCH  16  17
ENDBRANCH   7   9
ENDBRANCH   2   3
TORSDOF 4
ENDMDL
MODEL       14
REMARK 921   NORMALIZED FREE ENERGY PREDICTED BY IDOCK:   -5.20 KCAL/MOL
REMARK 922        TOTAL FREE ENERGY PREDICTED BY IDOCK:   -7.26 KCAL/MOL
REMARK 923 INTER-LIGAND FREE ENERGY PREDICTED BY IDOCK:   -6.44 KCAL/MOL
REMARK 924 INTRA-LIGAND FREE ENERGY PREDICTED BY IDOCK:   -0.82 KCAL/MOL
REMARK 927      BINDING AFFINITY PREDICTED BY RF-SCORE:    0.00 PKD
ROOT
HETATM    1  C   UNL     1     -11.788  10.367  71.024  1.00  0.00    -0.361 C  
HETATM    2  O   UNL     1     -12.086  11.176  69.896  1.00  0.00    -0.304 OA 
ENDROOT
BRANCH   2   3
HETATM    3  C   UNL     1     -11.437  10.883  68.726  1.00  0.00    -0.308 A  
HETATM    4  C   UNL     1     -10.961   9.643  68.333  1.00  0.00    -0.161 A  
HETATM    5  C   UNL     1     -10.293   9.516  67.112  1.00  0.00    -0.320 A  
HETATM    6  C   UNL     1     -10.082  10.636  66.300  1.00  0.00    -0.291 A  
HETATM    7  C   UNL     1     -10.538  11.913  66.679  1.00  0.00    -0.273 A  
HETATM    8  C   UNL     1     -11.250  11.994  67.887  1.00  0.00    -0.323 A  
BRANCH   7   9
HETATM    9  C   UNL     1     -10.233  13.133  65.790  1.00  0.00    -0.289 C  
HETATM   10  O   UNL     1      -8.937  13.599  66.209  1.00  0.00    -0.464 OA 
HETATM   11  C   UNL     1     -10.102  12.834  64.274  1.00  0.00    -0.277 C  
HETATM   12  C   UNL     1     -11.426  12.605  63.540  1.00  0.00    -0.557 C  
HETATM   13  H   UNL     1      -8.750  14.351  65.660  1.00  0.00     0.000 HD 
HETATM   14  C   UNL     1     -12.534  13.588  63.904  1.00  0.00    -0.295 C  
HETATM   15  C   UNL     1     -12.626  13.869  65.401  1.00  0.00    -0.538 C  
HETATM   16  C   UNL     1     -11.272  14.289  66.004  1.00  0.00    -0.324 C  
BRANCH  16  17
HETATM   17  C   UNL     1     -10.766  15.649  65.431  1.00  0.00    -0.408 C  
BRANCH  17  18
HETATM   18  N   UNL     1     -10.190  16.594  66.417  1.00  0.00    -0.304 NA 
HETATM   19  C   UNL     1     -10.411  17.987  66.025  1.00  0.00    -0.313 C  
HETATM   20  C   UNL     1     -10.784  16.349  67.737  1.00  0.00    -0.328 C  
ENDBRANCH  17  18
ENDBRANCH  16  17
ENDBRANCH   7   9
ENDBRANCH   2   3
TORSDOF 4
ENDMDL
MODEL       15
REMARK 921   NORMALIZED FREE ENERGY PREDICTED BY IDOCK:   -5.19 KCAL/MOL
REMARK 922        TOTAL FREE ENERGY PREDICTED BY IDOCK:   -7.25 KCAL/MOL
REMARK 923 INTER-LIGAND FREE ENERGY PREDICTED BY IDOCK:   -6.43 KCAL/MOL
REMARK 924 INTRA-LIGAND FREE ENERGY PREDICTED BY IDOCK:   -0.82 KCAL/MOL
REMARK 927      BINDING AFFINITY PREDICTED BY RF-SCORE:    0.00 PKD
ROOT
HETATM    1  C   UNL     1     -10.012  10.923  63.116  1.00  0.00    -0.321 C  
HETATM    2  O   UNL     1      -9.911  12.330  63.284  1.00  0.00    -0.403 OA 
ENDROOT
BRANCH   2   3
HETATM    3  C   UNL     1     -10.740  12.911  64.206  1.00  0.00    -0.406 A  
HETATM    4  C   UNL     1     -12.044  12.545  64.493  1.00  0.00    -0.496 A  
HETATM    5  C   UNL     1     -12.768  13.262  65.449  1.00  0.00    -0.460 A  
HETATM    6  C   UNL     1     -12.192  14.360  66.097  1.00  0.00    -0.358 A  
HETATM    7  C   UNL     1     -10.875  14.770  65.815  1.00  0.00    -0.334 A  
HETATM    8  C   UNL     1     -10.159  13.995  64.887  1.00  0.00    -0.288 A  
BRANCH   7   9
HETATM    9  C   UNL     1     -10.295  16.021  66.501  1.00  0.00    -0.299 C  
HETATM   10  O   UNL     1     -10.511  17.101  65.575  1.00  0.00    -0.593 OA 
HETATM   11  C   UNL     1     -11.002  16.446  67.814  1.00  0.00    -0.261 C  
HETATM   12  C   UNL     1     -10.663  15.593  69.040  1.00  0.00    -0.236 C  
HETATM   13  H   UNL     1     -10.153  17.872  65.999  1.00  0.00     0.000 HD 
HETATM   14  C   UNL     1      -9.184  15.253  69.191  1.00  0.00    -0.234 C  
HETATM   15  C   UNL     1      -8.517  14.853  67.878  1.00  0.00    -0.154 C  
HETATM   16  C   UNL     1      -8.754  15.886  66.760  1.00  0.00    -0.303 C  
BRANCH  16  17
HETATM   17  C   UNL     1      -8.087  17.261  67.076  1.00  0.00    -0.211 C  
BRANCH  17  18
HETATM   18  N   UNL     1      -7.759  18.107  65.904  1.00  0.00    -0.522 NA 
HETATM   19  C   UNL     1      -8.154  19.502  66.116  1.00  0.00    -0.333 C  
HETATM   20  C   UNL     1      -6.319  18.034  65.634  1.00  0.00    -0.221 C  
ENDBRANCH  17  18
ENDBRANCH  16  17
ENDBRANCH   7   9
ENDBRANCH   2   3
TORSDOF 4
ENDMDL
MODEL       16
REMARK 921   NORMALIZED FREE ENERGY PREDICTED BY IDOCK:   -5.17 KCAL/MOL
REMARK 922        TOTAL FREE ENERGY PREDICTED BY IDOCK:   -7.23 KCAL/MOL
REMARK 923 INTER-LIGAND FREE ENERGY PREDICTED BY IDOCK:   -6.39 KCAL/MOL
REMARK 924 INTRA-LIGAND FREE ENERGY PREDICTED BY IDOCK:   -0.84 KCAL/MOL
REMARK 927      BINDING AFFINITY PREDICTED BY RF-SCORE:    0.00 PKD
ROOT
HETATM    1  C   UNL     1      -9.826  11.118  63.242  1.00  0.00    -0.381 C  
HETATM    2  O   UNL     1      -9.839  12.514  63.503  1.00  0.00    -0.340 OA 
ENDROOT
BRANCH   2   3
HETATM    3  C   UNL     1     -10.747  12.972  64.420  1.00  0.00    -0.394 A  
HETATM    4  C   UNL     1     -12.101  13.179  64.211  1.00  0.00    -0.477 A  
HETATM    5  C   UNL     1     -12.891  13.679  65.249  1.00  0.00    -0.421 A  
HETATM    6  C   UNL     1     -12.318  13.994  66.487  1.00  0.00    -0.442 A  
HETATM    7  C   UNL     1     -10.942  13.812  66.726  1.00  0.00    -0.307 A  
HETATM    8  C   UNL     1     -10.189  13.259  65.677  1.00  0.00    -0.295 A  
BRANCH   7   9
HETATM    9  C   UNL     1     -10.336  14.228  68.079  1.00  0.00    -0.229 C  
HETATM   10  O   UNL     1     -10.553  13.108  68.956  1.00  0.00    -0.392 OA 
HETATM   11  C   UNL     1      -8.804  14.468  68.075  1.00  0.00    -0.175 C  
HETATM   12  C   UNL     1      -8.355  15.790  67.446  1.00  0.00    -0.189 C  
HETATM   13  H   UNL     1     -10.178  13.365  69.791  1.00  0.00     0.000 HD 
HETATM   14  C   UNL     1      -9.191  17.002  67.844  1.00  0.00    -0.239 C  
HETATM   15  C   UNL     1     -10.692  16.727  67.851  1.00  0.00    -0.347 C  
HETATM   16  C   UNL     1     -11.057  15.483  68.684  1.00  0.00    -0.297 C  
BRANCH  16  17
HETATM   17  C   UNL     1     -10.739  15.672  70.199  1.00  0.00    -0.342 C  
BRANCH  17  18
HETATM   18  N   UNL     1     -11.750  15.145  71.146  1.00  0.00    -0.324 NA 
HETATM   19  C   UNL     1     -11.844  15.970  72.352  1.00  0.00    -0.535 C  
HETATM   20  C   UNL     1     -13.058  15.084  70.482  1.00  0.00    -0.262 C  
ENDBRANCH  17  18
ENDBRANCH  16  17
ENDBRANCH   7   9
ENDBRANCH   2   3
TORSDOF 4
ENDMDL
MODEL       17
REMARK 921   NORMALIZED FREE ENERGY PREDICTED BY IDOCK:   -5.17 KCAL/MOL
REMARK 922        TOTAL FREE ENERGY PREDICTED BY IDOCK:   -7.22 KCAL/MOL
REMARK 923 INTER-LIGAND FREE ENERGY PREDICTED BY IDOCK:   -6.97 KCAL/MOL
REMARK 924 INTRA-LIGAND FREE ENERGY PREDICTED BY IDOCK:   -0.25 KCAL/MOL
REMARK 927      BINDING AFFINITY PREDICTED BY RF-SCORE:    0.00 PKD
ROOT
HETATM    1  C   UNL     1     -13.643   9.230  72.011  1.00  0.00    -0.452 C  
HETATM    2  O   UNL     1     -12.578   9.745  71.226  1.00  0.00    -0.320 OA 
ENDROOT
BRANCH   2   3
HETATM    3  C   UNL     1     -12.531  11.102  71.046  1.00  0.00    -0.403 A  
HETATM    4  C   UNL     1     -12.994  12.069  71.924  1.00  0.00    -0.428 A  
HETATM    5  C   UNL     1     -12.896  13.419  71.577  1.00  0.00    -0.427 A  
HETATM    6  C   UNL     1     -12.358  13.796  70.341  1.00  0.00    -0.423 A  
HETATM    7  C   UNL     1     -11.896  12.837  69.419  1.00  0.00    -0.359 A  
HETATM    8  C   UNL     1     -11.962  11.492  69.823  1.00  0.00    -0.415 A  
BRANCH   7   9
HETATM    9  C   UNL     1     -11.368  13.285  68.043  1.00  0.00    -0.291 C  
HETATM   10  O   UNL     1     -12.294  14.287  67.586  1.00  0.00    -0.598 OA 
HETATM   11  C   UNL     1      -9.978  13.972  68.057  1.00  0.00    -0.235 C  
HETATM   12  C   UNL     1      -8.786  13.025  68.227  1.00  0.00    -0.172 C  
HETATM   13  H   UNL     1     -11.968  14.563  66.737  1.00  0.00     0.000 HD 
HETATM   14  C   UNL     1      -8.862  11.750  67.393  1.00  0.00    -0.164 C  
HETATM   15  C   UNL     1     -10.246  11.108  67.391  1.00  0.00    -0.221 C  
HETATM   16  C   UNL     1     -11.355  12.106  67.008  1.00  0.00    -0.398 C  
BRANCH  16  17
HETATM   17  C   UNL     1     -11.213  12.614  65.540  1.00  0.00    -0.302 C  
BRANCH  17  18
HETATM   18  N   UNL     1     -12.466  13.047  64.878  1.00  0.00    -0.548 NA 
HETATM   19  C   UNL     1     -12.378  14.429  64.403  1.00  0.00    -0.403 C  
HETATM   20  C   UNL     1     -12.760  12.153  63.752  1.00  0.00    -0.411 C  
ENDBRANCH  17  18
ENDBRANCH  16  17
ENDBRANCH   7   9
ENDBRANCH   2   3
TORSDOF 4
ENDMDL
MODEL       18
REMARK 921   NORMALIZED FREE ENERGY PREDICTED BY IDOCK:   -5.12 KCAL/MOL
REMARK 922        TOTAL FREE ENERGY PREDICTED BY IDOCK:   -7.16 KCAL/MOL
REMARK 923 INTER-LIGAND FREE ENERGY PREDICTED BY IDOCK:   -6.36 KCAL/MOL
REMARK 924 INTRA-LIGAND FREE ENERGY PREDICTED BY IDOCK:   -0.80 KCAL/MOL
REMARK 927      BINDING AFFINITY PREDICTED BY RF-SCORE:    0.00 PKD
ROOT
HETATM    1  C   UNL     1     -12.188  13.743  64.015  1.00  0.00    -0.380 C  
HETATM    2  O   UNL     1     -11.922  15.022  64.572  1.00  0.00    -0.440 OA 
ENDROOT
BRANCH   2   3
HETATM    3  C   UNL     1     -10.806  15.144  65.355  1.00  0.00    -0.381 A  
HETATM    4  C   UNL     1     -10.160  14.128  66.040  1.00  0.00    -0.330 A  
HETATM    5  C   UNL     1      -9.040  14.425  66.822  1.00  0.00    -0.278 A  
HETATM    6  C   UNL     1      -8.586  15.744  66.936  1.00  0.00    -0.279 A  
HETATM    7  C   UNL     1      -9.231  16.803  66.268  1.00  0.00    -0.313 A  
HETATM    8  C   UNL     1     -10.321  16.460  65.450  1.00  0.00    -0.287 A  
BRANCH   7   9
HETATM    9  C   UNL     1      -8.741  18.249  66.467  1.00  0.00    -0.274 C  
HETATM   10  O   UNL     1      -7.590  18.385  65.614  1.00  0.00    -0.522 OA 
HETATM   11  C   UNL     1      -9.731  19.354  66.016  1.00  0.00    -0.334 C  
HETATM   12  C   UNL     1     -10.907  19.601  66.966  1.00  0.00    -0.518 C  
HETATM   13  H   UNL     1      -7.288  19.277  65.737  1.00  0.00     0.000 HD 
HETATM   14  C   UNL     1     -10.533  19.642  68.444  1.00  0.00    -0.401 C  
HETATM   15  C   UNL     1      -9.548  18.549  68.851  1.00  0.00    -0.307 C  
HETATM   16  C   UNL     1      -8.300  18.519  67.948  1.00  0.00    -0.281 C  
BRANCH  16  17
HETATM   17  C   UNL     1      -7.444  19.817  68.080  1.00  0.00    -0.294 C  
BRANCH  17  18
HETATM   18  N   UNL     1      -5.977  19.622  68.159  1.00  0.00    -0.216 NA 
HETATM   19  C   UNL     1      -5.274  20.887  68.382  1.00  0.00    -0.301 C  
HETATM   20  C   UNL     1      -5.665  18.682  69.242  1.00  0.00    -0.225 C  
ENDBRANCH  17  18
ENDBRANCH  16  17
ENDBRANCH   7   9
ENDBRANCH   2   3
TORSDOF 4
ENDMDL
MODEL       19
REMARK 921   NORMALIZED FREE ENERGY PREDICTED BY IDOCK:   -5.05 KCAL/MOL
REMARK 922        TOTAL FREE ENERGY PREDICTED BY IDOCK:   -7.08 KCAL/MOL
REMARK 923 INTER-LIGAND FREE ENERGY PREDICTED BY IDOCK:   -6.79 KCAL/MOL
REMARK 924 INTRA-LIGAND FREE ENERGY PREDICTED BY IDOCK:   -0.29 KCAL/MOL
REMARK 927      BINDING AFFINITY PREDICTED BY RF-SCORE:    0.00 PKD
ROOT
HETATM    1  C   UNL     1     -12.222  12.912  64.978  1.00  0.00    -0.464 C  
HETATM    2  O   UNL     1     -11.074  13.715  65.209  1.00  0.00    -0.291 OA 
ENDROOT
BRANCH   2   3
HETATM    3  C   UNL     1     -11.112  14.569  66.278  1.00  0.00    -0.332 A  
HETATM    4  C   UNL     1     -11.672  14.317  67.520  1.00  0.00    -0.415 A  
HETATM    5  C   UNL     1     -11.651  15.312  68.501  1.00  0.00    -0.368 A  
HETATM    6  C   UNL     1     -11.093  16.565  68.228  1.00  0.00    -0.321 A  
HETATM    7  C   UNL     1     -10.532  16.860  66.970  1.00  0.00    -0.281 A  
HETATM    8  C   UNL     1     -10.523  15.820  66.025  1.00  0.00    -0.350 A  
BRANCH   7   9
HETATM    9  C   UNL     1      -9.983  18.271  66.685  1.00  0.00    -0.364 C  
HETATM   10  O   UNL     1     -10.471  18.614  65.375  1.00  0.00    -0.520 OA 
HETATM   11  C   UNL     1     -10.496  19.387  67.630  1.00  0.00    -0.573 C  
HETATM   12  C   UNL     1      -9.862  19.400  69.024  1.00  0.00    -0.487 C  
HETATM   13  H   UNL     1     -10.132  19.484  65.200  1.00  0.00     0.000 HD 
HETATM   14  C   UNL     1      -8.351  19.195  69.038  1.00  0.00    -0.244 C  
HETATM   15  C   UNL     1      -7.880  18.099  68.087  1.00  0.00    -0.287 C  
HETATM   16  C   UNL     1      -8.415  18.294  66.656  1.00  0.00    -0.281 C  
BRANCH  16  17
HETATM   17  C   UNL     1      -7.858  19.589  65.987  1.00  0.00    -0.308 C  
BRANCH  17  18
HETATM   18  N   UNL     1      -6.852  19.386  64.918  1.00  0.00    -0.381 NA 
HETATM   19  C   UNL     1      -6.383  20.659  64.366  1.00  0.00    -0.307 C  
HETATM   20  C   UNL     1      -5.714  18.628  65.452  1.00  0.00    -0.215 C  
ENDBRANCH  17  18
ENDBRANCH  16  17
ENDBRANCH   7   9
ENDBRANCH   2   3
TORSDOF 4
ENDMDL
MODEL       20
REMARK 921   NORMALIZED FREE ENERGY PREDICTED BY IDOCK:   -5.02 KCAL/MOL
REMARK 922        TOTAL FREE ENERGY PREDICTED BY IDOCK:   -7.04 KCAL/MOL
REMARK 923 INTER-LIGAND FREE ENERGY PREDICTED BY IDOCK:   -6.48 KCAL/MOL
REMARK 924 INTRA-LIGAND FREE ENERGY PREDICTED BY IDOCK:   -0.57 KCAL/MOL
REMARK 927      BINDING AFFINITY PREDICTED BY RF-SCORE:    0.00 PKD
ROOT
HETATM    1  C   UNL     1      -9.985  20.086  66.412  1.00  0.00    -0.481 C  
HETATM    2  O   UNL     1     -10.195  18.782  65.890  1.00  0.00    -0.519 OA 
ENDROOT
BRANCH   2   3
HETATM    3  C   UNL     1      -9.491  17.757  66.463  1.00  0.00    -0.290 A  
HETATM    4  C   UNL     1      -8.341  17.870  67.228  1.00  0.00    -0.232 A  
HETATM    5  C   UNL     1      -7.724  16.717  67.720  1.00  0.00    -0.176 A  
HETATM    6  C   UNL     1      -8.246  15.452  67.424  1.00  0.00    -0.205 A  
HETATM    7  C   UNL     1      -9.402  15.303  66.634  1.00  0.00    -0.285 A  
HETATM    8  C   UNL     1     -10.026  16.485  66.200  1.00  0.00    -0.363 A  
BRANCH   7   9
HETATM    9  C   UNL     1      -9.912  13.894  66.277  1.00  0.00    -0.306 C  
HETATM   10  O   UNL     1      -9.638  13.732  64.874  1.00  0.00    -0.526 OA 
HETATM   11  C   UNL     1      -9.182  12.724  66.986  1.00  0.00    -0.221 C  
HETATM   12  C   UNL     1      -9.566  12.512  68.453  1.00  0.00    -0.176 C  
HETATM   13  H   UNL     1      -9.953  12.862  64.654  1.00  0.00     0.000 HD 
HETATM   14  C   UNL     1     -11.061  12.600  68.740  1.00  0.00    -0.307 C  
HETATM   15  C   UNL     1     -11.750  13.753  68.016  1.00  0.00    -0.390 C  
HETATM   16  C   UNL     1     -11.458  13.755  66.504  1.00  0.00    -0.364 C  
BRANCH  16  17
HETATM   17  C   UNL     1     -12.048  12.502  65.786  1.00  0.00    -0.378 C  
BRANCH  17  18
HETATM   18  N   UNL     1     -12.738  12.755  64.499  1.00  0.00    -0.710 NA 
HETATM   19  C   UNL     1     -12.607  14.153  64.081  1.00  0.00    -0.069 C  
HETATM   20  C   UNL     1     -12.185  11.874  63.464  1.00  0.00    -0.482 C  
ENDBRANCH  17  18
ENDBRANCH  16  17
ENDBRANCH   7   9
ENDBRANCH   2   3
TORSDOF 4
ENDMDL
MODEL       21
REMARK 921   NORMALIZED FREE ENERGY PREDICTED BY IDOCK:   -4.98 KCAL/MOL
REMARK 922        TOTAL FREE ENERGY PREDICTED BY IDOCK:   -7.00 KCAL/MOL
REMARK 923 INTER-LIGAND FREE ENERGY PREDICTED BY IDOCK:   -6.21 KCAL/MOL
REMARK 924 INTRA-LIGAND FREE ENERGY PREDICTED BY IDOCK:   -0.79 KCAL/MOL
REMARK 927      BINDING AFFINITY PREDICTED BY RF-SCORE:    0.00 PKD
ROOT
HETATM    1  C   UNL     1     -11.486  11.251  68.649  1.00  0.00    -0.297 C  
HETATM    2  O   UNL     1     -11.870  11.321  67.284  1.00  0.00    -0.562 OA 
ENDROOT
BRANCH   2   3
HETATM    3  C   UNL     1     -11.771  12.539  66.667  1.00  0.00    -0.387 A  
HETATM    4  C   UNL     1     -12.162  12.846  65.373  1.00  0.00    -0.528 A  
HETATM    5  C   UNL     1     -11.968  14.139  64.882  1.00  0.00    -0.424 A  
HETATM    6  C   UNL     1     -11.360  15.116  65.678  1.00  0.00    -0.255 A  
HETATM    7  C   UNL     1     -10.934  14.832  66.990  1.00  0.00    -0.324 A  
HETATM    8  C   UNL     1     -11.192  13.536  67.470  1.00  0.00    -0.307 A  
BRANCH   7   9
HETATM    9  C   UNL     1     -10.212  15.914  67.815  1.00  0.00    -0.260 C  
HETATM   10  O   UNL     1     -11.256  16.735  68.368  1.00  0.00    -0.332 OA 
HETATM   11  C   UNL     1      -9.401  15.392  69.029  1.00  0.00    -0.232 C  
HETATM   12  C   UNL     1      -8.061  14.735  68.682  1.00  0.00    -0.153 C  
HETATM   13  H   UNL     1     -10.811  17.402  68.876  1.00  0.00     0.000 HD 
HETATM   14  C   UNL     1      -7.239  15.480  67.636  1.00  0.00    -0.203 C  
HETATM   15  C   UNL     1      -8.070  15.990  66.463  1.00  0.00    -0.304 C  
HETATM   16  C   UNL     1      -9.289  16.814  66.921  1.00  0.00    -0.250 C  
BRANCH  16  17
HETATM   17  C   UNL     1      -8.874  18.133  67.644  1.00  0.00    -0.252 C  
BRANCH  17  18
HETATM   18  N   UNL     1      -9.506  19.375  67.141  1.00  0.00    -0.311 NA 
HETATM   19  C   UNL     1     -10.332  19.122  65.959  1.00  0.00    -0.463 C  
HETATM   20  C   UNL     1     -10.328  19.971  68.202  1.00  0.00    -0.362 C  
ENDBRANCH  17  18
ENDBRANCH  16  17
ENDBRANCH   7   9
ENDBRANCH   2   3
TORSDOF 4
ENDMDL
MODEL       22
REMARK 921   NORMALIZED FREE ENERGY PREDICTED BY IDOCK:   -4.97 KCAL/MOL
REMARK 922        TOTAL FREE ENERGY PREDICTED BY IDOCK:   -6.98 KCAL/MOL
REMARK 923 INTER-LIGAND FREE ENERGY PREDICTED BY IDOCK:   -6.46 KCAL/MOL
REMARK 924 INTRA-LIGAND FREE ENERGY PREDICTED BY IDOCK:   -0.52 KCAL/MOL
REMARK 927      BINDING AFFINITY PREDICTED BY RF-SCORE:    0.00 PKD
ROOT
HETATM    1  C   UNL     1     -14.392   8.403  72.228  1.00  0.00    -0.371 C  
HETATM    2  O   UNL     1     -13.587   9.569  72.124  1.00  0.00    -0.424 OA 
ENDROOT
BRANCH   2   3
HETATM    3  C   UNL     1     -12.301   9.404  71.682  1.00  0.00    -0.385 A  
HETATM    4  C   UNL     1     -11.346   8.553  72.214  1.00  0.00    -0.441 A  
HETATM    5  C   UNL     1     -10.064   8.523  71.660  1.00  0.00    -0.338 A  
HETATM    6  C   UNL     1      -9.733   9.365  70.592  1.00  0.00    -0.336 A  
HETATM    7  C   UNL     1     -10.675  10.255  70.041  1.00  0.00    -0.345 A  
HETATM    8  C   UNL     1     -11.969  10.220  70.588  1.00  0.00    -0.436 A  
BRANCH   7   9
HETATM    9  C   UNL     1     -10.258  11.210  68.906  1.00  0.00    -0.194 C  
HETATM   10  O   UNL     1     -10.538  12.533  69.398  1.00  0.00    -0.437 OA 
HETATM   11  C   UNL     1      -8.748  11.203  68.554  1.00  0.00    -0.161 C  
HETATM   12  C   UNL     1      -8.277   9.996  67.737  1.00  0.00    -0.113 C  
HETATM   13  H   UNL     1     -10.281  13.122  68.698  1.00  0.00     0.000 HD 
HETATM   14  C   UNL     1      -9.203   9.602  66.591  1.00  0.00    -0.187 C  
HETATM   15  C   UNL     1     -10.681   9.632  66.969  1.00  0.00    -0.225 C  
HETATM   16  C   UNL     1     -11.098  10.973  67.603  1.00  0.00    -0.363 C  
BRANCH  16  17
HETATM   17  C   UNL     1     -10.977  12.163  66.601  1.00  0.00    -0.282 C  
BRANCH  17  18
HETATM   18  N   UNL     1     -12.073  12.291  65.611  1.00  0.00    -0.578 NA 
HETATM   19  C   UNL     1     -12.655  13.635  65.620  1.00  0.00    -0.484 C  
HETATM   20  C   UNL     1     -11.562  11.981  64.271  1.00  0.00    -0.358 C  
ENDBRANCH  17  18
ENDBRANCH  16  17
ENDBRANCH   7   9
ENDBRANCH   2   3
TORSDOF 4
ENDMDL
MODEL       23
REMARK 921   NORMALIZED FREE ENERGY PREDICTED BY IDOCK:   -4.96 KCAL/MOL
REMARK 922        TOTAL FREE ENERGY PREDICTED BY IDOCK:   -6.97 KCAL/MOL
REMARK 923 INTER-LIGAND FREE ENERGY PREDICTED BY IDOCK:   -6.10 KCAL/MOL
REMARK 924 INTRA-LIGAND FREE ENERGY PREDICTED BY IDOCK:   -0.87 KCAL/MOL
REMARK 927      BINDING AFFINITY PREDICTED BY RF-SCORE:    0.00 PKD
ROOT
HETATM    1  C   UNL     1     -10.465   9.437  67.809  1.00  0.00    -0.254 C  
HETATM    2  O   UNL     1     -10.814   9.389  69.184  1.00  0.00    -0.220 OA 
ENDROOT
BRANCH   2   3
HETATM    3  C   UNL     1     -11.388  10.509  69.724  1.00  0.00    -0.300 A  
HETATM    4  C   UNL     1     -12.121  10.579  70.898  1.00  0.00    -0.487 A  
HETATM    5  C   UNL     1     -12.666  11.801  71.299  1.00  0.00    -0.420 A  
HETATM    6  C   UNL     1     -12.498  12.945  70.510  1.00  0.00    -0.294 A  
HETATM    7  C   UNL     1     -11.775  12.904  69.303  1.00  0.00    -0.378 A  
HETATM    8  C   UNL     1     -11.197  11.671  68.957  1.00  0.00    -0.323 A  
BRANCH   7   9
HETATM    9  C   UNL     1     -11.663  14.168  68.430  1.00  0.00    -0.345 C  
HETATM   10  O   UNL     1     -12.762  14.093  67.505  1.00  0.00    -0.374 OA 
HETATM   11  C   UNL     1     -11.838  15.512  69.182  1.00  0.00    -0.373 C  
HETATM   12  C   UNL     1     -10.629  15.955  70.012  1.00  0.00    -0.320 C  
HETATM   13  H   UNL     1     -12.693  14.873  66.966  1.00  0.00     0.000 HD 
HETATM   14  C   UNL     1      -9.282  15.781  69.318  1.00  0.00    -0.266 C  
HETATM   15  C   UNL     1      -9.149  14.454  68.577  1.00  0.00    -0.193 C  
HETATM   16  C   UNL     1     -10.324  14.199  67.613  1.00  0.00    -0.241 C  
BRANCH  16  17
HETATM   17  C   UNL     1     -10.369  15.237  66.449  1.00  0.00    -0.289 C  
BRANCH  17  18
HETATM   18  N   UNL     1     -11.202  14.867  65.281  1.00  0.00    -0.354 NA 
HETATM   19  C   UNL     1     -11.368  15.990  64.356  1.00  0.00    -0.245 C  
HETATM   20  C   UNL     1     -10.589  13.732  64.580  1.00  0.00    -0.425 C  
ENDBRANCH  17  18
ENDBRANCH  16  17
ENDBRANCH   7   9
ENDBRANCH   2   3
TORSDOF 4
ENDMDL
MODEL       24
REMARK 921   NORMALIZED FREE ENERGY PREDICTED BY IDOCK:   -4.95 KCAL/MOL
REMARK 922        TOTAL FREE ENERGY PREDICTED BY IDOCK:   -6.96 KCAL/MOL
REMARK 923 INTER-LIGAND FREE ENERGY PREDICTED BY IDOCK:   -6.21 KCAL/MOL
REMARK 924 INTRA-LIGAND FREE ENERGY PREDICTED BY IDOCK:   -0.74 KCAL/MOL
REMARK 927      BINDING AFFINITY PREDICTED BY RF-SCORE:    0.00 PKD
ROOT
HETATM    1  C   UNL     1     -10.212  19.685  66.184  1.00  0.00    -0.508 C  
HETATM    2  O   UNL     1     -10.551  18.408  65.665  1.00  0.00    -0.622 OA 
ENDROOT
BRANCH   2   3
HETATM    3  C   UNL     1      -9.805  17.341  66.089  1.00  0.00    -0.253 A  
HETATM    4  C   UNL     1      -8.437  17.323  66.310  1.00  0.00    -0.278 A  
HETATM    5  C   UNL     1      -7.819  16.139  66.719  1.00  0.00    -0.296 A  
HETATM    6  C   UNL     1      -8.569  14.968  66.882  1.00  0.00    -0.280 A  
HETATM    7  C   UNL     1      -9.957  14.948  66.647  1.00  0.00    -0.267 A  
HETATM    8  C   UNL     1     -10.553  16.168  66.288  1.00  0.00    -0.276 A  
BRANCH   7   9
HETATM    9  C   UNL     1     -10.739  13.627  66.775  1.00  0.00    -0.272 C  
HETATM   10  O   UNL     1     -10.549  13.200  68.136  1.00  0.00    -0.231 OA 
HETATM   11  C   UNL     1     -12.273  13.741  66.581  1.00  0.00    -0.454 C  
HETATM   12  C   UNL     1     -12.734  13.895  65.128  1.00  0.00    -0.434 C  
HETATM   13  H   UNL     1     -11.031  12.385  68.215  1.00  0.00     0.000 HD 
HETATM   14  C   UNL     1     -12.030  12.977  64.135  1.00  0.00    -0.494 C  
HETATM   15  C   UNL     1     -10.525  12.877  64.364  1.00  0.00    -0.419 C  
HETATM   16  C   UNL     1     -10.175  12.517  65.820  1.00  0.00    -0.289 C  
BRANCH  16  17
HETATM   17  C   UNL     1     -10.674  11.092  66.214  1.00  0.00    -0.240 C  
BRANCH  17  18
HETATM   18  N   UNL     1      -9.684  10.221  66.888  1.00  0.00    -0.179 NA 
HETATM   19  C   UNL     1      -9.863   8.814  66.523  1.00  0.00    -0.279 C  
HETATM   20  C   UNL     1      -8.327  10.656  66.537  1.00  0.00    -0.143 C  
ENDBRANCH  17  18
ENDBRANCH  16  17
ENDBRANCH   7   9
ENDBRANCH   2   3
TORSDOF 4
ENDMDL
MODEL       25
REMARK 921   NORMALIZED FREE ENERGY PREDICTED BY IDOCK:   -4.93 KCAL/MOL
REMARK 922        TOTAL FREE ENERGY PREDICTED BY IDOCK:   -6.93 KCAL/MOL
REMARK 923 INTER-LIGAND FREE ENERGY PREDICTED BY IDOCK:   -6.19 KCAL/MOL
REMARK 924 INTRA-LIGAND FREE ENERGY PREDICTED BY IDOCK:   -0.74 KCAL/MOL
REMARK 927      BINDING AFFINITY PREDICTED BY RF-SCORE:    0.00 PKD
ROOT
HETATM    1  C   UNL     1     -11.062   6.589  67.229  1.00  0.00    -0.350 C  
HETATM    2  O   UNL     1     -10.350   7.664  66.636  1.00  0.00    -0.273 OA 
ENDROOT
BRANCH   2   3
HETATM    3  C   UNL     1     -10.532   8.909  67.176  1.00  0.00    -0.274 A  
HETATM    4  C   UNL     1     -10.984   9.199  68.453  1.00  0.00    -0.001 A  
HETATM    5  C   UNL     1     -11.141  10.531  68.844  1.00  0.00    -0.312 A  
HETATM    6  C   UNL     1     -10.868  11.570  67.947  1.00  0.00    -0.257 A  
HETATM    7  C   UNL     1     -10.425  11.309  66.636  1.00  0.00    -0.292 A  
HETATM    8  C   UNL     1     -10.229   9.960  66.294  1.00  0.00    -0.282 A  
BRANCH   7   9
HETATM    9  C   UNL     1     -10.195  12.475  65.656  1.00  0.00    -0.267 C  
HETATM   10  O   UNL     1      -8.929  13.046  66.030  1.00  0.00    -0.435 OA 
HETATM   11  C   UNL     1     -10.051  12.072  64.166  1.00  0.00    -0.340 C  
HETATM   12  C   UNL     1     -11.361  11.711  63.460  1.00  0.00    -0.447 C  
HETATM   13  H   UNL     1      -8.788  13.765  65.426  1.00  0.00     0.000 HD 
HETATM   14  C   UNL     1     -12.525  12.651  63.758  1.00  0.00    -0.514 C  
HETATM   15  C   UNL     1     -12.630  13.037  65.230  1.00  0.00    -0.516 C  
HETATM   16  C   UNL     1     -11.301  13.580  65.791  1.00  0.00    -0.318 C  
BRANCH  16  17
HETATM   17  C   UNL     1     -10.878  14.921  65.115  1.00  0.00    -0.414 C  
BRANCH  17  18
HETATM   18  N   UNL     1     -10.572  16.042  66.034  1.00  0.00    -0.328 NA 
HETATM   19  C   UNL     1     -10.988  15.746  67.407  1.00  0.00    -0.279 C  
HETATM   20  C   UNL     1      -9.133  16.325  66.002  1.00  0.00    -0.297 C  
ENDBRANCH  17  18
ENDBRANCH  16  17
ENDBRANCH   7   9
ENDBRANCH   2   3
TORSDOF 4
ENDMDL
MODEL       26
REMARK 921   NORMALIZED FREE ENERGY PREDICTED BY IDOCK:   -4.93 KCAL/MOL
REMARK 922        TOTAL FREE ENERGY PREDICTED BY IDOCK:   -6.93 KCAL/MOL
REMARK 923 INTER-LIGAND FREE ENERGY PREDICTED BY IDOCK:   -6.07 KCAL/MOL
REMARK 924 INTRA-LIGAND FREE ENERGY PREDICTED BY IDOCK:   -0.86 KCAL/MOL
REMARK 927      BINDING AFFINITY PREDICTED BY RF-SCORE:    0.00 PKD
ROOT
HETATM    1  C   UNL     1     -12.648  15.606  73.533  1.00  0.00    -0.557 C  
HETATM    2  O   UNL     1     -12.374  16.215  72.279  1.00  0.00    -0.473 OA 
ENDROOT
BRANCH   2   3
HETATM    3  C   UNL     1     -12.029  15.388  71.244  1.00  0.00    -0.374 A  
HETATM    4  C   UNL     1     -12.575  14.147  70.959  1.00  0.00    -0.439 A  
HETATM    5  C   UNL     1     -12.089  13.412  69.874  1.00  0.00    -0.389 A  
HETATM    6  C   UNL     1     -11.041  13.911  69.092  1.00  0.00    -0.284 A  
HETATM    7  C   UNL     1     -10.452  15.161  69.367  1.00  0.00    -0.259 A  
HETATM    8  C   UNL     1     -11.000  15.895  70.432  1.00  0.00    -0.361 A  
BRANCH   7   9
HETATM    9  C   UNL     1      -9.259  15.650  68.524  1.00  0.00    -0.197 C  
HETATM   10  O   UNL     1      -8.086  15.292  69.276  1.00  0.00    -0.207 OA 
HETATM   11  C   UNL     1      -9.098  14.965  67.142  1.00  0.00    -0.236 C  
HETATM   12  C   UNL     1     -10.078  15.438  66.064  1.00  0.00    -0.346 C  
HETATM   13  H   UNL     1      -7.351  15.593  68.756  1.00  0.00     0.000 HD 
HETATM   14  C   UNL     1     -10.286  16.948  66.009  1.00  0.00    -0.350 C  
HETATM   15  C   UNL     1     -10.428  17.590  67.386  1.00  0.00    -0.342 C  
HETATM   16  C   UNL     1      -9.275  17.207  68.334  1.00  0.00    -0.266 C  
BRANCH  16  17
HETATM   17  C   UNL     1      -7.899  17.754  67.843  1.00  0.00    -0.231 C  
BRANCH  17  18
HETATM   18  N   UNL     1      -6.901  18.044  68.900  1.00  0.00    -0.248 NA 
HETATM   19  C   UNL     1      -5.552  17.644  68.495  1.00  0.00    -0.165 C  
HETATM   20  C   UNL     1      -6.921  19.477  69.213  1.00  0.00    -0.350 C  
ENDBRANCH  17  18
ENDBRANCH  16  17
ENDBRANCH   7   9
ENDBRANCH   2   3
TORSDOF 4
ENDMDL
MODEL       27
REMARK 921   NORMALIZED FREE ENERGY PREDICTED BY IDOCK:   -4.93 KCAL/MOL
REMARK 922        TOTAL FREE ENERGY PREDICTED BY IDOCK:   -6.93 KCAL/MOL
REMARK 923 INTER-LIGAND FREE ENERGY PREDICTED BY IDOCK:   -6.85 KCAL/MOL
REMARK 924 INTRA-LIGAND FREE ENERGY PREDICTED BY IDOCK:   -0.07 KCAL/MOL
REMARK 927      BINDING AFFINITY PREDICTED BY RF-SCORE:    0.00 PKD
ROOT
HETATM    1  C   UNL     1     -10.915  17.215  65.104  1.00  0.00     0.048 C  
HETATM    2  O   UNL     1     -11.495  16.343  64.146  1.00  0.00    -0.951 OA 
ENDROOT
BRANCH   2   3
HETATM    3  C   UNL     1     -11.691  15.041  64.521  1.00  0.00    -0.368 A  
HETATM    4  C   UNL     1     -12.150  14.009  63.719  1.00  0.00    -0.265 A  
HETATM    5  C   UNL     1     -12.322  12.734  64.266  1.00  0.00    -0.493 A  
HETATM    6  C   UNL     1     -12.058  12.503  65.620  1.00  0.00    -0.464 A  
HETATM    7  C   UNL     1     -11.608  13.535  66.467  1.00  0.00    -0.391 A  
HETATM    8  C   UNL     1     -11.396  14.790  65.872  1.00  0.00    -0.331 A  
BRANCH   7   9
HETATM    9  C   UNL     1     -11.388  13.258  67.966  1.00  0.00    -0.291 C  
HETATM   10  O   UNL     1     -12.020  11.990  68.218  1.00  0.00    -0.426 OA 
HETATM   11  C   UNL     1      -9.909  13.084  68.399  1.00  0.00    -0.203 C  
HETATM   12  C   UNL     1      -9.105  14.383  68.501  1.00  0.00    -0.193 C  
HETATM   13  H   UNL     1     -11.884  11.819  69.142  1.00  0.00     0.000 HD 
HETATM   14  C   UNL     1      -9.839  15.535  69.180  1.00  0.00    -0.246 C  
HETATM   15  C   UNL     1     -11.294  15.669  68.740  1.00  0.00    -0.351 C  
HETATM   16  C   UNL     1     -12.070  14.344  68.869  1.00  0.00    -0.288 C  
BRANCH  16  17
HETATM   17  C   UNL     1     -12.203  13.878  70.352  1.00  0.00    -0.368 C  
BRANCH  17  18
HETATM   18  N   UNL     1     -12.924  14.801  71.260  1.00  0.00    -0.324 NA 
HETATM   19  C   UNL     1     -14.013  14.124  71.966  1.00  0.00    -0.513 C  
HETATM   20  C   UNL     1     -11.981  15.370  72.230  1.00  0.00    -0.438 C  
ENDBRANCH  17  18
ENDBRANCH  16  17
ENDBRANCH   7   9
ENDBRANCH   2   3
TORSDOF 4
ENDMDL
MODEL       28
REMARK 921   NORMALIZED FREE ENERGY PREDICTED BY IDOCK:   -4.87 KCAL/MOL
REMARK 922        TOTAL FREE ENERGY PREDICTED BY IDOCK:   -6.86 KCAL/MOL
REMARK 923 INTER-LIGAND FREE ENERGY PREDICTED BY IDOCK:   -6.21 KCAL/MOL
REMARK 924 INTRA-LIGAND FREE ENERGY PREDICTED BY IDOCK:   -0.64 KCAL/MOL
REMARK 927      BINDING AFFINITY PREDICTED BY RF-SCORE:    0.00 PKD
ROOT
HETATM    1  C   UNL     1     -13.553   9.407  72.247  1.00  0.00    -0.462 C  
HETATM    2  O   UNL     1     -12.809  10.575  71.932  1.00  0.00    -0.444 OA 
ENDROOT
BRANCH   2   3
HETATM    3  C   UNL     1     -11.898  10.481  70.914  1.00  0.00    -0.355 A  
HETATM    4  C   UNL     1     -10.830   9.601  70.837  1.00  0.00    -0.409 A  
HETATM    5  C   UNL     1      -9.972   9.652  69.736  1.00  0.00    -0.252 A  
HETATM    6  C   UNL     1     -10.170  10.600  68.726  1.00  0.00    -0.204 A  
HETATM    7  C   UNL     1     -11.235  11.521  68.783  1.00  0.00    -0.309 A  
HETATM    8  C   UNL     1     -12.108  11.407  69.878  1.00  0.00    -0.404 A  
BRANCH   7   9
HETATM    9  C   UNL     1     -11.385  12.591  67.685  1.00  0.00    -0.306 C  
HETATM   10  O   UNL     1     -12.396  12.086  66.795  1.00  0.00    -0.340 OA 
HETATM   11  C   UNL     1     -11.900  13.971  68.169  1.00  0.00    -0.402 C  
HETATM   12  C   UNL     1     -10.864  14.834  68.895  1.00  0.00    -0.259 C  
HETATM   13  H   UNL     1     -12.489  12.746  66.118  1.00  0.00     0.000 HD 
HETATM   14  C   UNL     1      -9.486  14.859  68.242  1.00  0.00    -0.210 C  
HETATM   15  C   UNL     1      -9.016  13.487  67.767  1.00  0.00    -0.201 C  
HETATM   16  C   UNL     1     -10.057  12.787  66.873  1.00  0.00    -0.234 C  
BRANCH  16  17
HETATM   17  C   UNL     1     -10.294  13.550  65.532  1.00  0.00    -0.300 C  
BRANCH  17  18
HETATM   18  N   UNL     1     -10.234  12.730  64.300  1.00  0.00    -0.358 NA 
HETATM   19  C   UNL     1      -9.807  11.358  64.583  1.00  0.00    -0.259 C  
HETATM   20  C   UNL     1     -11.551  12.717  63.653  1.00  0.00    -0.506 C  
ENDBRANCH  17  18
ENDBRANCH  16  17
ENDBRANCH   7   9
ENDBRANCH   2   3
TORSDOF 4
ENDMDL
MODEL       29
REMARK 921   NORMALIZED FREE ENERGY PREDICTED BY IDOCK:   -4.86 KCAL/MOL
REMARK 922        TOTAL FREE ENERGY PREDICTED BY IDOCK:   -6.84 KCAL/MOL
REMARK 923 INTER-LIGAND FREE ENERGY PREDICTED BY IDOCK:   -6.25 KCAL/MOL
REMARK 924 INTRA-LIGAND FREE ENERGY PREDICTED BY IDOCK:   -0.59 KCAL/MOL
REMARK 927      BINDING AFFINITY PREDICTED BY RF-SCORE:    0.00 PKD
ROOT
HETATM    1  C   UNL     1     -13.519   9.446  72.174  1.00  0.00    -0.471 C  
HETATM    2  O   UNL     1     -12.981  10.737  71.924  1.00  0.00    -0.462 OA 
ENDROOT
BRANCH   2   3
HETATM    3  C   UNL     1     -12.119  10.862  70.868  1.00  0.00    -0.349 A  
HETATM    4  C   UNL     1     -11.141   9.958  70.487  1.00  0.00    -0.398 A  
HETATM    5  C   UNL     1     -10.320  10.250  69.394  1.00  0.00    -0.256 A  
HETATM    6  C   UNL     1     -10.463  11.458  68.702  1.00  0.00    -0.224 A  
HETATM    7  C   UNL     1     -11.435  12.406  69.076  1.00  0.00    -0.352 A  
HETATM    8  C   UNL     1     -12.277  12.057  70.146  1.00  0.00    -0.309 A  
BRANCH   7   9
HETATM    9  C   UNL     1     -11.522  13.752  68.331  1.00  0.00    -0.316 C  
HETATM   10  O   UNL     1     -12.606  13.602  67.397  1.00  0.00    -0.297 OA 
HETATM   11  C   UNL     1     -11.890  14.975  69.210  1.00  0.00    -0.344 C  
HETATM   12  C   UNL     1     -10.754  15.512  70.085  1.00  0.00    -0.345 C  
HETATM   13  H   UNL     1     -12.660  14.432  66.937  1.00  0.00     0.000 HD 
HETATM   14  C   UNL     1      -9.403  15.611  69.385  1.00  0.00    -0.279 C  
HETATM   15  C   UNL     1      -9.079  14.397  68.520  1.00  0.00    -0.193 C  
HETATM   16  C   UNL     1     -10.210  14.063  67.529  1.00  0.00    -0.244 C  
BRANCH  16  17
HETATM   17  C   UNL     1     -10.421  15.190  66.471  1.00  0.00    -0.291 C  
BRANCH  17  18
HETATM   18  N   UNL     1     -10.570  14.742  65.066  1.00  0.00    -0.414 NA 
HETATM   19  C   UNL     1     -10.316  13.307  64.926  1.00  0.00    -0.351 C  
HETATM   20  C   UNL     1     -11.924  15.055  64.592  1.00  0.00    -0.358 C  
ENDBRANCH  17  18
ENDBRANCH  16  17
ENDBRANCH   7   9
ENDBRANCH   2   3
TORSDOF 4
ENDMDL
MODEL       30
REMARK 921   NORMALIZED FREE ENERGY PREDICTED BY IDOCK:   -4.85 KCAL/MOL
REMARK 922        TOTAL FREE ENERGY PREDICTED BY IDOCK:   -6.83 KCAL/MOL
REMARK 923 INTER-LIGAND FREE ENERGY PREDICTED BY IDOCK:   -5.95 KCAL/MOL
REMARK 924 INTRA-LIGAND FREE ENERGY PREDICTED BY IDOCK:   -0.88 KCAL/MOL
REMARK 927      BINDING AFFINITY PREDICTED BY RF-SCORE:    0.00 PKD
ROOT
HETATM    1  C   UNL     1     -11.696  12.270  69.128  1.00  0.00    -0.323 C  
HETATM    2  O   UNL     1     -11.936  11.980  67.759  1.00  0.00    -0.538 OA 
ENDROOT
BRANCH   2   3
HETATM    3  C   UNL     1     -11.755  12.998  66.862  1.00  0.00    -0.383 A  
HETATM    4  C   UNL     1     -12.408  13.159  65.650  1.00  0.00    -0.519 A  
HETATM    5  C   UNL     1     -12.087  14.246  64.833  1.00  0.00    -0.442 A  
HETATM    6  C   UNL     1     -11.096  15.155  65.219  1.00  0.00    -0.389 A  
HETATM    7  C   UNL     1     -10.401  15.010  66.435  1.00  0.00    -0.293 A  
HETATM    8  C   UNL     1     -10.786  13.936  67.256  1.00  0.00    -0.286 A  
BRANCH   7   9
HETATM    9  C   UNL     1      -9.273  15.994  66.799  1.00  0.00    -0.240 C  
HETATM   10  O   UNL     1      -8.052  15.336  66.415  1.00  0.00    -0.335 OA 
HETATM   11  C   UNL     1      -9.288  17.337  66.024  1.00  0.00    -0.128 C  
HETATM   12  C   UNL     1     -10.344  18.344  66.491  1.00  0.00    -0.426 C  
HETATM   13  H   UNL     1      -7.357  15.943  66.639  1.00  0.00     0.000 HD 
HETATM   14  C   UNL     1     -10.472  18.477  68.005  1.00  0.00    -0.395 C  
HETATM   15  C   UNL     1     -10.440  17.138  68.735  1.00  0.00    -0.351 C  
HETATM   16  C   UNL     1      -9.222  16.282  68.340  1.00  0.00    -0.203 C  
BRANCH  16  17
HETATM   17  C   UNL     1      -7.873  16.939  68.771  1.00  0.00    -0.250 C  
BRANCH  17  18
HETATM   18  N   UNL     1      -6.697  16.038  68.810  1.00  0.00    -0.123 NA 
HETATM   19  C   UNL     1      -5.467  16.767  69.130  1.00  0.00    -0.141 C  
HETATM   20  C   UNL     1      -6.920  14.981  69.803  1.00  0.00    -0.182 C  
ENDBRANCH  17  18
ENDBRANCH  16  17
ENDBRANCH   7   9
ENDBRANCH   2   3
TORSDOF 4
ENDMDL
MODEL       31
REMARK 921   NORMALIZED FREE ENERGY PREDICTED BY IDOCK:   -4.83 KCAL/MOL
REMARK 922        TOTAL FREE ENERGY PREDICTED BY IDOCK:   -6.80 KCAL/MOL
REMARK 923 INTER-LIGAND FREE ENERGY PREDICTED BY IDOCK:   -5.93 KCAL/MOL
REMARK 924 INTRA-LIGAND FREE ENERGY PREDICTED BY IDOCK:   -0.87 KCAL/MOL
REMARK 927      BINDING AFFINITY PREDICTED BY RF-SCORE:    0.00 PKD
ROOT
HETATM    1  C   UNL     1     -12.729  14.330  65.691  1.00  0.00    -0.373 C  
HETATM    2  O   UNL     1     -12.942  13.169  64.903  1.00  0.00    -0.734 OA 
ENDROOT
BRANCH   2   3
HETATM    3  C   UNL     1     -11.875  12.331  64.720  1.00  0.00    -0.364 A  
HETATM    4  C   UNL     1     -11.251  12.037  63.518  1.00  0.00    -0.526 A  
HETATM    5  C   UNL     1     -10.184  11.135  63.498  1.00  0.00    -0.446 A  
HETATM    6  C   UNL     1      -9.760  10.511  64.676  1.00  0.00    -0.369 A  
HETATM    7  C   UNL     1     -10.385  10.774  65.911  1.00  0.00    -0.302 A  
HETATM    8  C   UNL     1     -11.420  11.724  65.903  1.00  0.00    -0.273 A  
BRANCH   7   9
HETATM    9  C   UNL     1      -9.934  10.021  67.177  1.00  0.00    -0.201 C  
HETATM   10  O   UNL     1     -10.929   9.004  67.393  1.00  0.00    -0.444 OA 
HETATM   11  C   UNL     1      -8.583   9.269  67.056  1.00  0.00    -0.128 C  
HETATM   12  C   UNL     1      -7.337  10.157  67.116  1.00  0.00    -0.091 C  
HETATM   13  H   UNL     1     -10.650   8.540  68.173  1.00  0.00     0.000 HD 
HETATM   14  C   UNL     1      -7.375  11.235  68.195  1.00  0.00    -0.088 C  
HETATM   15  C   UNL     1      -8.722  11.945  68.294  1.00  0.00    -0.170 C  
HETATM   16  C   UNL     1      -9.897  10.959  68.434  1.00  0.00    -0.183 C  
BRANCH  16  17
HETATM   17  C   UNL     1      -9.837  10.152  69.768  1.00  0.00    -0.208 C  
BRANCH  17  18
HETATM   18  N   UNL     1     -11.142   9.824  70.388  1.00  0.00    -0.283 NA 
HETATM   19  C   UNL     1     -10.976   9.170  71.687  1.00  0.00    -0.374 C  
HETATM   20  C   UNL     1     -11.931  11.051  70.547  1.00  0.00    -0.379 C  
ENDBRANCH  17  18
ENDBRANCH  16  17
ENDBRANCH   7   9
ENDBRANCH   2   3
TORSDOF 4
ENDMDL
MODEL       32
REMARK 921   NORMALIZED FREE ENERGY PREDICTED BY IDOCK:   -4.79 KCAL/MOL
REMARK 922        TOTAL FREE ENERGY PREDICTED BY IDOCK:   -6.75 KCAL/MOL
REMARK 923 INTER-LIGAND FREE ENERGY PREDICTED BY IDOCK:   -5.91 KCAL/MOL
REMARK 924 INTRA-LIGAND FREE ENERGY PREDICTED BY IDOCK:   -0.84 KCAL/MOL
REMARK 927      BINDING AFFINITY PREDICTED BY RF-SCORE:    0.00 PKD
ROOT
HETATM    1  C   UNL     1     -10.374   8.453  67.593  1.00  0.00    -0.252 C  
HETATM    2  O   UNL     1     -10.872   8.806  68.875  1.00  0.00    -0.143 OA 
ENDROOT
BRANCH   2   3
HETATM    3  C   UNL     1     -11.142  10.129  69.100  1.00  0.00    -0.212 A  
HETATM    4  C   UNL     1     -11.888  10.656  70.142  1.00  0.00    -0.421 A  
HETATM    5  C   UNL     1     -12.095  12.036  70.214  1.00  0.00    -0.395 A  
HETATM    6  C   UNL     1     -11.575  12.883  69.229  1.00  0.00    -0.368 A  
HETATM    7  C   UNL     1     -10.828  12.377  68.147  1.00  0.00    -0.250 A  
HETATM    8  C   UNL     1     -10.596  10.992  68.135  1.00  0.00    -0.226 A  
BRANCH   7   9
HETATM    9  C   UNL     1     -10.324  13.332  67.048  1.00  0.00    -0.246 C  
HETATM   10  O   UNL     1      -9.122  13.922  67.575  1.00  0.00    -0.184 OA 
HETATM   11  C   UNL     1      -9.911  12.654  65.717  1.00  0.00    -0.266 C  
HETATM   12  C   UNL     1     -11.075  12.210  64.825  1.00  0.00    -0.364 C  
HETATM   13  H   UNL     1      -8.812  14.511  66.897  1.00  0.00     0.000 HD 
HETATM   14  C   UNL     1     -12.205  13.226  64.701  1.00  0.00    -0.460 C  
HETATM   15  C   UNL     1     -12.577  13.883  66.027  1.00  0.00    -0.467 C  
HETATM   16  C   UNL     1     -11.354  14.478  66.751  1.00  0.00    -0.358 C  
BRANCH  16  17
HETATM   17  C   UNL     1     -10.710  15.656  65.955  1.00  0.00    -0.329 C  
BRANCH  17  18
HETATM   18  N   UNL     1     -10.211  16.791  66.766  1.00  0.00    -0.297 NA 
HETATM   19  C   UNL     1     -10.413  18.072  66.086  1.00  0.00    -0.331 C  
HETATM   20  C   UNL     1     -10.895  16.804  68.064  1.00  0.00    -0.341 C  
ENDBRANCH  17  18
ENDBRANCH  16  17
ENDBRANCH   7   9
ENDBRANCH   2   3
TORSDOF 4
ENDMDL
MODEL       33
REMARK 921   NORMALIZED FREE ENERGY PREDICTED BY IDOCK:   -4.79 KCAL/MOL
REMARK 922        TOTAL FREE ENERGY PREDICTED BY IDOCK:   -6.75 KCAL/MOL
REMARK 923 INTER-LIGAND FREE ENERGY PREDICTED BY IDOCK:   -6.04 KCAL/MOL
REMARK 924 INTRA-LIGAND FREE ENERGY PREDICTED BY IDOCK:   -0.71 KCAL/MOL
REMARK 927      BINDING AFFINITY PREDICTED BY RF-SCORE:    0.00 PKD
ROOT
HETATM    1  C   UNL     1     -10.104  19.661  66.102  1.00  0.00    -0.480 C  
HETATM    2  O   UNL     1     -10.287  18.284  65.806  1.00  0.00    -0.594 OA 
ENDROOT
BRANCH   2   3
HETATM    3  C   UNL     1      -9.980  17.385  66.793  1.00  0.00    -0.307 A  
HETATM    4  C   UNL     1      -8.905  17.449  67.664  1.00  0.00    -0.225 A  
HETATM    5  C   UNL     1      -8.716  16.430  68.602  1.00  0.00    -0.234 A  
HETATM    6  C   UNL     1      -9.590  15.338  68.648  1.00  0.00    -0.206 A  
HETATM    7  C   UNL     1     -10.681  15.234  67.764  1.00  0.00    -0.286 A  
HETATM    8  C   UNL     1     -10.871  16.301  66.870  1.00  0.00    -0.151 A  
BRANCH   7   9
HETATM    9  C   UNL     1     -11.585  13.988  67.802  1.00  0.00    -0.345 C  
HETATM   10  O   UNL     1     -12.519  14.225  68.871  1.00  0.00    -0.563 OA 
HETATM   11  C   UNL     1     -12.447  13.753  66.535  1.00  0.00    -0.356 C  
HETATM   12  C   UNL     1     -11.689  13.190  65.329  1.00  0.00    -0.375 C  
HETATM   13  H   UNL     1     -13.076  13.456  68.894  1.00  0.00     0.000 HD 
HETATM   14  C   UNL     1     -10.715  12.064  65.658  1.00  0.00    -0.313 C  
HETATM   15  C   UNL     1      -9.893  12.322  66.917  1.00  0.00    -0.216 C  
HETATM   16  C   UNL     1     -10.773  12.685  68.128  1.00  0.00    -0.242 C  
BRANCH  16  17
HETATM   17  C   UNL     1     -11.700  11.507  68.561  1.00  0.00    -0.313 C  
BRANCH  17  18
HETATM   18  N   UNL     1     -11.660  11.144  69.997  1.00  0.00    -0.321 NA 
HETATM   19  C   UNL     1     -12.968  10.693  70.478  1.00  0.00    -0.205 C  
HETATM   20  C   UNL     1     -10.663  10.088  70.209  1.00  0.00    -0.309 C  
ENDBRANCH  17  18
ENDBRANCH  16  17
ENDBRANCH   7   9
ENDBRANCH   2   3
TORSDOF 4
ENDMDL
MODEL       34
REMARK 921   NORMALIZED FREE ENERGY PREDICTED BY IDOCK:   -4.78 KCAL/MOL
REMARK 922        TOTAL FREE ENERGY PREDICTED BY IDOCK:   -6.74 KCAL/MOL
REMARK 923 INTER-LIGAND FREE ENERGY PREDICTED BY IDOCK:   -5.98 KCAL/MOL
REMARK 924 INTRA-LIGAND FREE ENERGY PREDICTED BY IDOCK:   -0.76 KCAL/MOL
REMARK 927      BINDING AFFINITY PREDICTED BY RF-SCORE:    0.00 PKD
ROOT
HETATM    1  C   UNL     1      -9.148   7.979  72.914  1.00  0.00    -0.248 C  
HETATM    2  O   UNL     1     -10.534   7.741  72.716  1.00  0.00    -0.271 OA 
ENDROOT
BRANCH   2   3
HETATM    3  C   UNL     1     -11.251   8.712  72.070  1.00  0.00    -0.364 A  
HETATM    4  C   UNL     1     -12.569   9.064  72.309  1.00  0.00    -0.445 A  
HETATM    5  C   UNL     1     -13.167  10.065  71.539  1.00  0.00    -0.497 A  
HETATM    6  C   UNL     1     -12.450  10.693  70.514  1.00  0.00    -0.445 A  
HETATM    7  C   UNL     1     -11.115  10.345  70.233  1.00  0.00    -0.379 A  
HETATM    8  C   UNL     1     -10.530   9.372  71.061  1.00  0.00    -0.392 A  
BRANCH   7   9
HETATM    9  C   UNL     1     -10.378  11.013  69.056  1.00  0.00    -0.209 C  
HETATM   10  O   UNL     1     -10.465  12.428  69.304  1.00  0.00    -0.428 OA 
HETATM   11  C   UNL     1      -8.863  10.696  68.956  1.00  0.00    -0.154 C  
HETATM   12  C   UNL     1      -8.525   9.308  68.405  1.00  0.00    -0.120 C  
HETATM   13  H   UNL     1     -10.010  12.839  68.578  1.00  0.00     0.000 HD 
HETATM   14  C   UNL     1      -9.349   8.886  67.192  1.00  0.00    -0.182 C  
HETATM   15  C   UNL     1     -10.831   9.224  67.320  1.00  0.00    -0.140 C  
HETATM   16  C   UNL     1     -11.067  10.703  67.682  1.00  0.00    -0.385 C  
BRANCH  16  17
HETATM   17  C   UNL     1     -10.591  11.671  66.554  1.00  0.00    -0.253 C  
BRANCH  17  18
HETATM   18  N   UNL     1     -11.355  12.933  66.417  1.00  0.00    -0.304 NA 
HETATM   19  C   UNL     1     -10.480  14.064  66.103  1.00  0.00    -0.297 C  
HETATM   20  C   UNL     1     -12.369  12.782  65.367  1.00  0.00    -0.470 C  
ENDBRANCH  17  18
ENDBRANCH  16  17
ENDBRANCH   7   9
ENDBRANCH   2   3
TORSDOF 4
ENDMDL
MODEL       35
REMARK 921   NORMALIZED FREE ENERGY PREDICTED BY IDOCK:   -4.77 KCAL/MOL
REMARK 922        TOTAL FREE ENERGY PREDICTED BY IDOCK:   -6.74 KCAL/MOL
REMARK 923 INTER-LIGAND FREE ENERGY PREDICTED BY IDOCK:   -6.01 KCAL/MOL
REMARK 924 INTRA-LIGAND FREE ENERGY PREDICTED BY IDOCK:   -0.73 KCAL/MOL
REMARK 927      BINDING AFFINITY PREDICTED BY RF-SCORE:    0.00 PKD
ROOT
HETATM    1  C   UNL     1     -12.290   9.467  71.665  1.00  0.00    -0.385 C  
HETATM    2  O   UNL     1     -13.295  10.403  71.308  1.00  0.00    -0.343 OA 
ENDROOT
BRANCH   2   3
HETATM    3  C   UNL     1     -12.898  11.694  71.085  1.00  0.00    -0.294 A  
HETATM    4  C   UNL     1     -13.330  12.821  71.766  1.00  0.00    -0.436 A  
HETATM    5  C   UNL     1     -12.845  14.079  71.396  1.00  0.00    -0.434 A  
HETATM    6  C   UNL     1     -11.948  14.207  70.330  1.00  0.00    -0.404 A  
HETATM    7  C   UNL     1     -11.504  13.083  69.606  1.00  0.00    -0.253 A  
HETATM    8  C   UNL     1     -11.972  11.831  70.038  1.00  0.00    -0.421 A  
BRANCH   7   9
HETATM    9  C   UNL     1     -10.566  13.268  68.399  1.00  0.00    -0.252 C  
HETATM   10  O   UNL     1      -9.234  13.110  68.921  1.00  0.00    -0.387 OA 
HETATM   11  C   UNL     1     -10.707  12.206  67.278  1.00  0.00    -0.264 C  
HETATM   12  C   UNL     1     -11.933  12.373  66.375  1.00  0.00    -0.346 C  
HETATM   13  H   UNL     1      -8.656  13.224  68.176  1.00  0.00     0.000 HD 
HETATM   14  C   UNL     1     -12.210  13.807  65.936  1.00  0.00    -0.501 C  
HETATM   15  C   UNL     1     -12.049  14.827  67.060  1.00  0.00    -0.120 C  
HETATM   16  C   UNL     1     -10.690  14.703  67.775  1.00  0.00    -0.265 C  
BRANCH  16  17
HETATM   17  C   UNL     1      -9.493  15.041  66.833  1.00  0.00    -0.238 C  
BRANCH  17  18
HETATM   18  N   UNL     1      -8.468  15.955  67.389  1.00  0.00    -0.167 NA 
HETATM   19  C   UNL     1      -7.675  16.586  66.332  1.00  0.00    -0.259 C  
HETATM   20  C   UNL     1      -9.122  16.987  68.203  1.00  0.00    -0.237 C  
ENDBRANCH  17  18
ENDBRANCH  16  17
ENDBRANCH   7   9
ENDBRANCH   2   3
TORSDOF 4
ENDMDL
MODEL       36
REMARK 921   NORMALIZED FREE ENERGY PREDICTED BY IDOCK:   -4.77 KCAL/MOL
REMARK 922        TOTAL FREE ENERGY PREDICTED BY IDOCK:   -6.73 KCAL/MOL
REMARK 923 INTER-LIGAND FREE ENERGY PREDICTED BY IDOCK:   -5.95 KCAL/MOL
REMARK 924 INTRA-LIGAND FREE ENERGY PREDICTED BY IDOCK:   -0.78 KCAL/MOL
REMARK 927      BINDING AFFINITY PREDICTED BY RF-SCORE:    0.00 PKD
ROOT
HETATM    1  C   UNL     1     -13.486   9.363  72.097  1.00  0.00    -0.471 C  
HETATM    2  O   UNL     1     -13.166  10.306  71.084  1.00  0.00    -0.381 OA 
ENDROOT
BRANCH   2   3
HETATM    3  C   UNL     1     -11.914  10.235  70.535  1.00  0.00    -0.323 A  
HETATM    4  C   UNL     1     -10.953   9.271  70.790  1.00  0.00    -0.349 A  
HETATM    5  C   UNL     1      -9.706   9.357  70.164  1.00  0.00    -0.274 A  
HETATM    6  C   UNL     1      -9.418  10.423  69.304  1.00  0.00    -0.214 A  
HETATM    7  C   UNL     1     -10.366  11.429  69.038  1.00  0.00    -0.166 A  
HETATM    8  C   UNL     1     -11.626  11.283  69.644  1.00  0.00    -0.401 A  
BRANCH   7   9
HETATM    9  C   UNL     1      -9.992  12.620  68.136  1.00  0.00    -0.225 C  
HETATM   10  O   UNL     1      -9.208  13.497  68.965  1.00  0.00    -0.382 OA 
HETATM   11  C   UNL     1      -9.092  12.275  66.921  1.00  0.00    -0.208 C  
HETATM   12  C   UNL     1      -9.811  11.592  65.754  1.00  0.00    -0.266 C  
HETATM   13  H   UNL     1      -8.977  14.231  68.408  1.00  0.00     0.000 HD 
HETATM   14  C   UNL     1     -11.164  12.197  65.396  1.00  0.00    -0.381 C  
HETATM   15  C   UNL     1     -12.017  12.536  66.615  1.00  0.00    -0.351 C  
HETATM   16  C   UNL     1     -11.259  13.401  67.640  1.00  0.00    -0.302 C  
BRANCH  16  17
HETATM   17  C   UNL     1     -10.898  14.809  67.074  1.00  0.00    -0.315 C  
BRANCH  17  18
HETATM   18  N   UNL     1     -10.708  15.883  68.078  1.00  0.00    -0.291 NA 
HETATM   19  C   UNL     1     -10.519  17.189  67.444  1.00  0.00    -0.334 C  
HETATM   20  C   UNL     1     -11.871  15.929  68.972  1.00  0.00    -0.318 C  
ENDBRANCH  17  18
ENDBRANCH  16  17
ENDBRANCH   7   9
ENDBRANCH   2   3
TORSDOF 4
ENDMDL
MODEL       37
REMARK 921   NORMALIZED FREE ENERGY PREDICTED BY IDOCK:   -4.73 KCAL/MOL
REMARK 922        TOTAL FREE ENERGY PREDICTED BY IDOCK:   -6.68 KCAL/MOL
REMARK 923 INTER-LIGAND FREE ENERGY PREDICTED BY IDOCK:   -5.96 KCAL/MOL
REMARK 924 INTRA-LIGAND FREE ENERGY PREDICTED BY IDOCK:   -0.72 KCAL/MOL
REMARK 927      BINDING AFFINITY PREDICTED BY RF-SCORE:    0.00 PKD
ROOT
HETATM    1  C   UNL     1     -13.056  15.415  71.151  1.00  0.00    -0.498 C  
HETATM    2  O   UNL     1     -12.395  14.567  70.223  1.00  0.00    -0.316 OA 
ENDROOT
BRANCH   2   3
HETATM    3  C   UNL     1     -12.409  13.223  70.483  1.00  0.00    -0.316 A  
HETATM    4  C   UNL     1     -13.014  12.594  71.559  1.00  0.00    -0.380 A  
HETATM    5  C   UNL     1     -12.913  11.207  71.694  1.00  0.00    -0.548 A  
HETATM    6  C   UNL     1     -12.185  10.456  70.764  1.00  0.00    -0.457 A  
HETATM    7  C   UNL     1     -11.542  11.067  69.670  1.00  0.00    -0.390 A  
HETATM    8  C   UNL     1     -11.709  12.455  69.537  1.00  0.00    -0.388 A  
BRANCH   7   9
HETATM    9  C   UNL     1     -10.698  10.216  68.702  1.00  0.00    -0.222 C  
HETATM   10  O   UNL     1     -11.613   9.773  67.684  1.00  0.00    -0.407 OA 
HETATM   11  C   UNL     1      -9.574  10.979  67.955  1.00  0.00    -0.180 C  
HETATM   12  C   UNL     1      -8.332  11.293  68.794  1.00  0.00    -0.120 C  
HETATM   13  H   UNL     1     -11.091   9.248  67.087  1.00  0.00     0.000 HD 
HETATM   14  C   UNL     1      -7.849  10.143  69.672  1.00  0.00    -0.181 C  
HETATM   15  C   UNL     1      -8.981   9.406  70.382  1.00  0.00    -0.294 C  
HETATM   16  C   UNL     1     -10.089   8.955  69.410  1.00  0.00    -0.202 C  
BRANCH  16  17
HETATM   17  C   UNL     1      -9.580   7.894  68.385  1.00  0.00    -0.150 C  
BRANCH  17  18
HETATM   18  N   UNL     1     -10.284   6.590  68.399  1.00  0.00    -0.159 NA 
HETATM   19  C   UNL     1     -11.295   6.531  69.457  1.00  0.00    -0.357 C  
HETATM   20  C   UNL     1     -10.916   6.360  67.094  1.00  0.00    -0.399 C  
ENDBRANCH  17  18
ENDBRANCH  16  17
ENDBRANCH   7   9
ENDBRANCH   2   3
TORSDOF 4
ENDMDL
MODEL       38
REMARK 921   NORMALIZED FREE ENERGY PREDICTED BY IDOCK:   -4.71 KCAL/MOL
REMARK 922        TOTAL FREE ENERGY PREDICTED BY IDOCK:   -6.66 KCAL/MOL
REMARK 923 INTER-LIGAND FREE ENERGY PREDICTED BY IDOCK:   -6.01 KCAL/MOL
REMARK 924 INTRA-LIGAND FREE ENERGY PREDICTED BY IDOCK:   -0.65 KCAL/MOL
REMARK 927      BINDING AFFINITY PREDICTED BY RF-SCORE:    0.00 PKD
ROOT
HETATM    1  C   UNL     1     -11.654  16.095  64.414  1.00  0.00    -0.146 C  
HETATM    2  O   UNL     1     -12.421  14.931  64.143  1.00  0.00    -0.763 OA 
ENDROOT
BRANCH   2   3
HETATM    3  C   UNL     1     -11.793  13.722  64.278  1.00  0.00    -0.417 A  
HETATM    4  C   UNL     1     -11.858  12.653  63.399  1.00  0.00    -0.594 A  
HETATM    5  C   UNL     1     -11.176  11.471  63.698  1.00  0.00    -0.451 A  
HETATM    6  C   UNL     1     -10.451  11.353  64.889  1.00  0.00    -0.363 A  
HETATM    7  C   UNL     1     -10.381  12.414  65.813  1.00  0.00    -0.289 A  
HETATM    8  C   UNL     1     -11.035  13.605  65.455  1.00  0.00    -0.297 A  
BRANCH   7   9
HETATM    9  C   UNL     1      -9.626  12.226  67.142  1.00  0.00    -0.200 C  
HETATM   10  O   UNL     1      -8.229  12.289  66.802  1.00  0.00    -0.320 OA 
HETATM   11  C   UNL     1      -9.852  13.340  68.197  1.00  0.00    -0.231 C  
HETATM   12  C   UNL     1     -11.196  13.279  68.929  1.00  0.00    -0.322 C  
HETATM   13  H   UNL     1      -7.764  12.173  67.622  1.00  0.00     0.000 HD 
HETATM   14  C   UNL     1     -11.615  11.882  69.374  1.00  0.00    -0.388 C  
HETATM   15  C   UNL     1     -11.367  10.809  68.318  1.00  0.00    -0.376 C  
HETATM   16  C   UNL     1      -9.920  10.828  67.791  1.00  0.00    -0.195 C  
BRANCH  16  17
HETATM   17  C   UNL     1      -8.882  10.463  68.898  1.00  0.00    -0.161 C  
BRANCH  17  18
HETATM   18  N   UNL     1      -8.966   9.086  69.437  1.00  0.00    -0.142 NA 
HETATM   19  C   UNL     1      -7.761   8.312  69.135  1.00  0.00    -0.097 C  
HETATM   20  C   UNL     1      -9.171   9.139  70.889  1.00  0.00    -0.261 C  
ENDBRANCH  17  18
ENDBRANCH  16  17
ENDBRANCH   7   9
ENDBRANCH   2   3
TORSDOF 4
ENDMDL
MODEL       39
REMARK 921   NORMALIZED FREE ENERGY PREDICTED BY IDOCK:   -4.70 KCAL/MOL
REMARK 922        TOTAL FREE ENERGY PREDICTED BY IDOCK:   -6.64 KCAL/MOL
REMARK 923 INTER-LIGAND FREE ENERGY PREDICTED BY IDOCK:   -6.08 KCAL/MOL
REMARK 924 INTRA-LIGAND FREE ENERGY PREDICTED BY IDOCK:   -0.56 KCAL/MOL
REMARK 927      BINDING AFFINITY PREDICTED BY RF-SCORE:    0.00 PKD
ROOT
HETATM    1  C   UNL     1      -9.529   8.267  67.200  1.00  0.00    -0.160 C  
HETATM    2  O   UNL     1     -10.132   8.295  68.486  1.00  0.00    -0.186 OA 
ENDROOT
BRANCH   2   3
HETATM    3  C   UNL     1     -10.712   9.471  68.880  1.00  0.00    -0.195 A  
HETATM    4  C   UNL     1     -11.266   9.746  70.119  1.00  0.00    -0.324 A  
HETATM    5  C   UNL     1     -11.846  10.995  70.354  1.00  0.00    -0.460 A  
HETATM    6  C   UNL     1     -11.891  11.958  69.339  1.00  0.00    -0.389 A  
HETATM    7  C   UNL     1     -11.353  11.703  68.063  1.00  0.00    -0.366 A  
HETATM    8  C   UNL     1     -10.732  10.457  67.878  1.00  0.00    -0.307 A  
BRANCH   7   9
HETATM    9  C   UNL     1     -11.477  12.763  66.952  1.00  0.00    -0.340 C  
HETATM   10  O   UNL     1     -12.621  12.368  66.172  1.00  0.00    -0.358 OA 
HETATM   11  C   UNL     1     -11.777  14.204  67.439  1.00  0.00    -0.422 C  
HETATM   12  C   UNL     1     -10.583  14.948  68.042  1.00  0.00    -0.248 C  
HETATM   13  H   UNL     1     -12.697  13.022  65.487  1.00  0.00     0.000 HD 
HETATM   14  C   UNL     1      -9.279  14.794  67.267  1.00  0.00    -0.211 C  
HETATM   15  C   UNL     1      -9.021  13.367  66.792  1.00  0.00    -0.190 C  
HETATM   16  C   UNL     1     -10.217  12.782  66.017  1.00  0.00    -0.290 C  
BRANCH  16  17
HETATM   17  C   UNL     1     -10.487  13.543  64.681  1.00  0.00    -0.421 C  
BRANCH  17  18
HETATM   18  N   UNL     1     -10.815  12.698  63.509  1.00  0.00    -0.400 NA 
HETATM   19  C   UNL     1     -10.373  11.315  63.697  1.00  0.00    -0.408 C  
HETATM   20  C   UNL     1     -12.263  12.730  63.272  1.00  0.00    -0.410 C  
ENDBRANCH  17  18
ENDBRANCH  16  17
ENDBRANCH   7   9
ENDBRANCH   2   3
TORSDOF 4
ENDMDL
MODEL       40
REMARK 921   NORMALIZED FREE ENERGY PREDICTED BY IDOCK:   -4.69 KCAL/MOL
REMARK 922        TOTAL FREE ENERGY PREDICTED BY IDOCK:   -6.63 KCAL/MOL
REMARK 923 INTER-LIGAND FREE ENERGY PREDICTED BY IDOCK:   -6.18 KCAL/MOL
REMARK 924 INTRA-LIGAND FREE ENERGY PREDICTED BY IDOCK:   -0.45 KCAL/MOL
REMARK 927      BINDING AFFINITY PREDICTED BY RF-SCORE:    0.00 PKD
ROOT
HETATM    1  C   UNL     1     -12.914  15.911  73.100  1.00  0.00    -0.549 C  
HETATM    2  O   UNL     1     -13.396  15.507  71.827  1.00  0.00    -0.437 OA 
ENDROOT
BRANCH   2   3
HETATM    3  C   UNL     1     -13.119  14.227  71.429  1.00  0.00    -0.351 A  
HETATM    4  C   UNL     1     -13.241  13.078  72.195  1.00  0.00    -0.558 A  
HETATM    5  C   UNL     1     -12.889  11.842  71.645  1.00  0.00    -0.417 A  
HETATM    6  C   UNL     1     -12.394  11.763  70.339  1.00  0.00    -0.362 A  
HETATM    7  C   UNL     1     -12.241  12.913  69.541  1.00  0.00    -0.177 A  
HETATM    8  C   UNL     1     -12.653  14.131  70.107  1.00  0.00    -0.325 A  
BRANCH   7   9
HETATM    9  C   UNL     1     -11.633  12.795  68.131  1.00  0.00    -0.336 C  
HETATM   10  O   UNL     1     -12.157  11.568  67.590  1.00  0.00    -0.623 OA 
HETATM   11  C   UNL     1     -12.050  13.906  67.133  1.00  0.00    -0.422 C  
HETATM   12  C   UNL     1     -11.358  15.257  67.338  1.00  0.00    -0.285 C  
HETATM   13  H   UNL     1     -11.782  11.496  66.720  1.00  0.00     0.000 HD 
HETATM   14  C   UNL     1      -9.860  15.170  67.610  1.00  0.00    -0.219 C  
HETATM   15  C   UNL     1      -9.485  14.059  68.586  1.00  0.00    -0.142 C  
HETATM   16  C   UNL     1     -10.068  12.694  68.174  1.00  0.00    -0.231 C  
BRANCH  16  17
HETATM   17  C   UNL     1      -9.475  12.180  66.825  1.00  0.00    -0.212 C  
BRANCH  17  18
HETATM   18  N   UNL     1      -8.950  10.794  66.834  1.00  0.00    -0.138 NA 
HETATM   19  C   UNL     1      -9.681   9.933  65.901  1.00  0.00    -0.262 C  
HETATM   20  C   UNL     1      -7.525  10.806  66.485  1.00  0.00    -0.139 C  
ENDBRANCH  17  18
ENDBRANCH  16  17
ENDBRANCH   7   9
ENDBRANCH   2   3
TORSDOF 4
ENDMDL
MODEL       41
REMARK 921   NORMALIZED FREE ENERGY PREDICTED BY IDOCK:   -4.68 KCAL/MOL
REMARK 922        TOTAL FREE ENERGY PREDICTED BY IDOCK:   -6.62 KCAL/MOL
REMARK 923 INTER-LIGAND FREE ENERGY PREDICTED BY IDOCK:   -6.23 KCAL/MOL
REMARK 924 INTRA-LIGAND FREE ENERGY PREDICTED BY IDOCK:   -0.39 KCAL/MOL
REMARK 927      BINDING AFFINITY PREDICTED BY RF-SCORE:    0.00 PKD
ROOT
HETATM    1  C   UNL     1      -6.601  20.064  65.063  1.00  0.00    -0.281 C  
HETATM    2  O   UNL     1      -7.151  20.395  66.329  1.00  0.00    -0.262 OA 
ENDROOT
BRANCH   2   3
HETATM    3  C   UNL     1      -8.353  19.827  66.658  1.00  0.00    -0.327 A  
HETATM    4  C   UNL     1      -9.508  20.493  67.033  1.00  0.00    -0.516 A  
HETATM    5  C   UNL     1     -10.650  19.760  67.366  1.00  0.00    -0.553 A  
HETATM    6  C   UNL     1     -10.625  18.361  67.347  1.00  0.00    -0.445 A  
HETATM    7  C   UNL     1      -9.461  17.653  66.988  1.00  0.00    -0.266 A  
HETATM    8  C   UNL     1      -8.348  18.423  66.610  1.00  0.00    -0.280 A  
BRANCH   7   9
HETATM    9  C   UNL     1      -9.452  16.114  67.039  1.00  0.00    -0.222 C  
HETATM   10  O   UNL     1      -8.843  15.694  65.805  1.00  0.00    -0.337 OA 
HETATM   11  C   UNL     1      -8.588  15.492  68.167  1.00  0.00    -0.152 C  
HETATM   12  C   UNL     1      -9.205  15.553  69.567  1.00  0.00    -0.265 C  
HETATM   13  H   UNL     1      -8.838  14.744  65.836  1.00  0.00     0.000 HD 
HETATM   14  C   UNL     1     -10.687  15.198  69.626  1.00  0.00    -0.289 C  
HETATM   15  C   UNL     1     -11.504  15.816  68.495  1.00  0.00    -0.381 C  
HETATM   16  C   UNL     1     -10.903  15.521  67.108  1.00  0.00    -0.316 C  
BRANCH  16  17
HETATM   17  C   UNL     1     -10.934  14.000  66.760  1.00  0.00    -0.297 C  
BRANCH  17  18
HETATM   18  N   UNL     1     -10.975  13.666  65.317  1.00  0.00    -0.300 NA 
HETATM   19  C   UNL     1     -10.802  12.229  65.090  1.00  0.00    -0.301 C  
HETATM   20  C   UNL     1     -12.253  14.108  64.747  1.00  0.00    -0.440 C  
ENDBRANCH  17  18
ENDBRANCH  16  17
ENDBRANCH   7   9
ENDBRANCH   2   3
TORSDOF 4
ENDMDL
MODEL       42
REMARK 921   NORMALIZED FREE ENERGY PREDICTED BY IDOCK:   -4.68 KCAL/MOL
REMARK 922        TOTAL FREE ENERGY PREDICTED BY IDOCK:   -6.62 KCAL/MOL
REMARK 923 INTER-LIGAND FREE ENERGY PREDICTED BY IDOCK:   -6.38 KCAL/MOL
REMARK 924 INTRA-LIGAND FREE ENERGY PREDICTED BY IDOCK:   -0.24 KCAL/MOL
REMARK 927      BINDING AFFINITY PREDICTED BY RF-SCORE:    0.00 PKD
ROOT
HETATM    1  C   UNL     1     -12.733   9.826  71.363  1.00  0.00    -0.387 C  
HETATM    2  O   UNL     1     -13.237  10.976  72.025  1.00  0.00    -0.499 OA 
ENDROOT
BRANCH   2   3
HETATM    3  C   UNL     1     -12.951  12.194  71.469  1.00  0.00    -0.295 A  
HETATM    4  C   UNL     1     -13.461  13.422  71.860  1.00  0.00    -0.526 A  
HETATM    5  C   UNL     1     -13.087  14.576  71.167  1.00  0.00    -0.424 A  
HETATM    6  C   UNL     1     -12.223  14.495  70.069  1.00  0.00    -0.396 A  
HETATM    7  C   UNL     1     -11.702  13.261  69.635  1.00  0.00    -0.369 A  
HETATM    8  C   UNL     1     -12.057  12.128  70.387  1.00  0.00    -0.395 A  
BRANCH   7   9
HETATM    9  C   UNL     1     -10.803  13.202  68.385  1.00  0.00    -0.262 C  
HETATM   10  O   UNL     1     -10.540  14.574  68.038  1.00  0.00    -0.233 OA 
HETATM   11  C   UNL     1      -9.414  12.547  68.596  1.00  0.00    -0.010 C  
HETATM   12  C   UNL     1      -9.423  11.019  68.685  1.00  0.00    -0.197 C  
HETATM   13  H   UNL     1      -9.986  14.537  67.267  1.00  0.00     0.000 HD 
HETATM   14  C   UNL     1     -10.306  10.325  67.654  1.00  0.00    -0.264 C  
HETATM   15  C   UNL     1     -11.660  11.003  67.462  1.00  0.00    -0.166 C  
HETATM   16  C   UNL     1     -11.526  12.511  67.177  1.00  0.00    -0.414 C  
BRANCH  16  17
HETATM   17  C   UNL     1     -10.808  12.795  65.821  1.00  0.00    -0.272 C  
BRANCH  17  18
HETATM   18  N   UNL     1     -11.637  13.425  64.767  1.00  0.00    -0.327 NA 
HETATM   19  C   UNL     1     -12.049  12.454  63.750  1.00  0.00    -0.529 C  
HETATM   20  C   UNL     1     -12.822  14.039  65.376  1.00  0.00    -0.410 C  
ENDBRANCH  17  18
ENDBRANCH  16  17
ENDBRANCH   7   9
ENDBRANCH   2   3
TORSDOF 4
ENDMDL
MODEL       43
REMARK 921   NORMALIZED FREE ENERGY PREDICTED BY IDOCK:   -4.68 KCAL/MOL
REMARK 922        TOTAL FREE ENERGY PREDICTED BY IDOCK:   -6.62 KCAL/MOL
REMARK 923 INTER-LIGAND FREE ENERGY PREDICTED BY IDOCK:   -5.90 KCAL/MOL
REMARK 924 INTRA-LIGAND FREE ENERGY PREDICTED BY IDOCK:   -0.72 KCAL/MOL
REMARK 927      BINDING AFFINITY PREDICTED BY RF-SCORE:    0.00 PKD
ROOT
HETATM    1  C   UNL     1     -10.542  16.163  67.482  1.00  0.00    -0.314 C  
HETATM    2  O   UNL     1     -11.465  16.372  68.541  1.00  0.00    -0.351 OA 
ENDROOT
BRANCH   2   3
HETATM    3  C   UNL     1     -11.769  15.294  69.328  1.00  0.00    -0.338 A  
HETATM    4  C   UNL     1     -12.210  15.327  70.641  1.00  0.00    -0.412 A  
HETATM    5  C   UNL     1     -12.453  14.129  71.318  1.00  0.00    -0.446 A  
HETATM    6  C   UNL     1     -12.230  12.900  70.685  1.00  0.00    -0.386 A  
HETATM    7  C   UNL     1     -11.764  12.833  69.358  1.00  0.00    -0.380 A  
HETATM    8  C   UNL     1     -11.581  14.056  68.692  1.00  0.00    -0.360 A  
BRANCH   7   9
HETATM    9  C   UNL     1     -11.470  11.464  68.715  1.00  0.00    -0.290 C  
HETATM   10  O   UNL     1     -12.595  10.632  69.054  1.00  0.00    -0.746 OA 
HETATM   11  C   UNL     1     -11.395  11.459  67.167  1.00  0.00    -0.327 C  
HETATM   12  C   UNL     1     -10.104  12.035  66.577  1.00  0.00    -0.224 C  
HETATM   13  H   UNL     1     -12.413   9.788  68.658  1.00  0.00     0.000 HD 
HETATM   14  C   UNL     1      -8.827  11.587  67.281  1.00  0.00    -0.160 C  
HETATM   15  C   UNL     1      -8.941  11.591  68.802  1.00  0.00    -0.053 C  
HETATM   16  C   UNL     1     -10.171  10.809  69.302  1.00  0.00    -0.217 C  
BRANCH  16  17
HETATM   17  C   UNL     1     -10.078   9.287  68.970  1.00  0.00    -0.199 C  
BRANCH  17  18
HETATM   18  N   UNL     1     -10.874   8.385  69.835  1.00  0.00    -0.233 NA 
HETATM   19  C   UNL     1     -10.699   6.980  69.459  1.00  0.00    -0.241 C  
HETATM   20  C   UNL     1     -10.482   8.576  71.236  1.00  0.00    -0.225 C  
ENDBRANCH  17  18
ENDBRANCH  16  17
ENDBRANCH   7   9
ENDBRANCH   2   3
TORSDOF 4
ENDMDL
MODEL       44
REMARK 921   NORMALIZED FREE ENERGY PREDICTED BY IDOCK:   -4.64 KCAL/MOL
REMARK 922        TOTAL FREE ENERGY PREDICTED BY IDOCK:   -6.58 KCAL/MOL
REMARK 923 INTER-LIGAND FREE ENERGY PREDICTED BY IDOCK:   -5.95 KCAL/MOL
REMARK 924 INTRA-LIGAND FREE ENERGY PREDICTED BY IDOCK:   -0.62 KCAL/MOL
REMARK 927      BINDING AFFINITY PREDICTED BY RF-SCORE:    0.00 PKD
ROOT
HETATM    1  C   UNL     1     -12.569  12.426  63.413  1.00  0.00    -0.366 C  
HETATM    2  O   UNL     1     -12.593  13.641  64.147  1.00  0.00    -0.655 OA 
ENDROOT
BRANCH   2   3
HETATM    3  C   UNL     1     -12.196  13.590  65.456  1.00  0.00    -0.451 A  
HETATM    4  C   UNL     1     -12.154  14.647  66.350  1.00  0.00    -0.229 A  
HETATM    5  C   UNL     1     -11.694  14.433  67.652  1.00  0.00    -0.421 A  
HETATM    6  C   UNL     1     -11.254  13.165  68.048  1.00  0.00    -0.308 A  
HETATM    7  C   UNL     1     -11.267  12.073  67.159  1.00  0.00    -0.374 A  
HETATM    8  C   UNL     1     -11.783  12.313  65.874  1.00  0.00    -0.451 A  
BRANCH   7   9
HETATM    9  C   UNL     1     -10.716  10.707  67.611  1.00  0.00    -0.267 C  
HETATM   10  O   UNL     1     -11.846   9.999  68.151  1.00  0.00    -0.565 OA 
HETATM   11  C   UNL     1     -10.159   9.808  66.477  1.00  0.00    -0.307 C  
HETATM   12  C   UNL     1      -8.780  10.210  65.947  1.00  0.00    -0.159 C  
HETATM   13  H   UNL     1     -11.507   9.157  68.430  1.00  0.00     0.000 HD 
HETATM   14  C   UNL     1      -7.767  10.581  67.025  1.00  0.00    -0.110 C  
HETATM   15  C   UNL     1      -8.352  11.456  68.130  1.00  0.00    -0.149 C  
HETATM   16  C   UNL     1      -9.634  10.855  68.737  1.00  0.00    -0.195 C  
BRANCH  16  17
HETATM   17  C   UNL     1      -9.364   9.507  69.475  1.00  0.00    -0.190 C  
BRANCH  17  18
HETATM   18  N   UNL     1     -10.515   8.927  70.207  1.00  0.00    -0.202 NA 
HETATM   19  C   UNL     1     -10.626   7.484  69.984  1.00  0.00    -0.237 C  
HETATM   20  C   UNL     1     -10.370   9.198  71.642  1.00  0.00    -0.318 C  
ENDBRANCH  17  18
ENDBRANCH  16  17
ENDBRANCH   7   9
ENDBRANCH   2   3
TORSDOF 4
ENDMDL
MODEL       45
REMARK 921   NORMALIZED FREE ENERGY PREDICTED BY IDOCK:   -4.64 KCAL/MOL
REMARK 922        TOTAL FREE ENERGY PREDICTED BY IDOCK:   -6.57 KCAL/MOL
REMARK 923 INTER-LIGAND FREE ENERGY PREDICTED BY IDOCK:   -6.04 KCAL/MOL
REMARK 924 INTRA-LIGAND FREE ENERGY PREDICTED BY IDOCK:   -0.53 KCAL/MOL
REMARK 927      BINDING AFFINITY PREDICTED BY RF-SCORE:    0.00 PKD
ROOT
HETATM    1  C   UNL     1     -10.522   4.712  65.560  1.00  0.00    -0.189 C  
HETATM    2  O   UNL     1     -10.753   5.753  66.499  1.00  0.00    -0.276 OA 
ENDROOT
BRANCH   2   3
HETATM    3  C   UNL     1     -10.489   5.480  67.814  1.00  0.00    -0.180 A  
HETATM    4  C   UNL     1      -9.768   4.406  68.308  1.00  0.00    -0.171 A  
HETATM    5  C   UNL     1      -9.611   4.255  69.688  1.00  0.00    -0.275 A  
HETATM    6  C   UNL     1     -10.199   5.168  70.572  1.00  0.00    -0.330 A  
HETATM    7  C   UNL     1     -10.955   6.260  70.103  1.00  0.00    -0.411 A  
HETATM    8  C   UNL     1     -11.047   6.409  68.709  1.00  0.00    -0.404 A  
BRANCH   7   9
HETATM    9  C   UNL     1     -11.639   7.208  71.105  1.00  0.00    -0.301 C  
HETATM   10  O   UNL     1     -13.021   7.255  70.705  1.00  0.00    -0.604 OA 
HETATM   11  C   UNL     1     -11.644   6.725  72.579  1.00  0.00    -0.236 C  
HETATM   12  C   UNL     1     -10.311   6.876  73.316  1.00  0.00    -0.315 C  
HETATM   13  H   UNL     1     -13.443   7.840  71.324  1.00  0.00     0.000 HD 
HETATM   14  C   UNL     1      -9.600   8.205  73.081  1.00  0.00    -0.307 C  
HETATM   15  C   UNL     1      -9.625   8.656  71.624  1.00  0.00    -0.344 C  
HETATM   16  C   UNL     1     -11.049   8.660  71.035  1.00  0.00    -0.316 C  
BRANCH  16  17
HETATM   17  C   UNL     1     -11.975   9.705  71.733  1.00  0.00    -0.347 C  
BRANCH  17  18
HETATM   18  N   UNL     1     -12.615  10.701  70.841  1.00  0.00    -0.375 NA 
HETATM   19  C   UNL     1     -12.995  11.914  71.569  1.00  0.00    -0.323 C  
HETATM   20  C   UNL     1     -11.698  11.043  69.749  1.00  0.00    -0.335 C  
ENDBRANCH  17  18
ENDBRANCH  16  17
ENDBRANCH   7   9
ENDBRANCH   2   3
TORSDOF 4
ENDMDL
MODEL       46
REMARK 921   NORMALIZED FREE ENERGY PREDICTED BY IDOCK:   -4.64 KCAL/MOL
REMARK 922        TOTAL FREE ENERGY PREDICTED BY IDOCK:   -6.57 KCAL/MOL
REMARK 923 INTER-LIGAND FREE ENERGY PREDICTED BY IDOCK:   -6.26 KCAL/MOL
REMARK 924 INTRA-LIGAND FREE ENERGY PREDICTED BY IDOCK:   -0.31 KCAL/MOL
REMARK 927      BINDING AFFINITY PREDICTED BY RF-SCORE:    0.00 PKD
ROOT
HETATM    1  C   UNL     1     -12.841  10.990  71.547  1.00  0.00    -0.450 C  
HETATM    2  O   UNL     1     -12.858  12.358  71.925  1.00  0.00    -0.301 OA 
ENDROOT
BRANCH   2   3
HETATM    3  C   UNL     1     -12.452  13.272  70.989  1.00  0.00    -0.336 A  
HETATM    4  C   UNL     1     -12.391  14.647  71.147  1.00  0.00    -0.403 A  
HETATM    5  C   UNL     1     -11.978  15.447  70.079  1.00  0.00    -0.383 A  
HETATM    6  C   UNL     1     -11.650  14.869  68.847  1.00  0.00    -0.339 A  
HETATM    7  C   UNL     1     -11.719  13.477  68.648  1.00  0.00    -0.389 A  
HETATM    8  C   UNL     1     -12.088  12.700  69.759  1.00  0.00    -0.301 A  
BRANCH   7   9
HETATM    9  C   UNL     1     -11.411  12.883  67.260  1.00  0.00    -0.310 C  
HETATM   10  O   UNL     1     -11.974  11.558  67.278  1.00  0.00    -0.605 OA 
HETATM   11  C   UNL     1     -12.079  13.608  66.064  1.00  0.00    -0.480 C  
HETATM   12  C   UNL     1     -11.427  14.934  65.662  1.00  0.00    -0.290 C  
HETATM   13  H   UNL     1     -11.784  11.192  66.422  1.00  0.00     0.000 HD 
HETATM   14  C   UNL     1      -9.903  14.909  65.624  1.00  0.00    -0.372 C  
HETATM   15  C   UNL     1      -9.280  14.177  66.809  1.00  0.00    -0.282 C  
HETATM   16  C   UNL     1      -9.868  12.766  67.003  1.00  0.00    -0.231 C  
BRANCH  16  17
HETATM   17  C   UNL     1      -9.541  11.820  65.806  1.00  0.00    -0.233 C  
BRANCH  17  18
HETATM   18  N   UNL     1      -8.880  10.540  66.152  1.00  0.00    -0.154 NA 
HETATM   19  C   UNL     1      -8.600  10.447  67.587  1.00  0.00    -0.118 C  
HETATM   20  C   UNL     1      -9.734   9.419  65.740  1.00  0.00    -0.284 C  
ENDBRANCH  17  18
ENDBRANCH  16  17
ENDBRANCH   7   9
ENDBRANCH   2   3
TORSDOF 4
ENDMDL
MODEL       47
REMARK 921   NORMALIZED FREE ENERGY PREDICTED BY IDOCK:   -4.63 KCAL/MOL
REMARK 922        TOTAL FREE ENERGY PREDICTED BY IDOCK:   -6.56 KCAL/MOL
REMARK 923 INTER-LIGAND FREE ENERGY PREDICTED BY IDOCK:   -5.67 KCAL/MOL
REMARK 924 INTRA-LIGAND FREE ENERGY PREDICTED BY IDOCK:   -0.89 KCAL/MOL
REMARK 927      BINDING AFFINITY PREDICTED BY RF-SCORE:    0.00 PKD
ROOT
HETATM    1  C   UNL     1     -12.056   7.093  70.954  1.00  0.00    -0.326 C  
HETATM    2  O   UNL     1     -11.088   8.069  70.599  1.00  0.00    -0.256 OA 
ENDROOT
BRANCH   2   3
HETATM    3  C   UNL     1     -11.503   9.373  70.548  1.00  0.00    -0.262 A  
HETATM    4  C   UNL     1     -12.262  10.038  71.497  1.00  0.00    -0.496 A  
HETATM    5  C   UNL     1     -12.627  11.369  71.280  1.00  0.00    -0.480 A  
HETATM    6  C   UNL     1     -12.253  12.023  70.101  1.00  0.00    -0.309 A  
HETATM    7  C   UNL     1     -11.498  11.370  69.108  1.00  0.00    -0.365 A  
HETATM    8  C   UNL     1     -11.104  10.050  69.383  1.00  0.00    -0.265 A  
BRANCH   7   9
HETATM    9  C   UNL     1     -11.157  12.102  67.795  1.00  0.00    -0.250 C  
HETATM   10  O   UNL     1     -12.161  11.683  66.853  1.00  0.00    -0.512 OA 
HETATM   11  C   UNL     1     -11.253  13.648  67.853  1.00  0.00    -0.300 C  
HETATM   12  C   UNL     1     -10.090  14.345  68.566  1.00  0.00    -0.244 C  
HETATM   13  H   UNL     1     -11.950  12.134  66.044  1.00  0.00     0.000 HD 
HETATM   14  C   UNL     1      -8.709  13.802  68.212  1.00  0.00    -0.179 C  
HETATM   15  C   UNL     1      -8.655  12.279  68.152  1.00  0.00    -0.181 C  
HETATM   16  C   UNL     1      -9.749  11.688  67.243  1.00  0.00    -0.192 C  
BRANCH  16  17
HETATM   17  C   UNL     1      -9.560  12.096  65.748  1.00  0.00    -0.197 C  
BRANCH  17  18
HETATM   18  N   UNL     1     -10.105  11.152  64.744  1.00  0.00    -0.273 NA 
HETATM   19  C   UNL     1      -9.648  11.477  63.392  1.00  0.00    -0.313 C  
HETATM   20  C   UNL     1      -9.703   9.783  65.088  1.00  0.00    -0.268 C  
ENDBRANCH  17  18
ENDBRANCH  16  17
ENDBRANCH   7   9
ENDBRANCH   2   3
TORSDOF 4
ENDMDL
MODEL       48
REMARK 921   NORMALIZED FREE ENERGY PREDICTED BY IDOCK:   -4.61 KCAL/MOL
REMARK 922        TOTAL FREE ENERGY PREDICTED BY IDOCK:   -6.53 KCAL/MOL
REMARK 923 INTER-LIGAND FREE ENERGY PREDICTED BY IDOCK:   -5.90 KCAL/MOL
REMARK 924 INTRA-LIGAND FREE ENERGY PREDICTED BY IDOCK:   -0.63 KCAL/MOL
REMARK 927      BINDING AFFINITY PREDICTED BY RF-SCORE:    0.00 PKD
ROOT
HETATM    1  C   UNL     1     -13.072   9.526  71.752  1.00  0.00    -0.418 C  
HETATM    2  O   UNL     1     -13.379  10.846  72.176  1.00  0.00    -0.443 OA 
ENDROOT
BRANCH   2   3
HETATM    3  C   UNL     1     -12.887  11.877  71.422  1.00  0.00    -0.307 A  
HETATM    4  C   UNL     1     -12.999  13.230  71.697  1.00  0.00    -0.441 A  
HETATM    5  C   UNL     1     -12.461  14.162  70.805  1.00  0.00    -0.436 A  
HETATM    6  C   UNL     1     -11.834  13.737  69.629  1.00  0.00    -0.393 A  
HETATM    7  C   UNL     1     -11.720  12.370  69.311  1.00  0.00    -0.386 A  
HETATM    8  C   UNL     1     -12.226  11.460  70.254  1.00  0.00    -0.433 A  
BRANCH   7   9
HETATM    9  C   UNL     1     -11.080  11.942  67.977  1.00  0.00    -0.240 C  
HETATM   10  O   UNL     1     -12.157  11.927  67.022  1.00  0.00    -0.600 OA 
HETATM   11  C   UNL     1     -10.023  12.921  67.403  1.00  0.00    -0.217 C  
HETATM   12  C   UNL     1      -8.657  12.880  68.094  1.00  0.00    -0.188 C  
HETATM   13  H   UNL     1     -11.761  11.663  66.200  1.00  0.00     0.000 HD 
HETATM   14  C   UNL     1      -8.135  11.478  68.392  1.00  0.00    -0.149 C  
HETATM   15  C   UNL     1      -9.204  10.539  68.943  1.00  0.00    -0.188 C  
HETATM   16  C   UNL     1     -10.465  10.501  68.058  1.00  0.00    -0.232 C  
BRANCH  16  17
HETATM   17  C   UNL     1     -10.179   9.903  66.646  1.00  0.00    -0.226 C  
BRANCH  17  18
HETATM   18  N   UNL     1      -9.472   8.601  66.624  1.00  0.00    -0.189 NA 
HETATM   19  C   UNL     1     -10.401   7.478  66.766  1.00  0.00    -0.262 C  
HETATM   20  C   UNL     1      -8.724   8.469  65.368  1.00  0.00    -0.159 C  
ENDBRANCH  17  18
ENDBRANCH  16  17
ENDBRANCH   7   9
ENDBRANCH   2   3
TORSDOF 4
ENDMDL
MODEL       49
REMARK 921   NORMALIZED FREE ENERGY PREDICTED BY IDOCK:   -4.61 KCAL/MOL
REMARK 922        TOTAL FREE ENERGY PREDICTED BY IDOCK:   -6.53 KCAL/MOL
REMARK 923 INTER-LIGAND FREE ENERGY PREDICTED BY IDOCK:   -5.80 KCAL/MOL
REMARK 924 INTRA-LIGAND FREE ENERGY PREDICTED BY IDOCK:   -0.73 KCAL/MOL
REMARK 927      BINDING AFFINITY PREDICTED BY RF-SCORE:    0.00 PKD
ROOT
HETATM    1  C   UNL     1      -9.169   9.859  62.966  1.00  0.00    -0.254 C  
HETATM    2  O   UNL     1      -8.462  10.011  64.188  1.00  0.00    -0.152 OA 
ENDROOT
BRANCH   2   3
HETATM    3  C   UNL     1      -9.206  10.119  65.333  1.00  0.00    -0.202 A  
HETATM    4  C   UNL     1      -9.887   9.098  65.976  1.00  0.00    -0.342 A  
HETATM    5  C   UNL     1     -10.626   9.381  67.127  1.00  0.00    -0.294 A  
HETATM    6  C   UNL     1     -10.703  10.690  67.617  1.00  0.00    -0.315 A  
HETATM    7  C   UNL     1     -10.037  11.753  66.976  1.00  0.00    -0.232 A  
HETATM    8  C   UNL     1      -9.261  11.423  65.852  1.00  0.00    -0.231 A  
BRANCH   7   9
HETATM    9  C   UNL     1     -10.195  13.190  67.507  1.00  0.00    -0.225 C  
HETATM   10  O   UNL     1      -9.587  13.185  68.812  1.00  0.00    -0.399 OA 
HETATM   11  C   UNL     1      -9.448  14.282  66.700  1.00  0.00    -0.302 C  
HETATM   12  C   UNL     1     -10.109  14.678  65.376  1.00  0.00    -0.403 C  
HETATM   13  H   UNL     1      -9.685  14.071  69.139  1.00  0.00     0.000 HD 
HETATM   14  C   UNL     1     -11.622  14.859  65.449  1.00  0.00    -0.280 C  
HETATM   15  C   UNL     1     -12.323  13.775  66.262  1.00  0.00    -0.479 C  
HETATM   16  C   UNL     1     -11.703  13.596  67.661  1.00  0.00    -0.398 C  
BRANCH  16  17
HETATM   17  C   UNL     1     -11.883  14.862  68.554  1.00  0.00    -0.294 C  
BRANCH  17  18
HETATM   18  N   UNL     1     -11.575  14.690  69.993  1.00  0.00    -0.272 NA 
HETATM   19  C   UNL     1     -11.730  15.944  70.734  1.00  0.00    -0.401 C  
HETATM   20  C   UNL     1     -12.456  13.664  70.564  1.00  0.00    -0.324 C  
ENDBRANCH  17  18
ENDBRANCH  16  17
ENDBRANCH   7   9
ENDBRANCH   2   3
TORSDOF 4
ENDMDL
MODEL       50
REMARK 921   NORMALIZED FREE ENERGY PREDICTED BY IDOCK:   -4.60 KCAL/MOL
REMARK 922        TOTAL FREE ENERGY PREDICTED BY IDOCK:   -6.53 KCAL/MOL
REMARK 923 INTER-LIGAND FREE ENERGY PREDICTED BY IDOCK:   -6.30 KCAL/MOL
REMARK 924 INTRA-LIGAND FREE ENERGY PREDICTED BY IDOCK:   -0.22 KCAL/MOL
REMARK 927      BINDING AFFINITY PREDICTED BY RF-SCORE:    0.00 PKD
ROOT
HETATM    1  C   UNL     1     -11.558  16.160  71.957  1.00  0.00    -0.383 C  
HETATM    2  O   UNL     1     -12.497  15.862  70.935  1.00  0.00    -0.428 OA 
ENDROOT
BRANCH   2   3
HETATM    3  C   UNL     1     -11.998  15.489  69.715  1.00  0.00    -0.364 A  
HETATM    4  C   UNL     1     -12.329  14.350  69.000  1.00  0.00    -0.130 A  
HETATM    5  C   UNL     1     -11.705  14.099  67.775  1.00  0.00    -0.408 A  
HETATM    6  C   UNL     1     -10.734  14.977  67.281  1.00  0.00    -0.298 A  
HETATM    7  C   UNL     1     -10.362  16.135  67.993  1.00  0.00    -0.271 A  
HETATM    8  C   UNL     1     -11.047  16.382  69.195  1.00  0.00    -0.303 A  
BRANCH   7   9
HETATM    9  C   UNL     1      -9.245  17.045  67.449  1.00  0.00    -0.234 C  
HETATM   10  O   UNL     1      -8.158  16.162  67.120  1.00  0.00    -0.160 OA 
HETATM   11  C   UNL     1      -9.584  17.801  66.138  1.00  0.00    -0.202 C  
HETATM   12  C   UNL     1     -10.513  19.008  66.306  1.00  0.00    -0.534 C  
HETATM   13  H   UNL     1      -7.469  16.724  66.784  1.00  0.00     0.000 HD 
HETATM   14  C   UNL     1     -10.184  19.904  67.495  1.00  0.00    -0.562 C  
HETATM   15  C   UNL     1      -9.843  19.128  68.763  1.00  0.00    -0.502 C  
HETATM   16  C   UNL     1      -8.748  18.070  68.527  1.00  0.00    -0.304 C  
BRANCH  16  17
HETATM   17  C   UNL     1      -7.379  18.712  68.142  1.00  0.00    -0.255 C  
BRANCH  17  18
HETATM   18  N   UNL     1      -7.015  19.950  68.870  1.00  0.00    -0.328 NA 
HETATM   19  C   UNL     1      -6.042  19.687  69.933  1.00  0.00    -0.307 C  
HETATM   20  C   UNL     1      -6.467  20.931  67.927  1.00  0.00    -0.332 C  
ENDBRANCH  17  18
ENDBRANCH  16  17
ENDBRANCH   7   9
ENDBRANCH   2   3
TORSDOF 4
ENDMDL
MODEL       51
REMARK 921   NORMALIZED FREE ENERGY PREDICTED BY IDOCK:   -4.52 KCAL/MOL
REMARK 922        TOTAL FREE ENERGY PREDICTED BY IDOCK:   -6.42 KCAL/MOL
REMARK 923 INTER-LIGAND FREE ENERGY PREDICTED BY IDOCK:   -5.80 KCAL/MOL
REMARK 924 INTRA-LIGAND FREE ENERGY PREDICTED BY IDOCK:   -0.62 KCAL/MOL
REMARK 927      BINDING AFFINITY PREDICTED BY RF-SCORE:    0.00 PKD
ROOT
HETATM    1  C   UNL     1     -10.717  16.956  65.227  1.00  0.00    -0.134 C  
HETATM    2  O   UNL     1     -11.306  16.156  64.212  1.00  0.00    -0.628 OA 
ENDROOT
BRANCH   2   3
HETATM    3  C   UNL     1     -11.544  14.841  64.510  1.00  0.00    -0.361 A  
HETATM    4  C   UNL     1     -12.276  13.940  63.753  1.00  0.00    -0.310 A  
HETATM    5  C   UNL     1     -12.448  12.632  64.213  1.00  0.00    -0.494 A  
HETATM    6  C   UNL     1     -11.909  12.236  65.443  1.00  0.00    -0.418 A  
HETATM    7  C   UNL     1     -11.176  13.133  66.245  1.00  0.00    -0.328 A  
HETATM    8  C   UNL     1     -10.978  14.424  65.727  1.00  0.00    -0.314 A  
BRANCH   7   9
HETATM    9  C   UNL     1     -10.652  12.680  67.620  1.00  0.00    -0.218 C  
HETATM   10  O   UNL     1     -10.148  11.347  67.418  1.00  0.00    -0.181 OA 
HETATM   11  C   UNL     1      -9.460  13.500  68.179  1.00  0.00    -0.214 C  
HETATM   12  C   UNL     1      -9.827  14.873  68.749  1.00  0.00    -0.225 C  
HETATM   13  H   UNL     1      -9.824  11.069  68.267  1.00  0.00     0.000 HD 
HETATM   14  C   UNL     1     -11.078  14.887  69.622  1.00  0.00    -0.298 C  
HETATM   15  C   UNL     1     -12.225  14.061  69.048  1.00  0.00    -0.280 C  
HETATM   16  C   UNL     1     -11.794  12.625  68.694  1.00  0.00    -0.342 C  
BRANCH  16  17
HETATM   17  C   UNL     1     -11.378  11.804  69.954  1.00  0.00    -0.121 C  
BRANCH  17  18
HETATM   18  N   UNL     1     -11.808  10.386  69.976  1.00  0.00    -0.276 NA 
HETATM   19  C   UNL     1     -10.714   9.495  70.366  1.00  0.00    -0.284 C  
HETATM   20  C   UNL     1     -12.932  10.228  70.906  1.00  0.00    -0.371 C  
ENDBRANCH  17  18
ENDBRANCH  16  17
ENDBRANCH   7   9
ENDBRANCH   2   3
TORSDOF 4
ENDMDL
MODEL       52
REMARK 921   NORMALIZED FREE ENERGY PREDICTED BY IDOCK:   -4.48 KCAL/MOL
REMARK 922        TOTAL FREE ENERGY PREDICTED BY IDOCK:   -6.37 KCAL/MOL
REMARK 923 INTER-LIGAND FREE ENERGY PREDICTED BY IDOCK:   -5.92 KCAL/MOL
REMARK 924 INTRA-LIGAND FREE ENERGY PREDICTED BY IDOCK:   -0.45 KCAL/MOL
REMARK 927      BINDING AFFINITY PREDICTED BY RF-SCORE:    0.00 PKD
ROOT
HETATM    1  C   UNL     1     -10.266  19.905  66.612  1.00  0.00    -0.485 C  
HETATM    2  O   UNL     1      -9.987  18.560  66.251  1.00  0.00    -0.355 OA 
ENDROOT
BRANCH   2   3
HETATM    3  C   UNL     1     -10.153  17.605  67.218  1.00  0.00    -0.331 A  
HETATM    4  C   UNL     1     -10.457  17.822  68.552  1.00  0.00    -0.332 A  
HETATM    5  C   UNL     1     -10.566  16.733  69.420  1.00  0.00    -0.318 A  
HETATM    6  C   UNL     1     -10.346  15.431  68.956  1.00  0.00    -0.243 A  
HETATM    7  C   UNL     1     -10.017  15.178  67.611  1.00  0.00    -0.229 A  
HETATM    8  C   UNL     1      -9.967  16.291  66.755  1.00  0.00    -0.268 A  
BRANCH   7   9
HETATM    9  C   UNL     1      -9.719  13.739  67.150  1.00  0.00    -0.244 C  
HETATM   10  O   UNL     1      -8.443  13.805  66.488  1.00  0.00    -0.424 OA 
HETATM   11  C   UNL     1      -9.550  12.699  68.287  1.00  0.00    -0.208 C  
HETATM   12  C   UNL     1     -10.853  12.239  68.947  1.00  0.00    -0.238 C  
HETATM   13  H   UNL     1      -8.260  12.917  66.203  1.00  0.00     0.000 HD 
HETATM   14  C   UNL     1     -11.990  11.943  67.974  1.00  0.00    -0.204 C  
HETATM   15  C   UNL     1     -12.119  12.979  66.861  1.00  0.00    -0.349 C  
HETATM   16  C   UNL     1     -10.788  13.220  66.125  1.00  0.00    -0.290 C  
BRANCH  16  17
HETATM   17  C   UNL     1     -10.299  11.953  65.356  1.00  0.00    -0.267 C  
BRANCH  17  18
HETATM   18  N   UNL     1     -10.278  12.058  63.879  1.00  0.00    -0.368 NA 
HETATM   19  C   UNL     1      -9.604  10.912  63.264  1.00  0.00    -0.347 C  
HETATM   20  C   UNL     1     -11.652  12.155  63.374  1.00  0.00    -0.420 C  
ENDBRANCH  17  18
ENDBRANCH  16  17
ENDBRANCH   7   9
ENDBRANCH   2   3
TORSDOF 4
ENDMDL
MODEL       53
REMARK 921   NORMALIZED FREE ENERGY PREDICTED BY IDOCK:   -4.44 KCAL/MOL
REMARK 922        TOTAL FREE ENERGY PREDICTED BY IDOCK:   -6.32 KCAL/MOL
REMARK 923 INTER-LIGAND FREE ENERGY PREDICTED BY IDOCK:   -5.66 KCAL/MOL
REMARK 924 INTRA-LIGAND FREE ENERGY PREDICTED BY IDOCK:   -0.66 KCAL/MOL
REMARK 927      BINDING AFFINITY PREDICTED BY RF-SCORE:    0.00 PKD
ROOT
HETATM    1  C   UNL     1     -11.804  12.343  65.763  1.00  0.00    -0.406 C  
HETATM    2  O   UNL     1     -11.855  11.974  67.133  1.00  0.00    -0.565 OA 
ENDROOT
BRANCH   2   3
HETATM    3  C   UNL     1     -11.271  10.787  67.484  1.00  0.00    -0.274 A  
HETATM    4  C   UNL     1     -10.728   9.846  66.624  1.00  0.00    -0.116 A  
HETATM    5  C   UNL     1     -10.190   8.666  67.144  1.00  0.00    -0.353 A  
HETATM    6  C   UNL     1     -10.220   8.420  68.521  1.00  0.00    -0.228 A  
HETATM    7  C   UNL     1     -10.782   9.347  69.420  1.00  0.00    -0.234 A  
HETATM    8  C   UNL     1     -11.266  10.545  68.868  1.00  0.00    -0.323 A  
BRANCH   7   9
HETATM    9  C   UNL     1     -10.854   9.014  70.923  1.00  0.00    -0.258 C  
HETATM   10  O   UNL     1      -9.644   9.547  71.491  1.00  0.00    -0.263 OA 
HETATM   11  C   UNL     1     -12.015   9.689  71.697  1.00  0.00    -0.470 C  
HETATM   12  C   UNL     1     -13.395   9.065  71.473  1.00  0.00    -0.394 C  
HETATM   13  H   UNL     1      -9.689   9.341  72.418  1.00  0.00     0.000 HD 
HETATM   14  C   UNL     1     -13.415   7.540  71.491  1.00  0.00    -0.426 C  
HETATM   15  C   UNL     1     -12.252   6.910  70.731  1.00  0.00    -0.364 C  
HETATM   16  C   UNL     1     -10.887   7.467  71.179  1.00  0.00    -0.258 C  
BRANCH  16  17
HETATM   17  C   UNL     1     -10.560   7.109  72.662  1.00  0.00    -0.256 C  
BRANCH  17  18
HETATM   18  N   UNL     1      -9.620   5.981  72.865  1.00  0.00    -0.155 NA 
HETATM   19  C   UNL     1     -10.329   4.713  73.051  1.00  0.00    -0.181 C  
HETATM   20  C   UNL     1      -8.718   5.881  71.711  1.00  0.00    -0.139 C  
ENDBRANCH  17  18
ENDBRANCH  16  17
ENDBRANCH   7   9
ENDBRANCH   2   3
TORSDOF 4
ENDMDL
MODEL       54
REMARK 921   NORMALIZED FREE ENERGY PREDICTED BY IDOCK:   -4.44 KCAL/MOL
REMARK 922        TOTAL FREE ENERGY PREDICTED BY IDOCK:   -6.32 KCAL/MOL
REMARK 923 INTER-LIGAND FREE ENERGY PREDICTED BY IDOCK:   -5.64 KCAL/MOL
REMARK 924 INTRA-LIGAND FREE ENERGY PREDICTED BY IDOCK:   -0.68 KCAL/MOL
REMARK 927      BINDING AFFINITY PREDICTED BY RF-SCORE:    0.00 PKD
ROOT
HETATM    1  C   UNL     1     -10.072   7.657  71.690  1.00  0.00    -0.180 C  
HETATM    2  O   UNL     1     -10.354   6.587  70.800  1.00  0.00    -0.198 OA 
ENDROOT
BRANCH   2   3
HETATM    3  C   UNL     1     -10.497   6.896  69.474  1.00  0.00    -0.223 A  
HETATM    4  C   UNL     1     -10.551   6.002  68.417  1.00  0.00    -0.322 A  
HETATM    5  C   UNL     1     -10.674   6.483  67.111  1.00  0.00    -0.438 A  
HETATM    6  C   UNL     1     -10.716   7.860  66.865  1.00  0.00    -0.219 A  
HETATM    7  C   UNL     1     -10.645   8.796  67.915  1.00  0.00    -0.236 A  
HETATM    8  C   UNL     1     -10.575   8.275  69.218  1.00  0.00    -0.191 A  
BRANCH   7   9
HETATM    9  C   UNL     1     -10.631  10.304  67.601  1.00  0.00    -0.263 C  
HETATM   10  O   UNL     1     -11.945  10.779  67.949  1.00  0.00    -0.753 OA 
HETATM   11  C   UNL     1      -9.642  11.149  68.444  1.00  0.00    -0.192 C  
HETATM   12  C   UNL     1      -8.172  11.031  68.032  1.00  0.00    -0.123 C  
HETATM   13  H   UNL     1     -11.936  11.709  67.755  1.00  0.00     0.000 HD 
HETATM   14  C   UNL     1      -7.927  11.071  66.527  1.00  0.00    -0.158 C  
HETATM   15  C   UNL     1      -8.926  10.240  65.728  1.00  0.00    -0.185 C  
HETATM   16  C   UNL     1     -10.387  10.583  66.077  1.00  0.00    -0.279 C  
BRANCH  16  17
HETATM   17  C   UNL     1     -10.762  12.044  65.678  1.00  0.00    -0.272 C  
BRANCH  17  18
HETATM   18  N   UNL     1     -12.170  12.264  65.270  1.00  0.00    -0.532 NA 
HETATM   19  C   UNL     1     -12.581  13.655  65.471  1.00  0.00    -0.496 C  
HETATM   20  C   UNL     1     -12.335  11.895  63.859  1.00  0.00    -0.383 C  
ENDBRANCH  17  18
ENDBRANCH  16  17
ENDBRANCH   7   9
ENDBRANCH   2   3
TORSDOF 4
ENDMDL
MODEL       55
REMARK 921   NORMALIZED FREE ENERGY PREDICTED BY IDOCK:   -4.43 KCAL/MOL
REMARK 922        TOTAL FREE ENERGY PREDICTED BY IDOCK:   -6.31 KCAL/MOL
REMARK 923 INTER-LIGAND FREE ENERGY PREDICTED BY IDOCK:   -5.47 KCAL/MOL
REMARK 924 INTRA-LIGAND FREE ENERGY PREDICTED BY IDOCK:   -0.85 KCAL/MOL
REMARK 927      BINDING AFFINITY PREDICTED BY RF-SCORE:    0.00 PKD
ROOT
HETATM    1  C   UNL     1     -12.547  13.854  70.946  1.00  0.00    -0.361 C  
HETATM    2  O   UNL     1     -12.066  12.722  70.236  1.00  0.00    -0.349 OA 
ENDROOT
BRANCH   2   3
HETATM    3  C   UNL     1     -12.243  11.495  70.818  1.00  0.00    -0.363 A  
HETATM    4  C   UNL     1     -13.143  11.178  71.822  1.00  0.00    -0.536 A  
HETATM    5  C   UNL     1     -13.181   9.877  72.329  1.00  0.00    -0.434 A  
HETATM    6  C   UNL     1     -12.299   8.903  71.848  1.00  0.00    -0.445 A  
HETATM    7  C   UNL     1     -11.359   9.198  70.842  1.00  0.00    -0.359 A  
HETATM    8  C   UNL     1     -11.385  10.501  70.318  1.00  0.00    -0.407 A  
BRANCH   7   9
HETATM    9  C   UNL     1     -10.362   8.117  70.381  1.00  0.00    -0.206 C  
HETATM   10  O   UNL     1     -11.120   7.233  69.536  1.00  0.00    -0.388 OA 
HETATM   11  C   UNL     1      -9.186   8.627  69.509  1.00  0.00    -0.150 C  
HETATM   12  C   UNL     1      -8.076   9.353  70.275  1.00  0.00    -0.180 C  
HETATM   13  H   UNL     1     -10.505   6.567  69.252  1.00  0.00     0.000 HD 
HETATM   14  C   UNL     1      -7.660   8.683  71.580  1.00  0.00    -0.139 C  
HETATM   15  C   UNL     1      -8.841   8.182  72.406  1.00  0.00    -0.260 C  
HETATM   16  C   UNL     1      -9.795   7.291  71.588  1.00  0.00    -0.176 C  
BRANCH  16  17
HETATM   17  C   UNL     1      -9.115   5.965  71.125  1.00  0.00    -0.143 C  
BRANCH  17  18
HETATM   18  N   UNL     1     -10.008   4.790  70.991  1.00  0.00    -0.202 NA 
HETATM   19  C   UNL     1      -9.588   3.913  69.897  1.00  0.00    -0.200 C  
HETATM   20  C   UNL     1     -10.023   4.039  72.252  1.00  0.00    -0.169 C  
ENDBRANCH  17  18
ENDBRANCH  16  17
ENDBRANCH   7   9
ENDBRANCH   2   3
TORSDOF 4
ENDMDL
MODEL       56
REMARK 921   NORMALIZED FREE ENERGY PREDICTED BY IDOCK:   -4.43 KCAL/MOL
REMARK 922        TOTAL FREE ENERGY PREDICTED BY IDOCK:   -6.31 KCAL/MOL
REMARK 923 INTER-LIGAND FREE ENERGY PREDICTED BY IDOCK:   -5.71 KCAL/MOL
REMARK 924 INTRA-LIGAND FREE ENERGY PREDICTED BY IDOCK:   -0.60 KCAL/MOL
REMARK 927      BINDING AFFINITY PREDICTED BY RF-SCORE:    0.00 PKD
ROOT
HETATM    1  C   UNL     1     -11.506  11.280  68.519  1.00  0.00    -0.306 C  
HETATM    2  O   UNL     1     -11.995  11.370  67.189  1.00  0.00    -0.532 OA 
ENDROOT
BRANCH   2   3
HETATM    3  C   UNL     1     -11.421  12.307  66.372  1.00  0.00    -0.378 A  
HETATM    4  C   UNL     1     -10.976  12.113  65.075  1.00  0.00    -0.355 A  
HETATM    5  C   UNL     1     -10.385  13.173  64.382  1.00  0.00    -0.390 A  
HETATM    6  C   UNL     1     -10.219  14.418  64.999  1.00  0.00    -0.406 A  
HETATM    7  C   UNL     1     -10.643  14.643  66.323  1.00  0.00    -0.306 A  
HETATM    8  C   UNL     1     -11.280  13.571  66.971  1.00  0.00    -0.330 A  
BRANCH   7   9
HETATM    9  C   UNL     1     -10.387  16.007  66.991  1.00  0.00    -0.292 C  
HETATM   10  O   UNL     1     -10.534  16.981  65.941  1.00  0.00    -0.361 OA 
HETATM   11  C   UNL     1     -11.407  16.412  68.086  1.00  0.00    -0.205 C  
HETATM   12  C   UNL     1     -11.234  15.700  69.431  1.00  0.00    -0.313 C  
HETATM   13  H   UNL     1     -10.376  17.822  66.354  1.00  0.00     0.000 HD 
HETATM   14  C   UNL     1      -9.791  15.587  69.911  1.00  0.00    -0.207 C  
HETATM   15  C   UNL     1      -8.813  15.199  68.805  1.00  0.00    -0.196 C  
HETATM   16  C   UNL     1      -8.933  16.112  67.570  1.00  0.00    -0.197 C  
BRANCH  16  17
HETATM   17  C   UNL     1      -8.528  17.586  67.882  1.00  0.00    -0.230 C  
BRANCH  17  18
HETATM   18  N   UNL     1      -7.884  18.331  66.774  1.00  0.00    -0.227 NA 
HETATM   19  C   UNL     1      -7.215  19.542  67.253  1.00  0.00    -0.213 C  
HETATM   20  C   UNL     1      -6.913  17.462  66.098  1.00  0.00    -0.263 C  
ENDBRANCH  17  18
ENDBRANCH  16  17
ENDBRANCH   7   9
ENDBRANCH   2   3
TORSDOF 4
ENDMDL
MODEL       57
REMARK 921   NORMALIZED FREE ENERGY PREDICTED BY IDOCK:   -4.42 KCAL/MOL
REMARK 922        TOTAL FREE ENERGY PREDICTED BY IDOCK:   -6.30 KCAL/MOL
REMARK 923 INTER-LIGAND FREE ENERGY PREDICTED BY IDOCK:   -5.45 KCAL/MOL
REMARK 924 INTRA-LIGAND FREE ENERGY PREDICTED BY IDOCK:   -0.85 KCAL/MOL
REMARK 927      BINDING AFFINITY PREDICTED BY RF-SCORE:    0.00 PKD
ROOT
HETATM    1  C   UNL     1      -8.280  14.990  68.860  1.00  0.00    -0.178 C  
HETATM    2  O   UNL     1      -8.654  16.075  68.023  1.00  0.00    -0.163 OA 
ENDROOT
BRANCH   2   3
HETATM    3  C   UNL     1      -9.511  15.803  66.991  1.00  0.00    -0.223 A  
HETATM    4  C   UNL     1      -9.997  16.707  66.060  1.00  0.00    -0.346 A  
HETATM    5  C   UNL     1     -10.892  16.272  65.078  1.00  0.00    -0.337 A  
HETATM    6  C   UNL     1     -11.317  14.939  65.048  1.00  0.00    -0.398 A  
HETATM    7  C   UNL     1     -10.857  14.001  65.992  1.00  0.00    -0.295 A  
HETATM    8  C   UNL     1      -9.919  14.460  66.931  1.00  0.00    -0.261 A  
BRANCH   7   9
HETATM    9  C   UNL     1     -11.396  12.558  65.966  1.00  0.00    -0.344 C  
HETATM   10  O   UNL     1     -12.160  12.412  67.177  1.00  0.00    -0.532 OA 
HETATM   11  C   UNL     1     -12.376  12.235  64.809  1.00  0.00    -0.416 C  
HETATM   12  C   UNL     1     -11.721  12.036  63.439  1.00  0.00    -0.519 C  
HETATM   13  H   UNL     1     -12.492  11.522  67.160  1.00  0.00     0.000 HD 
HETATM   14  C   UNL     1     -10.452  11.190  63.456  1.00  0.00    -0.422 C  
HETATM   15  C   UNL     1      -9.517  11.525  64.615  1.00  0.00    -0.120 C  
HETATM   16  C   UNL     1     -10.237  11.500  65.977  1.00  0.00    -0.283 C  
BRANCH  16  17
HETATM   17  C   UNL     1     -10.746  10.073  66.350  1.00  0.00     0.007 C  
BRANCH  17  18
HETATM   18  N   UNL     1     -10.600   9.684  67.772  1.00  0.00    -0.254 NA 
HETATM   19  C   UNL     1     -10.368   8.245  67.919  1.00  0.00    -0.219 C  
HETATM   20  C   UNL     1      -9.487  10.429  68.373  1.00  0.00    -0.149 C  
ENDBRANCH  17  18
ENDBRANCH  16  17
ENDBRANCH   7   9
ENDBRANCH   2   3
TORSDOF 4
ENDMDL
MODEL       58
REMARK 921   NORMALIZED FREE ENERGY PREDICTED BY IDOCK:   -4.41 KCAL/MOL
REMARK 922        TOTAL FREE ENERGY PREDICTED BY IDOCK:   -6.28 KCAL/MOL
REMARK 923 INTER-LIGAND FREE ENERGY PREDICTED BY IDOCK:   -5.59 KCAL/MOL
REMARK 924 INTRA-LIGAND FREE ENERGY PREDICTED BY IDOCK:   -0.70 KCAL/MOL
REMARK 927      BINDING AFFINITY PREDICTED BY RF-SCORE:    0.00 PKD
ROOT
HETATM    1  C   UNL     1     -12.765  13.094  71.117  1.00  0.00    -0.300 C  
HETATM    2  O   UNL     1     -13.398  11.996  71.757  1.00  0.00    -0.406 OA 
ENDROOT
BRANCH   2   3
HETATM    3  C   UNL     1     -12.841  10.759  71.575  1.00  0.00    -0.462 A  
HETATM    4  C   UNL     1     -13.271   9.567  72.136  1.00  0.00    -0.539 A  
HETATM    5  C   UNL     1     -12.571   8.387  71.870  1.00  0.00    -0.389 A  
HETATM    6  C   UNL     1     -11.428   8.408  71.063  1.00  0.00    -0.302 A  
HETATM    7  C   UNL     1     -10.954   9.605  70.493  1.00  0.00    -0.374 A  
HETATM    8  C   UNL     1     -11.711  10.763  70.739  1.00  0.00    -0.400 A  
BRANCH   7   9
HETATM    9  C   UNL     1      -9.657   9.600  69.662  1.00  0.00    -0.208 C  
HETATM   10  O   UNL     1      -8.633  10.087  70.547  1.00  0.00    -0.358 OA 
HETATM   11  C   UNL     1      -9.176   8.204  69.190  1.00  0.00    -0.151 C  
HETATM   12  C   UNL     1      -9.956   7.611  68.013  1.00  0.00    -0.208 C  
HETATM   13  H   UNL     1      -7.833  10.084  70.034  1.00  0.00     0.000 HD 
HETATM   14  C   UNL     1     -10.259   8.596  66.889  1.00  0.00    -0.367 C  
HETATM   15  C   UNL     1     -10.717   9.963  67.389  1.00  0.00    -0.323 C  
HETATM   16  C   UNL     1      -9.749  10.563  68.427  1.00  0.00    -0.166 C  
BRANCH  16  17
HETATM   17  C   UNL     1      -8.347  10.875  67.817  1.00  0.00    -0.117 C  
BRANCH  17  18
HETATM   18  N   UNL     1      -8.118  12.278  67.400  1.00  0.00    -0.166 NA 
HETATM   19  C   UNL     1      -8.904  13.217  68.204  1.00  0.00    -0.194 C  
HETATM   20  C   UNL     1      -6.691  12.598  67.517  1.00  0.00    -0.156 C  
ENDBRANCH  17  18
ENDBRANCH  16  17
ENDBRANCH   7   9
ENDBRANCH   2   3
TORSDOF 4
ENDMDL
MODEL       59
REMARK 921   NORMALIZED FREE ENERGY PREDICTED BY IDOCK:   -4.39 KCAL/MOL
REMARK 922        TOTAL FREE ENERGY PREDICTED BY IDOCK:   -6.26 KCAL/MOL
REMARK 923 INTER-LIGAND FREE ENERGY PREDICTED BY IDOCK:   -5.44 KCAL/MOL
REMARK 924 INTRA-LIGAND FREE ENERGY PREDICTED BY IDOCK:   -0.82 KCAL/MOL
REMARK 927      BINDING AFFINITY PREDICTED BY RF-SCORE:    0.00 PKD
ROOT
HETATM    1  C   UNL     1     -11.956  13.796  67.403  1.00  0.00    -0.388 C  
HETATM    2  O   UNL     1     -12.285  13.179  66.167  1.00  0.00    -0.419 OA 
ENDROOT
BRANCH   2   3
HETATM    3  C   UNL     1     -11.459  12.179  65.726  1.00  0.00    -0.361 A  
HETATM    4  C   UNL     1     -10.994  12.000  64.434  1.00  0.00    -0.385 A  
HETATM    5  C   UNL     1     -10.175  10.906  64.140  1.00  0.00    -0.424 A  
HETATM    6  C   UNL     1      -9.844   9.981  65.137  1.00  0.00    -0.388 A  
HETATM    7  C   UNL     1     -10.316  10.125  66.457  1.00  0.00    -0.270 A  
HETATM    8  C   UNL     1     -11.093  11.263  66.727  1.00  0.00    -0.314 A  
BRANCH   7   9
HETATM    9  C   UNL     1      -9.983   9.054  67.512  1.00  0.00    -0.207 C  
HETATM   10  O   UNL     1     -11.063   8.106  67.450  1.00  0.00    -0.470 OA 
HETATM   11  C   UNL     1      -8.692   8.238  67.246  1.00  0.00    -0.126 C  
HETATM   12  C   UNL     1      -7.383   8.973  67.552  1.00  0.00    -0.081 C  
HETATM   13  H   UNL     1     -10.858   7.445  68.101  1.00  0.00     0.000 HD 
HETATM   14  C   UNL     1      -7.385   9.760  68.858  1.00  0.00    -0.073 C  
HETATM   15  C   UNL     1      -8.675  10.540  69.094  1.00  0.00    -0.155 C  
HETATM   16  C   UNL     1      -9.929   9.656  68.960  1.00  0.00    -0.189 C  
BRANCH  16  17
HETATM   17  C   UNL     1      -9.993   8.550  70.060  1.00  0.00    -0.188 C  
BRANCH  17  18
HETATM   18  N   UNL     1     -11.334   8.276  70.627  1.00  0.00    -0.262 NA 
HETATM   19  C   UNL     1     -11.580   6.839  70.765  1.00  0.00    -0.366 C  
HETATM   20  C   UNL     1     -11.455   8.929  71.936  1.00  0.00    -0.372 C  
ENDBRANCH  17  18
ENDBRANCH  16  17
ENDBRANCH   7   9
ENDBRANCH   2   3
TORSDOF 4
ENDMDL
MODEL       60
REMARK 921   NORMALIZED FREE ENERGY PREDICTED BY IDOCK:   -4.39 KCAL/MOL
REMARK 922        TOTAL FREE ENERGY PREDICTED BY IDOCK:   -6.26 KCAL/MOL
REMARK 923 INTER-LIGAND FREE ENERGY PREDICTED BY IDOCK:   -5.50 KCAL/MOL
REMARK 924 INTRA-LIGAND FREE ENERGY PREDICTED BY IDOCK:   -0.76 KCAL/MOL
REMARK 927      BINDING AFFINITY PREDICTED BY RF-SCORE:    0.00 PKD
ROOT
HETATM    1  C   UNL     1      -6.745  20.702  65.194  1.00  0.00    -0.184 C  
HETATM    2  O   UNL     1      -7.047  19.359  65.544  1.00  0.00    -0.344 OA 
ENDROOT
BRANCH   2   3
HETATM    3  C   UNL     1      -8.192  19.141  66.262  1.00  0.00    -0.300 A  
HETATM    4  C   UNL     1      -8.999  20.105  66.844  1.00  0.00    -0.448 A  
HETATM    5  C   UNL     1     -10.126  19.713  67.572  1.00  0.00    -0.538 A  
HETATM    6  C   UNL     1     -10.428  18.356  67.736  1.00  0.00    -0.433 A  
HETATM    7  C   UNL     1      -9.617  17.352  67.172  1.00  0.00    -0.265 A  
HETATM    8  C   UNL     1      -8.523  17.783  66.404  1.00  0.00    -0.270 A  
BRANCH   7   9
HETATM    9  C   UNL     1      -9.945  15.868  67.426  1.00  0.00    -0.239 C  
HETATM   10  O   UNL     1     -11.271  15.674  66.904  1.00  0.00    -0.245 OA 
HETATM   11  C   UNL     1      -9.045  14.852  66.677  1.00  0.00    -0.309 C  
HETATM   12  C   UNL     1      -7.645  14.664  67.268  1.00  0.00    -0.173 C  
HETATM   13  H   UNL     1     -11.473  14.759  67.060  1.00  0.00     0.000 HD 
HETATM   14  C   UNL     1      -7.605  14.553  68.789  1.00  0.00    -0.131 C  
HETATM   15  C   UNL     1      -8.511  15.559  69.493  1.00  0.00    -0.211 C  
HETATM   16  C   UNL     1      -9.955  15.524  68.957  1.00  0.00    -0.233 C  
BRANCH  16  17
HETATM   17  C   UNL     1     -10.662  14.164  69.249  1.00  0.00    -0.144 C  
BRANCH  17  18
HETATM   18  N   UNL     1     -12.030  14.251  69.812  1.00  0.00    -0.319 NA 
HETATM   19  C   UNL     1     -12.263  13.224  70.829  1.00  0.00    -0.308 C  
HETATM   20  C   UNL     1     -12.236  15.583  70.395  1.00  0.00    -0.406 C  
ENDBRANCH  17  18
ENDBRANCH  16  17
ENDBRANCH   7   9
ENDBRANCH   2   3
TORSDOF 4
ENDMDL
MODEL       61
REMARK 921   NORMALIZED FREE ENERGY PREDICTED BY IDOCK:   -4.39 KCAL/MOL
REMARK 922        TOTAL FREE ENERGY PREDICTED BY IDOCK:   -6.26 KCAL/MOL
REMARK 923 INTER-LIGAND FREE ENERGY PREDICTED BY IDOCK:   -5.62 KCAL/MOL
REMARK 924 INTRA-LIGAND FREE ENERGY PREDICTED BY IDOCK:   -0.64 KCAL/MOL
REMARK 927      BINDING AFFINITY PREDICTED BY RF-SCORE:    0.00 PKD
ROOT
HETATM    1  C   UNL     1     -10.299  18.042  67.875  1.00  0.00    -0.392 C  
HETATM    2  O   UNL     1     -10.612  16.690  68.174  1.00  0.00    -0.306 OA 
ENDROOT
BRANCH   2   3
HETATM    3  C   UNL     1     -10.515  15.784  67.152  1.00  0.00    -0.309 A  
HETATM    4  C   UNL     1     -10.391  16.069  65.802  1.00  0.00    -0.398 A  
HETATM    5  C   UNL     1     -10.330  15.023  64.878  1.00  0.00    -0.317 A  
HETATM    6  C   UNL     1     -10.417  13.693  65.306  1.00  0.00    -0.362 A  
HETATM    7  C   UNL     1     -10.562  13.370  66.669  1.00  0.00    -0.282 A  
HETATM    8  C   UNL     1     -10.568  14.444  67.574  1.00  0.00    -0.265 A  
BRANCH   7   9
HETATM    9  C   UNL     1     -10.718  11.898  67.097  1.00  0.00    -0.240 C  
HETATM   10  O   UNL     1     -12.136  11.678  67.201  1.00  0.00    -0.575 OA 
HETATM   11  C   UNL     1     -10.204  10.852  66.076  1.00  0.00    -0.311 C  
HETATM   12  C   UNL     1      -8.682  10.693  66.017  1.00  0.00    -0.186 C  
HETATM   13  H   UNL     1     -12.232  10.771  67.466  1.00  0.00     0.000 HD 
HETATM   14  C   UNL     1      -7.993  10.651  67.377  1.00  0.00    -0.111 C  
HETATM   15  C   UNL     1      -8.532  11.685  68.361  1.00  0.00    -0.157 C  
HETATM   16  C   UNL     1     -10.065  11.623  68.497  1.00  0.00    -0.210 C  
BRANCH  16  17
HETATM   17  C   UNL     1     -10.550  10.276  69.118  1.00  0.00    -0.230 C  
BRANCH  17  18
HETATM   18  N   UNL     1     -11.092  10.355  70.495  1.00  0.00    -0.308 NA 
HETATM   19  C   UNL     1     -12.139  11.372  70.608  1.00  0.00    -0.372 C  
HETATM   20  C   UNL     1     -11.627   9.045  70.887  1.00  0.00    -0.290 C  
ENDBRANCH  17  18
ENDBRANCH  16  17
ENDBRANCH   7   9
ENDBRANCH   2   3
TORSDOF 4
ENDMDL
MODEL       62
REMARK 921   NORMALIZED FREE ENERGY PREDICTED BY IDOCK:   -4.37 KCAL/MOL
REMARK 922        TOTAL FREE ENERGY PREDICTED BY IDOCK:   -6.24 KCAL/MOL
REMARK 923 INTER-LIGAND FREE ENERGY PREDICTED BY IDOCK:   -5.40 KCAL/MOL
REMARK 924 INTRA-LIGAND FREE ENERGY PREDICTED BY IDOCK:   -0.85 KCAL/MOL
REMARK 927      BINDING AFFINITY PREDICTED BY RF-SCORE:    0.00 PKD
ROOT
HETATM    1  C   UNL     1     -12.637  13.824  70.902  1.00  0.00    -0.356 C  
HETATM    2  O   UNL     1     -12.129  12.725  70.159  1.00  0.00    -0.342 OA 
ENDROOT
BRANCH   2   3
HETATM    3  C   UNL     1     -12.269  11.479  70.708  1.00  0.00    -0.363 A  
HETATM    4  C   UNL     1     -13.260  11.068  71.584  1.00  0.00    -0.461 A  
HETATM    5  C   UNL     1     -13.246   9.760  72.078  1.00  0.00    -0.557 A  
HETATM    6  C   UNL     1     -12.225   8.876  71.712  1.00  0.00    -0.429 A  
HETATM    7  C   UNL     1     -11.192   9.269  70.838  1.00  0.00    -0.372 A  
HETATM    8  C   UNL     1     -11.267  10.573  70.320  1.00  0.00    -0.391 A  
BRANCH   7   9
HETATM    9  C   UNL     1     -10.051   8.288  70.507  1.00  0.00    -0.195 C  
HETATM   10  O   UNL     1      -8.982   8.628  71.408  1.00  0.00    -0.182 OA 
HETATM   11  C   UNL     1     -10.364   6.793  70.769  1.00  0.00    -0.227 C  
HETATM   12  C   UNL     1     -11.265   6.125  69.727  1.00  0.00    -0.494 C  
HETATM   13  H   UNL     1      -8.278   8.023  71.204  1.00  0.00     0.000 HD 
HETATM   14  C   UNL     1     -10.924   6.463  68.279  1.00  0.00    -0.396 C  
HETATM   15  C   UNL     1     -10.610   7.940  68.060  1.00  0.00    -0.194 C  
HETATM   16  C   UNL     1      -9.538   8.463  69.035  1.00  0.00    -0.160 C  
BRANCH  16  17
HETATM   17  C   UNL     1      -8.152   7.782  68.810  1.00  0.00    -0.126 C  
BRANCH  17  18
HETATM   18  N   UNL     1      -6.964   8.633  69.052  1.00  0.00    -0.063 NA 
HETATM   19  C   UNL     1      -5.839   7.857  69.579  1.00  0.00    -0.027 C  
HETATM   20  C   UNL     1      -6.570   9.292  67.801  1.00  0.00    -0.063 C  
ENDBRANCH  17  18
ENDBRANCH  16  17
ENDBRANCH   7   9
ENDBRANCH   2   3
TORSDOF 4
ENDMDL
MODEL       63
REMARK 921   NORMALIZED FREE ENERGY PREDICTED BY IDOCK:   -4.36 KCAL/MOL
REMARK 922        TOTAL FREE ENERGY PREDICTED BY IDOCK:   -6.23 KCAL/MOL
REMARK 923 INTER-LIGAND FREE ENERGY PREDICTED BY IDOCK:   -5.68 KCAL/MOL
REMARK 924 INTRA-LIGAND FREE ENERGY PREDICTED BY IDOCK:   -0.55 KCAL/MOL
REMARK 927      BINDING AFFINITY PREDICTED BY RF-SCORE:    0.00 PKD
ROOT
HETATM    1  C   UNL     1     -12.569  14.603  71.382  1.00  0.00    -0.335 C  
HETATM    2  O   UNL     1     -12.197  15.487  70.335  1.00  0.00    -0.362 OA 
ENDROOT
BRANCH   2   3
HETATM    3  C   UNL     1     -11.691  14.926  69.192  1.00  0.00    -0.309 A  
HETATM    4  C   UNL     1     -11.344  15.592  68.028  1.00  0.00    -0.324 A  
HETATM    5  C   UNL     1     -10.865  14.866  66.935  1.00  0.00    -0.319 A  
HETATM    6  C   UNL     1     -10.757  13.472  67.002  1.00  0.00    -0.278 A  
HETATM    7  C   UNL     1     -11.119  12.764  68.164  1.00  0.00    -0.288 A  
HETATM    8  C   UNL     1     -11.548  13.530  69.261  1.00  0.00    -0.369 A  
BRANCH   7   9
HETATM    9  C   UNL     1     -11.047  11.225  68.180  1.00  0.00    -0.259 C  
HETATM   10  O   UNL     1     -12.388  10.782  68.457  1.00  0.00    -0.825 OA 
HETATM   11  C   UNL     1     -10.656  10.565  66.833  1.00  0.00    -0.303 C  
HETATM   12  C   UNL     1      -9.169  10.650  66.475  1.00  0.00    -0.187 C  
HETATM   13  H   UNL     1     -12.343   9.833  68.467  1.00  0.00     0.000 HD 
HETATM   14  C   UNL     1      -8.218  10.358  67.630  1.00  0.00    -0.110 C  
HETATM   15  C   UNL     1      -8.640  11.012  68.942  1.00  0.00    -0.122 C  
HETATM   16  C   UNL     1     -10.101  10.695  69.313  1.00  0.00    -0.227 C  
BRANCH  16  17
HETATM   17  C   UNL     1     -10.322   9.177  69.602  1.00  0.00    -0.219 C  
BRANCH  17  18
HETATM   18  N   UNL     1     -10.707   8.831  70.990  1.00  0.00    -0.214 NA 
HETATM   19  C   UNL     1     -11.647   9.804  71.550  1.00  0.00    -0.353 C  
HETATM   20  C   UNL     1     -11.308   7.492  71.013  1.00  0.00    -0.273 C  
ENDBRANCH  17  18
ENDBRANCH  16  17
ENDBRANCH   7   9
ENDBRANCH   2   3
TORSDOF 4
ENDMDL
MODEL       64
REMARK 921   NORMALIZED FREE ENERGY PREDICTED BY IDOCK:   -4.31 KCAL/MOL
REMARK 922        TOTAL FREE ENERGY PREDICTED BY IDOCK:   -6.17 KCAL/MOL
REMARK 923 INTER-LIGAND FREE ENERGY PREDICTED BY IDOCK:   -5.63 KCAL/MOL
REMARK 924 INTRA-LIGAND FREE ENERGY PREDICTED BY IDOCK:   -0.54 KCAL/MOL
REMARK 927      BINDING AFFINITY PREDICTED BY RF-SCORE:    0.00 PKD
ROOT
HETATM    1  C   UNL     1     -11.508  12.360  65.332  1.00  0.00    -0.358 C  
HETATM    2  O   UNL     1     -11.490  11.674  66.574  1.00  0.00    -0.411 OA 
ENDROOT
BRANCH   2   3
HETATM    3  C   UNL     1     -10.786  10.501  66.633  1.00  0.00    -0.155 A  
HETATM    4  C   UNL     1      -9.964   9.980  65.646  1.00  0.00    -0.355 A  
HETATM    5  C   UNL     1      -9.333   8.751  65.852  1.00  0.00    -0.284 A  
HETATM    6  C   UNL     1      -9.547   8.034  67.035  1.00  0.00    -0.252 A  
HETATM    7  C   UNL     1     -10.391   8.527  68.049  1.00  0.00    -0.272 A  
HETATM    8  C   UNL     1     -10.967   9.789  67.830  1.00  0.00    -0.246 A  
BRANCH   7   9
HETATM    9  C   UNL     1     -10.652   7.681  69.310  1.00  0.00    -0.201 C  
HETATM   10  O   UNL     1     -11.676   6.742  68.936  1.00  0.00    -0.530 OA 
HETATM   11  C   UNL     1      -9.453   6.826  69.796  1.00  0.00    -0.144 C  
HETATM   12  C   UNL     1      -8.352   7.604  70.522  1.00  0.00    -0.126 C  
HETATM   13  H   UNL     1     -11.836   6.221  69.714  1.00  0.00     0.000 HD 
HETATM   14  C   UNL     1      -8.856   8.630  71.531  1.00  0.00    -0.285 C  
HETATM   15  C   UNL     1     -10.044   9.445  71.025  1.00  0.00    -0.353 C  
HETATM   16  C   UNL     1     -11.185   8.554  70.500  1.00  0.00    -0.262 C  
BRANCH  16  17
HETATM   17  C   UNL     1     -11.824   7.684  71.627  1.00  0.00    -0.291 C  
BRANCH  17  18
HETATM   18  N   UNL     1     -13.173   8.097  72.080  1.00  0.00    -0.308 NA 
HETATM   19  C   UNL     1     -13.448   9.498  71.754  1.00  0.00    -0.402 C  
HETATM   20  C   UNL     1     -14.184   7.234  71.458  1.00  0.00    -0.390 C  
ENDBRANCH  17  18
ENDBRANCH  16  17
ENDBRANCH   7   9
ENDBRANCH   2   3
TORSDOF 4
ENDMDL
MODEL       65
REMARK 921   NORMALIZED FREE ENERGY PREDICTED BY IDOCK:   -4.30 KCAL/MOL
REMARK 922        TOTAL FREE ENERGY PREDICTED BY IDOCK:   -6.16 KCAL/MOL
REMARK 923 INTER-LIGAND FREE ENERGY PREDICTED BY IDOCK:   -5.38 KCAL/MOL
REMARK 924 INTRA-LIGAND FREE ENERGY PREDICTED BY IDOCK:   -0.78 KCAL/MOL
REMARK 927      BINDING AFFINITY PREDICTED BY RF-SCORE:    0.00 PKD
ROOT
HETATM    1  C   UNL     1     -11.676  11.537  68.540  1.00  0.00    -0.313 C  
HETATM    2  O   UNL     1     -11.777  11.729  69.944  1.00  0.00    -0.310 OA 
ENDROOT
BRANCH   2   3
HETATM    3  C   UNL     1     -12.068  10.630  70.707  1.00  0.00    -0.374 A  
HETATM    4  C   UNL     1     -13.160  10.471  71.545  1.00  0.00    -0.532 A  
HETATM    5  C   UNL     1     -13.298   9.291  72.281  1.00  0.00    -0.547 A  
HETATM    6  C   UNL     1     -12.330   8.284  72.194  1.00  0.00    -0.410 A  
HETATM    7  C   UNL     1     -11.200   8.423  71.365  1.00  0.00    -0.316 A  
HETATM    8  C   UNL     1     -11.120   9.599  70.601  1.00  0.00    -0.384 A  
BRANCH   7   9
HETATM    9  C   UNL     1     -10.124   7.321  71.343  1.00  0.00    -0.187 C  
HETATM   10  O   UNL     1     -10.669   6.269  70.525  1.00  0.00    -0.234 OA 
HETATM   11  C   UNL     1      -8.781   7.717  70.677  1.00  0.00    -0.139 C  
HETATM   12  C   UNL     1      -7.874   8.612  71.526  1.00  0.00    -0.163 C  
HETATM   13  H   UNL     1     -10.006   5.590  70.512  1.00  0.00     0.000 HD 
HETATM   14  C   UNL     1      -7.765   8.202  72.991  1.00  0.00    -0.199 C  
HETATM   15  C   UNL     1      -9.102   7.806  73.610  1.00  0.00    -0.345 C  
HETATM   16  C   UNL     1      -9.844   6.746  72.776  1.00  0.00    -0.183 C  
BRANCH  16  17
HETATM   17  C   UNL     1      -9.076   5.388  72.725  1.00  0.00    -0.130 C  
BRANCH  17  18
HETATM   18  N   UNL     1      -9.871   4.181  73.049  1.00  0.00    -0.128 NA 
HETATM   19  C   UNL     1     -11.239   4.523  73.445  1.00  0.00    -0.315 C  
HETATM   20  C   UNL     1      -9.899   3.285  71.887  1.00  0.00    -0.168 C  
ENDBRANCH  17  18
ENDBRANCH  16  17
ENDBRANCH   7   9
ENDBRANCH   2   3
TORSDOF 4
ENDMDL
MODEL       66
REMARK 921   NORMALIZED FREE ENERGY PREDICTED BY IDOCK:   -4.30 KCAL/MOL
REMARK 922        TOTAL FREE ENERGY PREDICTED BY IDOCK:   -6.15 KCAL/MOL
REMARK 923 INTER-LIGAND FREE ENERGY PREDICTED BY IDOCK:   -5.42 KCAL/MOL
REMARK 924 INTRA-LIGAND FREE ENERGY PREDICTED BY IDOCK:   -0.73 KCAL/MOL
REMARK 927      BINDING AFFINITY PREDICTED BY RF-SCORE:    0.00 PKD
ROOT
HETATM    1  C   UNL     1     -11.783  14.726  67.333  1.00  0.00    -0.350 C  
HETATM    2  O   UNL     1     -12.481  14.305  66.171  1.00  0.00    -0.442 OA 
ENDROOT
BRANCH   2   3
HETATM    3  C   UNL     1     -11.908  13.314  65.421  1.00  0.00    -0.359 A  
HETATM    4  C   UNL     1     -12.279  12.922  64.145  1.00  0.00    -0.487 A  
HETATM    5  C   UNL     1     -11.605  11.867  63.523  1.00  0.00    -0.537 A  
HETATM    6  C   UNL     1     -10.578  11.191  64.191  1.00  0.00    -0.436 A  
HETATM    7  C   UNL     1     -10.190  11.552  65.496  1.00  0.00    -0.303 A  
HETATM    8  C   UNL     1     -10.853  12.650  66.070  1.00  0.00    -0.306 A  
BRANCH   7   9
HETATM    9  C   UNL     1      -9.099  10.744  66.224  1.00  0.00    -0.175 C  
HETATM   10  O   UNL     1      -7.860  11.123  65.597  1.00  0.00    -0.363 OA 
HETATM   11  C   UNL     1      -8.925  11.069  67.730  1.00  0.00    -0.140 C  
HETATM   12  C   UNL     1     -10.000  10.483  68.650  1.00  0.00    -0.188 C  
HETATM   13  H   UNL     1      -7.187  10.625  66.047  1.00  0.00     0.000 HD 
HETATM   14  C   UNL     1     -10.377   9.036  68.347  1.00  0.00    -0.242 C  
HETATM   15  C   UNL     1     -10.527   8.748  66.856  1.00  0.00    -0.319 C  
HETATM   16  C   UNL     1      -9.297   9.198  66.045  1.00  0.00    -0.300 C  
BRANCH  16  17
HETATM   17  C   UNL     1      -8.014   8.393  66.421  1.00  0.00    -0.099 C  
BRANCH  17  18
HETATM   18  N   UNL     1      -7.540   7.419  65.410  1.00  0.00    -0.090 NA 
HETATM   19  C   UNL     1      -8.171   6.109  65.582  1.00  0.00    -0.141 C  
HETATM   20  C   UNL     1      -7.820   7.933  64.064  1.00  0.00    -0.138 C  
ENDBRANCH  17  18
ENDBRANCH  16  17
ENDBRANCH   7   9
ENDBRANCH   2   3
TORSDOF 4
ENDMDL
MODEL       67
REMARK 921   NORMALIZED FREE ENERGY PREDICTED BY IDOCK:   -4.29 KCAL/MOL
REMARK 922        TOTAL FREE ENERGY PREDICTED BY IDOCK:   -6.14 KCAL/MOL
REMARK 923 INTER-LIGAND FREE ENERGY PREDICTED BY IDOCK:   -5.53 KCAL/MOL
REMARK 924 INTRA-LIGAND FREE ENERGY PREDICTED BY IDOCK:   -0.61 KCAL/MOL
REMARK 927      BINDING AFFINITY PREDICTED BY RF-SCORE:    0.00 PKD
ROOT
HETATM    1  C   UNL     1     -10.849  16.734  68.010  1.00  0.00    -0.341 C  
HETATM    2  O   UNL     1     -11.262  15.461  68.486  1.00  0.00    -0.282 OA 
ENDROOT
BRANCH   2   3
HETATM    3  C   UNL     1     -11.380  14.455  67.565  1.00  0.00    -0.328 A  
HETATM    4  C   UNL     1     -11.762  14.588  66.240  1.00  0.00    -0.364 A  
HETATM    5  C   UNL     1     -11.861  13.452  65.433  1.00  0.00    -0.381 A  
HETATM    6  C   UNL     1     -11.601  12.182  65.962  1.00  0.00    -0.420 A  
HETATM    7  C   UNL     1     -11.230  12.011  67.309  1.00  0.00    -0.371 A  
HETATM    8  C   UNL     1     -11.089  13.180  68.077  1.00  0.00    -0.290 A  
BRANCH   7   9
HETATM    9  C   UNL     1     -11.013  10.594  67.873  1.00  0.00    -0.295 C  
HETATM   10  O   UNL     1     -12.205  10.293  68.621  1.00  0.00    -0.602 OA 
HETATM   11  C   UNL     1     -10.887   9.470  66.813  1.00  0.00    -0.031 C  
HETATM   12  C   UNL     1      -9.539   9.408  66.088  1.00  0.00    -0.311 C  
HETATM   13  H   UNL     1     -12.071   9.419  68.968  1.00  0.00     0.000 HD 
HETATM   14  C   UNL     1      -8.322   9.575  66.991  1.00  0.00    -0.124 C  
HETATM   15  C   UNL     1      -8.485  10.680  68.030  1.00  0.00    -0.119 C  
HETATM   16  C   UNL     1      -9.784  10.532  68.846  1.00  0.00    -0.206 C  
BRANCH  16  17
HETATM   17  C   UNL     1      -9.789   9.239  69.719  1.00  0.00    -0.188 C  
BRANCH  17  18
HETATM   18  N   UNL     1      -9.874   9.446  71.184  1.00  0.00    -0.263 NA 
HETATM   19  C   UNL     1     -11.232   9.224  71.685  1.00  0.00    -0.379 C  
HETATM   20  C   UNL     1      -8.940   8.539  71.862  1.00  0.00    -0.231 C  
ENDBRANCH  17  18
ENDBRANCH  16  17
ENDBRANCH   7   9
ENDBRANCH   2   3
TORSDOF 4
ENDMDL
MODEL       68
REMARK 921   NORMALIZED FREE ENERGY PREDICTED BY IDOCK:   -4.27 KCAL/MOL
REMARK 922        TOTAL FREE ENERGY PREDICTED BY IDOCK:   -6.11 KCAL/MOL
REMARK 923 INTER-LIGAND FREE ENERGY PREDICTED BY IDOCK:   -5.48 KCAL/MOL
REMARK 924 INTRA-LIGAND FREE ENERGY PREDICTED BY IDOCK:   -0.63 KCAL/MOL
REMARK 927      BINDING AFFINITY PREDICTED BY RF-SCORE:    0.00 PKD
ROOT
HETATM    1  C   UNL     1     -12.013  15.942  64.441  1.00  0.00    -0.018 C  
HETATM    2  O   UNL     1     -12.742  14.800  64.014  1.00  0.00    -0.786 OA 
ENDROOT
BRANCH   2   3
HETATM    3  C   UNL     1     -12.179  13.574  64.246  1.00  0.00    -0.396 A  
HETATM    4  C   UNL     1     -11.936  12.584  63.308  1.00  0.00    -0.516 A  
HETATM    5  C   UNL     1     -11.376  11.370  63.715  1.00  0.00    -0.310 A  
HETATM    6  C   UNL     1     -11.083  11.142  65.064  1.00  0.00    -0.100 A  
HETATM    7  C   UNL     1     -11.335  12.120  66.045  1.00  0.00    -0.410 A  
HETATM    8  C   UNL     1     -11.850  13.347  65.593  1.00  0.00    -0.403 A  
BRANCH   7   9
HETATM    9  C   UNL     1     -11.058  11.810  67.529  1.00  0.00    -0.272 C  
HETATM   10  O   UNL     1     -12.188  11.040  67.976  1.00  0.00    -0.703 OA 
HETATM   11  C   UNL     1      -9.813  10.928  67.801  1.00  0.00    -0.194 C  
HETATM   12  C   UNL     1      -8.467  11.649  67.681  1.00  0.00    -0.142 C  
HETATM   13  H   UNL     1     -12.017  10.849  68.891  1.00  0.00     0.000 HD 
HETATM   14  C   UNL     1      -8.424  13.031  68.324  1.00  0.00    -0.159 C  
HETATM   15  C   UNL     1      -9.670  13.867  68.046  1.00  0.00    -0.226 C  
HETATM   16  C   UNL     1     -10.970  13.117  68.393  1.00  0.00    -0.287 C  
BRANCH  16  17
HETATM   17  C   UNL     1     -11.092  12.820  69.921  1.00  0.00     0.318 C  
BRANCH  17  18
HETATM   18  N   UNL     1     -12.450  12.488  70.411  1.00  0.00    -0.197 NA 
HETATM   19  C   UNL     1     -12.463  11.230  71.159  1.00  0.00    -0.373 C  
HETATM   20  C   UNL     1     -12.944  13.577  71.262  1.00  0.00    -0.304 C  
ENDBRANCH  17  18
ENDBRANCH  16  17
ENDBRANCH   7   9
ENDBRANCH   2   3
TORSDOF 4
ENDMDL
MODEL       69
REMARK 921   NORMALIZED FREE ENERGY PREDICTED BY IDOCK:   -4.24 KCAL/MOL
REMARK 922        TOTAL FREE ENERGY PREDICTED BY IDOCK:   -6.08 KCAL/MOL
REMARK 923 INTER-LIGAND FREE ENERGY PREDICTED BY IDOCK:   -5.96 KCAL/MOL
REMARK 924 INTRA-LIGAND FREE ENERGY PREDICTED BY IDOCK:   -0.12 KCAL/MOL
REMARK 927      BINDING AFFINITY PREDICTED BY RF-SCORE:    0.00 PKD
ROOT
HETATM    1  C   UNL     1     -12.089  14.095  67.829  1.00  0.00    -0.286 C  
HETATM    2  O   UNL     1     -12.303  14.367  66.452  1.00  0.00    -0.409 OA 
ENDROOT
BRANCH   2   3
HETATM    3  C   UNL     1     -11.813  13.461  65.551  1.00  0.00    -0.363 A  
HETATM    4  C   UNL     1     -12.034  13.452  64.183  1.00  0.00    -0.505 A  
HETATM    5  C   UNL     1     -11.480  12.436  63.401  1.00  0.00    -0.526 A  
HETATM    6  C   UNL     1     -10.726  11.417  63.994  1.00  0.00    -0.450 A  
HETATM    7  C   UNL     1     -10.498  11.386  65.383  1.00  0.00    -0.336 A  
HETATM    8  C   UNL     1     -11.026  12.452  66.131  1.00  0.00    -0.321 A  
BRANCH   7   9
HETATM    9  C   UNL     1      -9.717  10.215  66.008  1.00  0.00    -0.226 C  
HETATM   10  O   UNL     1      -9.395   9.341  64.912  1.00  0.00    -0.416 OA 
HETATM   11  C   UNL     1      -8.360  10.593  66.657  1.00  0.00    -0.136 C  
HETATM   12  C   UNL     1      -8.461  11.280  68.022  1.00  0.00    -0.138 C  
HETATM   13  H   UNL     1      -8.914   8.619  65.298  1.00  0.00     0.000 HD 
HETATM   14  C   UNL     1      -9.474  10.655  68.976  1.00  0.00    -0.202 C  
HETATM   15  C   UNL     1     -10.792  10.284  68.302  1.00  0.00    -0.300 C  
HETATM   16  C   UNL     1     -10.585   9.419  67.045  1.00  0.00    -0.272 C  
BRANCH  16  17
HETATM   17  C   UNL     1      -9.969   8.025  67.380  1.00  0.00    -0.207 C  
BRANCH  17  18
HETATM   18  N   UNL     1     -10.894   6.870  67.300  1.00  0.00    -0.343 NA 
HETATM   19  C   UNL     1     -10.350   5.799  66.463  1.00  0.00    -0.209 C  
HETATM   20  C   UNL     1     -11.160   6.360  68.649  1.00  0.00    -0.311 C  
ENDBRANCH  17  18
ENDBRANCH  16  17
ENDBRANCH   7   9
ENDBRANCH   2   3
TORSDOF 4
ENDMDL
MODEL       70
REMARK 921   NORMALIZED FREE ENERGY PREDICTED BY IDOCK:   -4.23 KCAL/MOL
REMARK 922        TOTAL FREE ENERGY PREDICTED BY IDOCK:   -6.06 KCAL/MOL
REMARK 923 INTER-LIGAND FREE ENERGY PREDICTED BY IDOCK:   -5.22 KCAL/MOL
REMARK 924 INTRA-LIGAND FREE ENERGY PREDICTED BY IDOCK:   -0.84 KCAL/MOL
REMARK 927      BINDING AFFINITY PREDICTED BY RF-SCORE:    0.00 PKD
ROOT
HETATM    1  C   UNL     1     -12.480  11.796  63.225  1.00  0.00    -0.290 C  
HETATM    2  O   UNL     1     -12.733  13.008  63.920  1.00  0.00    -0.672 OA 
ENDROOT
BRANCH   2   3
HETATM    3  C   UNL     1     -12.208  13.129  65.179  1.00  0.00    -0.450 A  
HETATM    4  C   UNL     1     -12.580  14.051  66.144  1.00  0.00    -0.407 A  
HETATM    5  C   UNL     1     -11.923  14.060  67.378  1.00  0.00    -0.439 A  
HETATM    6  C   UNL     1     -10.880  13.163  67.632  1.00  0.00    -0.269 A  
HETATM    7  C   UNL     1     -10.466  12.227  66.665  1.00  0.00    -0.247 A  
HETATM    8  C   UNL     1     -11.182  12.211  65.456  1.00  0.00    -0.381 A  
BRANCH   7   9
HETATM    9  C   UNL     1      -9.272  11.297  66.957  1.00  0.00    -0.165 C  
HETATM   10  O   UNL     1      -8.124  11.963  66.401  1.00  0.00    -0.366 OA 
HETATM   11  C   UNL     1      -8.948  11.084  68.458  1.00  0.00    -0.163 C  
HETATM   12  C   UNL     1      -9.894  10.133  69.198  1.00  0.00    -0.225 C  
HETATM   13  H   UNL     1      -7.388  11.389  66.581  1.00  0.00     0.000 HD 
HETATM   14  C   UNL     1     -10.247   8.862  68.433  1.00  0.00    -0.231 C  
HETATM   15  C   UNL     1     -10.547   9.107  66.957  1.00  0.00    -0.266 C  
HETATM   16  C   UNL     1      -9.430   9.903  66.255  1.00  0.00    -0.245 C  
BRANCH  16  17
HETATM   17  C   UNL     1      -8.085   9.114  66.203  1.00  0.00    -0.107 C  
BRANCH  17  18
HETATM   18  N   UNL     1      -7.279   9.285  64.972  1.00  0.00    -0.096 NA 
HETATM   19  C   UNL     1      -5.850   9.102  65.230  1.00  0.00    -0.055 C  
HETATM   20  C   UNL     1      -7.728   8.326  63.955  1.00  0.00    -0.140 C  
ENDBRANCH  17  18
ENDBRANCH  16  17
ENDBRANCH   7   9
ENDBRANCH   2   3
TORSDOF 4
ENDMDL
MODEL       71
REMARK 921   NORMALIZED FREE ENERGY PREDICTED BY IDOCK:   -4.20 KCAL/MOL
REMARK 922        TOTAL FREE ENERGY PREDICTED BY IDOCK:   -6.03 KCAL/MOL
REMARK 923 INTER-LIGAND FREE ENERGY PREDICTED BY IDOCK:   -5.76 KCAL/MOL
REMARK 924 INTRA-LIGAND FREE ENERGY PREDICTED BY IDOCK:   -0.27 KCAL/MOL
REMARK 927      BINDING AFFINITY PREDICTED BY RF-SCORE:    0.00 PKD
ROOT
HETATM    1  C   UNL     1     -11.187  12.242  67.416  1.00  0.00    -0.301 C  
HETATM    2  O   UNL     1     -11.326  12.753  68.734  1.00  0.00    -0.249 OA 
ENDROOT
BRANCH   2   3
HETATM    3  C   UNL     1     -11.700  11.871  69.712  1.00  0.00    -0.331 A  
HETATM    4  C   UNL     1     -12.637  12.089  70.708  1.00  0.00    -0.312 A  
HETATM    5  C   UNL     1     -12.886  11.089  71.652  1.00  0.00    -0.540 A  
HETATM    6  C   UNL     1     -12.178   9.883  71.610  1.00  0.00    -0.482 A  
HETATM    7  C   UNL     1     -11.206   9.637  70.622  1.00  0.00    -0.385 A  
HETATM    8  C   UNL     1     -11.019  10.643  69.659  1.00  0.00    -0.331 A  
BRANCH   7   9
HETATM    9  C   UNL     1     -10.401   8.323  70.644  1.00  0.00    -0.199 C  
HETATM   10  O   UNL     1      -9.270   8.552  69.784  1.00  0.00    -0.154 OA 
HETATM   11  C   UNL     1      -9.809   7.931  72.022  1.00  0.00    -0.250 C  
HETATM   12  C   UNL     1     -10.816   7.354  73.022  1.00  0.00    -0.423 C  
HETATM   13  H   UNL     1      -8.775   7.742  69.798  1.00  0.00     0.000 HD 
HETATM   14  C   UNL     1     -11.789   6.339  72.432  1.00  0.00    -0.272 C  
HETATM   15  C   UNL     1     -12.342   6.751  71.071  1.00  0.00    -0.370 C  
HETATM   16  C   UNL     1     -11.229   7.120  70.072  1.00  0.00    -0.271 C  
BRANCH  16  17
HETATM   17  C   UNL     1     -10.324   5.899  69.717  1.00  0.00    -0.243 C  
BRANCH  17  18
HETATM   18  N   UNL     1     -10.173   5.600  68.274  1.00  0.00    -0.173 NA 
HETATM   19  C   UNL     1     -10.872   6.582  67.442  1.00  0.00    -0.373 C  
HETATM   20  C   UNL     1      -8.748   5.578  67.924  1.00  0.00    -0.106 C  
ENDBRANCH  17  18
ENDBRANCH  16  17
ENDBRANCH   7   9
ENDBRANCH   2   3
TORSDOF 4
ENDMDL
MODEL       72
REMARK 921   NORMALIZED FREE ENERGY PREDICTED BY IDOCK:   -4.20 KCAL/MOL
REMARK 922        TOTAL FREE ENERGY PREDICTED BY IDOCK:   -6.03 KCAL/MOL
REMARK 923 INTER-LIGAND FREE ENERGY PREDICTED BY IDOCK:   -5.33 KCAL/MOL
REMARK 924 INTRA-LIGAND FREE ENERGY PREDICTED BY IDOCK:   -0.70 KCAL/MOL
REMARK 927      BINDING AFFINITY PREDICTED BY RF-SCORE:    0.00 PKD
ROOT
HETATM    1  C   UNL     1      -8.846   6.396  67.452  1.00  0.00    -0.104 C  
HETATM    2  O   UNL     1      -9.448   7.423  66.678  1.00  0.00    -0.173 OA 
ENDROOT
BRANCH   2   3
HETATM    3  C   UNL     1     -10.001   8.476  67.357  1.00  0.00    -0.214 A  
HETATM    4  C   UNL     1     -10.336   9.714  66.832  1.00  0.00    -0.307 A  
HETATM    5  C   UNL     1     -10.871  10.696  67.670  1.00  0.00    -0.346 A  
HETATM    6  C   UNL     1     -11.045  10.445  69.036  1.00  0.00    -0.297 A  
HETATM    7  C   UNL     1     -10.696   9.204  69.604  1.00  0.00    -0.236 A  
HETATM    8  C   UNL     1     -10.211   8.223  68.723  1.00  0.00    -0.226 A  
BRANCH   7   9
HETATM    9  C   UNL     1     -10.843   8.985  71.121  1.00  0.00    -0.294 C  
HETATM   10  O   UNL     1      -9.598   9.424  71.694  1.00  0.00    -0.260 OA 
HETATM   11  C   UNL     1     -11.944   9.831  71.811  1.00  0.00    -0.388 C  
HETATM   12  C   UNL     1     -13.377   9.342  71.582  1.00  0.00    -0.461 C  
HETATM   13  H   UNL     1      -9.689   9.289  72.629  1.00  0.00     0.000 HD 
HETATM   14  C   UNL     1     -13.562   7.833  71.700  1.00  0.00    -0.416 C  
HETATM   15  C   UNL     1     -12.454   7.032  71.022  1.00  0.00    -0.373 C  
HETATM   16  C   UNL     1     -11.050   7.471  71.477  1.00  0.00    -0.263 C  
BRANCH  16  17
HETATM   17  C   UNL     1     -10.801   7.183  72.991  1.00  0.00    -0.328 C  
BRANCH  17  18
HETATM   18  N   UNL     1     -10.046   5.947  73.300  1.00  0.00    -0.181 NA 
HETATM   19  C   UNL     1     -10.939   4.836  73.637  1.00  0.00    -0.318 C  
HETATM   20  C   UNL     1      -9.210   5.581  72.150  1.00  0.00    -0.143 C  
ENDBRANCH  17  18
ENDBRANCH  16  17
ENDBRANCH   7   9
ENDBRANCH   2   3
TORSDOF 4
ENDMDL
MODEL       73
REMARK 921   NORMALIZED FREE ENERGY PREDICTED BY IDOCK:   -4.20 KCAL/MOL
REMARK 922        TOTAL FREE ENERGY PREDICTED BY IDOCK:   -6.02 KCAL/MOL
REMARK 923 INTER-LIGAND FREE ENERGY PREDICTED BY IDOCK:   -5.28 KCAL/MOL
REMARK 924 INTRA-LIGAND FREE ENERGY PREDICTED BY IDOCK:   -0.74 KCAL/MOL
REMARK 927      BINDING AFFINITY PREDICTED BY RF-SCORE:    0.00 PKD
ROOT
HETATM    1  C   UNL     1     -11.339  11.162  68.382  1.00  0.00    -0.288 C  
HETATM    2  O   UNL     1     -11.574  11.592  69.714  1.00  0.00    -0.294 OA 
ENDROOT
BRANCH   2   3
HETATM    3  C   UNL     1     -11.900  10.632  70.634  1.00  0.00    -0.363 A  
HETATM    4  C   UNL     1     -13.124  10.471  71.264  1.00  0.00    -0.478 A  
HETATM    5  C   UNL     1     -13.287   9.450  72.204  1.00  0.00    -0.545 A  
HETATM    6  C   UNL     1     -12.217   8.609  72.530  1.00  0.00    -0.374 A  
HETATM    7  C   UNL     1     -10.955   8.759  71.923  1.00  0.00    -0.435 A  
HETATM    8  C   UNL     1     -10.842   9.761  70.944  1.00  0.00    -0.399 A  
BRANCH   7   9
HETATM    9  C   UNL     1      -9.783   7.855  72.352  1.00  0.00    -0.213 C  
HETATM   10  O   UNL     1      -8.781   8.749  72.870  1.00  0.00    -0.379 OA 
HETATM   11  C   UNL     1     -10.097   6.863  73.501  1.00  0.00    -0.323 C  
HETATM   12  C   UNL     1     -10.918   5.636  73.095  1.00  0.00    -0.326 C  
HETATM   13  H   UNL     1      -8.059   8.191  73.134  1.00  0.00     0.000 HD 
HETATM   14  C   UNL     1     -10.484   4.984  71.787  1.00  0.00    -0.246 C  
HETATM   15  C   UNL     1     -10.172   5.989  70.682  1.00  0.00    -0.260 C  
HETATM   16  C   UNL     1      -9.174   7.070  71.138  1.00  0.00    -0.157 C  
BRANCH  16  17
HETATM   17  C   UNL     1      -7.768   6.477  71.467  1.00  0.00    -0.099 C  
BRANCH  17  18
HETATM   18  N   UNL     1      -6.605   7.300  71.060  1.00  0.00    -0.043 NA 
HETATM   19  C   UNL     1      -5.672   7.504  72.169  1.00  0.00    -0.036 C  
HETATM   20  C   UNL     1      -5.913   6.651  69.941  1.00  0.00    -0.023 C  
ENDBRANCH  17  18
ENDBRANCH  16  17
ENDBRANCH   7   9
ENDBRANCH   2   3
TORSDOF 4
ENDMDL
MODEL       74
REMARK 921   NORMALIZED FREE ENERGY PREDICTED BY IDOCK:   -4.19 KCAL/MOL
REMARK 922        TOTAL FREE ENERGY PREDICTED BY IDOCK:   -6.02 KCAL/MOL
REMARK 923 INTER-LIGAND FREE ENERGY PREDICTED BY IDOCK:   -5.25 KCAL/MOL
REMARK 924 INTRA-LIGAND FREE ENERGY PREDICTED BY IDOCK:   -0.77 KCAL/MOL
REMARK 927      BINDING AFFINITY PREDICTED BY RF-SCORE:    0.00 PKD
ROOT
HETATM    1  C   UNL     1      -9.429   9.952  62.336  1.00  0.00    -0.137 C  
HETATM    2  O   UNL     1      -9.767  10.227  63.687  1.00  0.00    -0.301 OA 
ENDROOT
BRANCH   2   3
HETATM    3  C   UNL     1     -10.506  11.353  63.932  1.00  0.00    -0.387 A  
HETATM    4  C   UNL     1     -11.617  11.783  63.223  1.00  0.00    -0.325 A  
HETATM    5  C   UNL     1     -12.247  12.977  63.586  1.00  0.00    -0.568 A  
HETATM    6  C   UNL     1     -11.748  13.749  64.641  1.00  0.00    -0.417 A  
HETATM    7  C   UNL     1     -10.610  13.349  65.369  1.00  0.00    -0.310 A  
HETATM    8  C   UNL     1     -10.034  12.119  65.011  1.00  0.00    -0.242 A  
BRANCH   7   9
HETATM    9  C   UNL     1     -10.053  14.255  66.483  1.00  0.00    -0.278 C  
HETATM   10  O   UNL     1      -9.046  15.066  65.849  1.00  0.00    -0.477 OA 
HETATM   11  C   UNL     1     -11.068  15.251  67.099  1.00  0.00    -0.323 C  
HETATM   12  C   UNL     1     -12.073  14.635  68.077  1.00  0.00    -0.206 C  
HETATM   13  H   UNL     1      -8.703  15.624  66.537  1.00  0.00     0.000 HD 
HETATM   14  C   UNL     1     -11.471  13.641  69.066  1.00  0.00    -0.346 C  
HETATM   15  C   UNL     1     -10.467  12.685  68.429  1.00  0.00    -0.248 C  
HETATM   16  C   UNL     1      -9.377  13.425  67.630  1.00  0.00    -0.217 C  
BRANCH  16  17
HETATM   17  C   UNL     1      -8.473  14.311  68.543  1.00  0.00    -0.164 C  
BRANCH  17  18
HETATM   18  N   UNL     1      -7.015  14.217  68.299  1.00  0.00    -0.093 NA 
HETATM   19  C   UNL     1      -6.352  15.511  68.473  1.00  0.00    -0.100 C  
HETATM   20  C   UNL     1      -6.427  13.231  69.214  1.00  0.00    -0.107 C  
ENDBRANCH  17  18
ENDBRANCH  16  17
ENDBRANCH   7   9
ENDBRANCH   2   3
TORSDOF 4
ENDMDL
MODEL       75
REMARK 921   NORMALIZED FREE ENERGY PREDICTED BY IDOCK:   -4.19 KCAL/MOL
REMARK 922        TOTAL FREE ENERGY PREDICTED BY IDOCK:   -6.01 KCAL/MOL
REMARK 923 INTER-LIGAND FREE ENERGY PREDICTED BY IDOCK:   -6.22 KCAL/MOL
REMARK 924 INTRA-LIGAND FREE ENERGY PREDICTED BY IDOCK:    0.21 KCAL/MOL
REMARK 927      BINDING AFFINITY PREDICTED BY RF-SCORE:    0.00 PKD
ROOT
HETATM    1  C   UNL     1     -10.809  11.979  67.123  1.00  0.00    -0.253 C  
HETATM    2  O   UNL     1     -10.442  11.095  68.172  1.00  0.00    -0.176 OA 
ENDROOT
BRANCH   2   3
HETATM    3  C   UNL     1     -11.213  11.111  69.303  1.00  0.00    -0.267 A  
HETATM    4  C   UNL     1     -11.905  12.195  69.817  1.00  0.00    -0.397 A  
HETATM    5  C   UNL     1     -12.630  12.051  71.004  1.00  0.00    -0.370 A  
HETATM    6  C   UNL     1     -12.638  10.829  71.685  1.00  0.00    -0.456 A  
HETATM    7  C   UNL     1     -11.930   9.713  71.199  1.00  0.00    -0.452 A  
HETATM    8  C   UNL     1     -11.256   9.878  69.977  1.00  0.00    -0.327 A  
BRANCH   7   9
HETATM    9  C   UNL     1     -11.911   8.402  72.008  1.00  0.00    -0.357 C  
HETATM   10  O   UNL     1     -12.715   8.661  73.174  1.00  0.00    -0.587 OA 
HETATM   11  C   UNL     1     -12.563   7.182  71.310  1.00  0.00    -0.421 C  
HETATM   12  C   UNL     1     -11.719   6.536  70.207  1.00  0.00    -0.430 C  
HETATM   13  H   UNL     1     -12.703   7.852  73.672  1.00  0.00     0.000 HD 
HETATM   14  C   UNL     1     -10.244   6.361  70.554  1.00  0.00    -0.230 C  
HETATM   15  C   UNL     1      -9.638   7.576  71.251  1.00  0.00    -0.165 C  
HETATM   16  C   UNL     1     -10.462   8.023  72.474  1.00  0.00    -0.383 C  
BRANCH  16  17
HETATM   17  C   UNL     1     -10.471   6.948  73.606  1.00  0.00    -0.369 C  
BRANCH  17  18
HETATM   18  N   UNL     1      -9.239   6.859  74.425  1.00  0.00    -0.211 NA 
HETATM   19  C   UNL     1      -8.503   5.621  74.162  1.00  0.00    -0.116 C  
HETATM   20  C   UNL     1      -8.380   8.016  74.147  1.00  0.00    -0.253 C  
ENDBRANCH  17  18
ENDBRANCH  16  17
ENDBRANCH   7   9
ENDBRANCH   2   3
TORSDOF 4
ENDMDL
MODEL       76
REMARK 921   NORMALIZED FREE ENERGY PREDICTED BY IDOCK:   -4.12 KCAL/MOL
REMARK 922        TOTAL FREE ENERGY PREDICTED BY IDOCK:   -5.93 KCAL/MOL
REMARK 923 INTER-LIGAND FREE ENERGY PREDICTED BY IDOCK:   -5.30 KCAL/MOL
REMARK 924 INTRA-LIGAND FREE ENERGY PREDICTED BY IDOCK:   -0.64 KCAL/MOL
REMARK 927      BINDING AFFINITY PREDICTED BY RF-SCORE:    0.00 PKD
ROOT
HETATM    1  C   UNL     1     -14.302   8.039  71.954  1.00  0.00    -0.457 C  
HETATM    2  O   UNL     1     -13.362   8.897  72.583  1.00  0.00    -0.433 OA 
ENDROOT
BRANCH   2   3
HETATM    3  C   UNL     1     -12.710   9.802  71.789  1.00  0.00    -0.426 A  
HETATM    4  C   UNL     1     -13.110  11.099  71.513  1.00  0.00    -0.489 A  
HETATM    5  C   UNL     1     -12.341  11.890  70.655  1.00  0.00    -0.405 A  
HETATM    6  C   UNL     1     -11.187  11.372  70.056  1.00  0.00    -0.160 A  
HETATM    7  C   UNL     1     -10.764  10.051  70.302  1.00  0.00    -0.367 A  
HETATM    8  C   UNL     1     -11.531   9.302  71.209  1.00  0.00    -0.418 A  
BRANCH   7   9
HETATM    9  C   UNL     1      -9.524   9.494  69.577  1.00  0.00    -0.185 C  
HETATM   10  O   UNL     1      -8.398  10.160  70.177  1.00  0.00    -0.337 OA 
HETATM   11  C   UNL     1      -9.267   7.978  69.769  1.00  0.00    -0.149 C  
HETATM   12  C   UNL     1     -10.181   7.056  68.956  1.00  0.00    -0.191 C  
HETATM   13  H   UNL     1      -7.634   9.816  69.730  1.00  0.00     0.000 HD 
HETATM   14  C   UNL     1     -10.399   7.489  67.510  1.00  0.00    -0.321 C  
HETATM   15  C   UNL     1     -10.635   8.989  67.356  1.00  0.00    -0.309 C  
HETATM   16  C   UNL     1      -9.542   9.829  68.044  1.00  0.00    -0.160 C  
BRANCH  16  17
HETATM   17  C   UNL     1      -8.143   9.634  67.382  1.00  0.00    -0.110 C  
BRANCH  17  18
HETATM   18  N   UNL     1      -7.708  10.706  66.456  1.00  0.00    -0.130 NA 
HETATM   19  C   UNL     1      -8.602  11.865  66.512  1.00  0.00    -0.126 C  
HETATM   20  C   UNL     1      -6.340  11.118  66.789  1.00  0.00    -0.125 C  
ENDBRANCH  17  18
ENDBRANCH  16  17
ENDBRANCH   7   9
ENDBRANCH   2   3
TORSDOF 4
ENDMDL
MODEL       77
REMARK 921   NORMALIZED FREE ENERGY PREDICTED BY IDOCK:   -4.12 KCAL/MOL
REMARK 922        TOTAL FREE ENERGY PREDICTED BY IDOCK:   -5.93 KCAL/MOL
REMARK 923 INTER-LIGAND FREE ENERGY PREDICTED BY IDOCK:   -5.05 KCAL/MOL
REMARK 924 INTRA-LIGAND FREE ENERGY PREDICTED BY IDOCK:   -0.88 KCAL/MOL
REMARK 927      BINDING AFFINITY PREDICTED BY RF-SCORE:    0.00 PKD
ROOT
HETATM    1  C   UNL     1     -10.222  11.694  63.421  1.00  0.00    -0.433 C  
HETATM    2  O   UNL     1     -10.727  12.578  64.411  1.00  0.00    -0.306 OA 
ENDROOT
BRANCH   2   3
HETATM    3  C   UNL     1     -10.965  12.056  65.654  1.00  0.00    -0.297 A  
HETATM    4  C   UNL     1     -11.568  12.703  66.721  1.00  0.00    -0.438 A  
HETATM    5  C   UNL     1     -11.713  12.034  67.940  1.00  0.00    -0.393 A  
HETATM    6  C   UNL     1     -11.232  10.729  68.094  1.00  0.00    -0.365 A  
HETATM    7  C   UNL     1     -10.598  10.051  67.035  1.00  0.00    -0.279 A  
HETATM    8  C   UNL     1     -10.516  10.734  65.810  1.00  0.00    -0.256 A  
BRANCH   7   9
HETATM    9  C   UNL     1     -10.025   8.639  67.260  1.00  0.00    -0.219 C  
HETATM   10  O   UNL     1     -11.136   7.742  67.081  1.00  0.00    -0.501 OA 
HETATM   11  C   UNL     1      -8.951   8.188  66.237  1.00  0.00    -0.215 C  
HETATM   12  C   UNL     1      -7.563   8.803  66.437  1.00  0.00    -0.091 C  
HETATM   13  H   UNL     1     -10.783   6.872  67.220  1.00  0.00     0.000 HD 
HETATM   14  C   UNL     1      -7.089   8.847  67.886  1.00  0.00    -0.079 C  
HETATM   15  C   UNL     1      -8.174   9.283  68.866  1.00  0.00    -0.111 C  
HETATM   16  C   UNL     1      -9.467   8.459  68.715  1.00  0.00    -0.147 C  
BRANCH  16  17
HETATM   17  C   UNL     1      -9.258   6.957  69.083  1.00  0.00    -0.141 C  
BRANCH  17  18
HETATM   18  N   UNL     1     -10.443   6.250  69.623  1.00  0.00    -0.215 NA 
HETATM   19  C   UNL     1     -10.067   5.023  70.328  1.00  0.00    -0.269 C  
HETATM   20  C   UNL     1     -11.174   7.141  70.531  1.00  0.00    -0.290 C  
ENDBRANCH  17  18
ENDBRANCH  16  17
ENDBRANCH   7   9
ENDBRANCH   2   3
TORSDOF 4
ENDMDL
MODEL       78
REMARK 921   NORMALIZED FREE ENERGY PREDICTED BY IDOCK:   -4.11 KCAL/MOL
REMARK 922        TOTAL FREE ENERGY PREDICTED BY IDOCK:   -5.92 KCAL/MOL
REMARK 923 INTER-LIGAND FREE ENERGY PREDICTED BY IDOCK:   -5.14 KCAL/MOL
REMARK 924 INTRA-LIGAND FREE ENERGY PREDICTED BY IDOCK:   -0.78 KCAL/MOL
REMARK 927      BINDING AFFINITY PREDICTED BY RF-SCORE:    0.00 PKD
ROOT
HETATM    1  C   UNL     1     -11.823  11.886  66.604  1.00  0.00    -0.067 C  
HETATM    2  O   UNL     1     -12.291  13.169  66.995  1.00  0.00    -0.282 OA 
ENDROOT
BRANCH   2   3
HETATM    3  C   UNL     1     -11.740  14.254  66.367  1.00  0.00    -0.391 A  
HETATM    4  C   UNL     1     -11.731  14.506  65.005  1.00  0.00    -0.392 A  
HETATM    5  C   UNL     1     -11.099  15.654  64.520  1.00  0.00    -0.303 A  
HETATM    6  C   UNL     1     -10.456  16.534  65.398  1.00  0.00    -0.291 A  
HETATM    7  C   UNL     1     -10.430  16.297  66.786  1.00  0.00    -0.287 A  
HETATM    8  C   UNL     1     -11.120  15.162  67.243  1.00  0.00    -0.332 A  
BRANCH   7   9
HETATM    9  C   UNL     1      -9.659  17.253  67.715  1.00  0.00    -0.262 C  
HETATM   10  O   UNL     1     -10.477  18.433  67.813  1.00  0.00    -0.388 OA 
HETATM   11  C   UNL     1      -9.465  16.754  69.169  1.00  0.00    -0.162 C  
HETATM   12  C   UNL     1      -8.388  15.680  69.349  1.00  0.00    -0.238 C  
HETATM   13  H   UNL     1     -10.001  19.023  68.386  1.00  0.00     0.000 HD 
HETATM   14  C   UNL     1      -7.094  15.941  68.585  1.00  0.00    -0.133 C  
HETATM   15  C   UNL     1      -7.323  16.443  67.162  1.00  0.00    -0.230 C  
HETATM   16  C   UNL     1      -8.268  17.659  67.114  1.00  0.00    -0.229 C  
BRANCH  16  17
HETATM   17  C   UNL     1      -7.662  18.909  67.824  1.00  0.00    -0.242 C  
BRANCH  17  18
HETATM   18  N   UNL     1      -7.747  20.185  67.077  1.00  0.00    -0.301 NA 
HETATM   19  C   UNL     1      -6.783  21.169  67.573  1.00  0.00    -0.339 C  
HETATM   20  C   UNL     1      -7.511  19.935  65.650  1.00  0.00    -0.268 C  
ENDBRANCH  17  18
ENDBRANCH  16  17
ENDBRANCH   7   9
ENDBRANCH   2   3
TORSDOF 4
ENDMDL
MODEL       79
REMARK 921   NORMALIZED FREE ENERGY PREDICTED BY IDOCK:   -4.08 KCAL/MOL
REMARK 922        TOTAL FREE ENERGY PREDICTED BY IDOCK:   -5.89 KCAL/MOL
REMARK 923 INTER-LIGAND FREE ENERGY PREDICTED BY IDOCK:   -5.05 KCAL/MOL
REMARK 924 INTRA-LIGAND FREE ENERGY PREDICTED BY IDOCK:   -0.83 KCAL/MOL
REMARK 927      BINDING AFFINITY PREDICTED BY RF-SCORE:    0.00 PKD
ROOT
HETATM    1  C   UNL     1      -8.450   9.003  67.022  1.00  0.00    -0.120 C  
HETATM    2  O   UNL     1      -9.049   7.830  66.491  1.00  0.00    -0.154 OA 
ENDROOT
BRANCH   2   3
HETATM    3  C   UNL     1      -9.338   6.821  67.371  1.00  0.00    -0.130 A  
HETATM    4  C   UNL     1      -9.068   5.473  67.200  1.00  0.00    -0.111 A  
HETATM    5  C   UNL     1      -9.454   4.562  68.187  1.00  0.00    -0.201 A  
HETATM    6  C   UNL     1     -10.132   5.000  69.330  1.00  0.00    -0.288 A  
HETATM    7  C   UNL     1     -10.438   6.361  69.525  1.00  0.00    -0.279 A  
HETATM    8  C   UNL     1      -9.989   7.255  68.538  1.00  0.00    -0.168 A  
BRANCH   7   9
HETATM    9  C   UNL     1     -11.240   6.799  70.765  1.00  0.00    -0.304 C  
HETATM   10  O   UNL     1     -12.610   6.866  70.331  1.00  0.00    -0.593 OA 
HETATM   11  C   UNL     1     -11.223   5.802  71.952  1.00  0.00    -0.289 C  
HETATM   12  C   UNL     1      -9.929   5.788  72.771  1.00  0.00    -0.196 C  
HETATM   13  H   UNL     1     -13.104   7.136  71.096  1.00  0.00     0.000 HD 
HETATM   14  C   UNL     1      -9.359   7.167  73.085  1.00  0.00    -0.193 C  
HETATM   15  C   UNL     1      -9.403   8.125  71.899  1.00  0.00    -0.251 C  
HETATM   16  C   UNL     1     -10.806   8.219  71.271  1.00  0.00    -0.285 C  
BRANCH  16  17
HETATM   17  C   UNL     1     -11.852   8.839  72.250  1.00  0.00    -0.333 C  
BRANCH  17  18
HETATM   18  N   UNL     1     -13.079   9.388  71.626  1.00  0.00    -0.370 NA 
HETATM   19  C   UNL     1     -14.281   9.003  72.368  1.00  0.00    -0.339 C  
HETATM   20  C   UNL     1     -12.983  10.851  71.560  1.00  0.00    -0.451 C  
ENDBRANCH  17  18
ENDBRANCH  16  17
ENDBRANCH   7   9
ENDBRANCH   2   3
TORSDOF 4
ENDMDL
MODEL       80
REMARK 921   NORMALIZED FREE ENERGY PREDICTED BY IDOCK:   -4.07 KCAL/MOL
REMARK 922        TOTAL FREE ENERGY PREDICTED BY IDOCK:   -5.87 KCAL/MOL
REMARK 923 INTER-LIGAND FREE ENERGY PREDICTED BY IDOCK:   -5.14 KCAL/MOL
REMARK 924 INTRA-LIGAND FREE ENERGY PREDICTED BY IDOCK:   -0.73 KCAL/MOL
REMARK 927      BINDING AFFINITY PREDICTED BY RF-SCORE:    0.00 PKD
ROOT
HETATM    1  C   UNL     1     -10.510  17.179  65.837  1.00  0.00    -0.258 C  
HETATM    2  O   UNL     1      -9.944  16.025  65.233  1.00  0.00    -0.458 OA 
ENDROOT
BRANCH   2   3
HETATM    3  C   UNL     1     -10.625  14.846  65.374  1.00  0.00    -0.373 A  
HETATM    4  C   UNL     1     -11.808  14.493  64.746  1.00  0.00    -0.446 A  
HETATM    5  C   UNL     1     -12.393  13.254  65.021  1.00  0.00    -0.499 A  
HETATM    6  C   UNL     1     -11.804  12.382  65.943  1.00  0.00    -0.467 A  
HETATM    7  C   UNL     1     -10.612  12.718  66.613  1.00  0.00    -0.272 A  
HETATM    8  C   UNL     1     -10.024  13.948  66.274  1.00  0.00    -0.315 A  
BRANCH   7   9
HETATM    9  C   UNL     1     -10.027  11.760  67.668  1.00  0.00    -0.194 C  
HETATM   10  O   UNL     1     -10.282  12.387  68.938  1.00  0.00    -0.399 OA 
HETATM   11  C   UNL     1     -10.700  10.366  67.745  1.00  0.00    -0.327 C  
HETATM   12  C   UNL     1     -10.315   9.396  66.624  1.00  0.00    -0.284 C  
HETATM   13  H   UNL     1      -9.921  11.796  69.588  1.00  0.00     0.000 HD 
HETATM   14  C   UNL     1      -8.828   9.371  66.285  1.00  0.00    -0.172 C  
HETATM   15  C   UNL     1      -8.196  10.758  66.231  1.00  0.00    -0.162 C  
HETATM   16  C   UNL     1      -8.477  11.582  67.502  1.00  0.00    -0.143 C  
BRANCH  16  17
HETATM   17  C   UNL     1      -7.817  10.956  68.770  1.00  0.00    -0.132 C  
BRANCH  17  18
HETATM   18  N   UNL     1      -6.625  11.660  69.296  1.00  0.00    -0.102 NA 
HETATM   19  C   UNL     1      -5.382  11.061  68.806  1.00  0.00    -0.040 C  
HETATM   20  C   UNL     1      -6.680  13.075  68.909  1.00  0.00    -0.096 C  
ENDBRANCH  17  18
ENDBRANCH  16  17
ENDBRANCH   7   9
ENDBRANCH   2   3
TORSDOF 4
ENDMDL
MODEL       81
REMARK 921   NORMALIZED FREE ENERGY PREDICTED BY IDOCK:   -4.06 KCAL/MOL
REMARK 922        TOTAL FREE ENERGY PREDICTED BY IDOCK:   -5.86 KCAL/MOL
REMARK 923 INTER-LIGAND FREE ENERGY PREDICTED BY IDOCK:   -5.28 KCAL/MOL
REMARK 924 INTRA-LIGAND FREE ENERGY PREDICTED BY IDOCK:   -0.58 KCAL/MOL
REMARK 927      BINDING AFFINITY PREDICTED BY RF-SCORE:    0.00 PKD
ROOT
HETATM    1  C   UNL     1      -9.992   6.759  68.674  1.00  0.00    -0.146 C  
HETATM    2  O   UNL     1     -10.840   7.885  68.506  1.00  0.00    -0.076 OA 
ENDROOT
BRANCH   2   3
HETATM    3  C   UNL     1     -10.472   8.814  67.570  1.00  0.00    -0.271 A  
HETATM    4  C   UNL     1     -10.146   8.569  66.246  1.00  0.00    -0.174 A  
HETATM    5  C   UNL     1      -9.762   9.630  65.422  1.00  0.00    -0.365 A  
HETATM    6  C   UNL     1      -9.680  10.931  65.934  1.00  0.00    -0.269 A  
HETATM    7  C   UNL     1      -9.986  11.210  67.279  1.00  0.00    -0.211 A  
HETATM    8  C   UNL     1     -10.419  10.128  68.065  1.00  0.00    -0.249 A  
BRANCH   7   9
HETATM    9  C   UNL     1      -9.825  12.642  67.823  1.00  0.00    -0.212 C  
HETATM   10  O   UNL     1      -8.904  12.533  68.923  1.00  0.00    -0.374 OA 
HETATM   11  C   UNL     1      -9.187  13.657  66.840  1.00  0.00    -0.257 C  
HETATM   12  C   UNL     1     -10.117  14.162  65.733  1.00  0.00    -0.352 C  
HETATM   13  H   UNL     1      -8.805  13.416  69.258  1.00  0.00     0.000 HD 
HETATM   14  C   UNL     1     -11.525  14.519  66.196  1.00  0.00    -0.357 C  
HETATM   15  C   UNL     1     -12.117  13.506  67.172  1.00  0.00    -0.386 C  
HETATM   16  C   UNL     1     -11.181  13.220  68.362  1.00  0.00    -0.314 C  
BRANCH  16  17
HETATM   17  C   UNL     1     -10.968  14.477  69.262  1.00  0.00    -0.260 C  
BRANCH  17  18
HETATM   18  N   UNL     1     -11.658  14.460  70.573  1.00  0.00    -0.248 NA 
HETATM   19  C   UNL     1     -12.658  15.526  70.672  1.00  0.00    -0.443 C  
HETATM   20  C   UNL     1     -12.302  13.156  70.772  1.00  0.00    -0.321 C  
ENDBRANCH  17  18
ENDBRANCH  16  17
ENDBRANCH   7   9
ENDBRANCH   2   3
TORSDOF 4
ENDMDL
MODEL       82
REMARK 921   NORMALIZED FREE ENERGY PREDICTED BY IDOCK:   -4.05 KCAL/MOL
REMARK 922        TOTAL FREE ENERGY PREDICTED BY IDOCK:   -5.85 KCAL/MOL
REMARK 923 INTER-LIGAND FREE ENERGY PREDICTED BY IDOCK:   -5.08 KCAL/MOL
REMARK 924 INTRA-LIGAND FREE ENERGY PREDICTED BY IDOCK:   -0.77 KCAL/MOL
REMARK 927      BINDING AFFINITY PREDICTED BY RF-SCORE:    0.00 PKD
ROOT
HETATM    1  C   UNL     1      -8.492  10.603  62.688  1.00  0.00    -0.210 C  
HETATM    2  O   UNL     1      -9.909  10.684  62.635  1.00  0.00    -0.263 OA 
ENDROOT
BRANCH   2   3
HETATM    3  C   UNL     1     -10.527  11.471  63.569  1.00  0.00    -0.428 A  
HETATM    4  C   UNL     1     -11.575  12.350  63.348  1.00  0.00    -0.541 A  
HETATM    5  C   UNL     1     -12.078  13.105  64.411  1.00  0.00    -0.471 A  
HETATM    6  C   UNL     1     -11.514  12.996  65.687  1.00  0.00    -0.365 A  
HETATM    7  C   UNL     1     -10.436  12.126  65.941  1.00  0.00    -0.288 A  
HETATM    8  C   UNL     1      -9.990  11.344  64.862  1.00  0.00    -0.311 A  
BRANCH   7   9
HETATM    9  C   UNL     1      -9.800  12.079  67.343  1.00  0.00    -0.184 C  
HETATM   10  O   UNL     1      -8.465  12.588  67.175  1.00  0.00    -0.179 OA 
HETATM   11  C   UNL     1     -10.467  12.990  68.406  1.00  0.00    -0.261 C  
HETATM   12  C   UNL     1     -11.793  12.470  68.968  1.00  0.00    -0.344 C  
HETATM   13  H   UNL     1      -8.073  12.558  68.040  1.00  0.00     0.000 HD 
HETATM   14  C   UNL     1     -11.802  10.982  69.305  1.00  0.00    -0.411 C  
HETATM   15  C   UNL     1     -11.127  10.117  68.245  1.00  0.00    -0.285 C  
HETATM   16  C   UNL     1      -9.711  10.613  67.897  1.00  0.00    -0.177 C  
BRANCH  16  17
HETATM   17  C   UNL     1      -8.730  10.500  69.105  1.00  0.00    -0.147 C  
BRANCH  17  18
HETATM   18  N   UNL     1      -7.480   9.745  68.857  1.00  0.00    -0.073 NA 
HETATM   19  C   UNL     1      -7.418   9.236  67.486  1.00  0.00    -0.088 C  
HETATM   20  C   UNL     1      -6.324  10.610  69.119  1.00  0.00    -0.053 C  
ENDBRANCH  17  18
ENDBRANCH  16  17
ENDBRANCH   7   9
ENDBRANCH   2   3
TORSDOF 4
ENDMDL
MODEL       83
REMARK 921   NORMALIZED FREE ENERGY PREDICTED BY IDOCK:   -4.04 KCAL/MOL
REMARK 922        TOTAL FREE ENERGY PREDICTED BY IDOCK:   -5.83 KCAL/MOL
REMARK 923 INTER-LIGAND FREE ENERGY PREDICTED BY IDOCK:   -5.51 KCAL/MOL
REMARK 924 INTRA-LIGAND FREE ENERGY PREDICTED BY IDOCK:   -0.32 KCAL/MOL
REMARK 927      BINDING AFFINITY PREDICTED BY RF-SCORE:    0.00 PKD
ROOT
HETATM    1  C   UNL     1     -13.327  13.301  71.897  1.00  0.00    -0.451 C  
HETATM    2  O   UNL     1     -13.159  11.937  71.539  1.00  0.00    -0.402 OA 
ENDROOT
BRANCH   2   3
HETATM    3  C   UNL     1     -12.239  11.654  70.565  1.00  0.00    -0.361 A  
HETATM    4  C   UNL     1     -11.527  10.474  70.418  1.00  0.00    -0.427 A  
HETATM    5  C   UNL     1     -10.600  10.354  69.380  1.00  0.00    -0.267 A  
HETATM    6  C   UNL     1     -10.369  11.423  68.507  1.00  0.00    -0.219 A  
HETATM    7  C   UNL     1     -11.062  12.642  68.642  1.00  0.00    -0.305 A  
HETATM    8  C   UNL     1     -12.024  12.710  69.664  1.00  0.00    -0.352 A  
BRANCH   7   9
HETATM    9  C   UNL     1     -10.737  13.819  67.703  1.00  0.00    -0.249 C  
HETATM   10  O   UNL     1     -10.771  13.268  66.373  1.00  0.00    -0.282 OA 
HETATM   11  C   UNL     1     -11.770  14.975  67.705  1.00  0.00    -0.294 C  
HETATM   12  C   UNL     1     -11.703  15.903  68.922  1.00  0.00    -0.376 C  
HETATM   13  H   UNL     1     -10.570  13.994  65.795  1.00  0.00     0.000 HD 
HETATM   14  C   UNL     1     -10.293  16.304  69.341  1.00  0.00    -0.278 C  
HETATM   15  C   UNL     1      -9.301  15.145  69.315  1.00  0.00    -0.207 C  
HETATM   16  C   UNL     1      -9.304  14.400  67.967  1.00  0.00    -0.200 C  
BRANCH  16  17
HETATM   17  C   UNL     1      -8.809  15.300  66.792  1.00  0.00    -0.271 C  
BRANCH  17  18
HETATM   18  N   UNL     1      -8.012  16.489  67.177  1.00  0.00    -0.166 NA 
HETATM   19  C   UNL     1      -6.578  16.265  66.982  1.00  0.00    -0.158 C  
HETATM   20  C   UNL     1      -8.445  17.647  66.387  1.00  0.00    -0.246 C  
ENDBRANCH  17  18
ENDBRANCH  16  17
ENDBRANCH   7   9
ENDBRANCH   2   3
TORSDOF 4
ENDMDL
MODEL       84
REMARK 921   NORMALIZED FREE ENERGY PREDICTED BY IDOCK:   -3.99 KCAL/MOL
REMARK 922        TOTAL FREE ENERGY PREDICTED BY IDOCK:   -5.76 KCAL/MOL
REMARK 923 INTER-LIGAND FREE ENERGY PREDICTED BY IDOCK:   -5.00 KCAL/MOL
REMARK 924 INTRA-LIGAND FREE ENERGY PREDICTED BY IDOCK:   -0.76 KCAL/MOL
REMARK 927      BINDING AFFINITY PREDICTED BY RF-SCORE:    0.00 PKD
ROOT
HETATM    1  C   UNL     1     -11.499  13.939  67.709  1.00  0.00    -0.323 C  
HETATM    2  O   UNL     1     -12.321  13.593  66.604  1.00  0.00    -0.397 OA 
ENDROOT
BRANCH   2   3
HETATM    3  C   UNL     1     -11.748  12.851  65.606  1.00  0.00    -0.387 A  
HETATM    4  C   UNL     1     -11.966  12.987  64.245  1.00  0.00    -0.466 A  
HETATM    5  C   UNL     1     -11.320  12.127  63.353  1.00  0.00    -0.495 A  
HETATM    6  C   UNL     1     -10.477  11.116  63.828  1.00  0.00    -0.444 A  
HETATM    7  C   UNL     1     -10.249  10.939  65.207  1.00  0.00    -0.351 A  
HETATM    8  C   UNL     1     -10.873  11.854  66.071  1.00  0.00    -0.342 A  
BRANCH   7   9
HETATM    9  C   UNL     1      -9.364   9.777  65.696  1.00  0.00    -0.227 C  
HETATM   10  O   UNL     1     -10.271   8.693  65.967  1.00  0.00    -0.422 OA 
HETATM   11  C   UNL     1      -8.352   9.229  64.657  1.00  0.00    -0.167 C  
HETATM   12  C   UNL     1      -7.115  10.103  64.432  1.00  0.00    -0.111 C  
HETATM   13  H   UNL     1      -9.725   7.977  66.269  1.00  0.00     0.000 HD 
HETATM   14  C   UNL     1      -6.486  10.656  65.707  1.00  0.00    -0.107 C  
HETATM   15  C   UNL     1      -7.510  11.174  66.712  1.00  0.00    -0.146 C  
HETATM   16  C   UNL     1      -8.606  10.137  67.022  1.00  0.00    -0.129 C  
BRANCH  16  17
HETATM   17  C   UNL     1      -8.036   8.871  67.736  1.00  0.00    -0.106 C  
BRANCH  17  18
HETATM   18  N   UNL     1      -8.795   8.396  68.917  1.00  0.00    -0.142 NA 
HETATM   19  C   UNL     1      -9.226   7.006  68.760  1.00  0.00    -0.132 C  
HETATM   20  C   UNL     1      -7.963   8.526  70.119  1.00  0.00    -0.105 C  
ENDBRANCH  17  18
ENDBRANCH  16  17
ENDBRANCH   7   9
ENDBRANCH   2   3
TORSDOF 4
ENDMDL
MODEL       85
REMARK 921   NORMALIZED FREE ENERGY PREDICTED BY IDOCK:   -3.98 KCAL/MOL
REMARK 922        TOTAL FREE ENERGY PREDICTED BY IDOCK:   -5.75 KCAL/MOL
REMARK 923 INTER-LIGAND FREE ENERGY PREDICTED BY IDOCK:   -5.24 KCAL/MOL
REMARK 924 INTRA-LIGAND FREE ENERGY PREDICTED BY IDOCK:   -0.51 KCAL/MOL
REMARK 927      BINDING AFFINITY PREDICTED BY RF-SCORE:    0.00 PKD
ROOT
HETATM    1  C   UNL     1     -10.531   8.447  67.118  1.00  0.00    -0.310 C  
HETATM    2  O   UNL     1     -10.155   9.300  66.047  1.00  0.00    -0.297 OA 
ENDROOT
BRANCH   2   3
HETATM    3  C   UNL     1      -9.426  10.416  66.362  1.00  0.00    -0.169 A  
HETATM    4  C   UNL     1      -8.202  10.449  67.010  1.00  0.00    -0.123 A  
HETATM    5  C   UNL     1      -7.599  11.680  67.282  1.00  0.00    -0.147 A  
HETATM    6  C   UNL     1      -8.235  12.875  66.928  1.00  0.00    -0.012 A  
HETATM    7  C   UNL     1      -9.488  12.876  66.286  1.00  0.00    -0.205 A  
HETATM    8  C   UNL     1     -10.041  11.621  65.981  1.00  0.00    -0.259 A  
BRANCH   7   9
HETATM    9  C   UNL     1     -10.187  14.211  65.967  1.00  0.00    -0.308 C  
HETATM   10  O   UNL     1      -9.953  14.441  64.566  1.00  0.00    -0.614 OA 
HETATM   11  C   UNL     1     -11.727  14.213  66.142  1.00  0.00    -0.402 C  
HETATM   12  C   UNL     1     -12.217  14.280  67.592  1.00  0.00    -0.215 C  
HETATM   13  H   UNL     1     -10.384  15.265  64.370  1.00  0.00     0.000 HD 
HETATM   14  C   UNL     1     -11.473  15.281  68.470  1.00  0.00    -0.355 C  
HETATM   15  C   UNL     1      -9.961  15.262  68.262  1.00  0.00    -0.222 C  
HETATM   16  C   UNL     1      -9.570  15.404  66.779  1.00  0.00    -0.257 C  
BRANCH  16  17
HETATM   17  C   UNL     1      -9.978  16.790  66.190  1.00  0.00    -0.327 C  
BRANCH  17  18
HETATM   18  N   UNL     1      -9.571  17.975  66.980  1.00  0.00    -0.278 NA 
HETATM   19  C   UNL     1      -8.339  18.575  66.462  1.00  0.00    -0.281 C  
HETATM   20  C   UNL     1     -10.650  18.969  66.965  1.00  0.00    -0.461 C  
ENDBRANCH  17  18
ENDBRANCH  16  17
ENDBRANCH   7   9
ENDBRANCH   2   3
TORSDOF 4
ENDMDL
MODEL       86
REMARK 921   NORMALIZED FREE ENERGY PREDICTED BY IDOCK:   -3.97 KCAL/MOL
REMARK 922        TOTAL FREE ENERGY PREDICTED BY IDOCK:   -5.74 KCAL/MOL
REMARK 923 INTER-LIGAND FREE ENERGY PREDICTED BY IDOCK:   -4.97 KCAL/MOL
REMARK 924 INTRA-LIGAND FREE ENERGY PREDICTED BY IDOCK:   -0.77 KCAL/MOL
REMARK 927      BINDING AFFINITY PREDICTED BY RF-SCORE:    0.00 PKD
ROOT
HETATM    1  C   UNL     1     -14.348   7.669  71.660  1.00  0.00    -0.477 C  
HETATM    2  O   UNL     1     -13.280   8.366  72.285  1.00  0.00    -0.321 OA 
ENDROOT
BRANCH   2   3
HETATM    3  C   UNL     1     -12.754   9.437  71.615  1.00  0.00    -0.374 A  
HETATM    4  C   UNL     1     -13.078  10.771  71.804  1.00  0.00    -0.573 A  
HETATM    5  C   UNL     1     -12.466  11.748  71.014  1.00  0.00    -0.411 A  
HETATM    6  C   UNL     1     -11.550  11.385  70.021  1.00  0.00    -0.382 A  
HETATM    7  C   UNL     1     -11.212  10.037  69.792  1.00  0.00    -0.307 A  
HETATM    8  C   UNL     1     -11.807   9.086  70.638  1.00  0.00    -0.193 A  
BRANCH   7   9
HETATM    9  C   UNL     1     -10.247   9.670  68.649  1.00  0.00    -0.189 C  
HETATM   10  O   UNL     1     -11.052   8.980  67.675  1.00  0.00    -0.484 OA 
HETATM   11  C   UNL     1      -9.618  10.872  67.899  1.00  0.00    -0.175 C  
HETATM   12  C   UNL     1      -8.489  11.587  68.648  1.00  0.00    -0.115 C  
HETATM   13  H   UNL     1     -10.456   8.754  66.970  1.00  0.00     0.000 HD 
HETATM   14  C   UNL     1      -7.486  10.659  69.324  1.00  0.00    -0.130 C  
HETATM   15  C   UNL     1      -8.138   9.480  70.041  1.00  0.00    -0.176 C  
HETATM   16  C   UNL     1      -9.109   8.704  69.131  1.00  0.00    -0.142 C  
BRANCH  16  17
HETATM   17  C   UNL     1      -8.377   8.015  67.937  1.00  0.00    -0.129 C  
BRANCH  17  18
HETATM   18  N   UNL     1      -8.597   6.556  67.796  1.00  0.00    -0.117 NA 
HETATM   19  C   UNL     1      -9.409   6.023  68.892  1.00  0.00    -0.123 C  
HETATM   20  C   UNL     1      -9.253   6.281  66.513  1.00  0.00    -0.154 C  
ENDBRANCH  17  18
ENDBRANCH  16  17
ENDBRANCH   7   9
ENDBRANCH   2   3
TORSDOF 4
ENDMDL
MODEL       87
REMARK 921   NORMALIZED FREE ENERGY PREDICTED BY IDOCK:   -3.96 KCAL/MOL
REMARK 922        TOTAL FREE ENERGY PREDICTED BY IDOCK:   -5.73 KCAL/MOL
REMARK 923 INTER-LIGAND FREE ENERGY PREDICTED BY IDOCK:   -4.97 KCAL/MOL
REMARK 924 INTRA-LIGAND FREE ENERGY PREDICTED BY IDOCK:   -0.76 KCAL/MOL
REMARK 927      BINDING AFFINITY PREDICTED BY RF-SCORE:    0.00 PKD
ROOT
HETATM    1  C   UNL     1      -9.521   4.262  66.251  1.00  0.00    -0.180 C  
HETATM    2  O   UNL     1     -10.529   4.653  67.172  1.00  0.00    -0.099 OA 
ENDROOT
BRANCH   2   3
HETATM    3  C   UNL     1     -10.532   5.961  67.578  1.00  0.00    -0.243 A  
HETATM    4  C   UNL     1     -10.499   7.080  66.763  1.00  0.00    -0.297 A  
HETATM    5  C   UNL     1     -10.480   8.353  67.340  1.00  0.00    -0.354 A  
HETATM    6  C   UNL     1     -10.469   8.501  68.731  1.00  0.00    -0.208 A  
HETATM    7  C   UNL     1     -10.484   7.383  69.587  1.00  0.00    -0.237 A  
HETATM    8  C   UNL     1     -10.555   6.121  68.974  1.00  0.00    -0.341 A  
BRANCH   7   9
HETATM    9  C   UNL     1     -10.408   7.582  71.113  1.00  0.00    -0.200 C  
HETATM   10  O   UNL     1      -9.051   7.266  71.473  1.00  0.00    -0.140 OA 
HETATM   11  C   UNL     1     -10.647   9.032  71.606  1.00  0.00    -0.434 C  
HETATM   12  C   UNL     1     -12.110   9.488  71.600  1.00  0.00    -0.474 C  
HETATM   13  H   UNL     1      -9.004   7.389  72.414  1.00  0.00     0.000 HD 
HETATM   14  C   UNL     1     -13.099   8.458  72.135  1.00  0.00    -0.357 C  
HETATM   15  C   UNL     1     -12.827   7.041  71.641  1.00  0.00    -0.408 C  
HETATM   16  C   UNL     1     -11.368   6.606  71.880  1.00  0.00    -0.318 C  
BRANCH  16  17
HETATM   17  C   UNL     1     -11.020   6.511  73.398  1.00  0.00    -0.147 C  
BRANCH  17  18
HETATM   18  N   UNL     1     -10.405   5.239  73.844  1.00  0.00    -0.232 NA 
HETATM   19  C   UNL     1     -10.454   4.217  72.796  1.00  0.00    -0.179 C  
HETATM   20  C   UNL     1      -9.012   5.480  74.238  1.00  0.00    -0.121 C  
ENDBRANCH  17  18
ENDBRANCH  16  17
ENDBRANCH   7   9
ENDBRANCH   2   3
TORSDOF 4
ENDMDL
MODEL       88
REMARK 921   NORMALIZED FREE ENERGY PREDICTED BY IDOCK:   -3.95 KCAL/MOL
REMARK 922        TOTAL FREE ENERGY PREDICTED BY IDOCK:   -5.72 KCAL/MOL
REMARK 923 INTER-LIGAND FREE ENERGY PREDICTED BY IDOCK:   -5.11 KCAL/MOL
REMARK 924 INTRA-LIGAND FREE ENERGY PREDICTED BY IDOCK:   -0.61 KCAL/MOL
REMARK 927      BINDING AFFINITY PREDICTED BY RF-SCORE:    0.00 PKD
ROOT
HETATM    1  C   UNL     1     -11.739  13.868  65.482  1.00  0.00    -0.349 C  
HETATM    2  O   UNL     1     -11.345  15.209  65.736  1.00  0.00    -0.324 OA 
ENDROOT
BRANCH   2   3
HETATM    3  C   UNL     1     -10.613  15.442  66.868  1.00  0.00    -0.309 A  
HETATM    4  C   UNL     1     -10.869  14.947  68.137  1.00  0.00    -0.256 A  
HETATM    5  C   UNL     1     -10.035  15.304  69.199  1.00  0.00    -0.238 A  
HETATM    6  C   UNL     1      -8.960  16.177  68.994  1.00  0.00    -0.247 A  
HETATM    7  C   UNL     1      -8.683  16.712  67.721  1.00  0.00    -0.201 A  
HETATM    8  C   UNL     1      -9.511  16.291  66.666  1.00  0.00    -0.269 A  
BRANCH   7   9
HETATM    9  C   UNL     1      -7.530  17.719  67.545  1.00  0.00    -0.203 C  
HETATM   10  O   UNL     1      -6.328  16.927  67.544  1.00  0.00    -0.133 OA 
HETATM   11  C   UNL     1      -7.525  18.494  66.202  1.00  0.00    -0.282 C  
HETATM   12  C   UNL     1      -8.552  19.625  66.100  1.00  0.00    -0.357 C  
HETATM   13  H   UNL     1      -5.618  17.548  67.435  1.00  0.00     0.000 HD 
HETATM   14  C   UNL     1      -8.661  20.500  67.344  1.00  0.00    -0.373 C  
HETATM   15  C   UNL     1      -8.651  19.706  68.647  1.00  0.00    -0.304 C  
HETATM   16  C   UNL     1      -7.456  18.738  68.735  1.00  0.00    -0.337 C  
BRANCH  16  17
HETATM   17  C   UNL     1      -6.089  19.489  68.782  1.00  0.00    -0.246 C  
BRANCH  17  18
HETATM   18  N   UNL     1      -5.382  19.470  70.084  1.00  0.00    -0.200 NA 
HETATM   19  C   UNL     1      -6.114  20.218  71.108  1.00  0.00    -0.207 C  
HETATM   20  C   UNL     1      -5.197  18.081  70.521  1.00  0.00    -0.270 C  
ENDBRANCH  17  18
ENDBRANCH  16  17
ENDBRANCH   7   9
ENDBRANCH   2   3
TORSDOF 4
ENDMDL
MODEL       89
REMARK 921   NORMALIZED FREE ENERGY PREDICTED BY IDOCK:   -3.95 KCAL/MOL
REMARK 922        TOTAL FREE ENERGY PREDICTED BY IDOCK:   -5.72 KCAL/MOL
REMARK 923 INTER-LIGAND FREE ENERGY PREDICTED BY IDOCK:   -5.01 KCAL/MOL
REMARK 924 INTRA-LIGAND FREE ENERGY PREDICTED BY IDOCK:   -0.71 KCAL/MOL
REMARK 927      BINDING AFFINITY PREDICTED BY RF-SCORE:    0.00 PKD
ROOT
HETATM    1  C   UNL     1      -5.719  14.478  67.935  1.00  0.00    -0.112 C  
HETATM    2  O   UNL     1      -5.771  13.234  67.252  1.00  0.00    -0.352 OA 
ENDROOT
BRANCH   2   3
HETATM    3  C   UNL     1      -6.634  12.289  67.738  1.00  0.00    -0.108 A  
HETATM    4  C   UNL     1      -6.306  11.188  68.513  1.00  0.00    -0.046 A  
HETATM    5  C   UNL     1      -7.308  10.298  68.907  1.00  0.00    -0.090 A  
HETATM    6  C   UNL     1      -8.633  10.499  68.504  1.00  0.00    -0.135 A  
HETATM    7  C   UNL     1      -8.997  11.597  67.701  1.00  0.00    -0.166 A  
HETATM    8  C   UNL     1      -7.973  12.500  67.367  1.00  0.00    -0.180 A  
BRANCH   7   9
HETATM    9  C   UNL     1     -10.454  11.751  67.224  1.00  0.00    -0.214 C  
HETATM   10  O   UNL     1     -10.502  11.121  65.932  1.00  0.00    -0.252 OA 
HETATM   11  C   UNL     1     -11.515  11.023  68.088  1.00  0.00    -0.374 C  
HETATM   12  C   UNL     1     -11.856  11.709  69.414  1.00  0.00    -0.408 C  
HETATM   13  H   UNL     1     -11.401  11.217  65.638  1.00  0.00     0.000 HD 
HETATM   14  C   UNL     1     -12.035  13.221  69.322  1.00  0.00    -0.354 C  
HETATM   15  C   UNL     1     -10.981  13.903  68.455  1.00  0.00    -0.272 C  
HETATM   16  C   UNL     1     -10.860  13.258  67.061  1.00  0.00    -0.278 C  
BRANCH  16  17
HETATM   17  C   UNL     1     -12.160  13.428  66.215  1.00  0.00    -0.422 C  
BRANCH  17  18
HETATM   18  N   UNL     1     -12.032  14.245  64.985  1.00  0.00    -0.391 NA 
HETATM   19  C   UNL     1     -10.765  14.978  64.952  1.00  0.00    -0.397 C  
HETATM   20  C   UNL     1     -12.134  13.375  63.807  1.00  0.00    -0.456 C  
ENDBRANCH  17  18
ENDBRANCH  16  17
ENDBRANCH   7   9
ENDBRANCH   2   3
TORSDOF 4
ENDMDL
MODEL       90
REMARK 921   NORMALIZED FREE ENERGY PREDICTED BY IDOCK:   -3.93 KCAL/MOL
REMARK 922        TOTAL FREE ENERGY PREDICTED BY IDOCK:   -5.69 KCAL/MOL
REMARK 923 INTER-LIGAND FREE ENERGY PREDICTED BY IDOCK:   -4.90 KCAL/MOL
REMARK 924 INTRA-LIGAND FREE ENERGY PREDICTED BY IDOCK:   -0.80 KCAL/MOL
REMARK 927      BINDING AFFINITY PREDICTED BY RF-SCORE:    0.00 PKD
ROOT
HETATM    1  C   UNL     1     -11.041  12.478  66.102  1.00  0.00    -0.298 C  
HETATM    2  O   UNL     1     -12.028  12.138  67.065  1.00  0.00    -0.593 OA 
ENDROOT
BRANCH   2   3
HETATM    3  C   UNL     1     -11.629  11.377  68.131  1.00  0.00    -0.294 A  
HETATM    4  C   UNL     1     -11.951  11.585  69.462  1.00  0.00    -0.402 A  
HETATM    5  C   UNL     1     -11.436  10.727  70.438  1.00  0.00    -0.397 A  
HETATM    6  C   UNL     1     -10.580   9.679  70.080  1.00  0.00    -0.320 A  
HETATM    7  C   UNL     1     -10.218   9.453  68.738  1.00  0.00    -0.221 A  
HETATM    8  C   UNL     1     -10.795  10.302  67.779  1.00  0.00    -0.346 A  
BRANCH   7   9
HETATM    9  C   UNL     1      -9.225   8.329  68.389  1.00  0.00    -0.135 C  
HETATM   10  O   UNL     1      -7.938   8.968  68.306  1.00  0.00    -0.102 OA 
HETATM   11  C   UNL     1      -9.075   7.219  69.461  1.00  0.00    -0.143 C  
HETATM   12  C   UNL     1     -10.225   6.210  69.517  1.00  0.00    -0.250 C  
HETATM   13  H   UNL     1      -7.325   8.275  68.091  1.00  0.00     0.000 HD 
HETATM   14  C   UNL     1     -10.713   5.724  68.156  1.00  0.00    -0.288 C  
HETATM   15  C   UNL     1     -10.837   6.839  67.123  1.00  0.00    -0.462 C  
HETATM   16  C   UNL     1      -9.547   7.673  67.001  1.00  0.00    -0.228 C  
BRANCH  16  17
HETATM   17  C   UNL     1      -8.350   6.833  66.455  1.00  0.00    -0.121 C  
BRANCH  17  18
HETATM   18  N   UNL     1      -7.662   7.382  65.263  1.00  0.00    -0.105 NA 
HETATM   19  C   UNL     1      -8.340   8.575  64.749  1.00  0.00    -0.153 C  
HETATM   20  C   UNL     1      -6.273   7.709  65.606  1.00  0.00    -0.038 C  
ENDBRANCH  17  18
ENDBRANCH  16  17
ENDBRANCH   7   9
ENDBRANCH   2   3
TORSDOF 4
ENDMDL
MODEL       91
REMARK 921   NORMALIZED FREE ENERGY PREDICTED BY IDOCK:   -3.92 KCAL/MOL
REMARK 922        TOTAL FREE ENERGY PREDICTED BY IDOCK:   -5.69 KCAL/MOL
REMARK 923 INTER-LIGAND FREE ENERGY PREDICTED BY IDOCK:   -4.78 KCAL/MOL
REMARK 924 INTRA-LIGAND FREE ENERGY PREDICTED BY IDOCK:   -0.91 KCAL/MOL
REMARK 927      BINDING AFFINITY PREDICTED BY RF-SCORE:    0.00 PKD
ROOT
HETATM    1  C   UNL     1      -6.398  14.386  69.609  1.00  0.00    -0.140 C  
HETATM    2  O   UNL     1      -6.955  15.686  69.481  1.00  0.00    -0.179 OA 
ENDROOT
BRANCH   2   3
HETATM    3  C   UNL     1      -8.213  15.778  68.950  1.00  0.00    -0.210 A  
HETATM    4  C   UNL     1      -8.880  16.941  68.601  1.00  0.00    -0.262 A  
HETATM    5  C   UNL     1     -10.180  16.865  68.094  1.00  0.00    -0.311 A  
HETATM    6  C   UNL     1     -10.818  15.627  67.961  1.00  0.00    -0.308 A  
HETATM    7  C   UNL     1     -10.174  14.428  68.324  1.00  0.00    -0.241 A  
HETATM    8  C   UNL     1      -8.850  14.537  68.781  1.00  0.00    -0.153 A  
BRANCH   7   9
HETATM    9  C   UNL     1     -10.930  13.089  68.223  1.00  0.00    -0.260 C  
HETATM   10  O   UNL     1     -11.278  12.743  69.576  1.00  0.00    -0.428 OA 
HETATM   11  C   UNL     1     -12.269  13.139  67.444  1.00  0.00    -0.195 C  
HETATM   12  C   UNL     1     -12.132  13.199  65.920  1.00  0.00    -0.501 C  
HETATM   13  H   UNL     1     -11.744  11.917  69.513  1.00  0.00     0.000 HD 
HETATM   14  C   UNL     1     -11.087  12.253  65.336  1.00  0.00    -0.353 C  
HETATM   15  C   UNL     1      -9.788  12.219  66.135  1.00  0.00    -0.257 C  
HETATM   16  C   UNL     1     -10.026  11.950  67.633  1.00  0.00    -0.197 C  
BRANCH  16  17
HETATM   17  C   UNL     1     -10.624  10.532  67.892  1.00  0.00    -0.232 C  
BRANCH  17  18
HETATM   18  N   UNL     1     -10.261   9.901  69.183  1.00  0.00    -0.193 NA 
HETATM   19  C   UNL     1     -10.563   8.468  69.189  1.00  0.00    -0.173 C  
HETATM   20  C   UNL     1      -8.833  10.109  69.447  1.00  0.00    -0.185 C  
ENDBRANCH  17  18
ENDBRANCH  16  17
ENDBRANCH   7   9
ENDBRANCH   2   3
TORSDOF 4
ENDMDL
MODEL       92
REMARK 921   NORMALIZED FREE ENERGY PREDICTED BY IDOCK:   -3.92 KCAL/MOL
REMARK 922        TOTAL FREE ENERGY PREDICTED BY IDOCK:   -5.68 KCAL/MOL
REMARK 923 INTER-LIGAND FREE ENERGY PREDICTED BY IDOCK:   -4.80 KCAL/MOL
REMARK 924 INTRA-LIGAND FREE ENERGY PREDICTED BY IDOCK:   -0.88 KCAL/MOL
REMARK 927      BINDING AFFINITY PREDICTED BY RF-SCORE:    0.00 PKD
ROOT
HETATM    1  C   UNL     1      -8.722  11.979  67.643  1.00  0.00    -0.166 C  
HETATM    2  O   UNL     1     -10.134  11.828  67.608  1.00  0.00    -0.189 OA 
ENDROOT
BRANCH   2   3
HETATM    3  C   UNL     1     -10.746  11.396  68.754  1.00  0.00    -0.203 A  
HETATM    4  C   UNL     1     -11.856  11.960  69.362  1.00  0.00    -0.389 A  
HETATM    5  C   UNL     1     -12.345  11.412  70.551  1.00  0.00    -0.439 A  
HETATM    6  C   UNL     1     -11.706  10.315  71.140  1.00  0.00    -0.430 A  
HETATM    7  C   UNL     1     -10.565   9.730  70.558  1.00  0.00    -0.376 A  
HETATM    8  C   UNL     1     -10.133  10.274  69.337  1.00  0.00    -0.255 A  
BRANCH   7   9
HETATM    9  C   UNL     1      -9.852   8.564  71.268  1.00  0.00    -0.216 C  
HETATM   10  O   UNL     1      -8.588   9.096  71.702  1.00  0.00    -0.342 OA 
HETATM   11  C   UNL     1     -10.550   8.040  72.549  1.00  0.00    -0.397 C  
HETATM   12  C   UNL     1     -11.782   7.163  72.305  1.00  0.00    -0.296 C  
HETATM   13  H   UNL     1      -8.148   8.377  72.140  1.00  0.00     0.000 HD 
HETATM   14  C   UNL     1     -11.619   6.128  71.197  1.00  0.00    -0.269 C  
HETATM   15  C   UNL     1     -10.917   6.674  69.957  1.00  0.00    -0.363 C  
HETATM   16  C   UNL     1      -9.581   7.364  70.294  1.00  0.00    -0.165 C  
BRANCH  16  17
HETATM   17  C   UNL     1      -8.529   6.365  70.870  1.00  0.00    -0.131 C  
BRANCH  17  18
HETATM   18  N   UNL     1      -7.109   6.686  70.591  1.00  0.00    -0.067 NA 
HETATM   19  C   UNL     1      -6.233   5.545  70.864  1.00  0.00    -0.030 C  
HETATM   20  C   UNL     1      -6.966   7.098  69.190  1.00  0.00    -0.074 C  
ENDBRANCH  17  18
ENDBRANCH  16  17
ENDBRANCH   7   9
ENDBRANCH   2   3
TORSDOF 4
ENDMDL
MODEL       93
REMARK 921   NORMALIZED FREE ENERGY PREDICTED BY IDOCK:   -3.92 KCAL/MOL
REMARK 922        TOTAL FREE ENERGY PREDICTED BY IDOCK:   -5.68 KCAL/MOL
REMARK 923 INTER-LIGAND FREE ENERGY PREDICTED BY IDOCK:   -5.00 KCAL/MOL
REMARK 924 INTRA-LIGAND FREE ENERGY PREDICTED BY IDOCK:   -0.67 KCAL/MOL
REMARK 927      BINDING AFFINITY PREDICTED BY RF-SCORE:    0.00 PKD
ROOT
HETATM    1  C   UNL     1     -13.032  10.698  71.235  1.00  0.00    -0.414 C  
HETATM    2  O   UNL     1     -12.300   9.500  71.022  1.00  0.00    -0.300 OA 
ENDROOT
BRANCH   2   3
HETATM    3  C   UNL     1     -10.984   9.624  70.665  1.00  0.00    -0.320 A  
HETATM    4  C   UNL     1      -9.896   9.055  71.306  1.00  0.00    -0.376 A  
HETATM    5  C   UNL     1      -8.606   9.303  70.828  1.00  0.00    -0.254 A  
HETATM    6  C   UNL     1      -8.409  10.141  69.725  1.00  0.00    -0.154 A  
HETATM    7  C   UNL     1      -9.492  10.750  69.063  1.00  0.00    -0.179 A  
HETATM    8  C   UNL     1     -10.777  10.437  69.538  1.00  0.00    -0.284 A  
BRANCH   7   9
HETATM    9  C   UNL     1      -9.232  11.716  67.891  1.00  0.00    -0.171 C  
HETATM   10  O   UNL     1      -9.217  13.031  68.476  1.00  0.00    -0.330 OA 
HETATM   11  C   UNL     1      -7.861  11.553  67.188  1.00  0.00    -0.160 C  
HETATM   12  C   UNL     1      -7.753  10.351  66.245  1.00  0.00    -0.129 C  
HETATM   13  H   UNL     1      -9.057  13.627  67.753  1.00  0.00     0.000 HD 
HETATM   14  C   UNL     1      -8.964  10.138  65.343  1.00  0.00    -0.208 C  
HETATM   15  C   UNL     1     -10.296  10.319  66.064  1.00  0.00    -0.248 C  
HETATM   16  C   UNL     1     -10.377  11.659  66.820  1.00  0.00    -0.257 C  
BRANCH  16  17
HETATM   17  C   UNL     1     -10.342  12.885  65.855  1.00  0.00    -0.285 C  
BRANCH  17  18
HETATM   18  N   UNL     1     -11.653  13.494  65.532  1.00  0.00    -0.313 NA 
HETATM   19  C   UNL     1     -12.439  13.759  66.739  1.00  0.00    -0.209 C  
HETATM   20  C   UNL     1     -11.445  14.744  64.791  1.00  0.00    -0.410 C  
ENDBRANCH  17  18
ENDBRANCH  16  17
ENDBRANCH   7   9
ENDBRANCH   2   3
TORSDOF 4
ENDMDL
MODEL       94
REMARK 921   NORMALIZED FREE ENERGY PREDICTED BY IDOCK:   -3.91 KCAL/MOL
REMARK 922        TOTAL FREE ENERGY PREDICTED BY IDOCK:   -5.67 KCAL/MOL
REMARK 923 INTER-LIGAND FREE ENERGY PREDICTED BY IDOCK:   -4.92 KCAL/MOL
REMARK 924 INTRA-LIGAND FREE ENERGY PREDICTED BY IDOCK:   -0.75 KCAL/MOL
REMARK 927      BINDING AFFINITY PREDICTED BY RF-SCORE:    0.00 PKD
ROOT
HETATM    1  C   UNL     1     -12.070  13.478  66.601  1.00  0.00    -0.396 C  
HETATM    2  O   UNL     1     -11.986  13.476  68.019  1.00  0.00    -0.355 OA 
ENDROOT
BRANCH   2   3
HETATM    3  C   UNL     1     -11.750  12.274  68.630  1.00  0.00    -0.328 A  
HETATM    4  C   UNL     1     -11.981  11.963  69.960  1.00  0.00    -0.409 A  
HETATM    5  C   UNL     1     -11.659  10.689  70.437  1.00  0.00    -0.441 A  
HETATM    6  C   UNL     1     -11.083   9.739  69.586  1.00  0.00    -0.251 A  
HETATM    7  C   UNL     1     -10.819  10.029  68.234  1.00  0.00    -0.286 A  
HETATM    8  C   UNL     1     -11.203  11.301  67.776  1.00  0.00    -0.354 A  
BRANCH   7   9
HETATM    9  C   UNL     1     -10.127   8.980  67.343  1.00  0.00    -0.230 C  
HETATM   10  O   UNL     1     -11.050   7.878  67.263  1.00  0.00    -0.496 OA 
HETATM   11  C   UNL     1      -9.868   9.418  65.879  1.00  0.00    -0.362 C  
HETATM   12  C   UNL     1      -8.694  10.383  65.688  1.00  0.00    -0.184 C  
HETATM   13  H   UNL     1     -10.622   7.231  66.714  1.00  0.00     0.000 HD 
HETATM   14  C   UNL     1      -7.440  10.025  66.480  1.00  0.00    -0.105 C  
HETATM   15  C   UNL     1      -7.733   9.586  67.911  1.00  0.00    -0.087 C  
HETATM   16  C   UNL     1      -8.788   8.465  67.978  1.00  0.00    -0.142 C  
BRANCH  16  17
HETATM   17  C   UNL     1      -8.290   7.145  67.310  1.00  0.00    -0.119 C  
BRANCH  17  18
HETATM   18  N   UNL     1      -8.429   5.914  68.124  1.00  0.00    -0.114 NA 
HETATM   19  C   UNL     1      -9.053   6.190  69.420  1.00  0.00    -0.134 C  
HETATM   20  C   UNL     1      -9.228   4.927  67.388  1.00  0.00    -0.125 C  
ENDBRANCH  17  18
ENDBRANCH  16  17
ENDBRANCH   7   9
ENDBRANCH   2   3
TORSDOF 4
ENDMDL
MODEL       95
REMARK 921   NORMALIZED FREE ENERGY PREDICTED BY IDOCK:   -3.91 KCAL/MOL
REMARK 922        TOTAL FREE ENERGY PREDICTED BY IDOCK:   -5.67 KCAL/MOL
REMARK 923 INTER-LIGAND FREE ENERGY PREDICTED BY IDOCK:   -4.95 KCAL/MOL
REMARK 924 INTRA-LIGAND FREE ENERGY PREDICTED BY IDOCK:   -0.72 KCAL/MOL
REMARK 927      BINDING AFFINITY PREDICTED BY RF-SCORE:    0.00 PKD
ROOT
HETATM    1  C   UNL     1      -6.600  20.615  65.994  1.00  0.00    -0.219 C  
HETATM    2  O   UNL     1      -6.899  19.597  66.939  1.00  0.00    -0.195 OA 
ENDROOT
BRANCH   2   3
HETATM    3  C   UNL     1      -8.210  19.225  67.065  1.00  0.00    -0.266 A  
HETATM    4  C   UNL     1      -9.321  20.033  66.882  1.00  0.00    -0.515 A  
HETATM    5  C   UNL     1     -10.599  19.503  67.077  1.00  0.00    -0.607 A  
HETATM    6  C   UNL     1     -10.761  18.172  67.478  1.00  0.00    -0.365 A  
HETATM    7  C   UNL     1      -9.652  17.330  67.690  1.00  0.00    -0.256 A  
HETATM    8  C   UNL     1      -8.385  17.881  67.435  1.00  0.00    -0.227 A  
BRANCH   7   9
HETATM    9  C   UNL     1      -9.866  15.889  68.192  1.00  0.00    -0.214 C  
HETATM   10  O   UNL     1      -9.550  15.922  69.595  1.00  0.00    -0.259 OA 
HETATM   11  C   UNL     1     -11.321  15.363  68.100  1.00  0.00    -0.353 C  
HETATM   12  C   UNL     1     -11.781  14.963  66.695  1.00  0.00    -0.225 C  
HETATM   13  H   UNL     1      -9.682  15.033  69.904  1.00  0.00     0.000 HD 
HETATM   14  C   UNL     1     -10.760  14.160  65.896  1.00  0.00    -0.298 C  
HETATM   15  C   UNL     1      -9.337  14.697  66.019  1.00  0.00    -0.216 C  
HETATM   16  C   UNL     1      -8.900  14.874  67.485  1.00  0.00    -0.195 C  
BRANCH  16  17
HETATM   17  C   UNL     1      -8.819  13.513  68.246  1.00  0.00    -0.179 C  
BRANCH  17  18
HETATM   18  N   UNL     1      -7.455  13.017  68.543  1.00  0.00    -0.123 NA 
HETATM   19  C   UNL     1      -6.880  12.300  67.402  1.00  0.00    -0.145 C  
HETATM   20  C   UNL     1      -6.590  14.146  68.907  1.00  0.00    -0.099 C  
ENDBRANCH  17  18
ENDBRANCH  16  17
ENDBRANCH   7   9
ENDBRANCH   2   3
TORSDOF 4
ENDMDL
MODEL       96
REMARK 921   NORMALIZED FREE ENERGY PREDICTED BY IDOCK:   -3.89 KCAL/MOL
REMARK 922        TOTAL FREE ENERGY PREDICTED BY IDOCK:   -5.65 KCAL/MOL
REMARK 923 INTER-LIGAND FREE ENERGY PREDICTED BY IDOCK:   -4.95 KCAL/MOL
REMARK 924 INTRA-LIGAND FREE ENERGY PREDICTED BY IDOCK:   -0.70 KCAL/MOL
REMARK 927      BINDING AFFINITY PREDICTED BY RF-SCORE:    0.00 PKD
ROOT
HETATM    1  C   UNL     1      -7.279   7.061  67.329  1.00  0.00    -0.089 C  
HETATM    2  O   UNL     1      -8.231   6.028  67.128  1.00  0.00    -0.106 OA 
ENDROOT
BRANCH   2   3
HETATM    3  C   UNL     1      -8.724   5.404  68.242  1.00  0.00    -0.101 A  
HETATM    4  C   UNL     1      -8.516   4.085  68.612  1.00  0.00    -0.102 A  
HETATM    5  C   UNL     1      -9.116   3.591  69.774  1.00  0.00    -0.196 A  
HETATM    6  C   UNL     1      -9.943   4.413  70.548  1.00  0.00    -0.256 A  
HETATM    7  C   UNL     1     -10.190   5.752  70.189  1.00  0.00    -0.301 A  
HETATM    8  C   UNL     1      -9.529   6.230  69.045  1.00  0.00    -0.133 A  
BRANCH   7   9
HETATM    9  C   UNL     1     -11.156   6.608  71.031  1.00  0.00    -0.282 C  
HETATM   10  O   UNL     1     -12.300   6.834  70.188  1.00  0.00    -0.614 OA 
HETATM   11  C   UNL     1     -11.704   5.926  72.311  1.00  0.00    -0.309 C  
HETATM   12  C   UNL     1     -10.719   5.852  73.481  1.00  0.00    -0.284 C  
HETATM   13  H   UNL     1     -12.895   7.362  70.708  1.00  0.00     0.000 HD 
HETATM   14  C   UNL     1      -9.926   7.131  73.728  1.00  0.00    -0.373 C  
HETATM   15  C   UNL     1      -9.413   7.782  72.447  1.00  0.00    -0.234 C  
HETATM   16  C   UNL     1     -10.531   7.996  71.408  1.00  0.00    -0.257 C  
BRANCH  16  17
HETATM   17  C   UNL     1     -11.608   9.013  71.900  1.00  0.00    -0.370 C  
BRANCH  17  18
HETATM   18  N   UNL     1     -11.614  10.330  71.222  1.00  0.00    -0.309 NA 
HETATM   19  C   UNL     1     -10.888  10.288  69.951  1.00  0.00    -0.302 C  
HETATM   20  C   UNL     1     -12.999  10.756  70.989  1.00  0.00    -0.332 C  
ENDBRANCH  17  18
ENDBRANCH  16  17
ENDBRANCH   7   9
ENDBRANCH   2   3
TORSDOF 4
ENDMDL
MODEL       97
REMARK 921   NORMALIZED FREE ENERGY PREDICTED BY IDOCK:   -3.88 KCAL/MOL
REMARK 922        TOTAL FREE ENERGY PREDICTED BY IDOCK:   -5.63 KCAL/MOL
REMARK 923 INTER-LIGAND FREE ENERGY PREDICTED BY IDOCK:   -5.67 KCAL/MOL
REMARK 924 INTRA-LIGAND FREE ENERGY PREDICTED BY IDOCK:    0.04 KCAL/MOL
REMARK 927      BINDING AFFINITY PREDICTED BY RF-SCORE:    0.00 PKD
ROOT
HETATM    1  C   UNL     1     -10.247   8.047  68.752  1.00  0.00    -0.206 C  
HETATM    2  O   UNL     1     -10.696   9.304  68.266  1.00  0.00    -0.209 OA 
ENDROOT
BRANCH   2   3
HETATM    3  C   UNL     1     -10.243   9.698  67.036  1.00  0.00    -0.244 A  
HETATM    4  C   UNL     1      -9.524   8.931  66.134  1.00  0.00    -0.318 A  
HETATM    5  C   UNL     1      -9.110   9.495  64.924  1.00  0.00    -0.276 A  
HETATM    6  C   UNL     1      -9.396  10.833  64.632  1.00  0.00    -0.271 A  
HETATM    7  C   UNL     1     -10.109  11.645  65.535  1.00  0.00    -0.285 A  
HETATM    8  C   UNL     1     -10.554  11.031  66.718  1.00  0.00    -0.317 A  
BRANCH   7   9
HETATM    9  C   UNL     1     -10.352  13.131  65.207  1.00  0.00    -0.305 C  
HETATM   10  O   UNL     1      -9.677  13.362  63.957  1.00  0.00    -0.633 OA 
HETATM   11  C   UNL     1     -11.831  13.525  64.965  1.00  0.00    -0.377 C  
HETATM   12  C   UNL     1     -12.687  13.645  66.229  1.00  0.00    -0.222 C  
HETATM   13  H   UNL     1      -9.827  14.278  63.755  1.00  0.00     0.000 HD 
HETATM   14  C   UNL     1     -12.013  14.372  67.388  1.00  0.00    -0.407 C  
HETATM   15  C   UNL     1     -10.555  13.970  67.589  1.00  0.00    -0.249 C  
HETATM   16  C   UNL     1      -9.731  14.079  66.292  1.00  0.00    -0.311 C  
BRANCH  16  17
HETATM   17  C   UNL     1      -9.613  15.551  65.788  1.00  0.00    -0.332 C  
BRANCH  17  18
HETATM   18  N   UNL     1      -8.566  16.376  66.435  1.00  0.00    -0.295 NA 
HETATM   19  C   UNL     1      -9.124  17.241  67.476  1.00  0.00    -0.223 C  
HETATM   20  C   UNL     1      -7.540  15.501  67.014  1.00  0.00    -0.193 C  
ENDBRANCH  17  18
ENDBRANCH  16  17
ENDBRANCH   7   9
ENDBRANCH   2   3
TORSDOF 4
ENDMDL
MODEL       98
REMARK 921   NORMALIZED FREE ENERGY PREDICTED BY IDOCK:   -3.87 KCAL/MOL
REMARK 922        TOTAL FREE ENERGY PREDICTED BY IDOCK:   -5.62 KCAL/MOL
REMARK 923 INTER-LIGAND FREE ENERGY PREDICTED BY IDOCK:   -5.11 KCAL/MOL
REMARK 924 INTRA-LIGAND FREE ENERGY PREDICTED BY IDOCK:   -0.51 KCAL/MOL
REMARK 927      BINDING AFFINITY PREDICTED BY RF-SCORE:    0.00 PKD
ROOT
HETATM    1  C   UNL     1      -6.987  19.996  65.376  1.00  0.00    -0.302 C  
HETATM    2  O   UNL     1      -6.088  19.683  66.430  1.00  0.00    -0.168 OA 
ENDROOT
BRANCH   2   3
HETATM    3  C   UNL     1      -6.531  18.819  67.395  1.00  0.00    -0.193 A  
HETATM    4  C   UNL     1      -5.786  18.288  68.435  1.00  0.00    -0.183 A  
HETATM    5  C   UNL     1      -6.385  17.394  69.326  1.00  0.00    -0.244 A  
HETATM    6  C   UNL     1      -7.721  17.013  69.158  1.00  0.00    -0.114 A  
HETATM    7  C   UNL     1      -8.500  17.520  68.100  1.00  0.00    -0.254 A  
HETATM    8  C   UNL     1      -7.882  18.457  67.255  1.00  0.00    -0.234 A  
BRANCH   7   9
HETATM    9  C   UNL     1      -9.948  17.031  67.910  1.00  0.00    -0.281 C  
HETATM   10  O   UNL     1     -10.781  18.143  68.287  1.00  0.00    -0.303 OA 
HETATM   11  C   UNL     1     -10.346  16.683  66.452  1.00  0.00    -0.310 C  
HETATM   12  C   UNL     1      -9.806  15.347  65.933  1.00  0.00    -0.387 C  
HETATM   13  H   UNL     1     -11.674  17.841  68.169  1.00  0.00     0.000 HD 
HETATM   14  C   UNL     1      -9.915  14.189  66.919  1.00  0.00    -0.261 C  
HETATM   15  C   UNL     1      -9.529  14.570  68.345  1.00  0.00    -0.209 C  
HETATM   16  C   UNL     1     -10.284  15.816  68.845  1.00  0.00    -0.219 C  
BRANCH  16  17
HETATM   17  C   UNL     1     -11.821  15.570  68.961  1.00  0.00    -0.354 C  
BRANCH  17  18
HETATM   18  N   UNL     1     -12.354  15.433  70.336  1.00  0.00    -0.379 NA 
HETATM   19  C   UNL     1     -12.305  14.044  70.799  1.00  0.00    -0.373 C  
HETATM   20  C   UNL     1     -11.584  16.287  71.248  1.00  0.00    -0.346 C  
ENDBRANCH  17  18
ENDBRANCH  16  17
ENDBRANCH   7   9
ENDBRANCH   2   3
TORSDOF 4
ENDMDL
MODEL       99
REMARK 921   NORMALIZED FREE ENERGY PREDICTED BY IDOCK:   -3.87 KCAL/MOL
REMARK 922        TOTAL FREE ENERGY PREDICTED BY IDOCK:   -5.62 KCAL/MOL
REMARK 923 INTER-LIGAND FREE ENERGY PREDICTED BY IDOCK:   -4.96 KCAL/MOL
REMARK 924 INTRA-LIGAND FREE ENERGY PREDICTED BY IDOCK:   -0.66 KCAL/MOL
REMARK 927      BINDING AFFINITY PREDICTED BY RF-SCORE:    0.00 PKD
ROOT
HETATM    1  C   UNL     1     -12.986  11.843  63.554  1.00  0.00    -0.171 C  
HETATM    2  O   UNL     1     -13.316  12.705  64.632  1.00  0.00    -0.767 OA 
ENDROOT
BRANCH   2   3
HETATM    3  C   UNL     1     -12.281  13.186  65.389  1.00  0.00    -0.461 A  
HETATM    4  C   UNL     1     -11.813  14.490  65.418  1.00  0.00    -0.344 A  
HETATM    5  C   UNL     1     -10.723  14.814  66.230  1.00  0.00    -0.313 A  
HETATM    6  C   UNL     1     -10.088  13.826  66.992  1.00  0.00    -0.256 A  
HETATM    7  C   UNL     1     -10.527  12.488  66.970  1.00  0.00    -0.246 A  
HETATM    8  C   UNL     1     -11.657  12.209  66.184  1.00  0.00    -0.418 A  
BRANCH   7   9
HETATM    9  C   UNL     1      -9.765  11.416  67.773  1.00  0.00    -0.175 C  
HETATM   10  O   UNL     1      -9.969  11.757  69.156  1.00  0.00    -0.412 OA 
HETATM   11  C   UNL     1     -10.294   9.968  67.614  1.00  0.00    -0.272 C  
HETATM   12  C   UNL     1      -9.916   9.279  66.299  1.00  0.00    -0.357 C  
HETATM   13  H   UNL     1      -9.499  11.095  69.650  1.00  0.00     0.000 HD 
HETATM   14  C   UNL     1      -8.469   9.483  65.865  1.00  0.00    -0.133 C  
HETATM   15  C   UNL     1      -7.978  10.916  66.047  1.00  0.00    -0.132 C  
HETATM   16  C   UNL     1      -8.226  11.445  67.473  1.00  0.00    -0.130 C  
BRANCH  16  17
HETATM   17  C   UNL     1      -7.403  10.664  68.545  1.00  0.00    -0.090 C  
BRANCH  17  18
HETATM   18  N   UNL     1      -6.231  11.374  69.107  1.00  0.00    -0.058 NA 
HETATM   19  C   UNL     1      -6.493  12.805  69.273  1.00  0.00    -0.105 C  
HETATM   20  C   UNL     1      -5.873  10.782  70.401  1.00  0.00    -0.118 C  
ENDBRANCH  17  18
ENDBRANCH  16  17
ENDBRANCH   7   9
ENDBRANCH   2   3
TORSDOF 4
ENDMDL
MODEL      100
REMARK 921   NORMALIZED FREE ENERGY PREDICTED BY IDOCK:   -3.82 KCAL/MOL
REMARK 922        TOTAL FREE ENERGY PREDICTED BY IDOCK:   -5.56 KCAL/MOL
REMARK 923 INTER-LIGAND FREE ENERGY PREDICTED BY IDOCK:   -5.42 KCAL/MOL
REMARK 924 INTRA-LIGAND FREE ENERGY PREDICTED BY IDOCK:   -0.14 KCAL/MOL
REMARK 927      BINDING AFFINITY PREDICTED BY RF-SCORE:    0.00 PKD
ROOT
HETATM    1  C   UNL     1      -5.951  12.274  67.616  1.00  0.00    -0.119 C  
HETATM    2  O   UNL     1      -6.058  11.680  68.901  1.00  0.00    -0.048 OA 
ENDROOT
BRANCH   2   3
HETATM    3  C   UNL     1      -7.243  11.067  69.212  1.00  0.00    -0.124 A  
HETATM    4  C   UNL     1      -7.405   9.908  69.952  1.00  0.00    -0.147 A  
HETATM    5  C   UNL     1      -8.688   9.394  70.157  1.00  0.00    -0.245 A  
HETATM    6  C   UNL     1      -9.803  10.029  69.599  1.00  0.00    -0.261 A  
HETATM    7  C   UNL     1      -9.671  11.199  68.826  1.00  0.00    -0.194 A  
HETATM    8  C   UNL     1      -8.372  11.716  68.684  1.00  0.00    -0.100 A  
BRANCH   7   9
HETATM    9  C   UNL     1     -10.914  11.835  68.175  1.00  0.00    -0.228 C  
HETATM   10  O   UNL     1     -11.841  10.752  67.981  1.00  0.00    -0.725 OA 
HETATM   11  C   UNL     1     -11.660  12.877  69.047  1.00  0.00    -0.372 C  
HETATM   12  C   UNL     1     -10.985  14.248  69.143  1.00  0.00    -0.286 C  
HETATM   13  H   UNL     1     -12.607  11.144  67.580  1.00  0.00     0.000 HD 
HETATM   14  C   UNL     1     -10.448  14.787  67.821  1.00  0.00    -0.254 C  
HETATM   15  C   UNL     1      -9.731  13.733  66.983  1.00  0.00    -0.251 C  
HETATM   16  C   UNL     1     -10.584  12.467  66.777  1.00  0.00    -0.250 C  
BRANCH  16  17
HETATM   17  C   UNL     1     -11.871  12.750  65.942  1.00  0.00    -0.437 C  
BRANCH  17  18
HETATM   18  N   UNL     1     -11.653  13.227  64.556  1.00  0.00    -0.352 NA 
HETATM   19  C   UNL     1     -12.280  12.342  63.573  1.00  0.00    -0.568 C  
HETATM   20  C   UNL     1     -12.191  14.586  64.415  1.00  0.00    -0.458 C  
ENDBRANCH  17  18
ENDBRANCH  16  17
ENDBRANCH   7   9
ENDBRANCH   2   3
TORSDOF 4
ENDMDL
MODEL      101
REMARK 921   NORMALIZED FREE ENERGY PREDICTED BY IDOCK:   -3.81 KCAL/MOL
REMARK 922        TOTAL FREE ENERGY PREDICTED BY IDOCK:   -5.55 KCAL/MOL
REMARK 923 INTER-LIGAND FREE ENERGY PREDICTED BY IDOCK:   -4.80 KCAL/MOL
REMARK 924 INTRA-LIGAND FREE ENERGY PREDICTED BY IDOCK:   -0.75 KCAL/MOL
REMARK 927      BINDING AFFINITY PREDICTED BY RF-SCORE:    0.00 PKD
ROOT
HETATM    1  C   UNL     1      -7.538   4.629  67.743  1.00  0.00    -0.078 C  
HETATM    2  O   UNL     1      -7.475   5.824  66.978  1.00  0.00    -0.079 OA 
ENDROOT
BRANCH   2   3
HETATM    3  C   UNL     1      -8.458   6.754  67.188  1.00  0.00    -0.120 A  
HETATM    4  C   UNL     1      -8.777   7.820  66.363  1.00  0.00    -0.167 A  
HETATM    5  C   UNL     1      -9.797   8.700  66.735  1.00  0.00    -0.322 A  
HETATM    6  C   UNL     1     -10.479   8.523  67.945  1.00  0.00    -0.262 A  
HETATM    7  C   UNL     1     -10.166   7.460  68.814  1.00  0.00    -0.199 A  
HETATM    8  C   UNL     1      -9.171   6.566  68.384  1.00  0.00    -0.121 A  
BRANCH   7   9
HETATM    9  C   UNL     1     -10.894   7.333  70.166  1.00  0.00    -0.256 C  
HETATM   10  O   UNL     1     -12.261   7.026  69.838  1.00  0.00    -0.536 OA 
HETATM   11  C   UNL     1     -10.409   6.174  71.075  1.00  0.00    -0.260 C  
HETATM   12  C   UNL     1      -9.080   6.423  71.793  1.00  0.00    -0.143 C  
HETATM   13  H   UNL     1     -12.709   6.948  70.671  1.00  0.00     0.000 HD 
HETATM   14  C   UNL     1      -8.934   7.815  72.399  1.00  0.00    -0.202 C  
HETATM   15  C   UNL     1      -9.432   8.930  71.483  1.00  0.00    -0.347 C  
HETATM   16  C   UNL     1     -10.864   8.677  70.975  1.00  0.00    -0.302 C  
BRANCH  16  17
HETATM   17  C   UNL     1     -11.912   8.690  72.131  1.00  0.00    -0.379 C  
BRANCH  17  18
HETATM   18  N   UNL     1     -12.989   9.702  72.019  1.00  0.00    -0.417 NA 
HETATM   19  C   UNL     1     -12.856  10.501  70.799  1.00  0.00    -0.367 C  
HETATM   20  C   UNL     1     -14.295   9.032  72.033  1.00  0.00    -0.244 C  
ENDBRANCH  17  18
ENDBRANCH  16  17
ENDBRANCH   7   9
ENDBRANCH   2   3
TORSDOF 4
ENDMDL
MODEL      102
REMARK 921   NORMALIZED FREE ENERGY PREDICTED BY IDOCK:   -3.80 KCAL/MOL
REMARK 922        TOTAL FREE ENERGY PREDICTED BY IDOCK:   -5.54 KCAL/MOL
REMARK 923 INTER-LIGAND FREE ENERGY PREDICTED BY IDOCK:   -4.70 KCAL/MOL
REMARK 924 INTRA-LIGAND FREE ENERGY PREDICTED BY IDOCK:   -0.83 KCAL/MOL
REMARK 927      BINDING AFFINITY PREDICTED BY RF-SCORE:    0.00 PKD
ROOT
HETATM    1  C   UNL     1     -12.811  10.583  71.137  1.00  0.00    -0.416 C  
HETATM    2  O   UNL     1     -11.558  10.034  71.515  1.00  0.00    -0.353 OA 
ENDROOT
BRANCH   2   3
HETATM    3  C   UNL     1     -11.338   8.715  71.224  1.00  0.00    -0.281 A  
HETATM    4  C   UNL     1     -11.342   7.658  72.120  1.00  0.00    -0.341 A  
HETATM    5  C   UNL     1     -11.071   6.365  71.664  1.00  0.00    -0.314 A  
HETATM    6  C   UNL     1     -10.774   6.137  70.316  1.00  0.00    -0.355 A  
HETATM    7  C   UNL     1     -10.744   7.192  69.383  1.00  0.00    -0.246 A  
HETATM    8  C   UNL     1     -11.072   8.470  69.866  1.00  0.00    -0.114 A  
BRANCH   7   9
HETATM    9  C   UNL     1     -10.351   6.913  67.920  1.00  0.00    -0.195 C  
HETATM   10  O   UNL     1     -11.492   6.259  67.335  1.00  0.00    -0.640 OA 
HETATM   11  C   UNL     1     -10.095   8.170  67.049  1.00  0.00    -0.350 C  
HETATM   12  C   UNL     1      -8.755   8.869  67.296  1.00  0.00    -0.125 C  
HETATM   13  H   UNL     1     -11.250   6.087  66.433  1.00  0.00     0.000 HD 
HETATM   14  C   UNL     1      -7.561   7.929  67.429  1.00  0.00    -0.097 C  
HETATM   15  C   UNL     1      -7.852   6.697  68.281  1.00  0.00    -0.110 C  
HETATM   16  C   UNL     1      -9.117   5.949  67.818  1.00  0.00    -0.109 C  
BRANCH  16  17
HETATM   17  C   UNL     1      -8.958   5.346  66.388  1.00  0.00    -0.131 C  
BRANCH  17  18
HETATM   18  N   UNL     1      -9.668   4.069  66.140  1.00  0.00    -0.197 NA 
HETATM   19  C   UNL     1     -10.117   3.960  64.750  1.00  0.00    -0.198 C  
HETATM   20  C   UNL     1      -8.783   2.944  66.465  1.00  0.00    -0.131 C  
ENDBRANCH  17  18
ENDBRANCH  16  17
ENDBRANCH   7   9
ENDBRANCH   2   3
TORSDOF 4
ENDMDL
MODEL      103
REMARK 921   NORMALIZED FREE ENERGY PREDICTED BY IDOCK:   -3.77 KCAL/MOL
REMARK 922        TOTAL FREE ENERGY PREDICTED BY IDOCK:   -5.50 KCAL/MOL
REMARK 923 INTER-LIGAND FREE ENERGY PREDICTED BY IDOCK:   -4.64 KCAL/MOL
REMARK 924 INTRA-LIGAND FREE ENERGY PREDICTED BY IDOCK:   -0.86 KCAL/MOL
REMARK 927      BINDING AFFINITY PREDICTED BY RF-SCORE:    0.00 PKD
ROOT
HETATM    1  C   UNL     1     -14.029   8.932  71.944  1.00  0.00    -0.419 C  
HETATM    2  O   UNL     1     -13.104   9.990  71.739  1.00  0.00    -0.394 OA 
ENDROOT
BRANCH   2   3
HETATM    3  C   UNL     1     -11.884   9.663  71.212  1.00  0.00    -0.381 A  
HETATM    4  C   UNL     1     -10.831   9.057  71.878  1.00  0.00    -0.413 A  
HETATM    5  C   UNL     1      -9.634   8.814  71.199  1.00  0.00    -0.309 A  
HETATM    6  C   UNL     1      -9.486   9.200  69.862  1.00  0.00    -0.199 A  
HETATM    7  C   UNL     1     -10.531   9.834  69.162  1.00  0.00    -0.232 A  
HETATM    8  C   UNL     1     -11.737  10.016  69.860  1.00  0.00    -0.190 A  
BRANCH   7   9
HETATM    9  C   UNL     1     -10.310  10.302  67.711  1.00  0.00    -0.204 C  
HETATM   10  O   UNL     1     -10.441   9.118  66.904  1.00  0.00    -0.253 OA 
HETATM   11  C   UNL     1     -11.365  11.300  67.168  1.00  0.00    -0.295 C  
HETATM   12  C   UNL     1     -11.220  12.738  67.673  1.00  0.00    -0.323 C  
HETATM   13  H   UNL     1     -10.305   9.406  66.009  1.00  0.00     0.000 HD 
HETATM   14  C   UNL     1      -9.789  13.266  67.690  1.00  0.00    -0.230 C  
HETATM   15  C   UNL     1      -8.776  12.254  68.219  1.00  0.00    -0.178 C  
HETATM   16  C   UNL     1      -8.874  10.895  67.499  1.00  0.00    -0.133 C  
BRANCH  16  17
HETATM   17  C   UNL     1      -8.497  10.998  65.988  1.00  0.00    -0.158 C  
BRANCH  17  18
HETATM   18  N   UNL     1      -7.885   9.790  65.388  1.00  0.00    -0.117 NA 
HETATM   19  C   UNL     1      -7.570   9.988  63.972  1.00  0.00    -0.139 C  
HETATM   20  C   UNL     1      -6.664   9.442  66.124  1.00  0.00    -0.077 C  
ENDBRANCH  17  18
ENDBRANCH  16  17
ENDBRANCH   7   9
ENDBRANCH   2   3
TORSDOF 4
ENDMDL
MODEL      104
REMARK 921   NORMALIZED FREE ENERGY PREDICTED BY IDOCK:   -3.77 KCAL/MOL
REMARK 922        TOTAL FREE ENERGY PREDICTED BY IDOCK:   -5.49 KCAL/MOL
REMARK 923 INTER-LIGAND FREE ENERGY PREDICTED BY IDOCK:   -5.12 KCAL/MOL
REMARK 924 INTRA-LIGAND FREE ENERGY PREDICTED BY IDOCK:   -0.37 KCAL/MOL
REMARK 927      BINDING AFFINITY PREDICTED BY RF-SCORE:    0.00 PKD
ROOT
HETATM    1  C   UNL     1     -12.733  15.082  71.883  1.00  0.00    -0.337 C  
HETATM    2  O   UNL     1     -12.851  14.337  70.680  1.00  0.00    -0.345 OA 
ENDROOT
BRANCH   2   3
HETATM    3  C   UNL     1     -11.962  14.620  69.678  1.00  0.00    -0.323 A  
HETATM    4  C   UNL     1     -11.727  15.859  69.106  1.00  0.00    -0.369 A  
HETATM    5  C   UNL     1     -10.799  15.975  68.067  1.00  0.00    -0.335 A  
HETATM    6  C   UNL     1     -10.127  14.844  67.588  1.00  0.00    -0.227 A  
HETATM    7  C   UNL     1     -10.357  13.568  68.136  1.00  0.00    -0.247 A  
HETATM    8  C   UNL     1     -11.257  13.497  69.212  1.00  0.00    -0.285 A  
BRANCH   7   9
HETATM    9  C   UNL     1      -9.646  12.337  67.541  1.00  0.00    -0.184 C  
HETATM   10  O   UNL     1      -8.626  12.866  66.675  1.00  0.00    -0.402 OA 
HETATM   11  C   UNL     1      -8.905  11.439  68.565  1.00  0.00    -0.151 C  
HETATM   12  C   UNL     1      -9.807  10.534  69.409  1.00  0.00    -0.205 C  
HETATM   13  H   UNL     1      -8.188  12.107  66.309  1.00  0.00     0.000 HD 
HETATM   14  C   UNL     1     -10.915   9.834  68.630  1.00  0.00    -0.189 C  
HETATM   15  C   UNL     1     -11.614  10.743  67.623  1.00  0.00    -0.087 C  
HETATM   16  C   UNL     1     -10.620  11.455  66.685  1.00  0.00    -0.302 C  
BRANCH  16  17
HETATM   17  C   UNL     1      -9.853  10.453  65.766  1.00  0.00    -0.239 C  
BRANCH  17  18
HETATM   18  N   UNL     1      -9.531  10.939  64.404  1.00  0.00    -0.232 NA 
HETATM   19  C   UNL     1      -9.019   9.863  63.553  1.00  0.00    -0.252 C  
HETATM   20  C   UNL     1     -10.732  11.525  63.796  1.00  0.00    -0.408 C  
ENDBRANCH  17  18
ENDBRANCH  16  17
ENDBRANCH   7   9
ENDBRANCH   2   3
TORSDOF 4
ENDMDL
MODEL      105
REMARK 921   NORMALIZED FREE ENERGY PREDICTED BY IDOCK:   -3.74 KCAL/MOL
REMARK 922        TOTAL FREE ENERGY PREDICTED BY IDOCK:   -5.46 KCAL/MOL
REMARK 923 INTER-LIGAND FREE ENERGY PREDICTED BY IDOCK:   -4.76 KCAL/MOL
REMARK 924 INTRA-LIGAND FREE ENERGY PREDICTED BY IDOCK:   -0.70 KCAL/MOL
REMARK 927      BINDING AFFINITY PREDICTED BY RF-SCORE:    0.00 PKD
ROOT
HETATM    1  C   UNL     1      -8.149   7.902  68.933  1.00  0.00    -0.125 C  
HETATM    2  O   UNL     1      -8.881   9.106  69.106  1.00  0.00    -0.140 OA 
ENDROOT
BRANCH   2   3
HETATM    3  C   UNL     1      -8.387  10.232  68.503  1.00  0.00    -0.116 A  
HETATM    4  C   UNL     1      -7.149  10.369  67.896  1.00  0.00    -0.083 A  
HETATM    5  C   UNL     1      -6.783  11.601  67.348  1.00  0.00    -0.108 A  
HETATM    6  C   UNL     1      -7.646  12.699  67.431  1.00  0.00    -0.150 A  
HETATM    7  C   UNL     1      -8.904  12.597  68.058  1.00  0.00    -0.195 A  
HETATM    8  C   UNL     1      -9.261  11.331  68.551  1.00  0.00    -0.181 A  
BRANCH   7   9
HETATM    9  C   UNL     1      -9.802  13.842  68.186  1.00  0.00    -0.240 C  
HETATM   10  O   UNL     1      -9.345  14.524  69.368  1.00  0.00    -0.402 OA 
HETATM   11  C   UNL     1      -9.678  14.871  67.033  1.00  0.00    -0.240 C  
HETATM   12  C   UNL     1     -10.380  14.475  65.730  1.00  0.00    -0.347 C  
HETATM   13  H   UNL     1      -9.899  15.292  69.446  1.00  0.00     0.000 HD 
HETATM   14  C   UNL     1     -11.774  13.883  65.912  1.00  0.00    -0.372 C  
HETATM   15  C   UNL     1     -11.862  12.885  67.063  1.00  0.00    -0.437 C  
HETATM   16  C   UNL     1     -11.310  13.459  68.382  1.00  0.00    -0.329 C  
BRANCH  16  17
HETATM   17  C   UNL     1     -12.159  14.659  68.905  1.00  0.00    -0.216 C  
BRANCH  17  18
HETATM   18  N   UNL     1     -12.760  14.491  70.250  1.00  0.00    -0.323 NA 
HETATM   19  C   UNL     1     -12.341  13.236  70.877  1.00  0.00    -0.329 C  
HETATM   20  C   UNL     1     -12.378  15.624  71.102  1.00  0.00    -0.427 C  
ENDBRANCH  17  18
ENDBRANCH  16  17
ENDBRANCH   7   9
ENDBRANCH   2   3
TORSDOF 4
ENDMDL
MODEL      106
REMARK 921   NORMALIZED FREE ENERGY PREDICTED BY IDOCK:   -3.74 KCAL/MOL
REMARK 922        TOTAL FREE ENERGY PREDICTED BY IDOCK:   -5.46 KCAL/MOL
REMARK 923 INTER-LIGAND FREE ENERGY PREDICTED BY IDOCK:   -5.03 KCAL/MOL
REMARK 924 INTRA-LIGAND FREE ENERGY PREDICTED BY IDOCK:   -0.42 KCAL/MOL
REMARK 927      BINDING AFFINITY PREDICTED BY RF-SCORE:    0.00 PKD
ROOT
HETATM    1  C   UNL     1      -8.540   9.500  64.053  1.00  0.00    -0.207 C  
HETATM    2  O   UNL     1      -7.861   8.926  65.161  1.00  0.00    -0.098 OA 
ENDROOT
BRANCH   2   3
HETATM    3  C   UNL     1      -8.374   9.174  66.406  1.00  0.00    -0.122 A  
HETATM    4  C   UNL     1      -8.107   8.465  67.566  1.00  0.00    -0.110 A  
HETATM    5  C   UNL     1      -8.737   8.832  68.759  1.00  0.00    -0.137 A  
HETATM    6  C   UNL     1      -9.650   9.892  68.781  1.00  0.00    -0.160 A  
HETATM    7  C   UNL     1      -9.957  10.620  67.616  1.00  0.00    -0.197 A  
HETATM    8  C   UNL     1      -9.267  10.258  66.447  1.00  0.00    -0.186 A  
BRANCH   7   9
HETATM    9  C   UNL     1     -11.014  11.740  67.665  1.00  0.00    -0.233 C  
HETATM   10  O   UNL     1     -12.271  11.071  67.873  1.00  0.00    -0.612 OA 
HETATM   11  C   UNL     1     -10.869  12.738  68.842  1.00  0.00    -0.236 C  
HETATM   12  C   UNL     1      -9.752  13.774  68.682  1.00  0.00    -0.140 C  
HETATM   13  H   UNL     1     -12.922  11.761  67.904  1.00  0.00     0.000 HD 
HETATM   14  C   UNL     1      -9.659  14.402  67.295  1.00  0.00    -0.227 C  
HETATM   15  C   UNL     1      -9.819  13.393  66.162  1.00  0.00    -0.289 C  
HETATM   16  C   UNL     1     -11.089  12.534  66.314  1.00  0.00    -0.336 C  
BRANCH  16  17
HETATM   17  C   UNL     1     -12.394  13.383  66.203  1.00  0.00    -0.380 C  
BRANCH  17  18
HETATM   18  N   UNL     1     -12.928  13.574  64.834  1.00  0.00    -0.721 NA 
HETATM   19  C   UNL     1     -12.362  14.762  64.192  1.00  0.00    -0.231 C  
HETATM   20  C   UNL     1     -12.638  12.385  64.024  1.00  0.00    -0.412 C  
ENDBRANCH  17  18
ENDBRANCH  16  17
ENDBRANCH   7   9
ENDBRANCH   2   3
TORSDOF 4
ENDMDL
MODEL      107
REMARK 921   NORMALIZED FREE ENERGY PREDICTED BY IDOCK:   -3.73 KCAL/MOL
REMARK 922        TOTAL FREE ENERGY PREDICTED BY IDOCK:   -5.45 KCAL/MOL
REMARK 923 INTER-LIGAND FREE ENERGY PREDICTED BY IDOCK:   -4.73 KCAL/MOL
REMARK 924 INTRA-LIGAND FREE ENERGY PREDICTED BY IDOCK:   -0.73 KCAL/MOL
REMARK 927      BINDING AFFINITY PREDICTED BY RF-SCORE:    0.00 PKD
ROOT
HETATM    1  C   UNL     1      -9.864   5.454  68.420  1.00  0.00    -0.147 C  
HETATM    2  O   UNL     1      -9.362   6.730  68.048  1.00  0.00    -0.121 OA 
ENDROOT
BRANCH   2   3
HETATM    3  C   UNL     1      -9.819   7.812  68.752  1.00  0.00    -0.169 A  
HETATM    4  C   UNL     1     -10.640   7.786  69.868  1.00  0.00    -0.239 A  
HETATM    5  C   UNL     1     -11.040   8.988  70.458  1.00  0.00    -0.297 A  
HETATM    6  C   UNL     1     -10.637  10.213  69.914  1.00  0.00    -0.331 A  
HETATM    7  C   UNL     1      -9.818  10.274  68.770  1.00  0.00    -0.184 A  
HETATM    8  C   UNL     1      -9.393   9.047  68.234  1.00  0.00    -0.145 A  
BRANCH   7   9
HETATM    9  C   UNL     1      -9.447  11.640  68.162  1.00  0.00    -0.191 C  
HETATM   10  O   UNL     1      -8.322  12.106  68.929  1.00  0.00    -0.357 OA 
HETATM   11  C   UNL     1      -8.965  11.602  66.689  1.00  0.00    -0.189 C  
HETATM   12  C   UNL     1     -10.073  11.419  65.648  1.00  0.00    -0.293 C  
HETATM   13  H   UNL     1      -8.093  12.949  68.554  1.00  0.00     0.000 HD 
HETATM   14  C   UNL     1     -11.322  12.260  65.891  1.00  0.00    -0.406 C  
HETATM   15  C   UNL     1     -11.760  12.285  67.352  1.00  0.00    -0.405 C  
HETATM   16  C   UNL     1     -10.613  12.680  68.302  1.00  0.00    -0.250 C  
BRANCH  16  17
HETATM   17  C   UNL     1     -10.127  14.144  68.066  1.00  0.00    -0.233 C  
BRANCH  17  18
HETATM   18  N   UNL     1     -10.004  14.990  69.277  1.00  0.00    -0.228 NA 
HETATM   19  C   UNL     1      -9.332  16.258  68.985  1.00  0.00    -0.254 C  
HETATM   20  C   UNL     1     -11.339  15.251  69.830  1.00  0.00    -0.289 C  
ENDBRANCH  17  18
ENDBRANCH  16  17
ENDBRANCH   7   9
ENDBRANCH   2   3
TORSDOF 4
ENDMDL
MODEL      108
REMARK 921   NORMALIZED FREE ENERGY PREDICTED BY IDOCK:   -3.73 KCAL/MOL
REMARK 922        TOTAL FREE ENERGY PREDICTED BY IDOCK:   -5.45 KCAL/MOL
REMARK 923 INTER-LIGAND FREE ENERGY PREDICTED BY IDOCK:   -4.84 KCAL/MOL
REMARK 924 INTRA-LIGAND FREE ENERGY PREDICTED BY IDOCK:   -0.61 KCAL/MOL
REMARK 927      BINDING AFFINITY PREDICTED BY RF-SCORE:    0.00 PKD
ROOT
HETATM    1  C   UNL     1      -9.169   9.992  64.712  1.00  0.00    -0.249 C  
HETATM    2  O   UNL     1      -8.749  10.743  65.842  1.00  0.00    -0.170 OA 
ENDROOT
BRANCH   2   3
HETATM    3  C   UNL     1      -9.719  11.151  66.718  1.00  0.00    -0.193 A  
HETATM    4  C   UNL     1     -10.574  10.338  67.443  1.00  0.00    -0.324 A  
HETATM    5  C   UNL     1     -11.533  10.916  68.279  1.00  0.00    -0.376 A  
HETATM    6  C   UNL     1     -11.649  12.308  68.368  1.00  0.00    -0.377 A  
HETATM    7  C   UNL     1     -10.807  13.163  67.629  1.00  0.00    -0.269 A  
HETATM    8  C   UNL     1      -9.821  12.548  66.840  1.00  0.00    -0.229 A  
BRANCH   7   9
HETATM    9  C   UNL     1     -11.006  14.688  67.704  1.00  0.00    -0.293 C  
HETATM   10  O   UNL     1     -11.239  15.111  66.348  1.00  0.00    -0.339 OA 
HETATM   11  C   UNL     1     -12.243  15.159  68.511  1.00  0.00    -0.016 C  
HETATM   12  C   UNL     1     -12.094  15.084  70.033  1.00  0.00    -0.382 C  
HETATM   13  H   UNL     1     -11.361  16.052  66.395  1.00  0.00     0.000 HD 
HETATM   14  C   UNL     1     -10.755  15.584  70.567  1.00  0.00    -0.309 C  
HETATM   15  C   UNL     1      -9.561  15.113  69.742  1.00  0.00    -0.066 C  
HETATM   16  C   UNL     1      -9.726  15.420  68.241  1.00  0.00    -0.209 C  
BRANCH  16  17
HETATM   17  C   UNL     1      -9.758  16.952  67.951  1.00  0.00    -0.254 C  
BRANCH  17  18
HETATM   18  N   UNL     1      -8.490  17.548  67.468  1.00  0.00    -0.211 NA 
HETATM   19  C   UNL     1      -7.648  18.001  68.577  1.00  0.00    -0.291 C  
HETATM   20  C   UNL     1      -7.762  16.563  66.661  1.00  0.00    -0.283 C  
ENDBRANCH  17  18
ENDBRANCH  16  17
ENDBRANCH   7   9
ENDBRANCH   2   3
TORSDOF 4
ENDMDL
MODEL      109
REMARK 921   NORMALIZED FREE ENERGY PREDICTED BY IDOCK:   -3.72 KCAL/MOL
REMARK 922        TOTAL FREE ENERGY PREDICTED BY IDOCK:   -5.43 KCAL/MOL
REMARK 923 INTER-LIGAND FREE ENERGY PREDICTED BY IDOCK:   -5.26 KCAL/MOL
REMARK 924 INTRA-LIGAND FREE ENERGY PREDICTED BY IDOCK:   -0.17 KCAL/MOL
REMARK 927      BINDING AFFINITY PREDICTED BY RF-SCORE:    0.00 PKD
ROOT
HETATM    1  C   UNL     1      -5.277  13.801  68.093  1.00  0.00    -0.109 C  
HETATM    2  O   UNL     1      -6.302  14.433  68.846  1.00  0.00    -0.084 OA 
ENDROOT
BRANCH   2   3
HETATM    3  C   UNL     1      -7.274  15.097  68.147  1.00  0.00    -0.115 A  
HETATM    4  C   UNL     1      -7.085  16.133  67.247  1.00  0.00    -0.231 A  
HETATM    5  C   UNL     1      -8.192  16.726  66.634  1.00  0.00    -0.296 A  
HETATM    6  C   UNL     1      -9.487  16.296  66.942  1.00  0.00    -0.245 A  
HETATM    7  C   UNL     1      -9.715  15.257  67.866  1.00  0.00    -0.211 A  
HETATM    8  C   UNL     1      -8.577  14.650  68.423  1.00  0.00    -0.169 A  
BRANCH   7   9
HETATM    9  C   UNL     1     -11.156  14.852  68.227  1.00  0.00    -0.282 C  
HETATM   10  O   UNL     1     -11.826  16.081  68.563  1.00  0.00    -0.380 OA 
HETATM   11  C   UNL     1     -11.979  14.226  67.072  1.00  0.00    -0.463 C  
HETATM   12  C   UNL     1     -11.633  12.771  66.742  1.00  0.00    -0.431 C  
HETATM   13  H   UNL     1     -12.715  15.831  68.785  1.00  0.00     0.000 HD 
HETATM   14  C   UNL     1     -11.448  11.869  67.957  1.00  0.00    -0.389 C  
HETATM   15  C   UNL     1     -10.645  12.521  69.079  1.00  0.00    -0.083 C  
HETATM   16  C   UNL     1     -11.202  13.901  69.474  1.00  0.00    -0.237 C  
BRANCH  16  17
HETATM   17  C   UNL     1     -12.634  13.807  70.089  1.00  0.00    -0.191 C  
BRANCH  17  18
HETATM   18  N   UNL     1     -12.759  14.220  71.506  1.00  0.00    -0.332 NA 
HETATM   19  C   UNL     1     -12.997  15.660  71.631  1.00  0.00    -0.476 C  
HETATM   20  C   UNL     1     -13.857  13.479  72.138  1.00  0.00    -0.533 C  
ENDBRANCH  17  18
ENDBRANCH  16  17
ENDBRANCH   7   9
ENDBRANCH   2   3
TORSDOF 4
ENDMDL
MODEL      110
REMARK 921   NORMALIZED FREE ENERGY PREDICTED BY IDOCK:   -3.71 KCAL/MOL
REMARK 922        TOTAL FREE ENERGY PREDICTED BY IDOCK:   -5.42 KCAL/MOL
REMARK 923 INTER-LIGAND FREE ENERGY PREDICTED BY IDOCK:   -4.80 KCAL/MOL
REMARK 924 INTRA-LIGAND FREE ENERGY PREDICTED BY IDOCK:   -0.61 KCAL/MOL
REMARK 927      BINDING AFFINITY PREDICTED BY RF-SCORE:    0.00 PKD
ROOT
HETATM    1  C   UNL     1     -14.036   8.703  72.571  1.00  0.00    -0.306 C  
HETATM    2  O   UNL     1     -13.754  10.072  72.322  1.00  0.00    -0.326 OA 
ENDROOT
BRANCH   2   3
HETATM    3  C   UNL     1     -12.737  10.353  71.449  1.00  0.00    -0.446 A  
HETATM    4  C   UNL     1     -12.652  11.446  70.602  1.00  0.00    -0.360 A  
HETATM    5  C   UNL     1     -11.554  11.573  69.748  1.00  0.00    -0.401 A  
HETATM    6  C   UNL     1     -10.555  10.593  69.727  1.00  0.00    -0.233 A  
HETATM    7  C   UNL     1     -10.621   9.460  70.562  1.00  0.00    -0.331 A  
HETATM    8  C   UNL     1     -11.712   9.391  71.444  1.00  0.00    -0.448 A  
BRANCH   7   9
HETATM    9  C   UNL     1      -9.536   8.371  70.466  1.00  0.00    -0.170 C  
HETATM   10  O   UNL     1      -8.307   9.021  70.837  1.00  0.00    -0.167 OA 
HETATM   11  C   UNL     1      -9.698   7.185  71.451  1.00  0.00    -0.170 C  
HETATM   12  C   UNL     1     -10.779   6.168  71.072  1.00  0.00    -0.317 C  
HETATM   13  H   UNL     1      -7.638   8.349  70.778  1.00  0.00     0.000 HD 
HETATM   14  C   UNL     1     -10.802   5.783  69.596  1.00  0.00    -0.418 C  
HETATM   15  C   UNL     1     -10.627   6.972  68.657  1.00  0.00    -0.238 C  
HETATM   16  C   UNL     1      -9.388   7.818  69.005  1.00  0.00    -0.150 C  
BRANCH  16  17
HETATM   17  C   UNL     1      -8.057   7.028  68.807  1.00  0.00    -0.121 C  
BRANCH  17  18
HETATM   18  N   UNL     1      -7.228   7.434  67.648  1.00  0.00    -0.091 NA 
HETATM   19  C   UNL     1      -6.211   8.417  68.028  1.00  0.00    -0.052 C  
HETATM   20  C   UNL     1      -6.583   6.250  67.068  1.00  0.00    -0.059 C  
ENDBRANCH  17  18
ENDBRANCH  16  17
ENDBRANCH   7   9
ENDBRANCH   2   3
TORSDOF 4
ENDMDL
MODEL      111
REMARK 921   NORMALIZED FREE ENERGY PREDICTED BY IDOCK:   -3.70 KCAL/MOL
REMARK 922        TOTAL FREE ENERGY PREDICTED BY IDOCK:   -5.41 KCAL/MOL
REMARK 923 INTER-LIGAND FREE ENERGY PREDICTED BY IDOCK:   -4.58 KCAL/MOL
REMARK 924 INTRA-LIGAND FREE ENERGY PREDICTED BY IDOCK:   -0.83 KCAL/MOL
REMARK 927      BINDING AFFINITY PREDICTED BY RF-SCORE:    0.00 PKD
ROOT
HETATM    1  C   UNL     1     -13.710   9.236  72.306  1.00  0.00    -0.462 C  
HETATM    2  O   UNL     1     -13.395  10.127  71.246  1.00  0.00    -0.368 OA 
ENDROOT
BRANCH   2   3
HETATM    3  C   UNL     1     -12.123  10.077  70.743  1.00  0.00    -0.327 A  
HETATM    4  C   UNL     1     -11.546  10.975  69.860  1.00  0.00    -0.416 A  
HETATM    5  C   UNL     1     -10.237  10.766  69.418  1.00  0.00    -0.187 A  
HETATM    6  C   UNL     1      -9.518   9.643  69.843  1.00  0.00    -0.260 A  
HETATM    7  C   UNL     1     -10.081   8.701  70.725  1.00  0.00    -0.244 A  
HETATM    8  C   UNL     1     -11.380   8.971  71.189  1.00  0.00    -0.375 A  
BRANCH   7   9
HETATM    9  C   UNL     1      -9.282   7.445  71.121  1.00  0.00    -0.155 C  
HETATM   10  O   UNL     1      -9.624   6.449  70.140  1.00  0.00    -0.159 OA 
HETATM   11  C   UNL     1      -7.740   7.590  71.053  1.00  0.00    -0.089 C  
HETATM   12  C   UNL     1      -7.110   8.377  72.205  1.00  0.00    -0.116 C  
HETATM   13  H   UNL     1      -9.132   5.674  70.385  1.00  0.00     0.000 HD 
HETATM   14  C   UNL     1      -7.660   8.035  73.586  1.00  0.00    -0.209 C  
HETATM   15  C   UNL     1      -9.179   7.888  73.614  1.00  0.00    -0.320 C  
HETATM   16  C   UNL     1      -9.693   6.912  72.538  1.00  0.00    -0.169 C  
BRANCH  16  17
HETATM   17  C   UNL     1      -9.203   5.451  72.782  1.00  0.00    -0.136 C  
BRANCH  17  18
HETATM   18  N   UNL     1     -10.167   4.378  72.440  1.00  0.00    -0.187 NA 
HETATM   19  C   UNL     1      -9.486   3.128  72.097  1.00  0.00    -0.129 C  
HETATM   20  C   UNL     1     -11.075   4.155  73.572  1.00  0.00    -0.270 C  
ENDBRANCH  17  18
ENDBRANCH  16  17
ENDBRANCH   7   9
ENDBRANCH   2   3
TORSDOF 4
ENDMDL
MODEL      112
REMARK 921   NORMALIZED FREE ENERGY PREDICTED BY IDOCK:   -3.70 KCAL/MOL
REMARK 922        TOTAL FREE ENERGY PREDICTED BY IDOCK:   -5.41 KCAL/MOL
REMARK 923 INTER-LIGAND FREE ENERGY PREDICTED BY IDOCK:   -5.00 KCAL/MOL
REMARK 924 INTRA-LIGAND FREE ENERGY PREDICTED BY IDOCK:   -0.40 KCAL/MOL
REMARK 927      BINDING AFFINITY PREDICTED BY RF-SCORE:    0.00 PKD
ROOT
HETATM    1  C   UNL     1     -12.628  12.052  63.380  1.00  0.00    -0.469 C  
HETATM    2  O   UNL     1     -12.410  13.266  64.082  1.00  0.00    -0.541 OA 
ENDROOT
BRANCH   2   3
HETATM    3  C   UNL     1     -11.518  13.239  65.120  1.00  0.00    -0.295 A  
HETATM    4  C   UNL     1     -11.194  12.143  65.904  1.00  0.00    -0.384 A  
HETATM    5  C   UNL     1     -10.277  12.289  66.948  1.00  0.00    -0.229 A  
HETATM    6  C   UNL     1      -9.706  13.537  67.221  1.00  0.00    -0.236 A  
HETATM    7  C   UNL     1     -10.027  14.674  66.454  1.00  0.00    -0.296 A  
HETATM    8  C   UNL     1     -10.912  14.480  65.381  1.00  0.00    -0.346 A  
BRANCH   7   9
HETATM    9  C   UNL     1      -9.427  16.044  66.823  1.00  0.00    -0.231 C  
HETATM   10  O   UNL     1      -8.577  16.398  65.717  1.00  0.00    -0.398 OA 
HETATM   11  C   UNL     1     -10.448  17.202  66.957  1.00  0.00    -0.282 C  
HETATM   12  C   UNL     1     -11.273  17.196  68.247  1.00  0.00     0.028 C  
HETATM   13  H   UNL     1      -8.206  17.243  65.944  1.00  0.00     0.000 HD 
HETATM   14  C   UNL     1     -10.474  16.897  69.512  1.00  0.00    -0.228 C  
HETATM   15  C   UNL     1      -9.470  15.761  69.341  1.00  0.00    -0.275 C  
HETATM   16  C   UNL     1      -8.551  15.969  68.122  1.00  0.00    -0.171 C  
BRANCH  16  17
HETATM   17  C   UNL     1      -7.629  17.218  68.283  1.00  0.00    -0.227 C  
BRANCH  17  18
HETATM   18  N   UNL     1      -6.193  16.938  68.517  1.00  0.00    -0.143 NA 
HETATM   19  C   UNL     1      -5.822  15.595  68.066  1.00  0.00    -0.140 C  
HETATM   20  C   UNL     1      -5.378  17.938  67.818  1.00  0.00    -0.137 C  
ENDBRANCH  17  18
ENDBRANCH  16  17
ENDBRANCH   7   9
ENDBRANCH   2   3
TORSDOF 4
ENDMDL
MODEL      113
REMARK 921   NORMALIZED FREE ENERGY PREDICTED BY IDOCK:   -3.68 KCAL/MOL
REMARK 922        TOTAL FREE ENERGY PREDICTED BY IDOCK:   -5.39 KCAL/MOL
REMARK 923 INTER-LIGAND FREE ENERGY PREDICTED BY IDOCK:   -5.17 KCAL/MOL
REMARK 924 INTRA-LIGAND FREE ENERGY PREDICTED BY IDOCK:   -0.22 KCAL/MOL
REMARK 927      BINDING AFFINITY PREDICTED BY RF-SCORE:    0.00 PKD
ROOT
HETATM    1  C   UNL     1      -9.190   9.846  62.562  1.00  0.00    -0.283 C  
HETATM    2  O   UNL     1      -8.884   9.166  63.770  1.00  0.00    -0.181 OA 
ENDROOT
BRANCH   2   3
HETATM    3  C   UNL     1      -9.411   9.675  64.926  1.00  0.00    -0.220 A  
HETATM    4  C   UNL     1      -9.885   8.951  66.008  1.00  0.00    -0.277 A  
HETATM    5  C   UNL     1     -10.420   9.625  67.109  1.00  0.00    -0.317 A  
HETATM    6  C   UNL     1     -10.503  11.022  67.112  1.00  0.00    -0.274 A  
HETATM    7  C   UNL     1     -10.048  11.786  66.021  1.00  0.00    -0.263 A  
HETATM    8  C   UNL     1      -9.468  11.079  64.954  1.00  0.00    -0.270 A  
BRANCH   7   9
HETATM    9  C   UNL     1     -10.213  13.318  66.033  1.00  0.00    -0.291 C  
HETATM   10  O   UNL     1      -8.881  13.845  66.162  1.00  0.00    -0.442 OA 
HETATM   11  C   UNL     1     -10.786  13.934  64.731  1.00  0.00    -0.430 C  
HETATM   12  C   UNL     1     -12.294  13.754  64.535  1.00  0.00    -0.399 C  
HETATM   13  H   UNL     1      -8.983  14.790  66.169  1.00  0.00     0.000 HD 
HETATM   14  C   UNL     1     -13.133  14.004  65.784  1.00  0.00    -0.123 C  
HETATM   15  C   UNL     1     -12.534  13.395  67.048  1.00  0.00    -0.071 C  
HETATM   16  C   UNL     1     -11.064  13.805  67.258  1.00  0.00    -0.319 C  
BRANCH  16  17
HETATM   17  C   UNL     1     -10.908  15.337  67.510  1.00  0.00    -0.304 C  
BRANCH  17  18
HETATM   18  N   UNL     1      -9.519  15.854  67.527  1.00  0.00    -0.218 NA 
HETATM   19  C   UNL     1      -9.429  17.185  66.924  1.00  0.00    -0.259 C  
HETATM   20  C   UNL     1      -9.030  15.901  68.910  1.00  0.00    -0.228 C  
ENDBRANCH  17  18
ENDBRANCH  16  17
ENDBRANCH   7   9
ENDBRANCH   2   3
TORSDOF 4
ENDMDL
MODEL      114
REMARK 921   NORMALIZED FREE ENERGY PREDICTED BY IDOCK:   -3.64 KCAL/MOL
REMARK 922        TOTAL FREE ENERGY PREDICTED BY IDOCK:   -5.34 KCAL/MOL
REMARK 923 INTER-LIGAND FREE ENERGY PREDICTED BY IDOCK:   -5.04 KCAL/MOL
REMARK 924 INTRA-LIGAND FREE ENERGY PREDICTED BY IDOCK:   -0.30 KCAL/MOL
REMARK 927      BINDING AFFINITY PREDICTED BY RF-SCORE:    0.00 PKD
ROOT
HETATM    1  C   UNL     1     -12.407  14.759  64.513  1.00  0.00    -0.366 C  
HETATM    2  O   UNL     1     -12.684  13.403  64.829  1.00  0.00    -0.641 OA 
ENDROOT
BRANCH   2   3
HETATM    3  C   UNL     1     -11.678  12.495  64.630  1.00  0.00    -0.359 A  
HETATM    4  C   UNL     1     -11.149  12.100  63.413  1.00  0.00    -0.495 A  
HETATM    5  C   UNL     1     -10.138  11.136  63.380  1.00  0.00    -0.439 A  
HETATM    6  C   UNL     1      -9.675  10.554  64.565  1.00  0.00    -0.375 A  
HETATM    7  C   UNL     1     -10.205  10.920  65.818  1.00  0.00    -0.318 A  
HETATM    8  C   UNL     1     -11.183  11.929  65.817  1.00  0.00    -0.365 A  
BRANCH   7   9
HETATM    9  C   UNL     1      -9.716  10.213  67.096  1.00  0.00    -0.173 C  
HETATM   10  O   UNL     1      -9.725  11.223  68.120  1.00  0.00    -0.172 OA 
HETATM   11  C   UNL     1     -10.632   9.077  67.618  1.00  0.00    -0.298 C  
HETATM   12  C   UNL     1     -10.548   7.763  66.835  1.00  0.00    -0.347 C  
HETATM   13  H   UNL     1      -9.423  10.787  68.908  1.00  0.00     0.000 HD 
HETATM   14  C   UNL     1      -9.132   7.327  66.472  1.00  0.00    -0.186 C  
HETATM   15  C   UNL     1      -8.255   8.472  65.974  1.00  0.00    -0.118 C  
HETATM   16  C   UNL     1      -8.251   9.671  66.941  1.00  0.00    -0.113 C  
BRANCH  16  17
HETATM   17  C   UNL     1      -7.606   9.319  68.318  1.00  0.00    -0.083 C  
BRANCH  17  18
HETATM   18  N   UNL     1      -7.067  10.462  69.092  1.00  0.00    -0.071 NA 
HETATM   19  C   UNL     1      -6.878  10.118  70.503  1.00  0.00    -0.077 C  
HETATM   20  C   UNL     1      -5.790  10.890  68.510  1.00  0.00    -0.043 C  
ENDBRANCH  17  18
ENDBRANCH  16  17
ENDBRANCH   7   9
ENDBRANCH   2   3
TORSDOF 4
ENDMDL
MODEL      115
REMARK 921   NORMALIZED FREE ENERGY PREDICTED BY IDOCK:   -3.63 KCAL/MOL
REMARK 922        TOTAL FREE ENERGY PREDICTED BY IDOCK:   -5.32 KCAL/MOL
REMARK 923 INTER-LIGAND FREE ENERGY PREDICTED BY IDOCK:   -5.12 KCAL/MOL
REMARK 924 INTRA-LIGAND FREE ENERGY PREDICTED BY IDOCK:   -0.21 KCAL/MOL
REMARK 927      BINDING AFFINITY PREDICTED BY RF-SCORE:    0.00 PKD
ROOT
HETATM    1  C   UNL     1      -9.714  17.574  66.293  1.00  0.00    -0.258 C  
HETATM    2  O   UNL     1      -9.249  16.315  65.829  1.00  0.00    -0.439 OA 
ENDROOT
BRANCH   2   3
HETATM    3  C   UNL     1     -10.194  15.403  65.442  1.00  0.00    -0.377 A  
HETATM    4  C   UNL     1     -11.283  15.638  64.618  1.00  0.00    -0.380 A  
HETATM    5  C   UNL     1     -12.175  14.599  64.339  1.00  0.00    -0.473 A  
HETATM    6  C   UNL     1     -11.988  13.334  64.906  1.00  0.00    -0.417 A  
HETATM    7  C   UNL     1     -10.902  13.067  65.763  1.00  0.00    -0.292 A  
HETATM    8  C   UNL     1      -9.997  14.119  65.979  1.00  0.00    -0.340 A  
BRANCH   7   9
HETATM    9  C   UNL     1     -10.764  11.680  66.419  1.00  0.00    -0.272 C  
HETATM   10  O   UNL     1     -11.906  11.550  67.285  1.00  0.00    -0.609 OA 
HETATM   11  C   UNL     1     -10.835  10.475  65.446  1.00  0.00     0.100 C  
HETATM   12  C   UNL     1      -9.570  10.231  64.619  1.00  0.00    -0.374 C  
HETATM   13  H   UNL     1     -11.820  10.695  67.689  1.00  0.00     0.000 HD 
HETATM   14  C   UNL     1      -8.266  10.345  65.402  1.00  0.00    -0.159 C  
HETATM   15  C   UNL     1      -8.235  11.533  66.358  1.00  0.00    -0.092 C  
HETATM   16  C   UNL     1      -9.463  11.570  67.288  1.00  0.00    -0.176 C  
BRANCH  16  17
HETATM   17  C   UNL     1      -9.505  10.350  68.260  1.00  0.00    -0.148 C  
BRANCH  17  18
HETATM   18  N   UNL     1      -8.208   9.685  68.524  1.00  0.00    -0.104 NA 
HETATM   19  C   UNL     1      -7.694  10.009  69.856  1.00  0.00    -0.175 C  
HETATM   20  C   UNL     1      -8.366   8.232  68.392  1.00  0.00    -0.132 C  
ENDBRANCH  17  18
ENDBRANCH  16  17
ENDBRANCH   7   9
ENDBRANCH   2   3
TORSDOF 4
ENDMDL
MODEL      116
REMARK 921   NORMALIZED FREE ENERGY PREDICTED BY IDOCK:   -3.61 KCAL/MOL
REMARK 922        TOTAL FREE ENERGY PREDICTED BY IDOCK:   -5.31 KCAL/MOL
REMARK 923 INTER-LIGAND FREE ENERGY PREDICTED BY IDOCK:   -4.94 KCAL/MOL
REMARK 924 INTRA-LIGAND FREE ENERGY PREDICTED BY IDOCK:   -0.36 KCAL/MOL
REMARK 927      BINDING AFFINITY PREDICTED BY RF-SCORE:    0.00 PKD
ROOT
HETATM    1  C   UNL     1     -12.891  14.134  65.745  1.00  0.00    -0.329 C  
HETATM    2  O   UNL     1     -12.989  13.049  64.835  1.00  0.00    -0.739 OA 
ENDROOT
BRANCH   2   3
HETATM    3  C   UNL     1     -11.847  12.337  64.583  1.00  0.00    -0.367 A  
HETATM    4  C   UNL     1     -11.397  11.906  63.346  1.00  0.00    -0.465 A  
HETATM    5  C   UNL     1     -10.217  11.162  63.262  1.00  0.00    -0.403 A  
HETATM    6  C   UNL     1      -9.505  10.829  64.420  1.00  0.00    -0.300 A  
HETATM    7  C   UNL     1      -9.946  11.235  65.694  1.00  0.00    -0.292 A  
HETATM    8  C   UNL     1     -11.107  12.026  65.736  1.00  0.00    -0.371 A  
BRANCH   7   9
HETATM    9  C   UNL     1      -9.171  10.797  66.951  1.00  0.00    -0.156 C  
HETATM   10  O   UNL     1      -7.852  10.456  66.488  1.00  0.00    -0.115 OA 
HETATM   11  C   UNL     1      -8.969  11.898  68.024  1.00  0.00    -0.185 C  
HETATM   12  C   UNL     1     -10.204  12.214  68.872  1.00  0.00    -0.057 C  
HETATM   13  H   UNL     1      -7.374  10.186  67.264  1.00  0.00     0.000 HD 
HETATM   14  C   UNL     1     -10.978  10.990  69.350  1.00  0.00    -0.301 C  
HETATM   15  C   UNL     1     -11.148   9.922  68.274  1.00  0.00    -0.207 C  
HETATM   16  C   UNL     1      -9.809   9.530  67.620  1.00  0.00    -0.206 C  
BRANCH  16  17
HETATM   17  C   UNL     1      -8.836   8.846  68.631  1.00  0.00    -0.137 C  
BRANCH  17  18
HETATM   18  N   UNL     1      -8.259   7.550  68.200  1.00  0.00    -0.124 NA 
HETATM   19  C   UNL     1      -8.797   7.122  66.907  1.00  0.00    -0.128 C  
HETATM   20  C   UNL     1      -6.799   7.667  68.117  1.00  0.00    -0.064 C  
ENDBRANCH  17  18
ENDBRANCH  16  17
ENDBRANCH   7   9
ENDBRANCH   2   3
TORSDOF 4
ENDMDL
MODEL      117
REMARK 921   NORMALIZED FREE ENERGY PREDICTED BY IDOCK:   -3.59 KCAL/MOL
REMARK 922        TOTAL FREE ENERGY PREDICTED BY IDOCK:   -5.27 KCAL/MOL
REMARK 923 INTER-LIGAND FREE ENERGY PREDICTED BY IDOCK:   -4.41 KCAL/MOL
REMARK 924 INTRA-LIGAND FREE ENERGY PREDICTED BY IDOCK:   -0.86 KCAL/MOL
REMARK 927      BINDING AFFINITY PREDICTED BY RF-SCORE:    0.00 PKD
ROOT
HETATM    1  C   UNL     1     -13.544   9.806  72.041  1.00  0.00    -0.349 C  
HETATM    2  O   UNL     1     -13.172   8.498  72.450  1.00  0.00    -0.335 OA 
ENDROOT
BRANCH   2   3
HETATM    3  C   UNL     1     -11.848   8.163  72.351  1.00  0.00    -0.388 A  
HETATM    4  C   UNL     1     -11.117   7.407  73.251  1.00  0.00    -0.303 A  
HETATM    5  C   UNL     1      -9.759   7.176  73.016  1.00  0.00    -0.216 A  
HETATM    6  C   UNL     1      -9.131   7.726  71.892  1.00  0.00    -0.173 A  
HETATM    7  C   UNL     1      -9.842   8.515  70.968  1.00  0.00    -0.245 A  
HETATM    8  C   UNL     1     -11.216   8.682  71.208  1.00  0.00    -0.338 A  
BRANCH   7   9
HETATM    9  C   UNL     1      -9.105   9.155  69.776  1.00  0.00    -0.167 C  
HETATM   10  O   UNL     1      -8.660  10.440  70.247  1.00  0.00    -0.309 OA 
HETATM   11  C   UNL     1      -7.827   8.413  69.310  1.00  0.00    -0.104 C  
HETATM   12  C   UNL     1      -8.075   7.139  68.497  1.00  0.00    -0.125 C  
HETATM   13  H   UNL     1      -8.205  10.835  69.512  1.00  0.00     0.000 HD 
HETATM   14  C   UNL     1      -9.165   7.262  67.437  1.00  0.00    -0.140 C  
HETATM   15  C   UNL     1     -10.403   8.009  67.926  1.00  0.00    -0.282 C  
HETATM   16  C   UNL     1     -10.056   9.375  68.548  1.00  0.00    -0.208 C  
BRANCH  16  17
HETATM   17  C   UNL     1      -9.451  10.364  67.504  1.00  0.00    -0.149 C  
BRANCH  17  18
HETATM   18  N   UNL     1      -9.459  11.796  67.886  1.00  0.00    -0.184 NA 
HETATM   19  C   UNL     1      -8.623  12.599  66.992  1.00  0.00    -0.181 C  
HETATM   20  C   UNL     1     -10.836  12.301  67.866  1.00  0.00    -0.218 C  
ENDBRANCH  17  18
ENDBRANCH  16  17
ENDBRANCH   7   9
ENDBRANCH   2   3
TORSDOF 4
ENDMDL
MODEL      118
REMARK 921   NORMALIZED FREE ENERGY PREDICTED BY IDOCK:   -3.58 KCAL/MOL
REMARK 922        TOTAL FREE ENERGY PREDICTED BY IDOCK:   -5.26 KCAL/MOL
REMARK 923 INTER-LIGAND FREE ENERGY PREDICTED BY IDOCK:   -4.74 KCAL/MOL
REMARK 924 INTRA-LIGAND FREE ENERGY PREDICTED BY IDOCK:   -0.52 KCAL/MOL
REMARK 927      BINDING AFFINITY PREDICTED BY RF-SCORE:    0.00 PKD
ROOT
HETATM    1  C   UNL     1     -10.742  10.013  67.119  1.00  0.00    -0.212 C  
HETATM    2  O   UNL     1     -10.219  10.465  68.359  1.00  0.00    -0.154 OA 
ENDROOT
BRANCH   2   3
HETATM    3  C   UNL     1     -10.642  11.687  68.809  1.00  0.00    -0.212 A  
HETATM    4  C   UNL     1     -11.785  11.947  69.548  1.00  0.00    -0.410 A  
HETATM    5  C   UNL     1     -12.090  13.262  69.908  1.00  0.00    -0.377 A  
HETATM    6  C   UNL     1     -11.263  14.317  69.505  1.00  0.00    -0.286 A  
HETATM    7  C   UNL     1     -10.105  14.089  68.738  1.00  0.00    -0.183 A  
HETATM    8  C   UNL     1      -9.801  12.750  68.439  1.00  0.00    -0.196 A  
BRANCH   7   9
HETATM    9  C   UNL     1      -9.252  15.280  68.261  1.00  0.00    -0.189 C  
HETATM   10  O   UNL     1      -8.191  15.402  69.225  1.00  0.00    -0.221 OA 
HETATM   11  C   UNL     1      -8.555  15.090  66.889  1.00  0.00    -0.280 C  
HETATM   12  C   UNL     1      -9.470  15.231  65.669  1.00  0.00    -0.240 C  
HETATM   13  H   UNL     1      -7.666  16.137  68.930  1.00  0.00     0.000 HD 
HETATM   14  C   UNL     1     -10.443  16.403  65.735  1.00  0.00    -0.369 C  
HETATM   15  C   UNL     1     -11.101  16.569  67.102  1.00  0.00     0.066 C  
HETATM   16  C   UNL     1     -10.072  16.618  68.247  1.00  0.00    -0.268 C  
BRANCH  16  17
HETATM   17  C   UNL     1      -9.148  17.872  68.159  1.00  0.00    -0.278 C  
BRANCH  17  18
HETATM   18  N   UNL     1      -9.804  19.133  67.737  1.00  0.00    -0.320 NA 
HETATM   19  C   UNL     1     -10.158  19.969  68.886  1.00  0.00    -0.270 C  
HETATM   20  C   UNL     1      -8.910  19.874  66.839  1.00  0.00    -0.342 C  
ENDBRANCH  17  18
ENDBRANCH  16  17
ENDBRANCH   7   9
ENDBRANCH   2   3
TORSDOF 4
ENDMDL
MODEL      119
REMARK 921   NORMALIZED FREE ENERGY PREDICTED BY IDOCK:   -3.57 KCAL/MOL
REMARK 922        TOTAL FREE ENERGY PREDICTED BY IDOCK:   -5.25 KCAL/MOL
REMARK 923 INTER-LIGAND FREE ENERGY PREDICTED BY IDOCK:   -4.38 KCAL/MOL
REMARK 924 INTRA-LIGAND FREE ENERGY PREDICTED BY IDOCK:   -0.87 KCAL/MOL
REMARK 927      BINDING AFFINITY PREDICTED BY RF-SCORE:    0.00 PKD
ROOT
HETATM    1  C   UNL     1      -9.717  12.344  66.074  1.00  0.00    -0.244 C  
HETATM    2  O   UNL     1     -11.029  11.991  66.486  1.00  0.00    -0.267 OA 
ENDROOT
BRANCH   2   3
HETATM    3  C   UNL     1     -11.148  11.263  67.639  1.00  0.00    -0.277 A  
HETATM    4  C   UNL     1     -11.511  11.742  68.887  1.00  0.00    -0.357 A  
HETATM    5  C   UNL     1     -11.561  10.867  69.975  1.00  0.00    -0.424 A  
HETATM    6  C   UNL     1     -11.222   9.519  69.816  1.00  0.00    -0.173 A  
HETATM    7  C   UNL     1     -10.831   9.004  68.565  1.00  0.00    -0.061 A  
HETATM    8  C   UNL     1     -10.843   9.900  67.483  1.00  0.00    -0.307 A  
BRANCH   7   9
HETATM    9  C   UNL     1     -10.406   7.528  68.441  1.00  0.00    -0.195 C  
HETATM   10  O   UNL     1     -11.622   6.768  68.557  1.00  0.00    -0.534 OA 
HETATM   11  C   UNL     1      -9.788   7.128  67.076  1.00  0.00    -0.257 C  
HETATM   12  C   UNL     1      -8.342   7.584  66.859  1.00  0.00    -0.125 C  
HETATM   13  H   UNL     1     -11.359   5.858  68.480  1.00  0.00     0.000 HD 
HETATM   14  C   UNL     1      -7.424   7.384  68.060  1.00  0.00    -0.105 C  
HETATM   15  C   UNL     1      -8.068   7.775  69.387  1.00  0.00    -0.126 C  
HETATM   16  C   UNL     1      -9.436   7.099  69.597  1.00  0.00    -0.152 C  
BRANCH  16  17
HETATM   17  C   UNL     1      -9.317   5.548  69.720  1.00  0.00    -0.142 C  
BRANCH  17  18
HETATM   18  N   UNL     1     -10.240   4.900  70.681  1.00  0.00    -0.234 NA 
HETATM   19  C   UNL     1      -9.728   3.605  71.134  1.00  0.00    -0.175 C  
HETATM   20  C   UNL     1     -10.445   5.784  71.835  1.00  0.00    -0.221 C  
ENDBRANCH  17  18
ENDBRANCH  16  17
ENDBRANCH   7   9
ENDBRANCH   2   3
TORSDOF 4
ENDMDL
MODEL      120
REMARK 921   NORMALIZED FREE ENERGY PREDICTED BY IDOCK:   -3.57 KCAL/MOL
REMARK 922        TOTAL FREE ENERGY PREDICTED BY IDOCK:   -5.25 KCAL/MOL
REMARK 923 INTER-LIGAND FREE ENERGY PREDICTED BY IDOCK:   -4.50 KCAL/MOL
REMARK 924 INTRA-LIGAND FREE ENERGY PREDICTED BY IDOCK:   -0.74 KCAL/MOL
REMARK 927      BINDING AFFINITY PREDICTED BY RF-SCORE:    0.00 PKD
ROOT
HETATM    1  C   UNL     1      -9.944  11.418  63.456  1.00  0.00    -0.388 C  
HETATM    2  O   UNL     1     -11.086  11.867  64.171  1.00  0.00    -0.326 OA 
ENDROOT
BRANCH   2   3
HETATM    3  C   UNL     1     -11.097  11.664  65.525  1.00  0.00    -0.237 A  
HETATM    4  C   UNL     1     -11.750  12.436  66.472  1.00  0.00    -0.443 A  
HETATM    5  C   UNL     1     -11.639  12.107  67.826  1.00  0.00    -0.410 A  
HETATM    6  C   UNL     1     -10.854  11.022  68.229  1.00  0.00    -0.261 A  
HETATM    7  C   UNL     1     -10.162  10.229  67.293  1.00  0.00    -0.267 A  
HETATM    8  C   UNL     1     -10.338  10.556  65.938  1.00  0.00    -0.275 A  
BRANCH   7   9
HETATM    9  C   UNL     1      -9.257   9.081  67.779  1.00  0.00    -0.140 C  
HETATM   10  O   UNL     1      -7.915   9.597  67.714  1.00  0.00    -0.104 OA 
HETATM   11  C   UNL     1      -9.469   8.644  69.251  1.00  0.00    -0.158 C  
HETATM   12  C   UNL     1     -10.717   7.793  69.503  1.00  0.00    -0.200 C  
HETATM   13  H   UNL     1      -7.358   8.889  68.013  1.00  0.00     0.000 HD 
HETATM   14  C   UNL     1     -10.960   6.698  68.470  1.00  0.00    -0.314 C  
HETATM   15  C   UNL     1     -10.730   7.158  67.034  1.00  0.00    -0.420 C  
HETATM   16  C   UNL     1      -9.354   7.824  66.844  1.00  0.00    -0.212 C  
BRANCH  16  17
HETATM   17  C   UNL     1      -8.176   6.826  67.076  1.00  0.00    -0.113 C  
BRANCH  17  18
HETATM   18  N   UNL     1      -7.210   6.692  65.961  1.00  0.00    -0.069 NA 
HETATM   19  C   UNL     1      -7.166   5.321  65.446  1.00  0.00    -0.068 C  
HETATM   20  C   UNL     1      -7.576   7.616  64.881  1.00  0.00    -0.099 C  
ENDBRANCH  17  18
ENDBRANCH  16  17
ENDBRANCH   7   9
ENDBRANCH   2   3
TORSDOF 4
ENDMDL
MODEL      121
REMARK 921   NORMALIZED FREE ENERGY PREDICTED BY IDOCK:   -3.57 KCAL/MOL
REMARK 922        TOTAL FREE ENERGY PREDICTED BY IDOCK:   -5.25 KCAL/MOL
REMARK 923 INTER-LIGAND FREE ENERGY PREDICTED BY IDOCK:   -4.51 KCAL/MOL
REMARK 924 INTRA-LIGAND FREE ENERGY PREDICTED BY IDOCK:   -0.74 KCAL/MOL
REMARK 927      BINDING AFFINITY PREDICTED BY RF-SCORE:    0.00 PKD
ROOT
HETATM    1  C   UNL     1     -12.013   6.694  70.943  1.00  0.00    -0.355 C  
HETATM    2  O   UNL     1     -11.405   7.104  69.726  1.00  0.00    -0.215 OA 
ENDROOT
BRANCH   2   3
HETATM    3  C   UNL     1     -10.322   7.937  69.817  1.00  0.00    -0.219 A  
HETATM    4  C   UNL     1      -9.227   7.783  70.651  1.00  0.00    -0.161 A  
HETATM    5  C   UNL     1      -8.212   8.743  70.642  1.00  0.00    -0.159 A  
HETATM    6  C   UNL     1      -8.308   9.868  69.815  1.00  0.00    -0.196 A  
HETATM    7  C   UNL     1      -9.417  10.064  68.970  1.00  0.00    -0.190 A  
HETATM    8  C   UNL     1     -10.393   9.054  68.966  1.00  0.00    -0.233 A  
BRANCH   7   9
HETATM    9  C   UNL     1      -9.519  11.346  68.120  1.00  0.00    -0.181 C  
HETATM   10  O   UNL     1     -10.384  12.227  68.859  1.00  0.00    -0.373 OA 
HETATM   11  C   UNL     1      -8.191  12.123  67.929  1.00  0.00    -0.155 C  
HETATM   12  C   UNL     1      -7.218  11.508  66.919  1.00  0.00    -0.137 C  
HETATM   13  H   UNL     1     -10.447  13.017  68.335  1.00  0.00     0.000 HD 
HETATM   14  C   UNL     1      -7.865  11.019  65.627  1.00  0.00     0.062 C  
HETATM   15  C   UNL     1      -9.175  10.270  65.852  1.00  0.00    -0.205 C  
HETATM   16  C   UNL     1     -10.167  11.069  66.719  1.00  0.00    -0.272 C  
BRANCH  16  17
HETATM   17  C   UNL     1     -10.640  12.382  66.020  1.00  0.00    -0.256 C  
BRANCH  17  18
HETATM   18  N   UNL     1     -12.104  12.607  65.984  1.00  0.00    -0.574 NA 
HETATM   19  C   UNL     1     -12.448  13.988  66.329  1.00  0.00    -0.400 C  
HETATM   20  C   UNL     1     -12.616  12.287  64.646  1.00  0.00    -0.289 C  
ENDBRANCH  17  18
ENDBRANCH  16  17
ENDBRANCH   7   9
ENDBRANCH   2   3
TORSDOF 4
ENDMDL
MODEL      122
REMARK 921   NORMALIZED FREE ENERGY PREDICTED BY IDOCK:   -3.56 KCAL/MOL
REMARK 922        TOTAL FREE ENERGY PREDICTED BY IDOCK:   -5.23 KCAL/MOL
REMARK 923 INTER-LIGAND FREE ENERGY PREDICTED BY IDOCK:   -4.53 KCAL/MOL
REMARK 924 INTRA-LIGAND FREE ENERGY PREDICTED BY IDOCK:   -0.71 KCAL/MOL
REMARK 927      BINDING AFFINITY PREDICTED BY RF-SCORE:    0.00 PKD
ROOT
HETATM    1  C   UNL     1     -12.819  11.824  63.214  1.00  0.00    -0.085 C  
HETATM    2  O   UNL     1     -12.344  12.583  64.316  1.00  0.00    -0.422 OA 
ENDROOT
BRANCH   2   3
HETATM    3  C   UNL     1     -11.201  12.147  64.931  1.00  0.00    -0.323 A  
HETATM    4  C   UNL     1     -10.495  10.991  64.641  1.00  0.00    -0.398 A  
HETATM    5  C   UNL     1      -9.355  10.673  65.384  1.00  0.00    -0.250 A  
HETATM    6  C   UNL     1      -8.940  11.501  66.433  1.00  0.00    -0.200 A  
HETATM    7  C   UNL     1      -9.646  12.673  66.766  1.00  0.00    -0.241 A  
HETATM    8  C   UNL     1     -10.756  12.989  65.964  1.00  0.00    -0.290 A  
BRANCH   7   9
HETATM    9  C   UNL     1      -9.196  13.527  67.966  1.00  0.00    -0.209 C  
HETATM   10  O   UNL     1     -10.145  13.249  69.011  1.00  0.00    -0.425 OA 
HETATM   11  C   UNL     1      -7.807  13.168  68.553  1.00  0.00    -0.105 C  
HETATM   12  C   UNL     1      -6.609  13.655  67.733  1.00  0.00    -0.178 C  
HETATM   13  H   UNL     1      -9.867  13.776  69.752  1.00  0.00     0.000 HD 
HETATM   14  C   UNL     1      -6.732  15.082  67.211  1.00  0.00     0.015 C  
HETATM   15  C   UNL     1      -8.115  15.406  66.653  1.00  0.00    -0.133 C  
HETATM   16  C   UNL     1      -9.243  15.062  67.644  1.00  0.00    -0.182 C  
BRANCH  16  17
HETATM   17  C   UNL     1      -9.183  15.936  68.935  1.00  0.00    -0.232 C  
BRANCH  17  18
HETATM   18  N   UNL     1     -10.225  16.983  69.059  1.00  0.00    -0.307 NA 
HETATM   19  C   UNL     1      -9.870  18.191  68.313  1.00  0.00    -0.351 C  
HETATM   20  C   UNL     1     -11.507  16.458  68.574  1.00  0.00    -0.209 C  
ENDBRANCH  17  18
ENDBRANCH  16  17
ENDBRANCH   7   9
ENDBRANCH   2   3
TORSDOF 4
ENDMDL
MODEL      123
REMARK 921   NORMALIZED FREE ENERGY PREDICTED BY IDOCK:   -3.55 KCAL/MOL
REMARK 922        TOTAL FREE ENERGY PREDICTED BY IDOCK:   -5.23 KCAL/MOL
REMARK 923 INTER-LIGAND FREE ENERGY PREDICTED BY IDOCK:   -5.01 KCAL/MOL
REMARK 924 INTRA-LIGAND FREE ENERGY PREDICTED BY IDOCK:   -0.23 KCAL/MOL
REMARK 927      BINDING AFFINITY PREDICTED BY RF-SCORE:    0.00 PKD
ROOT
HETATM    1  C   UNL     1     -12.177  12.830  63.353  1.00  0.00    -0.504 C  
HETATM    2  O   UNL     1     -12.904  13.061  64.551  1.00  0.00    -0.692 OA 
ENDROOT
BRANCH   2   3
HETATM    3  C   UNL     1     -12.269  12.784  65.732  1.00  0.00    -0.408 A  
HETATM    4  C   UNL     1     -12.360  13.507  66.910  1.00  0.00    -0.289 A  
HETATM    5  C   UNL     1     -11.622  13.103  68.026  1.00  0.00    -0.371 A  
HETATM    6  C   UNL     1     -10.776  11.991  67.952  1.00  0.00    -0.243 A  
HETATM    7  C   UNL     1     -10.647  11.246  66.764  1.00  0.00    -0.305 A  
HETATM    8  C   UNL     1     -11.443  11.649  65.678  1.00  0.00    -0.171 A  
BRANCH   7   9
HETATM    9  C   UNL     1      -9.659  10.066  66.701  1.00  0.00    -0.186 C  
HETATM   10  O   UNL     1     -10.017   9.329  65.518  1.00  0.00    -0.440 OA 
HETATM   11  C   UNL     1      -8.170  10.455  66.520  1.00  0.00    -0.131 C  
HETATM   12  C   UNL     1      -7.480  10.991  67.778  1.00  0.00    -0.094 C  
HETATM   13  H   UNL     1      -9.408   8.602  65.479  1.00  0.00     0.000 HD 
HETATM   14  C   UNL     1      -7.786  10.212  69.052  1.00  0.00    -0.100 C  
HETATM   15  C   UNL     1      -9.258   9.833  69.192  1.00  0.00    -0.177 C  
HETATM   16  C   UNL     1      -9.801   9.116  67.942  1.00  0.00    -0.204 C  
BRANCH  16  17
HETATM   17  C   UNL     1      -9.114   7.735  67.707  1.00  0.00    -0.134 C  
BRANCH  17  18
HETATM   18  N   UNL     1      -9.933   6.712  67.015  1.00  0.00    -0.157 NA 
HETATM   19  C   UNL     1      -9.127   5.899  66.103  1.00  0.00    -0.150 C  
HETATM   20  C   UNL     1     -10.582   5.848  68.008  1.00  0.00    -0.252 C  
ENDBRANCH  17  18
ENDBRANCH  16  17
ENDBRANCH   7   9
ENDBRANCH   2   3
TORSDOF 4
ENDMDL
MODEL      124
REMARK 921   NORMALIZED FREE ENERGY PREDICTED BY IDOCK:   -3.54 KCAL/MOL
REMARK 922        TOTAL FREE ENERGY PREDICTED BY IDOCK:   -5.21 KCAL/MOL
REMARK 923 INTER-LIGAND FREE ENERGY PREDICTED BY IDOCK:   -4.77 KCAL/MOL
REMARK 924 INTRA-LIGAND FREE ENERGY PREDICTED BY IDOCK:   -0.45 KCAL/MOL
REMARK 927      BINDING AFFINITY PREDICTED BY RF-SCORE:    0.00 PKD
ROOT
HETATM    1  C   UNL     1      -7.222   9.194  68.921  1.00  0.00    -0.073 C  
HETATM    2  O   UNL     1      -7.557  10.570  68.827  1.00  0.00    -0.087 OA 
ENDROOT
BRANCH   2   3
HETATM    3  C   UNL     1      -8.811  10.880  68.372  1.00  0.00    -0.147 A  
HETATM    4  C   UNL     1      -9.908  10.034  68.330  1.00  0.00    -0.169 A  
HETATM    5  C   UNL     1     -11.118  10.499  67.809  1.00  0.00    -0.382 A  
HETATM    6  C   UNL     1     -11.220  11.801  67.307  1.00  0.00    -0.364 A  
HETATM    7  C   UNL     1     -10.119  12.679  67.318  1.00  0.00    -0.215 A  
HETATM    8  C   UNL     1      -8.933  12.196  67.897  1.00  0.00    -0.184 A  
BRANCH   7   9
HETATM    9  C   UNL     1     -10.250  14.085  66.700  1.00  0.00    -0.275 C  
HETATM   10  O   UNL     1     -10.176  13.886  65.277  1.00  0.00    -0.336 OA 
HETATM   11  C   UNL     1     -11.603  14.798  66.955  1.00  0.00    -0.352 C  
HETATM   12  C   UNL     1     -11.776  15.379  68.362  1.00  0.00    -0.332 C  
HETATM   13  H   UNL     1     -10.257  14.752  64.897  1.00  0.00     0.000 HD 
HETATM   14  C   UNL     1     -10.554  16.113  68.903  1.00  0.00    -0.275 C  
HETATM   15  C   UNL     1      -9.240  15.390  68.623  1.00  0.00    -0.199 C  
HETATM   16  C   UNL     1      -9.074  15.028  67.135  1.00  0.00    -0.229 C  
BRANCH  16  17
HETATM   17  C   UNL     1      -8.968  16.292  66.227  1.00  0.00    -0.331 C  
BRANCH  17  18
HETATM   18  N   UNL     1      -8.323  17.478  66.838  1.00  0.00    -0.222 NA 
HETATM   19  C   UNL     1      -6.983  17.706  66.293  1.00  0.00    -0.291 C  
HETATM   20  C   UNL     1      -9.159  18.663  66.613  1.00  0.00    -0.306 C  
ENDBRANCH  17  18
ENDBRANCH  16  17
ENDBRANCH   7   9
ENDBRANCH   2   3
TORSDOF 4
ENDMDL
MODEL      125
REMARK 921   NORMALIZED FREE ENERGY PREDICTED BY IDOCK:   -3.53 KCAL/MOL
REMARK 922        TOTAL FREE ENERGY PREDICTED BY IDOCK:   -5.20 KCAL/MOL
REMARK 923 INTER-LIGAND FREE ENERGY PREDICTED BY IDOCK:   -4.48 KCAL/MOL
REMARK 924 INTRA-LIGAND FREE ENERGY PREDICTED BY IDOCK:   -0.73 KCAL/MOL
REMARK 927      BINDING AFFINITY PREDICTED BY RF-SCORE:    0.00 PKD
ROOT
HETATM    1  C   UNL     1     -12.136   6.785  72.157  1.00  0.00    -0.252 C  
HETATM    2  O   UNL     1     -12.271   6.747  70.744  1.00  0.00    -0.390 OA 
ENDROOT
BRANCH   2   3
HETATM    3  C   UNL     1     -11.127   6.866  70.002  1.00  0.00    -0.299 A  
HETATM    4  C   UNL     1     -10.302   5.835  69.583  1.00  0.00    -0.330 A  
HETATM    5  C   UNL     1      -9.149   6.129  68.849  1.00  0.00    -0.123 A  
HETATM    6  C   UNL     1      -8.813   7.456  68.559  1.00  0.00    -0.126 A  
HETATM    7  C   UNL     1      -9.620   8.527  68.986  1.00  0.00    -0.167 A  
HETATM    8  C   UNL     1     -10.798   8.193  69.676  1.00  0.00    -0.162 A  
BRANCH   7   9
HETATM    9  C   UNL     1      -9.186   9.978  68.702  1.00  0.00    -0.152 C  
HETATM   10  O   UNL     1      -8.665  10.473  69.949  1.00  0.00    -0.373 OA 
HETATM   11  C   UNL     1      -8.037  10.138  67.674  1.00  0.00    -0.109 C  
HETATM   12  C   UNL     1      -8.445   9.953  66.209  1.00  0.00    -0.133 C  
HETATM   13  H   UNL     1      -8.398  11.367  69.774  1.00  0.00     0.000 HD 
HETATM   14  C   UNL     1      -9.751  10.638  65.821  1.00  0.00    -0.272 C  
HETATM   15  C   UNL     1     -10.855  10.471  66.860  1.00  0.00    -0.252 C  
HETATM   16  C   UNL     1     -10.397  10.879  68.274  1.00  0.00    -0.194 C  
BRANCH  16  17
HETATM   17  C   UNL     1     -10.062  12.400  68.372  1.00  0.00    -0.217 C  
BRANCH  17  18
HETATM   18  N   UNL     1     -11.074  13.244  69.048  1.00  0.00    -0.258 NA 
HETATM   19  C   UNL     1     -11.899  13.977  68.085  1.00  0.00    -0.367 C  
HETATM   20  C   UNL     1     -11.929  12.403  69.895  1.00  0.00    -0.299 C  
ENDBRANCH  17  18
ENDBRANCH  16  17
ENDBRANCH   7   9
ENDBRANCH   2   3
TORSDOF 4
ENDMDL
MODEL      126
REMARK 921   NORMALIZED FREE ENERGY PREDICTED BY IDOCK:   -3.52 KCAL/MOL
REMARK 922        TOTAL FREE ENERGY PREDICTED BY IDOCK:   -5.19 KCAL/MOL
REMARK 923 INTER-LIGAND FREE ENERGY PREDICTED BY IDOCK:   -4.84 KCAL/MOL
REMARK 924 INTRA-LIGAND FREE ENERGY PREDICTED BY IDOCK:   -0.35 KCAL/MOL
REMARK 927      BINDING AFFINITY PREDICTED BY RF-SCORE:    0.00 PKD
ROOT
HETATM    1  C   UNL     1     -11.780  14.290  70.045  1.00  0.00    -0.298 C  
HETATM    2  O   UNL     1     -12.268  14.705  68.778  1.00  0.00    -0.235 OA 
ENDROOT
BRANCH   2   3
HETATM    3  C   UNL     1     -12.012  13.888  67.710  1.00  0.00    -0.355 A  
HETATM    4  C   UNL     1     -12.361  14.119  66.389  1.00  0.00    -0.431 A  
HETATM    5  C   UNL     1     -12.048  13.167  65.415  1.00  0.00    -0.478 A  
HETATM    6  C   UNL     1     -11.409  11.973  65.771  1.00  0.00    -0.384 A  
HETATM    7  C   UNL     1     -11.059  11.699  67.107  1.00  0.00    -0.354 A  
HETATM    8  C   UNL     1     -11.341  12.701  68.051  1.00  0.00    -0.337 A  
BRANCH   7   9
HETATM    9  C   UNL     1     -10.414  10.349  67.471  1.00  0.00    -0.245 C  
HETATM   10  O   UNL     1     -11.452   9.590  68.117  1.00  0.00    -0.444 OA 
HETATM   11  C   UNL     1      -9.951   9.488  66.267  1.00  0.00    -0.344 C  
HETATM   12  C   UNL     1      -8.653   9.950  65.599  1.00  0.00    -0.157 C  
HETATM   13  H   UNL     1     -11.054   8.757  68.341  1.00  0.00     0.000 HD 
HETATM   14  C   UNL     1      -7.543  10.344  66.568  1.00  0.00    -0.118 C  
HETATM   15  C   UNL     1      -8.035  11.178  67.747  1.00  0.00    -0.116 C  
HETATM   16  C   UNL     1      -9.222  10.521  68.477  1.00  0.00    -0.168 C  
BRANCH  16  17
HETATM   17  C   UNL     1      -8.825   9.172  69.155  1.00  0.00    -0.146 C  
BRANCH  17  18
HETATM   18  N   UNL     1      -7.372   8.916  69.288  1.00  0.00    -0.069 NA 
HETATM   19  C   UNL     1      -6.934   8.997  70.683  1.00  0.00    -0.076 C  
HETATM   20  C   UNL     1      -7.055   7.591  68.744  1.00  0.00    -0.080 C  
ENDBRANCH  17  18
ENDBRANCH  16  17
ENDBRANCH   7   9
ENDBRANCH   2   3
TORSDOF 4
ENDMDL
MODEL      127
REMARK 921   NORMALIZED FREE ENERGY PREDICTED BY IDOCK:   -3.51 KCAL/MOL
REMARK 922        TOTAL FREE ENERGY PREDICTED BY IDOCK:   -5.18 KCAL/MOL
REMARK 923 INTER-LIGAND FREE ENERGY PREDICTED BY IDOCK:   -4.70 KCAL/MOL
REMARK 924 INTRA-LIGAND FREE ENERGY PREDICTED BY IDOCK:   -0.47 KCAL/MOL
REMARK 927      BINDING AFFINITY PREDICTED BY RF-SCORE:    0.00 PKD
ROOT
HETATM    1  C   UNL     1      -6.910  20.025  65.798  1.00  0.00    -0.281 C  
HETATM    2  O   UNL     1      -5.953  19.653  66.780  1.00  0.00    -0.173 OA 
ENDROOT
BRANCH   2   3
HETATM    3  C   UNL     1      -6.272  18.602  67.597  1.00  0.00    -0.191 A  
HETATM    4  C   UNL     1      -5.396  17.868  68.381  1.00  0.00    -0.156 A  
HETATM    5  C   UNL     1      -5.880  16.801  69.143  1.00  0.00    -0.155 A  
HETATM    6  C   UNL     1      -7.235  16.457  69.099  1.00  0.00    -0.222 A  
HETATM    7  C   UNL     1      -8.148  17.171  68.299  1.00  0.00    -0.239 A  
HETATM    8  C   UNL     1      -7.637  18.269  67.587  1.00  0.00    -0.222 A  
BRANCH   7   9
HETATM    9  C   UNL     1      -9.621  16.724  68.228  1.00  0.00    -0.244 C  
HETATM   10  O   UNL     1     -10.042  16.573  69.595  1.00  0.00    -0.206 OA 
HETATM   11  C   UNL     1     -10.596  17.750  67.597  1.00  0.00    -0.385 C  
HETATM   12  C   UNL     1     -10.534  17.854  66.071  1.00  0.00    -0.293 C  
HETATM   13  H   UNL     1     -10.950  16.298  69.551  1.00  0.00     0.000 HD 
HETATM   14  C   UNL     1     -10.457  16.516  65.344  1.00  0.00    -0.291 C  
HETATM   15  C   UNL     1      -9.498  15.526  65.998  1.00  0.00    -0.387 C  
HETATM   16  C   UNL     1      -9.779  15.342  67.501  1.00  0.00    -0.204 C  
BRANCH  16  17
HETATM   17  C   UNL     1     -11.173  14.693  67.768  1.00  0.00    -0.308 C  
BRANCH  17  18
HETATM   18  N   UNL     1     -11.176  13.227  67.977  1.00  0.00    -0.262 NA 
HETATM   19  C   UNL     1      -9.817  12.691  68.080  1.00  0.00    -0.226 C  
HETATM   20  C   UNL     1     -11.930  12.907  69.195  1.00  0.00    -0.259 C  
ENDBRANCH  17  18
ENDBRANCH  16  17
ENDBRANCH   7   9
ENDBRANCH   2   3
TORSDOF 4
ENDMDL
MODEL      128
REMARK 921   NORMALIZED FREE ENERGY PREDICTED BY IDOCK:   -3.51 KCAL/MOL
REMARK 922        TOTAL FREE ENERGY PREDICTED BY IDOCK:   -5.17 KCAL/MOL
REMARK 923 INTER-LIGAND FREE ENERGY PREDICTED BY IDOCK:   -4.55 KCAL/MOL
REMARK 924 INTRA-LIGAND FREE ENERGY PREDICTED BY IDOCK:   -0.62 KCAL/MOL
REMARK 927      BINDING AFFINITY PREDICTED BY RF-SCORE:    0.00 PKD
ROOT
HETATM    1  C   UNL     1     -12.710   8.716  71.967  1.00  0.00    -0.376 C  
HETATM    2  O   UNL     1     -11.497   9.379  71.644  1.00  0.00    -0.369 OA 
ENDROOT
BRANCH   2   3
HETATM    3  C   UNL     1     -11.432  10.010  70.431  1.00  0.00    -0.314 A  
HETATM    4  C   UNL     1     -12.003  11.229  70.101  1.00  0.00    -0.452 A  
HETATM    5  C   UNL     1     -11.866  11.726  68.802  1.00  0.00    -0.380 A  
HETATM    6  C   UNL     1     -11.179  10.989  67.830  1.00  0.00    -0.375 A  
HETATM    7  C   UNL     1     -10.604   9.739  68.128  1.00  0.00    -0.276 A  
HETATM    8  C   UNL     1     -10.716   9.294  69.456  1.00  0.00    -0.236 A  
BRANCH   7   9
HETATM    9  C   UNL     1      -9.910   8.928  67.017  1.00  0.00    -0.214 C  
HETATM   10  O   UNL     1     -10.802   7.837  66.726  1.00  0.00    -0.432 OA 
HETATM   11  C   UNL     1      -9.709   9.677  65.675  1.00  0.00    -0.363 C  
HETATM   12  C   UNL     1      -8.570  10.700  65.666  1.00  0.00    -0.187 C  
HETATM   13  H   UNL     1     -10.374   7.337  66.041  1.00  0.00     0.000 HD 
HETATM   14  C   UNL     1      -7.283  10.226  66.333  1.00  0.00    -0.113 C  
HETATM   15  C   UNL     1      -7.518   9.482  67.644  1.00  0.00    -0.091 C  
HETATM   16  C   UNL     1      -8.537   8.337  67.494  1.00  0.00    -0.129 C  
BRANCH  16  17
HETATM   17  C   UNL     1      -8.022   7.207  66.548  1.00  0.00    -0.112 C  
BRANCH  17  18
HETATM   18  N   UNL     1      -6.607   6.806  66.727  1.00  0.00    -0.043 NA 
HETATM   19  C   UNL     1      -6.494   5.491  67.361  1.00  0.00    -0.051 C  
HETATM   20  C   UNL     1      -5.934   6.789  65.424  1.00  0.00    -0.035 C  
ENDBRANCH  17  18
ENDBRANCH  16  17
ENDBRANCH   7   9
ENDBRANCH   2   3
TORSDOF 4
ENDMDL
MODEL      129
REMARK 921   NORMALIZED FREE ENERGY PREDICTED BY IDOCK:   -3.50 KCAL/MOL
REMARK 922        TOTAL FREE ENERGY PREDICTED BY IDOCK:   -5.17 KCAL/MOL
REMARK 923 INTER-LIGAND FREE ENERGY PREDICTED BY IDOCK:   -5.80 KCAL/MOL
REMARK 924 INTRA-LIGAND FREE ENERGY PREDICTED BY IDOCK:    0.63 KCAL/MOL
REMARK 927      BINDING AFFINITY PREDICTED BY RF-SCORE:    0.00 PKD
ROOT
HETATM    1  C   UNL     1     -10.981  13.331  68.672  1.00  0.00    -0.264 C  
HETATM    2  O   UNL     1     -11.698  13.560  69.877  1.00  0.00    -0.292 OA 
ENDROOT
BRANCH   2   3
HETATM    3  C   UNL     1     -12.162  12.461  70.548  1.00  0.00    -0.295 A  
HETATM    4  C   UNL     1     -13.145  12.442  71.524  1.00  0.00    -0.362 A  
HETATM    5  C   UNL     1     -13.487  11.233  72.135  1.00  0.00    -0.197 A  
HETATM    6  C   UNL     1     -12.827  10.050  71.785  1.00  0.00    -0.546 A  
HETATM    7  C   UNL     1     -11.810  10.038  70.810  1.00  0.00    -0.435 A  
HETATM    8  C   UNL     1     -11.528  11.262  70.180  1.00  0.00    -0.336 A  
BRANCH   7   9
HETATM    9  C   UNL     1     -11.062   8.729  70.495  1.00  0.00    -0.246 C  
HETATM   10  O   UNL     1     -11.230   8.523  69.081  1.00  0.00    -0.423 OA 
HETATM   11  C   UNL     1      -9.531   8.765  70.736  1.00  0.00    -0.253 C  
HETATM   12  C   UNL     1      -9.102   8.680  72.204  1.00  0.00    -0.301 C  
HETATM   13  H   UNL     1     -10.768   7.715  68.887  1.00  0.00     0.000 HD 
HETATM   14  C   UNL     1      -9.855   7.641  73.028  1.00  0.00    -0.319 C  
HETATM   15  C   UNL     1     -11.356   7.625  72.757  1.00  0.00    -0.419 C  
HETATM   16  C   UNL     1     -11.680   7.504  71.256  1.00  0.00    -0.312 C  
BRANCH  16  17
HETATM   17  C   UNL     1     -11.210   6.142  70.657  1.00  0.00    -0.319 C  
BRANCH  17  18
HETATM   18  N   UNL     1      -9.941   6.173  69.892  1.00  0.00    -0.167 NA 
HETATM   19  C   UNL     1      -8.876   5.441  70.582  1.00  0.00    -0.132 C  
HETATM   20  C   UNL     1     -10.157   5.596  68.560  1.00  0.00    -0.182 C  
ENDBRANCH  17  18
ENDBRANCH  16  17
ENDBRANCH   7   9
ENDBRANCH   2   3
TORSDOF 4
ENDMDL
MODEL      130
REMARK 921   NORMALIZED FREE ENERGY PREDICTED BY IDOCK:   -3.49 KCAL/MOL
REMARK 922        TOTAL FREE ENERGY PREDICTED BY IDOCK:   -5.16 KCAL/MOL
REMARK 923 INTER-LIGAND FREE ENERGY PREDICTED BY IDOCK:   -5.10 KCAL/MOL
REMARK 924 INTRA-LIGAND FREE ENERGY PREDICTED BY IDOCK:   -0.06 KCAL/MOL
REMARK 927      BINDING AFFINITY PREDICTED BY RF-SCORE:    0.00 PKD
ROOT
HETATM    1  C   UNL     1     -14.095   8.055  71.905  1.00  0.00    -0.397 C  
HETATM    2  O   UNL     1     -12.992   8.795  72.408  1.00  0.00    -0.392 OA 
ENDROOT
BRANCH   2   3
HETATM    3  C   UNL     1     -12.652   9.942  71.742  1.00  0.00    -0.414 A  
HETATM    4  C   UNL     1     -13.131  11.218  71.992  1.00  0.00    -0.431 A  
HETATM    5  C   UNL     1     -12.701  12.285  71.199  1.00  0.00    -0.340 A  
HETATM    6  C   UNL     1     -11.813  12.067  70.140  1.00  0.00    -0.383 A  
HETATM    7  C   UNL     1     -11.322  10.780  69.847  1.00  0.00    -0.385 A  
HETATM    8  C   UNL     1     -11.734   9.740  70.697  1.00  0.00    -0.377 A  
BRANCH   7   9
HETATM    9  C   UNL     1     -10.395  10.568  68.635  1.00  0.00    -0.185 C  
HETATM   10  O   UNL     1      -9.924   9.213  68.745  1.00  0.00    -0.166 OA 
HETATM   11  C   UNL     1     -11.082  10.664  67.248  1.00  0.00    -0.313 C  
HETATM   12  C   UNL     1     -11.403  12.086  66.779  1.00  0.00    -0.398 C  
HETATM   13  H   UNL     1      -9.352   9.083  67.997  1.00  0.00     0.000 HD 
HETATM   14  C   UNL     1     -10.289  13.100  67.011  1.00  0.00    -0.249 C  
HETATM   15  C   UNL     1      -9.627  12.970  68.380  1.00  0.00    -0.178 C  
HETATM   16  C   UNL     1      -9.157  11.531  68.670  1.00  0.00    -0.124 C  
BRANCH  16  17
HETATM   17  C   UNL     1      -8.026  11.071  67.698  1.00  0.00    -0.115 C  
BRANCH  17  18
HETATM   18  N   UNL     1      -6.676  10.931  68.293  1.00  0.00    -0.062 NA 
HETATM   19  C   UNL     1      -6.727  10.929  69.756  1.00  0.00    -0.144 C  
HETATM   20  C   UNL     1      -6.056   9.690  67.816  1.00  0.00    -0.052 C  
ENDBRANCH  17  18
ENDBRANCH  16  17
ENDBRANCH   7   9
ENDBRANCH   2   3
TORSDOF 4
ENDMDL
MODEL      131
REMARK 921   NORMALIZED FREE ENERGY PREDICTED BY IDOCK:   -3.48 KCAL/MOL
REMARK 922        TOTAL FREE ENERGY PREDICTED BY IDOCK:   -5.14 KCAL/MOL
REMARK 923 INTER-LIGAND FREE ENERGY PREDICTED BY IDOCK:   -4.95 KCAL/MOL
REMARK 924 INTRA-LIGAND FREE ENERGY PREDICTED BY IDOCK:   -0.20 KCAL/MOL
REMARK 927      BINDING AFFINITY PREDICTED BY RF-SCORE:    0.00 PKD
ROOT
HETATM    1  C   UNL     1      -7.007   9.352  70.251  1.00  0.00    -0.087 C  
HETATM    2  O   UNL     1      -8.321   8.946  70.606  1.00  0.00    -0.130 OA 
ENDROOT
BRANCH   2   3
HETATM    3  C   UNL     1      -9.351   9.775  70.252  1.00  0.00    -0.182 A  
HETATM    4  C   UNL     1     -10.615   9.812  70.816  1.00  0.00    -0.371 A  
HETATM    5  C   UNL     1     -11.568  10.705  70.319  1.00  0.00    -0.424 A  
HETATM    6  C   UNL     1     -11.259  11.542  69.240  1.00  0.00    -0.336 A  
HETATM    7  C   UNL     1      -9.989  11.516  68.632  1.00  0.00    -0.207 A  
HETATM    8  C   UNL     1      -9.040  10.644  69.191  1.00  0.00    -0.152 A  
BRANCH   7   9
HETATM    9  C   UNL     1      -9.705  12.407  67.407  1.00  0.00    -0.193 C  
HETATM   10  O   UNL     1      -8.319  12.191  67.090  1.00  0.00    -0.170 OA 
HETATM   11  C   UNL     1     -10.493  12.040  66.123  1.00  0.00    -0.271 C  
HETATM   12  C   UNL     1     -11.963  12.469  66.118  1.00  0.00    -0.432 C  
HETATM   13  H   UNL     1      -8.144  12.740  66.335  1.00  0.00     0.000 HD 
HETATM   14  C   UNL     1     -12.219  13.877  66.645  1.00  0.00    -0.465 C  
HETATM   15  C   UNL     1     -11.418  14.208  67.901  1.00  0.00    -0.340 C  
HETATM   16  C   UNL     1      -9.913  13.928  67.729  1.00  0.00    -0.241 C  
BRANCH  16  17
HETATM   17  C   UNL     1      -9.259  14.851  66.655  1.00  0.00    -0.276 C  
BRANCH  17  18
HETATM   18  N   UNL     1      -7.978  15.489  67.040  1.00  0.00    -0.220 NA 
HETATM   19  C   UNL     1      -7.827  16.812  66.430  1.00  0.00    -0.318 C  
HETATM   20  C   UNL     1      -7.908  15.605  68.501  1.00  0.00    -0.133 C  
ENDBRANCH  17  18
ENDBRANCH  16  17
ENDBRANCH   7   9
ENDBRANCH   2   3
TORSDOF 4
ENDMDL
MODEL      132
REMARK 921   NORMALIZED FREE ENERGY PREDICTED BY IDOCK:   -3.48 KCAL/MOL
REMARK 922        TOTAL FREE ENERGY PREDICTED BY IDOCK:   -5.14 KCAL/MOL
REMARK 923 INTER-LIGAND FREE ENERGY PREDICTED BY IDOCK:   -6.06 KCAL/MOL
REMARK 924 INTRA-LIGAND FREE ENERGY PREDICTED BY IDOCK:    0.91 KCAL/MOL
REMARK 927      BINDING AFFINITY PREDICTED BY RF-SCORE:    0.00 PKD
ROOT
HETATM    1  C   UNL     1     -12.582  15.771  73.339  1.00  0.00    -0.545 C  
HETATM    2  O   UNL     1     -13.292  15.548  72.130  1.00  0.00    -0.402 OA 
ENDROOT
BRANCH   2   3
HETATM    3  C   UNL     1     -12.585  15.040  71.073  1.00  0.00    -0.350 A  
HETATM    4  C   UNL     1     -12.521  13.713  70.682  1.00  0.00    -0.417 A  
HETATM    5  C   UNL     1     -11.727  13.352  69.590  1.00  0.00    -0.375 A  
HETATM    6  C   UNL     1     -10.980  14.319  68.908  1.00  0.00    -0.275 A  
HETATM    7  C   UNL     1     -11.008  15.674  69.292  1.00  0.00    -0.267 A  
HETATM    8  C   UNL     1     -11.857  16.008  70.360  1.00  0.00    -0.286 A  
BRANCH   7   9
HETATM    9  C   UNL     1     -10.124  16.699  68.557  1.00  0.00    -0.266 C  
HETATM   10  O   UNL     1     -10.499  17.981  69.092  1.00  0.00    -0.442 OA 
HETATM   11  C   UNL     1      -8.601  16.566  68.812  1.00  0.00    -0.262 C  
HETATM   12  C   UNL     1      -7.915  15.415  68.071  1.00  0.00    -0.134 C  
HETATM   13  H   UNL     1      -9.954  18.613  68.639  1.00  0.00     0.000 HD 
HETATM   14  C   UNL     1      -8.335  15.256  66.613  1.00  0.00    -0.216 C  
HETATM   15  C   UNL     1      -9.838  15.406  66.396  1.00  0.00    -0.301 C  
HETATM   16  C   UNL     1     -10.394  16.704  67.011  1.00  0.00    -0.301 C  
BRANCH  16  17
HETATM   17  C   UNL     1      -9.821  17.979  66.318  1.00  0.00    -0.307 C  
BRANCH  17  18
HETATM   18  N   UNL     1      -8.784  18.719  67.076  1.00  0.00    -0.276 NA 
HETATM   19  C   UNL     1      -7.476  18.640  66.421  1.00  0.00    -0.249 C  
HETATM   20  C   UNL     1      -9.186  20.123  67.215  1.00  0.00    -0.382 C  
ENDBRANCH  17  18
ENDBRANCH  16  17
ENDBRANCH   7   9
ENDBRANCH   2   3
TORSDOF 4
ENDMDL
MODEL      133
REMARK 921   NORMALIZED FREE ENERGY PREDICTED BY IDOCK:   -3.48 KCAL/MOL
REMARK 922        TOTAL FREE ENERGY PREDICTED BY IDOCK:   -5.14 KCAL/MOL
REMARK 923 INTER-LIGAND FREE ENERGY PREDICTED BY IDOCK:   -4.40 KCAL/MOL
REMARK 924 INTRA-LIGAND FREE ENERGY PREDICTED BY IDOCK:   -0.74 KCAL/MOL
REMARK 927      BINDING AFFINITY PREDICTED BY RF-SCORE:    0.00 PKD
ROOT
HETATM    1  C   UNL     1      -6.313   7.927  70.569  1.00  0.00    -0.037 C  
HETATM    2  O   UNL     1      -7.368   8.831  70.860  1.00  0.00    -0.066 OA 
ENDROOT
BRANCH   2   3
HETATM    3  C   UNL     1      -7.475   9.944  70.069  1.00  0.00    -0.168 A  
HETATM    4  C   UNL     1      -6.498  10.901  69.851  1.00  0.00    -0.144 A  
HETATM    5  C   UNL     1      -6.777  11.998  69.032  1.00  0.00    -0.100 A  
HETATM    6  C   UNL     1      -8.042  12.147  68.453  1.00  0.00    -0.149 A  
HETATM    7  C   UNL     1      -9.064  11.202  68.671  1.00  0.00    -0.166 A  
HETATM    8  C   UNL     1      -8.732  10.086  69.456  1.00  0.00    -0.205 A  
BRANCH   7   9
HETATM    9  C   UNL     1     -10.463  11.431  68.069  1.00  0.00    -0.188 C  
HETATM   10  O   UNL     1     -10.478  10.685  66.838  1.00  0.00    -0.229 OA 
HETATM   11  C   UNL     1     -11.645  10.881  68.908  1.00  0.00    -0.378 C  
HETATM   12  C   UNL     1     -12.015  11.717  70.137  1.00  0.00    -0.441 C  
HETATM   13  H   UNL     1     -11.341  10.827  66.468  1.00  0.00     0.000 HD 
HETATM   14  C   UNL     1     -12.048  13.222  69.896  1.00  0.00    -0.377 C  
HETATM   15  C   UNL     1     -10.879  13.728  69.056  1.00  0.00    -0.247 C  
HETATM   16  C   UNL     1     -10.719  12.944  67.740  1.00  0.00    -0.238 C  
BRANCH  16  17
HETATM   17  C   UNL     1     -11.936  13.140  66.783  1.00  0.00    -0.373 C  
BRANCH  17  18
HETATM   18  N   UNL     1     -11.649  13.014  65.335  1.00  0.00    -0.327 NA 
HETATM   19  C   UNL     1     -12.643  13.719  64.523  1.00  0.00    -0.202 C  
HETATM   20  C   UNL     1     -10.310  13.544  65.052  1.00  0.00    -0.362 C  
ENDBRANCH  17  18
ENDBRANCH  16  17
ENDBRANCH   7   9
ENDBRANCH   2   3
TORSDOF 4
ENDMDL
MODEL      134
REMARK 921   NORMALIZED FREE ENERGY PREDICTED BY IDOCK:   -3.48 KCAL/MOL
REMARK 922        TOTAL FREE ENERGY PREDICTED BY IDOCK:   -5.14 KCAL/MOL
REMARK 923 INTER-LIGAND FREE ENERGY PREDICTED BY IDOCK:   -4.48 KCAL/MOL
REMARK 924 INTRA-LIGAND FREE ENERGY PREDICTED BY IDOCK:   -0.66 KCAL/MOL
REMARK 927      BINDING AFFINITY PREDICTED BY RF-SCORE:    0.00 PKD
ROOT
HETATM    1  C   UNL     1      -7.805   9.970  68.852  1.00  0.00    -0.095 C  
HETATM    2  O   UNL     1      -8.714  10.933  68.342  1.00  0.00    -0.133 OA 
ENDROOT
BRANCH   2   3
HETATM    3  C   UNL     1      -9.957  10.987  68.914  1.00  0.00    -0.188 A  
HETATM    4  C   UNL     1     -10.957  11.903  68.635  1.00  0.00    -0.271 A  
HETATM    5  C   UNL     1     -12.167  11.838  69.332  1.00  0.00    -0.219 A  
HETATM    6  C   UNL     1     -12.362  10.871  70.324  1.00  0.00    -0.412 A  
HETATM    7  C   UNL     1     -11.358   9.937  70.645  1.00  0.00    -0.413 A  
HETATM    8  C   UNL     1     -10.175   9.999  69.889  1.00  0.00    -0.304 A  
BRANCH   7   9
HETATM    9  C   UNL     1     -11.584   8.927  71.787  1.00  0.00    -0.352 C  
HETATM   10  O   UNL     1     -10.429   9.045  72.637  1.00  0.00     0.098 OA 
HETATM   11  C   UNL     1     -12.806   9.215  72.695  1.00  0.00    -0.293 C  
HETATM   12  C   UNL     1     -14.166   8.862  72.087  1.00  0.00    -0.463 C  
HETATM   13  H   UNL     1     -10.569   8.422  73.340  1.00  0.00     0.000 HD 
HETATM   14  C   UNL     1     -14.211   7.521  71.362  1.00  0.00    -0.523 C  
HETATM   15  C   UNL     1     -12.987   7.264  70.487  1.00  0.00     0.308 C  
HETATM   16  C   UNL     1     -11.665   7.453  71.256  1.00  0.00    -0.316 C  
BRANCH  16  17
HETATM   17  C   UNL     1     -11.493   6.406  72.400  1.00  0.00    -0.282 C  
BRANCH  17  18
HETATM   18  N   UNL     1     -10.151   6.345  73.026  1.00  0.00    -0.181 NA 
HETATM   19  C   UNL     1     -10.237   6.099  74.468  1.00  0.00    -0.300 C  
HETATM   20  C   UNL     1      -9.360   5.286  72.389  1.00  0.00    -0.140 C  
ENDBRANCH  17  18
ENDBRANCH  16  17
ENDBRANCH   7   9
ENDBRANCH   2   3
TORSDOF 4
ENDMDL
MODEL      135
REMARK 921   NORMALIZED FREE ENERGY PREDICTED BY IDOCK:   -3.48 KCAL/MOL
REMARK 922        TOTAL FREE ENERGY PREDICTED BY IDOCK:   -5.13 KCAL/MOL
REMARK 923 INTER-LIGAND FREE ENERGY PREDICTED BY IDOCK:   -4.39 KCAL/MOL
REMARK 924 INTRA-LIGAND FREE ENERGY PREDICTED BY IDOCK:   -0.74 KCAL/MOL
REMARK 927      BINDING AFFINITY PREDICTED BY RF-SCORE:    0.00 PKD
ROOT
HETATM    1  C   UNL     1      -7.344  14.339  68.710  1.00  0.00    -0.131 C  
HETATM    2  O   UNL     1      -7.886  15.262  67.776  1.00  0.00    -0.127 OA 
ENDROOT
BRANCH   2   3
HETATM    3  C   UNL     1      -8.882  14.808  66.954  1.00  0.00    -0.248 A  
HETATM    4  C   UNL     1      -9.665  15.571  66.103  1.00  0.00    -0.348 A  
HETATM    5  C   UNL     1     -10.664  14.954  65.345  1.00  0.00    -0.391 A  
HETATM    6  C   UNL     1     -10.892  13.578  65.459  1.00  0.00    -0.293 A  
HETATM    7  C   UNL     1     -10.127  12.777  66.328  1.00  0.00    -0.267 A  
HETATM    8  C   UNL     1      -9.098  13.422  67.036  1.00  0.00    -0.245 A  
BRANCH   7   9
HETATM    9  C   UNL     1     -10.448  11.278  66.475  1.00  0.00    -0.253 C  
HETATM   10  O   UNL     1     -11.672  11.221  67.230  1.00  0.00    -0.566 OA 
HETATM   11  C   UNL     1     -10.737  10.528  65.149  1.00  0.00     0.003 C  
HETATM   12  C   UNL     1      -9.501  10.200  64.306  1.00  0.00    -0.366 C  
HETATM   13  H   UNL     1     -11.869  10.296  67.321  1.00  0.00     0.000 HD 
HETATM   14  C   UNL     1      -8.313   9.665  65.097  1.00  0.00    -0.142 C  
HETATM   15  C   UNL     1      -8.066  10.418  66.401  1.00  0.00    -0.129 C  
HETATM   16  C   UNL     1      -9.333  10.515  67.272  1.00  0.00    -0.164 C  
BRANCH  16  17
HETATM   17  C   UNL     1      -9.817   9.118  67.771  1.00  0.00    -0.174 C  
BRANCH  17  18
HETATM   18  N   UNL     1     -10.554   9.108  69.056  1.00  0.00    -0.220 NA 
HETATM   19  C   UNL     1     -10.919   7.748  69.460  1.00  0.00    -0.084 C  
HETATM   20  C   UNL     1      -9.731   9.731  70.099  1.00  0.00    -0.248 C  
ENDBRANCH  17  18
ENDBRANCH  16  17
ENDBRANCH   7   9
ENDBRANCH   2   3
TORSDOF 4
ENDMDL
MODEL      136
REMARK 921   NORMALIZED FREE ENERGY PREDICTED BY IDOCK:   -3.47 KCAL/MOL
REMARK 922        TOTAL FREE ENERGY PREDICTED BY IDOCK:   -5.13 KCAL/MOL
REMARK 923 INTER-LIGAND FREE ENERGY PREDICTED BY IDOCK:   -4.58 KCAL/MOL
REMARK 924 INTRA-LIGAND FREE ENERGY PREDICTED BY IDOCK:   -0.55 KCAL/MOL
REMARK 927      BINDING AFFINITY PREDICTED BY RF-SCORE:    0.00 PKD
ROOT
HETATM    1  C   UNL     1     -10.389   5.346  70.268  1.00  0.00    -0.287 C  
HETATM    2  O   UNL     1     -10.365   6.203  71.400  1.00  0.00    -0.204 OA 
ENDROOT
BRANCH   2   3
HETATM    3  C   UNL     1     -10.762   7.500  71.212  1.00  0.00    -0.225 A  
HETATM    4  C   UNL     1     -11.434   8.299  72.122  1.00  0.00    -0.427 A  
HETATM    5  C   UNL     1     -11.793   9.601  71.764  1.00  0.00    -0.391 A  
HETATM    6  C   UNL     1     -11.500  10.091  70.486  1.00  0.00    -0.407 A  
HETATM    7  C   UNL     1     -10.835   9.297  69.531  1.00  0.00    -0.211 A  
HETATM    8  C   UNL     1     -10.443   8.012  69.943  1.00  0.00    -0.233 A  
BRANCH   7   9
HETATM    9  C   UNL     1     -10.585   9.847  68.114  1.00  0.00    -0.227 C  
HETATM   10  O   UNL     1     -11.152   8.873  67.220  1.00  0.00    -0.373 OA 
HETATM   11  C   UNL     1     -11.297  11.185  67.786  1.00  0.00    -0.364 C  
HETATM   12  C   UNL     1     -10.657  12.431  68.404  1.00  0.00    -0.251 C  
HETATM   13  H   UNL     1     -10.997   9.213  66.346  1.00  0.00     0.000 HD 
HETATM   14  C   UNL     1      -9.135  12.478  68.312  1.00  0.00    -0.183 C  
HETATM   15  C   UNL     1      -8.468  11.143  68.628  1.00  0.00    -0.153 C  
HETATM   16  C   UNL     1      -9.054   9.983  67.800  1.00  0.00    -0.137 C  
BRANCH  16  17
HETATM   17  C   UNL     1      -8.779  10.148  66.273  1.00  0.00    -0.141 C  
BRANCH  17  18
HETATM   18  N   UNL     1      -7.734   9.266  65.703  1.00  0.00    -0.094 NA 
HETATM   19  C   UNL     1      -8.238   7.911  65.470  1.00  0.00    -0.140 C  
HETATM   20  C   UNL     1      -7.244   9.836  64.442  1.00  0.00    -0.129 C  
ENDBRANCH  17  18
ENDBRANCH  16  17
ENDBRANCH   7   9
ENDBRANCH   2   3
TORSDOF 4
ENDMDL
MODEL      137
REMARK 921   NORMALIZED FREE ENERGY PREDICTED BY IDOCK:   -3.44 KCAL/MOL
REMARK 922        TOTAL FREE ENERGY PREDICTED BY IDOCK:   -5.09 KCAL/MOL
REMARK 923 INTER-LIGAND FREE ENERGY PREDICTED BY IDOCK:   -4.33 KCAL/MOL
REMARK 924 INTRA-LIGAND FREE ENERGY PREDICTED BY IDOCK:   -0.76 KCAL/MOL
REMARK 927      BINDING AFFINITY PREDICTED BY RF-SCORE:    0.00 PKD
ROOT
HETATM    1  C   UNL     1     -13.697   9.618  72.450  1.00  0.00    -0.264 C  
HETATM    2  O   UNL     1     -12.577   8.926  71.916  1.00  0.00    -0.328 OA 
ENDROOT
BRANCH   2   3
HETATM    3  C   UNL     1     -11.946   9.491  70.841  1.00  0.00    -0.295 A  
HETATM    4  C   UNL     1     -12.174  10.753  70.317  1.00  0.00    -0.431 A  
HETATM    5  C   UNL     1     -11.460  11.172  69.191  1.00  0.00    -0.366 A  
HETATM    6  C   UNL     1     -10.538  10.317  68.577  1.00  0.00    -0.240 A  
HETATM    7  C   UNL     1     -10.298   9.021  69.073  1.00  0.00    -0.233 A  
HETATM    8  C   UNL     1     -10.994   8.652  70.237  1.00  0.00    -0.251 A  
BRANCH   7   9
HETATM    9  C   UNL     1      -9.323   8.084  68.335  1.00  0.00    -0.138 C  
HETATM   10  O   UNL     1      -8.089   8.818  68.233  1.00  0.00    -0.111 OA 
HETATM   11  C   UNL     1      -8.970   6.771  69.081  1.00  0.00    -0.132 C  
HETATM   12  C   UNL     1     -10.058   5.694  69.050  1.00  0.00    -0.259 C  
HETATM   13  H   UNL     1      -7.488   8.240  67.778  1.00  0.00     0.000 HD 
HETATM   14  C   UNL     1     -10.724   5.499  67.692  1.00  0.00    -0.198 C  
HETATM   15  C   UNL     1     -11.045   6.810  66.981  1.00  0.00    -0.369 C  
HETATM   16  C   UNL     1      -9.822   7.742  66.888  1.00  0.00    -0.305 C  
BRANCH  16  17
HETATM   17  C   UNL     1      -8.687   7.142  66.000  1.00  0.00    -0.147 C  
BRANCH  17  18
HETATM   18  N   UNL     1      -7.746   8.118  65.403  1.00  0.00    -0.095 NA 
HETATM   19  C   UNL     1      -6.436   7.518  65.144  1.00  0.00    -0.041 C  
HETATM   20  C   UNL     1      -8.309   8.640  64.152  1.00  0.00    -0.126 C  
ENDBRANCH  17  18
ENDBRANCH  16  17
ENDBRANCH   7   9
ENDBRANCH   2   3
TORSDOF 4
ENDMDL
MODEL      138
REMARK 921   NORMALIZED FREE ENERGY PREDICTED BY IDOCK:   -3.43 KCAL/MOL
REMARK 922        TOTAL FREE ENERGY PREDICTED BY IDOCK:   -5.08 KCAL/MOL
REMARK 923 INTER-LIGAND FREE ENERGY PREDICTED BY IDOCK:   -4.37 KCAL/MOL
REMARK 924 INTRA-LIGAND FREE ENERGY PREDICTED BY IDOCK:   -0.71 KCAL/MOL
REMARK 927      BINDING AFFINITY PREDICTED BY RF-SCORE:    0.00 PKD
ROOT
HETATM    1  C   UNL     1      -7.187   8.277  69.369  1.00  0.00    -0.059 C  
HETATM    2  O   UNL     1      -7.721   9.517  69.811  1.00  0.00    -0.093 OA 
ENDROOT
BRANCH   2   3
HETATM    3  C   UNL     1      -7.464  10.620  69.041  1.00  0.00    -0.117 A  
HETATM    4  C   UNL     1      -6.237  11.239  68.867  1.00  0.00    -0.052 A  
HETATM    5  C   UNL     1      -6.148  12.379  68.064  1.00  0.00    -0.075 A  
HETATM    6  C   UNL     1      -7.292  12.911  67.458  1.00  0.00    -0.154 A  
HETATM    7  C   UNL     1      -8.557  12.316  67.630  1.00  0.00    -0.169 A  
HETATM    8  C   UNL     1      -8.600  11.142  68.401  1.00  0.00    -0.152 A  
BRANCH   7   9
HETATM    9  C   UNL     1      -9.803  12.964  66.999  1.00  0.00    -0.233 C  
HETATM   10  O   UNL     1      -9.504  13.084  65.597  1.00  0.00    -0.466 OA 
HETATM   11  C   UNL     1     -11.103  12.123  67.081  1.00  0.00    -0.345 C  
HETATM   12  C   UNL     1     -11.782  12.108  68.454  1.00  0.00    -0.388 C  
HETATM   13  H   UNL     1     -10.273  13.484  65.208  1.00  0.00     0.000 HD 
HETATM   14  C   UNL     1     -11.854  13.466  69.144  1.00  0.00    -0.383 C  
HETATM   15  C   UNL     1     -10.564  14.272  69.032  1.00  0.00    -0.243 C  
HETATM   16  C   UNL     1     -10.074  14.398  67.577  1.00  0.00    -0.232 C  
BRANCH  16  17
HETATM   17  C   UNL     1     -11.063  15.213  66.688  1.00  0.00    -0.308 C  
BRANCH  17  18
HETATM   18  N   UNL     1     -10.445  16.155  65.725  1.00  0.00    -0.358 NA 
HETATM   19  C   UNL     1     -11.259  16.305  64.517  1.00  0.00    -0.207 C  
HETATM   20  C   UNL     1     -10.261  17.462  66.366  1.00  0.00    -0.338 C  
ENDBRANCH  17  18
ENDBRANCH  16  17
ENDBRANCH   7   9
ENDBRANCH   2   3
TORSDOF 4
ENDMDL
MODEL      139
REMARK 921   NORMALIZED FREE ENERGY PREDICTED BY IDOCK:   -3.41 KCAL/MOL
REMARK 922        TOTAL FREE ENERGY PREDICTED BY IDOCK:   -5.05 KCAL/MOL
REMARK 923 INTER-LIGAND FREE ENERGY PREDICTED BY IDOCK:   -4.24 KCAL/MOL
REMARK 924 INTRA-LIGAND FREE ENERGY PREDICTED BY IDOCK:   -0.81 KCAL/MOL
REMARK 927      BINDING AFFINITY PREDICTED BY RF-SCORE:    0.00 PKD
ROOT
HETATM    1  C   UNL     1      -5.713   7.009  69.642  1.00  0.00    -0.022 C  
HETATM    2  O   UNL     1      -6.004   5.619  69.598  1.00  0.00    -0.019 OA 
ENDROOT
BRANCH   2   3
HETATM    3  C   UNL     1      -7.297   5.243  69.845  1.00  0.00    -0.064 A  
HETATM    4  C   UNL     1      -7.759   3.952  70.046  1.00  0.00    -0.048 A  
HETATM    5  C   UNL     1      -9.122   3.732  70.261  1.00  0.00    -0.193 A  
HETATM    6  C   UNL     1     -10.023   4.803  70.249  1.00  0.00    -0.320 A  
HETATM    7  C   UNL     1      -9.588   6.125  70.029  1.00  0.00    -0.185 A  
HETATM    8  C   UNL     1      -8.205   6.315  69.869  1.00  0.00    -0.121 A  
BRANCH   7   9
HETATM    9  C   UNL     1     -10.616   7.270  69.960  1.00  0.00    -0.233 C  
HETATM   10  O   UNL     1     -10.807   7.530  68.558  1.00  0.00    -0.387 OA 
HETATM   11  C   UNL     1     -12.022   6.935  70.521  1.00  0.00    -0.358 C  
HETATM   12  C   UNL     1     -12.124   6.910  72.049  1.00  0.00    -0.331 C  
HETATM   13  H   UNL     1     -11.441   8.236  68.516  1.00  0.00     0.000 HD 
HETATM   14  C   UNL     1     -11.411   8.060  72.754  1.00  0.00    -0.420 C  
HETATM   15  C   UNL     1     -10.037   8.370  72.168  1.00  0.00    -0.376 C  
HETATM   16  C   UNL     1     -10.082   8.578  70.643  1.00  0.00    -0.225 C  
BRANCH  16  17
HETATM   17  C   UNL     1     -10.916   9.834  70.241  1.00  0.00    -0.298 C  
BRANCH  17  18
HETATM   18  N   UNL     1     -10.244  10.797  69.337  1.00  0.00    -0.198 NA 
HETATM   19  C   UNL     1      -8.854  10.416  69.076  1.00  0.00    -0.172 C  
HETATM   20  C   UNL     1     -10.982  10.879  68.071  1.00  0.00    -0.265 C  
ENDBRANCH  17  18
ENDBRANCH  16  17
ENDBRANCH   7   9
ENDBRANCH   2   3
TORSDOF 4
ENDMDL
MODEL      140
REMARK 921   NORMALIZED FREE ENERGY PREDICTED BY IDOCK:   -3.41 KCAL/MOL
REMARK 922        TOTAL FREE ENERGY PREDICTED BY IDOCK:   -5.05 KCAL/MOL
REMARK 923 INTER-LIGAND FREE ENERGY PREDICTED BY IDOCK:   -4.37 KCAL/MOL
REMARK 924 INTRA-LIGAND FREE ENERGY PREDICTED BY IDOCK:   -0.68 KCAL/MOL
REMARK 927      BINDING AFFINITY PREDICTED BY RF-SCORE:    0.00 PKD
ROOT
HETATM    1  C   UNL     1      -9.786   3.107  71.629  1.00  0.00    -0.164 C  
HETATM    2  O   UNL     1     -10.106   4.190  72.491  1.00  0.00    -0.158 OA 
ENDROOT
BRANCH   2   3
HETATM    3  C   UNL     1     -10.600   5.327  71.911  1.00  0.00    -0.209 A  
HETATM    4  C   UNL     1     -11.764   5.994  72.259  1.00  0.00    -0.338 A  
HETATM    5  C   UNL     1     -12.145   7.133  71.546  1.00  0.00    -0.377 A  
HETATM    6  C   UNL     1     -11.374   7.588  70.470  1.00  0.00    -0.279 A  
HETATM    7  C   UNL     1     -10.196   6.922  70.080  1.00  0.00    -0.211 A  
HETATM    8  C   UNL     1      -9.815   5.811  70.851  1.00  0.00    -0.229 A  
BRANCH   7   9
HETATM    9  C   UNL     1      -9.406   7.414  68.852  1.00  0.00    -0.145 C  
HETATM   10  O   UNL     1      -8.702   8.588  69.295  1.00  0.00    -0.131 OA 
HETATM   11  C   UNL     1      -8.316   6.442  68.331  1.00  0.00    -0.116 C  
HETATM   12  C   UNL     1      -8.841   5.243  67.536  1.00  0.00    -0.105 C  
HETATM   13  H   UNL     1      -8.215   8.891  68.538  1.00  0.00     0.000 HD 
HETATM   14  C   UNL     1      -9.936   5.576  66.528  1.00  0.00    -0.214 C  
HETATM   15  C   UNL     1     -10.983   6.544  67.070  1.00  0.00    -0.466 C  
HETATM   16  C   UNL     1     -10.354   7.816  67.669  1.00  0.00    -0.305 C  
BRANCH  16  17
HETATM   17  C   UNL     1      -9.619   8.675  66.593  1.00  0.00    -0.221 C  
BRANCH  17  18
HETATM   18  N   UNL     1     -10.301   9.926  66.185  1.00  0.00    -0.199 NA 
HETATM   19  C   UNL     1     -10.796  10.674  67.342  1.00  0.00    -0.296 C  
HETATM   20  C   UNL     1      -9.373  10.761  65.413  1.00  0.00    -0.207 C  
ENDBRANCH  17  18
ENDBRANCH  16  17
ENDBRANCH   7   9
ENDBRANCH   2   3
TORSDOF 4
ENDMDL
MODEL      141
REMARK 921   NORMALIZED FREE ENERGY PREDICTED BY IDOCK:   -3.38 KCAL/MOL
REMARK 922        TOTAL FREE ENERGY PREDICTED BY IDOCK:   -5.02 KCAL/MOL
REMARK 923 INTER-LIGAND FREE ENERGY PREDICTED BY IDOCK:   -4.44 KCAL/MOL
REMARK 924 INTRA-LIGAND FREE ENERGY PREDICTED BY IDOCK:   -0.58 KCAL/MOL
REMARK 927      BINDING AFFINITY PREDICTED BY RF-SCORE:    0.00 PKD
ROOT
HETATM    1  C   UNL     1     -11.845  12.078  67.984  1.00  0.00    -0.269 C  
HETATM    2  O   UNL     1     -11.801  10.837  68.673  1.00  0.00    -0.404 OA 
ENDROOT
BRANCH   2   3
HETATM    3  C   UNL     1     -10.594  10.450  69.190  1.00  0.00    -0.228 A  
HETATM    4  C   UNL     1      -9.341  10.751  68.681  1.00  0.00    -0.184 A  
HETATM    5  C   UNL     1      -8.200  10.253  69.316  1.00  0.00    -0.164 A  
HETATM    6  C   UNL     1      -8.318   9.434  70.445  1.00  0.00    -0.234 A  
HETATM    7  C   UNL     1      -9.577   9.094  70.976  1.00  0.00    -0.350 A  
HETATM    8  C   UNL     1     -10.700   9.654  70.343  1.00  0.00    -0.356 A  
BRANCH   7   9
HETATM    9  C   UNL     1      -9.670   8.140  72.181  1.00  0.00    -0.244 C  
HETATM   10  O   UNL     1      -8.904   8.766  73.226  1.00  0.00    -0.280 OA 
HETATM   11  C   UNL     1     -11.093   7.942  72.764  1.00  0.00    -0.462 C  
HETATM   12  C   UNL     1     -12.010   7.029  71.945  1.00  0.00    -0.355 C  
HETATM   13  H   UNL     1      -8.962   8.177  73.969  1.00  0.00     0.000 HD 
HETATM   14  C   UNL     1     -11.346   5.755  71.433  1.00  0.00    -0.175 C  
HETATM   15  C   UNL     1      -9.943   5.983  70.879  1.00  0.00    -0.232 C  
HETATM   16  C   UNL     1      -9.037   6.739  71.869  1.00  0.00    -0.142 C  
BRANCH  16  17
HETATM   17  C   UNL     1      -8.762   5.915  73.166  1.00  0.00    -0.122 C  
BRANCH  17  18
HETATM   18  N   UNL     1      -7.337   5.658  73.481  1.00  0.00    -0.087 NA 
HETATM   19  C   UNL     1      -6.480   5.852  72.310  1.00  0.00    -0.058 C  
HETATM   20  C   UNL     1      -6.906   6.548  74.565  1.00  0.00    -0.092 C  
ENDBRANCH  17  18
ENDBRANCH  16  17
ENDBRANCH   7   9
ENDBRANCH   2   3
TORSDOF 4
ENDMDL
MODEL      142
REMARK 921   NORMALIZED FREE ENERGY PREDICTED BY IDOCK:   -3.38 KCAL/MOL
REMARK 922        TOTAL FREE ENERGY PREDICTED BY IDOCK:   -5.01 KCAL/MOL
REMARK 923 INTER-LIGAND FREE ENERGY PREDICTED BY IDOCK:   -4.27 KCAL/MOL
REMARK 924 INTRA-LIGAND FREE ENERGY PREDICTED BY IDOCK:   -0.74 KCAL/MOL
REMARK 927      BINDING AFFINITY PREDICTED BY RF-SCORE:    0.00 PKD
ROOT
HETATM    1  C   UNL     1      -9.133   9.125  67.124  1.00  0.00    -0.126 C  
HETATM    2  O   UNL     1      -9.519  10.443  66.763  1.00  0.00    -0.161 OA 
ENDROOT
BRANCH   2   3
HETATM    3  C   UNL     1      -8.751  11.473  67.237  1.00  0.00    -0.151 A  
HETATM    4  C   UNL     1      -7.530  11.365  67.882  1.00  0.00    -0.095 A  
HETATM    5  C   UNL     1      -6.882  12.519  68.330  1.00  0.00    -0.085 A  
HETATM    6  C   UNL     1      -7.471  13.777  68.154  1.00  0.00    -0.124 A  
HETATM    7  C   UNL     1      -8.720  13.919  67.519  1.00  0.00    -0.194 A  
HETATM    8  C   UNL     1      -9.318  12.743  67.035  1.00  0.00    -0.229 A  
BRANCH   7   9
HETATM    9  C   UNL     1      -9.367  15.312  67.399  1.00  0.00    -0.199 C  
HETATM   10  O   UNL     1      -8.622  15.992  66.373  1.00  0.00    -0.282 OA 
HETATM   11  C   UNL     1     -10.842  15.320  66.923  1.00  0.00    -0.317 C  
HETATM   12  C   UNL     1     -11.870  14.913  67.983  1.00  0.00    -0.296 C  
HETATM   13  H   UNL     1      -9.021  16.851  66.299  1.00  0.00     0.000 HD 
HETATM   14  C   UNL     1     -11.639  15.525  69.361  1.00  0.00    -0.366 C  
HETATM   15  C   UNL     1     -10.175  15.512  69.792  1.00  0.00    -0.301 C  
HETATM   16  C   UNL     1      -9.245  16.131  68.731  1.00  0.00    -0.224 C  
BRANCH  16  17
HETATM   17  C   UNL     1      -9.524  17.651  68.514  1.00  0.00    -0.298 C  
BRANCH  17  18
HETATM   18  N   UNL     1      -8.340  18.541  68.561  1.00  0.00    -0.332 NA 
HETATM   19  C   UNL     1      -7.157  17.841  69.066  1.00  0.00    -0.229 C  
HETATM   20  C   UNL     1      -8.069  19.068  67.219  1.00  0.00    -0.262 C  
ENDBRANCH  17  18
ENDBRANCH  16  17
ENDBRANCH   7   9
ENDBRANCH   2   3
TORSDOF 4
ENDMDL
MODEL      143
REMARK 921   NORMALIZED FREE ENERGY PREDICTED BY IDOCK:   -3.38 KCAL/MOL
REMARK 922        TOTAL FREE ENERGY PREDICTED BY IDOCK:   -5.01 KCAL/MOL
REMARK 923 INTER-LIGAND FREE ENERGY PREDICTED BY IDOCK:   -4.88 KCAL/MOL
REMARK 924 INTRA-LIGAND FREE ENERGY PREDICTED BY IDOCK:   -0.13 KCAL/MOL
REMARK 927      BINDING AFFINITY PREDICTED BY RF-SCORE:    0.00 PKD
ROOT
HETATM    1  C   UNL     1      -6.658  13.609  67.585  1.00  0.00    -0.165 C  
HETATM    2  O   UNL     1      -7.706  13.480  68.535  1.00  0.00    -0.127 OA 
ENDROOT
BRANCH   2   3
HETATM    3  C   UNL     1      -8.866  14.163  68.283  1.00  0.00    -0.187 A  
HETATM    4  C   UNL     1     -10.154  13.657  68.351  1.00  0.00    -0.241 A  
HETATM    5  C   UNL     1     -11.237  14.482  68.035  1.00  0.00    -0.308 A  
HETATM    6  C   UNL     1     -11.025  15.805  67.629  1.00  0.00    -0.302 A  
HETATM    7  C   UNL     1      -9.727  16.343  67.532  1.00  0.00    -0.231 A  
HETATM    8  C   UNL     1      -8.666  15.501  67.906  1.00  0.00    -0.163 A  
BRANCH   7   9
HETATM    9  C   UNL     1      -9.529  17.783  67.020  1.00  0.00    -0.271 C  
HETATM   10  O   UNL     1     -10.227  17.842  65.764  1.00  0.00    -0.577 OA 
HETATM   11  C   UNL     1     -10.155  18.893  67.903  1.00  0.00    -0.431 C  
HETATM   12  C   UNL     1      -9.381  19.220  69.183  1.00  0.00    -0.267 C  
HETATM   13  H   UNL     1     -10.104  18.730  65.449  1.00  0.00     0.000 HD 
HETATM   14  C   UNL     1      -7.869  19.321  69.005  1.00  0.00    -0.314 C  
HETATM   15  C   UNL     1      -7.289  18.221  68.121  1.00  0.00    -0.266 C  
HETATM   16  C   UNL     1      -8.015  18.111  66.767  1.00  0.00    -0.262 C  
BRANCH  16  17
HETATM   17  C   UNL     1      -7.829  19.388  65.890  1.00  0.00    -0.215 C  
BRANCH  17  18
HETATM   18  N   UNL     1      -6.572  19.460  65.109  1.00  0.00    -0.388 NA 
HETATM   19  C   UNL     1      -5.637  20.434  65.677  1.00  0.00    -0.181 C  
HETATM   20  C   UNL     1      -5.943  18.135  65.067  1.00  0.00     0.010 C  
ENDBRANCH  17  18
ENDBRANCH  16  17
ENDBRANCH   7   9
ENDBRANCH   2   3
TORSDOF 4
ENDMDL
MODEL      144
REMARK 921   NORMALIZED FREE ENERGY PREDICTED BY IDOCK:   -3.36 KCAL/MOL
REMARK 922        TOTAL FREE ENERGY PREDICTED BY IDOCK:   -5.00 KCAL/MOL
REMARK 923 INTER-LIGAND FREE ENERGY PREDICTED BY IDOCK:   -4.33 KCAL/MOL
REMARK 924 INTRA-LIGAND FREE ENERGY PREDICTED BY IDOCK:   -0.67 KCAL/MOL
REMARK 927      BINDING AFFINITY PREDICTED BY RF-SCORE:    0.00 PKD
ROOT
HETATM    1  C   UNL     1      -9.695   9.665  66.529  1.00  0.00    -0.212 C  
HETATM    2  O   UNL     1      -9.705  11.053  66.828  1.00  0.00    -0.187 OA 
ENDROOT
BRANCH   2   3
HETATM    3  C   UNL     1      -8.492  11.662  67.015  1.00  0.00    -0.168 A  
HETATM    4  C   UNL     1      -7.245  11.122  66.744  1.00  0.00    -0.146 A  
HETATM    5  C   UNL     1      -6.096  11.869  67.018  1.00  0.00    -0.149 A  
HETATM    6  C   UNL     1      -6.198  13.143  67.588  1.00  0.00    -0.156 A  
HETATM    7  C   UNL     1      -7.450  13.712  67.893  1.00  0.00    -0.158 A  
HETATM    8  C   UNL     1      -8.585  12.955  67.556  1.00  0.00    -0.188 A  
BRANCH   7   9
HETATM    9  C   UNL     1      -7.521  15.090  68.577  1.00  0.00    -0.119 C  
HETATM   10  O   UNL     1      -8.098  14.846  69.873  1.00  0.00    -0.422 OA 
HETATM   11  C   UNL     1      -6.153  15.769  68.847  1.00  0.00    -0.113 C  
HETATM   12  C   UNL     1      -5.483  16.391  67.619  1.00  0.00    -0.163 C  
HETATM   13  H   UNL     1      -8.141  15.696  70.294  1.00  0.00     0.000 HD 
HETATM   14  C   UNL     1      -6.421  17.182  66.713  1.00  0.00    -0.254 C  
HETATM   15  C   UNL     1      -7.762  16.491  66.479  1.00  0.00    -0.323 C  
HETATM   16  C   UNL     1      -8.450  16.084  67.796  1.00  0.00    -0.168 C  
BRANCH  16  17
HETATM   17  C   UNL     1      -8.849  17.320  68.662  1.00  0.00    -0.261 C  
BRANCH  17  18
HETATM   18  N   UNL     1     -10.274  17.722  68.601  1.00  0.00    -0.372 NA 
HETATM   19  C   UNL     1     -10.509  18.728  67.563  1.00  0.00    -0.435 C  
HETATM   20  C   UNL     1     -11.106  16.540  68.344  1.00  0.00    -0.333 C  
ENDBRANCH  17  18
ENDBRANCH  16  17
ENDBRANCH   7   9
ENDBRANCH   2   3
TORSDOF 4
ENDMDL
MODEL      145
REMARK 921   NORMALIZED FREE ENERGY PREDICTED BY IDOCK:   -3.36 KCAL/MOL
REMARK 922        TOTAL FREE ENERGY PREDICTED BY IDOCK:   -4.99 KCAL/MOL
REMARK 923 INTER-LIGAND FREE ENERGY PREDICTED BY IDOCK:   -4.67 KCAL/MOL
REMARK 924 INTRA-LIGAND FREE ENERGY PREDICTED BY IDOCK:   -0.32 KCAL/MOL
REMARK 927      BINDING AFFINITY PREDICTED BY RF-SCORE:    0.00 PKD
ROOT
HETATM    1  C   UNL     1     -12.389  11.717  64.138  1.00  0.00    -0.166 C  
HETATM    2  O   UNL     1     -12.982  12.732  64.935  1.00  0.00    -0.805 OA 
ENDROOT
BRANCH   2   3
HETATM    3  C   UNL     1     -12.344  13.942  64.985  1.00  0.00    -0.430 A  
HETATM    4  C   UNL     1     -12.197  14.844  63.944  1.00  0.00     0.016 A  
HETATM    5  C   UNL     1     -11.490  16.031  64.153  1.00  0.00    -0.018 A  
HETATM    6  C   UNL     1     -10.911  16.300  65.398  1.00  0.00    -0.284 A  
HETATM    7  C   UNL     1     -11.026  15.396  66.472  1.00  0.00    -0.271 A  
HETATM    8  C   UNL     1     -11.787  14.238  66.241  1.00  0.00    -0.420 A  
BRANCH   7   9
HETATM    9  C   UNL     1     -10.322  15.696  67.809  1.00  0.00    -0.266 C  
HETATM   10  O   UNL     1      -9.387  16.752  67.520  1.00  0.00    -0.227 OA 
HETATM   11  C   UNL     1     -11.239  16.242  68.934  1.00  0.00    -0.337 C  
HETATM   12  C   UNL     1     -12.126  15.195  69.614  1.00  0.00    -0.336 C  
HETATM   13  H   UNL     1      -8.954  16.937  68.345  1.00  0.00     0.000 HD 
HETATM   14  C   UNL     1     -11.425  13.881  69.942  1.00  0.00    -0.252 C  
HETATM   15  C   UNL     1     -10.521  13.380  68.818  1.00  0.00    -0.203 C  
HETATM   16  C   UNL     1      -9.525  14.455  68.343  1.00  0.00    -0.207 C  
BRANCH  16  17
HETATM   17  C   UNL     1      -8.502  14.847  69.455  1.00  0.00    -0.064 C  
BRANCH  17  18
HETATM   18  N   UNL     1      -7.162  15.267  68.984  1.00  0.00    -0.137 NA 
HETATM   19  C   UNL     1      -6.220  15.416  70.095  1.00  0.00    -0.113 C  
HETATM   20  C   UNL     1      -6.647  14.282  68.025  1.00  0.00    -0.150 C  
ENDBRANCH  17  18
ENDBRANCH  16  17
ENDBRANCH   7   9
ENDBRANCH   2   3
TORSDOF 4
ENDMDL
MODEL      146
REMARK 921   NORMALIZED FREE ENERGY PREDICTED BY IDOCK:   -3.35 KCAL/MOL
REMARK 922        TOTAL FREE ENERGY PREDICTED BY IDOCK:   -4.98 KCAL/MOL
REMARK 923 INTER-LIGAND FREE ENERGY PREDICTED BY IDOCK:   -4.33 KCAL/MOL
REMARK 924 INTRA-LIGAND FREE ENERGY PREDICTED BY IDOCK:   -0.65 KCAL/MOL
REMARK 927      BINDING AFFINITY PREDICTED BY RF-SCORE:    0.00 PKD
ROOT
HETATM    1  C   UNL     1      -6.732   8.727  70.047  1.00  0.00    -0.039 C  
HETATM    2  O   UNL     1      -7.832   8.138  70.726  1.00  0.00    -0.082 OA 
ENDROOT
BRANCH   2   3
HETATM    3  C   UNL     1      -9.025   8.808  70.684  1.00  0.00    -0.186 A  
HETATM    4  C   UNL     1      -9.976   8.867  71.690  1.00  0.00    -0.397 A  
HETATM    5  C   UNL     1     -11.162   9.576  71.478  1.00  0.00    -0.437 A  
HETATM    6  C   UNL     1     -11.403  10.203  70.250  1.00  0.00    -0.387 A  
HETATM    7  C   UNL     1     -10.465  10.146  69.201  1.00  0.00    -0.242 A  
HETATM    8  C   UNL     1      -9.262   9.469  69.467  1.00  0.00    -0.198 A  
BRANCH   7   9
HETATM    9  C   UNL     1     -10.791  10.795  67.843  1.00  0.00    -0.264 C  
HETATM   10  O   UNL     1     -11.757   9.925  67.225  1.00  0.00     0.006 OA 
HETATM   11  C   UNL     1     -11.467  12.188  67.917  1.00  0.00    -0.392 C  
HETATM   12  C   UNL     1     -10.529  13.347  68.267  1.00  0.00    -0.256 C  
HETATM   13  H   UNL     1     -11.958  10.325  66.388  1.00  0.00     0.000 HD 
HETATM   14  C   UNL     1      -9.189  13.324  67.539  1.00  0.00    -0.213 C  
HETATM   15  C   UNL     1      -8.559  11.936  67.474  1.00  0.00    -0.160 C  
HETATM   16  C   UNL     1      -9.529  10.877  66.915  1.00  0.00    -0.198 C  
BRANCH  16  17
HETATM   17  C   UNL     1      -9.909  11.151  65.426  1.00  0.00    -0.242 C  
BRANCH  17  18
HETATM   18  N   UNL     1      -9.875   9.977  64.522  1.00  0.00    -0.260 NA 
HETATM   19  C   UNL     1      -9.162  10.273  63.278  1.00  0.00    -0.294 C  
HETATM   20  C   UNL     1      -9.233   8.849  65.207  1.00  0.00    -0.091 C  
ENDBRANCH  17  18
ENDBRANCH  16  17
ENDBRANCH   7   9
ENDBRANCH   2   3
TORSDOF 4
ENDMDL
MODEL      147
REMARK 921   NORMALIZED FREE ENERGY PREDICTED BY IDOCK:   -3.31 KCAL/MOL
REMARK 922        TOTAL FREE ENERGY PREDICTED BY IDOCK:   -4.92 KCAL/MOL
REMARK 923 INTER-LIGAND FREE ENERGY PREDICTED BY IDOCK:   -4.86 KCAL/MOL
REMARK 924 INTRA-LIGAND FREE ENERGY PREDICTED BY IDOCK:   -0.07 KCAL/MOL
REMARK 927      BINDING AFFINITY PREDICTED BY RF-SCORE:    0.00 PKD
ROOT
HETATM    1  C   UNL     1     -10.877  17.370  65.742  1.00  0.00     0.000 C  
HETATM    2  O   UNL     1     -10.291  16.363  64.932  1.00  0.00    -0.590 OA 
ENDROOT
BRANCH   2   3
HETATM    3  C   UNL     1     -10.790  15.093  65.052  1.00  0.00    -0.440 A  
HETATM    4  C   UNL     1     -11.995  14.627  64.553  1.00  0.00    -0.473 A  
HETATM    5  C   UNL     1     -12.373  13.303  64.787  1.00  0.00    -0.454 A  
HETATM    6  C   UNL     1     -11.555  12.455  65.541  1.00  0.00    -0.432 A  
HETATM    7  C   UNL     1     -10.332  12.903  66.078  1.00  0.00    -0.294 A  
HETATM    8  C   UNL     1      -9.959  14.224  65.780  1.00  0.00    -0.346 A  
BRANCH   7   9
HETATM    9  C   UNL     1      -9.487  11.960  66.957  1.00  0.00    -0.188 C  
HETATM   10  O   UNL     1      -8.363  12.746  67.390  1.00  0.00    -0.170 OA 
HETATM   11  C   UNL     1     -10.178  11.464  68.253  1.00  0.00    -0.204 C  
HETATM   12  C   UNL     1     -11.227  10.367  68.051  1.00  0.00    -0.340 C  
HETATM   13  H   UNL     1      -7.842  12.165  67.931  1.00  0.00     0.000 HD 
HETATM   14  C   UNL     1     -10.816   9.263  67.082  1.00  0.00    -0.113 C  
HETATM   15  C   UNL     1     -10.129   9.786  65.825  1.00  0.00    -0.308 C  
HETATM   16  C   UNL     1      -8.953  10.728  66.147  1.00  0.00    -0.192 C  
BRANCH  16  17
HETATM   17  C   UNL     1      -7.793   9.993  66.889  1.00  0.00    -0.106 C  
BRANCH  17  18
HETATM   18  N   UNL     1      -6.663   9.545  66.043  1.00  0.00    -0.080 NA 
HETATM   19  C   UNL     1      -6.803   8.141  65.652  1.00  0.00    -0.066 C  
HETATM   20  C   UNL     1      -6.581  10.389  64.846  1.00  0.00    -0.060 C  
ENDBRANCH  17  18
ENDBRANCH  16  17
ENDBRANCH   7   9
ENDBRANCH   2   3
TORSDOF 4
ENDMDL
MODEL      148
REMARK 921   NORMALIZED FREE ENERGY PREDICTED BY IDOCK:   -3.30 KCAL/MOL
REMARK 922        TOTAL FREE ENERGY PREDICTED BY IDOCK:   -4.92 KCAL/MOL
REMARK 923 INTER-LIGAND FREE ENERGY PREDICTED BY IDOCK:   -4.26 KCAL/MOL
REMARK 924 INTRA-LIGAND FREE ENERGY PREDICTED BY IDOCK:   -0.66 KCAL/MOL
REMARK 927      BINDING AFFINITY PREDICTED BY RF-SCORE:    0.00 PKD
ROOT
HETATM    1  C   UNL     1      -6.270  12.343  67.246  1.00  0.00    -0.144 C  
HETATM    2  O   UNL     1      -6.677  11.327  68.150  1.00  0.00    -0.057 OA 
ENDROOT
BRANCH   2   3
HETATM    3  C   UNL     1      -8.022  11.163  68.344  1.00  0.00    -0.137 A  
HETATM    4  C   UNL     1      -8.680   9.976  68.623  1.00  0.00    -0.127 A  
HETATM    5  C   UNL     1     -10.069   9.974  68.767  1.00  0.00    -0.197 A  
HETATM    6  C   UNL     1     -10.800  11.156  68.607  1.00  0.00    -0.251 A  
HETATM    7  C   UNL     1     -10.164  12.376  68.305  1.00  0.00    -0.230 A  
HETATM    8  C   UNL     1      -8.762  12.351  68.218  1.00  0.00    -0.175 A  
BRANCH   7   9
HETATM    9  C   UNL     1     -11.007  13.645  68.074  1.00  0.00    -0.250 C  
HETATM   10  O   UNL     1     -11.603  13.477  66.775  1.00  0.00    -0.330 OA 
HETATM   11  C   UNL     1     -12.188  13.846  69.057  1.00  0.00    -0.274 C  
HETATM   12  C   UNL     1     -11.796  14.338  70.453  1.00  0.00    -0.375 C  
HETATM   13  H   UNL     1     -12.122  14.260  66.633  1.00  0.00     0.000 HD 
HETATM   14  C   UNL     1     -10.756  15.453  70.467  1.00  0.00    -0.290 C  
HETATM   15  C   UNL     1      -9.615  15.230  69.479  1.00  0.00    -0.219 C  
HETATM   16  C   UNL     1     -10.121  14.940  68.053  1.00  0.00    -0.221 C  
BRANCH  16  17
HETATM   17  C   UNL     1     -10.874  16.158  67.434  1.00  0.00    -0.265 C  
BRANCH  17  18
HETATM   18  N   UNL     1     -10.506  16.510  66.043  1.00  0.00    -0.328 NA 
HETATM   19  C   UNL     1     -10.265  17.947  65.893  1.00  0.00    -0.224 C  
HETATM   20  C   UNL     1      -9.307  15.761  65.648  1.00  0.00    -0.167 C  
ENDBRANCH  17  18
ENDBRANCH  16  17
ENDBRANCH   7   9
ENDBRANCH   2   3
TORSDOF 4
ENDMDL
MODEL      149
REMARK 921   NORMALIZED FREE ENERGY PREDICTED BY IDOCK:   -3.30 KCAL/MOL
REMARK 922        TOTAL FREE ENERGY PREDICTED BY IDOCK:   -4.92 KCAL/MOL
REMARK 923 INTER-LIGAND FREE ENERGY PREDICTED BY IDOCK:   -5.00 KCAL/MOL
REMARK 924 INTRA-LIGAND FREE ENERGY PREDICTED BY IDOCK:    0.08 KCAL/MOL
REMARK 927      BINDING AFFINITY PREDICTED BY RF-SCORE:    0.00 PKD
ROOT
HETATM    1  C   UNL     1     -10.231   6.109  68.961  1.00  0.00    -0.191 C  
HETATM    2  O   UNL     1      -9.532   6.243  67.733  1.00  0.00    -0.120 OA 
ENDROOT
BRANCH   2   3
HETATM    3  C   UNL     1      -9.030   7.480  67.429  1.00  0.00    -0.126 A  
HETATM    4  C   UNL     1      -7.720   7.782  67.095  1.00  0.00    -0.105 A  
HETATM    5  C   UNL     1      -7.362   9.108  66.838  1.00  0.00    -0.090 A  
HETATM    6  C   UNL     1      -8.311  10.132  66.941  1.00  0.00    -0.122 A  
HETATM    7  C   UNL     1      -9.646   9.860  67.297  1.00  0.00    -0.195 A  
HETATM    8  C   UNL     1      -9.983   8.511  67.497  1.00  0.00    -0.258 A  
BRANCH   7   9
HETATM    9  C   UNL     1     -10.648  11.019  67.461  1.00  0.00    -0.227 C  
HETATM   10  O   UNL     1     -11.900  10.397  67.802  1.00  0.00    -0.635 OA 
HETATM   11  C   UNL     1     -10.339  12.004  68.618  1.00  0.00    -0.211 C  
HETATM   12  C   UNL     1      -9.207  12.997  68.341  1.00  0.00    -0.136 C  
HETATM   13  H   UNL     1     -12.517  11.111  67.904  1.00  0.00     0.000 HD 
HETATM   14  C   UNL     1      -9.240  13.630  66.953  1.00  0.00    -0.257 C  
HETATM   15  C   UNL     1      -9.558  12.635  65.842  1.00  0.00    -0.158 C  
HETATM   16  C   UNL     1     -10.837  11.824  66.128  1.00  0.00    -0.336 C  
BRANCH  16  17
HETATM   17  C   UNL     1     -12.112  12.722  66.159  1.00  0.00    -0.364 C  
BRANCH  17  18
HETATM   18  N   UNL     1     -12.733  13.012  64.845  1.00  0.00    -0.706 NA 
HETATM   19  C   UNL     1     -12.323  14.320  64.329  1.00  0.00    -0.377 C  
HETATM   20  C   UNL     1     -12.366  11.963  63.887  1.00  0.00    -0.383 C  
ENDBRANCH  17  18
ENDBRANCH  16  17
ENDBRANCH   7   9
ENDBRANCH   2   3
TORSDOF 4
ENDMDL
MODEL      150
REMARK 921   NORMALIZED FREE ENERGY PREDICTED BY IDOCK:   -3.29 KCAL/MOL
REMARK 922        TOTAL FREE ENERGY PREDICTED BY IDOCK:   -4.90 KCAL/MOL
REMARK 923 INTER-LIGAND FREE ENERGY PREDICTED BY IDOCK:   -4.23 KCAL/MOL
REMARK 924 INTRA-LIGAND FREE ENERGY PREDICTED BY IDOCK:   -0.67 KCAL/MOL
REMARK 927      BINDING AFFINITY PREDICTED BY RF-SCORE:    0.00 PKD
ROOT
HETATM    1  C   UNL     1     -10.129  11.410  63.243  1.00  0.00    -0.387 C  
HETATM    2  O   UNL     1     -10.645  10.814  64.423  1.00  0.00    -0.347 OA 
ENDROOT
BRANCH   2   3
HETATM    3  C   UNL     1      -9.739  10.325  65.326  1.00  0.00    -0.291 A  
HETATM    4  C   UNL     1      -8.398  10.659  65.415  1.00  0.00    -0.142 A  
HETATM    5  C   UNL     1      -7.597  10.046  66.382  1.00  0.00    -0.104 A  
HETATM    6  C   UNL     1      -8.136   9.083  67.242  1.00  0.00    -0.103 A  
HETATM    7  C   UNL     1      -9.491   8.708  67.166  1.00  0.00    -0.207 A  
HETATM    8  C   UNL     1     -10.279   9.382  66.217  1.00  0.00    -0.284 A  
BRANCH   7   9
HETATM    9  C   UNL     1     -10.035   7.599  68.087  1.00  0.00    -0.175 C  
HETATM   10  O   UNL     1     -10.820   8.280  69.083  1.00  0.00    -0.391 OA 
HETATM   11  C   UNL     1     -10.997   6.588  67.412  1.00  0.00    -0.458 C  
HETATM   12  C   UNL     1     -10.321   5.543  66.521  1.00  0.00    -0.309 C  
HETATM   13  H   UNL     1     -11.155   7.596  69.651  1.00  0.00     0.000 HD 
HETATM   14  C   UNL     1      -9.056   4.927  67.109  1.00  0.00    -0.122 C  
HETATM   15  C   UNL     1      -8.139   5.948  67.776  1.00  0.00    -0.105 C  
HETATM   16  C   UNL     1      -8.881   6.818  68.808  1.00  0.00    -0.131 C  
BRANCH  16  17
HETATM   17  C   UNL     1      -9.402   5.985  70.019  1.00  0.00    -0.153 C  
BRANCH  17  18
HETATM   18  N   UNL     1      -9.794   6.760  71.220  1.00  0.00    -0.177 NA 
HETATM   19  C   UNL     1     -10.725   6.012  72.067  1.00  0.00    -0.235 C  
HETATM   20  C   UNL     1      -8.595   7.112  71.989  1.00  0.00    -0.111 C  
ENDBRANCH  17  18
ENDBRANCH  16  17
ENDBRANCH   7   9
ENDBRANCH   2   3
TORSDOF 4
ENDMDL
MODEL      151
REMARK 921   NORMALIZED FREE ENERGY PREDICTED BY IDOCK:   -3.29 KCAL/MOL
REMARK 922        TOTAL FREE ENERGY PREDICTED BY IDOCK:   -4.90 KCAL/MOL
REMARK 923 INTER-LIGAND FREE ENERGY PREDICTED BY IDOCK:   -4.52 KCAL/MOL
REMARK 924 INTRA-LIGAND FREE ENERGY PREDICTED BY IDOCK:   -0.38 KCAL/MOL
REMARK 927      BINDING AFFINITY PREDICTED BY RF-SCORE:    0.00 PKD
ROOT
HETATM    1  C   UNL     1     -13.955   8.234  72.075  1.00  0.00    -0.368 C  
HETATM    2  O   UNL     1     -13.854   9.572  71.611  1.00  0.00    -0.315 OA 
ENDROOT
BRANCH   2   3
HETATM    3  C   UNL     1     -12.662   9.956  71.058  1.00  0.00    -0.334 A  
HETATM    4  C   UNL     1     -12.471  10.946  70.109  1.00  0.00    -0.356 A  
HETATM    5  C   UNL     1     -11.185  11.199  69.624  1.00  0.00    -0.333 A  
HETATM    6  C   UNL     1     -10.097  10.441  70.073  1.00  0.00    -0.078 A  
HETATM    7  C   UNL     1     -10.260   9.415  71.024  1.00  0.00    -0.369 A  
HETATM    8  C   UNL     1     -11.558   9.224  71.528  1.00  0.00    -0.452 A  
BRANCH   7   9
HETATM    9  C   UNL     1      -9.050   8.561  71.448  1.00  0.00    -0.206 C  
HETATM   10  O   UNL     1      -7.910   9.432  71.339  1.00  0.00    -0.325 OA 
HETATM   11  C   UNL     1      -9.067   8.071  72.919  1.00  0.00    -0.313 C  
HETATM   12  C   UNL     1     -10.016   6.904  73.205  1.00  0.00    -0.227 C  
HETATM   13  H   UNL     1      -7.164   8.905  71.601  1.00  0.00     0.000 HD 
HETATM   14  C   UNL     1      -9.991   5.792  72.161  1.00  0.00    -0.206 C  
HETATM   15  C   UNL     1      -9.962   6.310  70.726  1.00  0.00    -0.220 C  
HETATM   16  C   UNL     1      -8.836   7.335  70.493  1.00  0.00    -0.153 C  
BRANCH  16  17
HETATM   17  C   UNL     1      -7.418   6.703  70.657  1.00  0.00    -0.083 C  
BRANCH  17  18
HETATM   18  N   UNL     1      -6.675   6.444  69.402  1.00  0.00    -0.050 NA 
HETATM   19  C   UNL     1      -6.524   5.010  69.148  1.00  0.00    -0.035 C  
HETATM   20  C   UNL     1      -7.375   7.077  68.277  1.00  0.00    -0.097 C  
ENDBRANCH  17  18
ENDBRANCH  16  17
ENDBRANCH   7   9
ENDBRANCH   2   3
TORSDOF 4
ENDMDL
MODEL      152
REMARK 921   NORMALIZED FREE ENERGY PREDICTED BY IDOCK:   -3.28 KCAL/MOL
REMARK 922        TOTAL FREE ENERGY PREDICTED BY IDOCK:   -4.89 KCAL/MOL
REMARK 923 INTER-LIGAND FREE ENERGY PREDICTED BY IDOCK:   -4.72 KCAL/MOL
REMARK 924 INTRA-LIGAND FREE ENERGY PREDICTED BY IDOCK:   -0.16 KCAL/MOL
REMARK 927      BINDING AFFINITY PREDICTED BY RF-SCORE:    0.00 PKD
ROOT
HETATM    1  C   UNL     1      -6.704  20.039  64.990  1.00  0.00    -0.256 C  
HETATM    2  O   UNL     1      -7.266  18.796  65.383  1.00  0.00    -0.508 OA 
ENDROOT
BRANCH   2   3
HETATM    3  C   UNL     1      -7.168  18.454  66.706  1.00  0.00    -0.208 A  
HETATM    4  C   UNL     1      -6.393  19.083  67.667  1.00  0.00    -0.212 A  
HETATM    5  C   UNL     1      -6.383  18.591  68.975  1.00  0.00    -0.248 A  
HETATM    6  C   UNL     1      -7.129  17.455  69.311  1.00  0.00    -0.142 A  
HETATM    7  C   UNL     1      -7.912  16.782  68.353  1.00  0.00    -0.224 A  
HETATM    8  C   UNL     1      -7.940  17.335  67.061  1.00  0.00    -0.242 A  
BRANCH   7   9
HETATM    9  C   UNL     1      -8.671  15.500  68.743  1.00  0.00    -0.192 C  
HETATM   10  O   UNL     1      -7.935  14.941  69.847  1.00  0.00    -0.412 OA 
HETATM   11  C   UNL     1     -10.114  15.715  69.266  1.00  0.00    -0.258 C  
HETATM   12  C   UNL     1     -11.156  16.026  68.187  1.00  0.00    -0.344 C  
HETATM   13  H   UNL     1      -8.403  14.150  70.087  1.00  0.00     0.000 HD 
HETATM   14  C   UNL     1     -11.052  15.164  66.934  1.00  0.00    -0.314 C  
HETATM   15  C   UNL     1      -9.618  14.962  66.455  1.00  0.00    -0.317 C  
HETATM   16  C   UNL     1      -8.691  14.453  67.575  1.00  0.00    -0.203 C  
BRANCH  16  17
HETATM   17  C   UNL     1      -9.089  13.027  68.070  1.00  0.00    -0.210 C  
BRANCH  17  18
HETATM   18  N   UNL     1      -8.163  11.931  67.703  1.00  0.00    -0.139 NA 
HETATM   19  C   UNL     1      -6.817  12.432  67.419  1.00  0.00    -0.147 C  
HETATM   20  C   UNL     1      -8.108  10.949  68.793  1.00  0.00    -0.145 C  
ENDBRANCH  17  18
ENDBRANCH  16  17
ENDBRANCH   7   9
ENDBRANCH   2   3
TORSDOF 4
ENDMDL
MODEL      153
REMARK 921   NORMALIZED FREE ENERGY PREDICTED BY IDOCK:   -3.26 KCAL/MOL
REMARK 922        TOTAL FREE ENERGY PREDICTED BY IDOCK:   -4.87 KCAL/MOL
REMARK 923 INTER-LIGAND FREE ENERGY PREDICTED BY IDOCK:   -4.24 KCAL/MOL
REMARK 924 INTRA-LIGAND FREE ENERGY PREDICTED BY IDOCK:   -0.63 KCAL/MOL
REMARK 927      BINDING AFFINITY PREDICTED BY RF-SCORE:    0.00 PKD
ROOT
HETATM    1  C   UNL     1      -9.558  19.711  67.357  1.00  0.00    -0.343 C  
HETATM    2  O   UNL     1     -10.669  19.181  66.649  1.00  0.00    -0.417 OA 
ENDROOT
BRANCH   2   3
HETATM    3  C   UNL     1     -10.632  17.850  66.330  1.00  0.00    -0.235 A  
HETATM    4  C   UNL     1     -10.868  17.291  65.085  1.00  0.00     0.051 A  
HETATM    5  C   UNL     1     -10.818  15.903  64.931  1.00  0.00    -0.420 A  
HETATM    6  C   UNL     1     -10.556  15.077  66.030  1.00  0.00    -0.329 A  
HETATM    7  C   UNL     1     -10.330  15.613  67.313  1.00  0.00    -0.277 A  
HETATM    8  C   UNL     1     -10.336  17.014  67.420  1.00  0.00    -0.319 A  
BRANCH   7   9
HETATM    9  C   UNL     1     -10.107  14.671  68.511  1.00  0.00    -0.238 C  
HETATM   10  O   UNL     1      -8.969  13.864  68.156  1.00  0.00    -0.173 OA 
HETATM   11  C   UNL     1      -9.729  15.368  69.843  1.00  0.00    -0.154 C  
HETATM   12  C   UNL     1     -10.890  16.051  70.571  1.00  0.00    -0.235 C  
HETATM   13  H   UNL     1      -8.832  13.283  68.895  1.00  0.00     0.000 HD 
HETATM   14  C   UNL     1     -12.179  15.236  70.619  1.00  0.00    -0.412 C  
HETATM   15  C   UNL     1     -12.513  14.554  69.296  1.00  0.00    -0.066 C  
HETATM   16  C   UNL     1     -11.335  13.725  68.749  1.00  0.00    -0.318 C  
BRANCH  16  17
HETATM   17  C   UNL     1     -10.980  12.520  69.674  1.00  0.00     0.199 C  
BRANCH  17  18
HETATM   18  N   UNL     1     -11.505  11.200  69.252  1.00  0.00    -0.265 NA 
HETATM   19  C   UNL     1     -12.726  10.845  69.980  1.00  0.00    -0.109 C  
HETATM   20  C   UNL     1     -11.774  11.218  67.810  1.00  0.00    -0.176 C  
ENDBRANCH  17  18
ENDBRANCH  16  17
ENDBRANCH   7   9
ENDBRANCH   2   3
TORSDOF 4
ENDMDL
MODEL      154
REMARK 921   NORMALIZED FREE ENERGY PREDICTED BY IDOCK:   -3.24 KCAL/MOL
REMARK 922        TOTAL FREE ENERGY PREDICTED BY IDOCK:   -4.84 KCAL/MOL
REMARK 923 INTER-LIGAND FREE ENERGY PREDICTED BY IDOCK:   -4.25 KCAL/MOL
REMARK 924 INTRA-LIGAND FREE ENERGY PREDICTED BY IDOCK:   -0.60 KCAL/MOL
REMARK 927      BINDING AFFINITY PREDICTED BY RF-SCORE:    0.00 PKD
ROOT
HETATM    1  C   UNL     1     -10.354  11.838  64.929  1.00  0.00    -0.289 C  
HETATM    2  O   UNL     1      -9.615  11.272  66.002  1.00  0.00    -0.203 OA 
ENDROOT
BRANCH   2   3
HETATM    3  C   UNL     1      -9.181   9.982  65.851  1.00  0.00    -0.167 A  
HETATM    4  C   UNL     1      -8.332   9.504  64.867  1.00  0.00    -0.151 A  
HETATM    5  C   UNL     1      -8.005   8.146  64.836  1.00  0.00    -0.145 A  
HETATM    6  C   UNL     1      -8.550   7.265  65.777  1.00  0.00    -0.143 A  
HETATM    7  C   UNL     1      -9.432   7.715  66.779  1.00  0.00    -0.244 A  
HETATM    8  C   UNL     1      -9.697   9.094  66.811  1.00  0.00    -0.271 A  
BRANCH   7   9
HETATM    9  C   UNL     1     -10.061   6.706  67.758  1.00  0.00    -0.148 C  
HETATM   10  O   UNL     1     -11.419   6.537  67.313  1.00  0.00    -0.754 OA 
HETATM   11  C   UNL     1      -9.434   5.289  67.746  1.00  0.00    -0.141 C  
HETATM   12  C   UNL     1      -8.085   5.168  68.460  1.00  0.00    -0.086 C  
HETATM   13  H   UNL     1     -11.807   5.915  67.917  1.00  0.00     0.000 HD 
HETATM   14  C   UNL     1      -8.007   5.890  69.801  1.00  0.00    -0.101 C  
HETATM   15  C   UNL     1      -8.644   7.276  69.781  1.00  0.00    -0.141 C  
HETATM   16  C   UNL     1     -10.082   7.253  69.229  1.00  0.00    -0.183 C  
BRANCH  16  17
HETATM   17  C   UNL     1     -11.054   6.444  70.144  1.00  0.00    -0.365 C  
BRANCH  17  18
HETATM   18  N   UNL     1     -12.177   7.209  70.734  1.00  0.00    -0.303 NA 
HETATM   19  C   UNL     1     -12.776   6.502  71.868  1.00  0.00    -0.128 C  
HETATM   20  C   UNL     1     -11.699   8.527  71.167  1.00  0.00    -0.281 C  
ENDBRANCH  17  18
ENDBRANCH  16  17
ENDBRANCH   7   9
ENDBRANCH   2   3
TORSDOF 4
ENDMDL
MODEL      155
REMARK 921   NORMALIZED FREE ENERGY PREDICTED BY IDOCK:   -3.18 KCAL/MOL
REMARK 922        TOTAL FREE ENERGY PREDICTED BY IDOCK:   -4.77 KCAL/MOL
REMARK 923 INTER-LIGAND FREE ENERGY PREDICTED BY IDOCK:   -3.96 KCAL/MOL
REMARK 924 INTRA-LIGAND FREE ENERGY PREDICTED BY IDOCK:   -0.81 KCAL/MOL
REMARK 927      BINDING AFFINITY PREDICTED BY RF-SCORE:    0.00 PKD
ROOT
HETATM    1  C   UNL     1     -11.549  15.050  69.089  1.00  0.00    -0.310 C  
HETATM    2  O   UNL     1     -11.740  13.646  68.997  1.00  0.00    -0.286 OA 
ENDROOT
BRANCH   2   3
HETATM    3  C   UNL     1     -11.398  13.042  67.817  1.00  0.00    -0.292 A  
HETATM    4  C   UNL     1     -12.148  13.020  66.652  1.00  0.00    -0.386 A  
HETATM    5  C   UNL     1     -11.666  12.333  65.535  1.00  0.00    -0.433 A  
HETATM    6  C   UNL     1     -10.446  11.649  65.595  1.00  0.00    -0.314 A  
HETATM    7  C   UNL     1      -9.669  11.637  66.770  1.00  0.00    -0.220 A  
HETATM    8  C   UNL     1     -10.159  12.381  67.856  1.00  0.00    -0.208 A  
BRANCH   7   9
HETATM    9  C   UNL     1      -8.363  10.822  66.819  1.00  0.00    -0.136 C  
HETATM   10  O   UNL     1      -7.461  11.490  65.919  1.00  0.00    -0.351 OA 
HETATM   11  C   UNL     1      -7.646  10.799  68.193  1.00  0.00    -0.093 C  
HETATM   12  C   UNL     1      -8.281   9.881  69.242  1.00  0.00    -0.138 C  
HETATM   13  H   UNL     1      -6.655  10.987  65.950  1.00  0.00     0.000 HD 
HETATM   14  C   UNL     1      -8.704   8.512  68.718  1.00  0.00    -0.139 C  
HETATM   15  C   UNL     1      -9.395   8.571  67.359  1.00  0.00    -0.178 C  
HETATM   16  C   UNL     1      -8.572   9.350  66.316  1.00  0.00    -0.142 C  
BRANCH  16  17
HETATM   17  C   UNL     1      -7.220   8.645  65.982  1.00  0.00    -0.084 C  
BRANCH  17  18
HETATM   18  N   UNL     1      -6.767   8.744  64.575  1.00  0.00    -0.070 NA 
HETATM   19  C   UNL     1      -5.432   8.171  64.395  1.00  0.00    -0.044 C  
HETATM   20  C   UNL     1      -7.725   8.056  63.702  1.00  0.00    -0.136 C  
ENDBRANCH  17  18
ENDBRANCH  16  17
ENDBRANCH   7   9
ENDBRANCH   2   3
TORSDOF 4
ENDMDL
MODEL      156
REMARK 921   NORMALIZED FREE ENERGY PREDICTED BY IDOCK:   -3.16 KCAL/MOL
REMARK 922        TOTAL FREE ENERGY PREDICTED BY IDOCK:   -4.75 KCAL/MOL
REMARK 923 INTER-LIGAND FREE ENERGY PREDICTED BY IDOCK:   -4.08 KCAL/MOL
REMARK 924 INTRA-LIGAND FREE ENERGY PREDICTED BY IDOCK:   -0.67 KCAL/MOL
REMARK 927      BINDING AFFINITY PREDICTED BY RF-SCORE:    0.00 PKD
ROOT
HETATM    1  C   UNL     1     -13.290  10.036  71.097  1.00  0.00    -0.305 C  
HETATM    2  O   UNL     1     -12.045   9.756  71.719  1.00  0.00    -0.390 OA 
ENDROOT
BRANCH   2   3
HETATM    3  C   UNL     1     -11.421   8.586  71.374  1.00  0.00    -0.287 A  
HETATM    4  C   UNL     1     -11.491   7.380  72.053  1.00  0.00    -0.310 A  
HETATM    5  C   UNL     1     -10.769   6.281  71.582  1.00  0.00    -0.284 A  
HETATM    6  C   UNL     1      -9.958   6.399  70.447  1.00  0.00    -0.213 A  
HETATM    7  C   UNL     1      -9.850   7.616  69.746  1.00  0.00    -0.181 A  
HETATM    8  C   UNL     1     -10.631   8.685  70.217  1.00  0.00    -0.240 A  
BRANCH   7   9
HETATM    9  C   UNL     1      -8.900   7.726  68.539  1.00  0.00    -0.130 C  
HETATM   10  O   UNL     1      -8.173   8.952  68.734  1.00  0.00    -0.112 OA 
HETATM   11  C   UNL     1      -7.826   6.612  68.435  1.00  0.00    -0.107 C  
HETATM   12  C   UNL     1      -8.339   5.260  67.933  1.00  0.00    -0.098 C  
HETATM   13  H   UNL     1      -7.587   9.020  67.989  1.00  0.00     0.000 HD 
HETATM   14  C   UNL     1      -9.293   5.341  66.745  1.00  0.00    -0.134 C  
HETATM   15  C   UNL     1     -10.327   6.455  66.874  1.00  0.00    -0.306 C  
HETATM   16  C   UNL     1      -9.684   7.820  67.183  1.00  0.00    -0.243 C  
BRANCH  16  17
HETATM   17  C   UNL     1      -8.781   8.326  66.015  1.00  0.00    -0.155 C  
BRANCH  17  18
HETATM   18  N   UNL     1      -8.671   9.797  65.870  1.00  0.00    -0.135 NA 
HETATM   19  C   UNL     1      -7.320  10.203  65.478  1.00  0.00    -0.143 C  
HETATM   20  C   UNL     1      -9.640  10.265  64.872  1.00  0.00    -0.304 C  
ENDBRANCH  17  18
ENDBRANCH  16  17
ENDBRANCH   7   9
ENDBRANCH   2   3
TORSDOF 4
ENDMDL
MODEL      157
REMARK 921   NORMALIZED FREE ENERGY PREDICTED BY IDOCK:   -3.14 KCAL/MOL
REMARK 922        TOTAL FREE ENERGY PREDICTED BY IDOCK:   -4.73 KCAL/MOL
REMARK 923 INTER-LIGAND FREE ENERGY PREDICTED BY IDOCK:   -4.01 KCAL/MOL
REMARK 924 INTRA-LIGAND FREE ENERGY PREDICTED BY IDOCK:   -0.72 KCAL/MOL
REMARK 927      BINDING AFFINITY PREDICTED BY RF-SCORE:    0.00 PKD
ROOT
HETATM    1  C   UNL     1     -10.997   6.362  70.463  1.00  0.00    -0.306 C  
HETATM    2  O   UNL     1     -11.237   6.941  69.188  1.00  0.00    -0.193 OA 
ENDROOT
BRANCH   2   3
HETATM    3  C   UNL     1     -10.153   7.142  68.377  1.00  0.00    -0.168 A  
HETATM    4  C   UNL     1      -9.248   6.182  67.953  1.00  0.00    -0.115 A  
HETATM    5  C   UNL     1      -8.173   6.558  67.143  1.00  0.00    -0.113 A  
HETATM    6  C   UNL     1      -7.992   7.898  66.781  1.00  0.00    -0.107 A  
HETATM    7  C   UNL     1      -8.883   8.900  67.211  1.00  0.00    -0.137 A  
HETATM    8  C   UNL     1      -9.981   8.479  67.980  1.00  0.00    -0.221 A  
BRANCH   7   9
HETATM    9  C   UNL     1      -8.618  10.373  66.846  1.00  0.00    -0.127 C  
HETATM   10  O   UNL     1      -8.202  11.003  68.071  1.00  0.00    -0.115 OA 
HETATM   11  C   UNL     1      -7.463  10.609  65.838  1.00  0.00    -0.131 C  
HETATM   12  C   UNL     1      -7.798  10.287  64.379  1.00  0.00    -0.117 C  
HETATM   13  H   UNL     1      -8.039  11.911  67.845  1.00  0.00     0.000 HD 
HETATM   14  C   UNL     1      -9.163  10.781  63.914  1.00  0.00    -0.258 C  
HETATM   15  C   UNL     1     -10.273  10.545  64.934  1.00  0.00    -0.371 C  
HETATM   16  C   UNL     1      -9.914  11.090  66.329  1.00  0.00    -0.269 C  
BRANCH  16  17
HETATM   17  C   UNL     1      -9.769  12.644  66.337  1.00  0.00    -0.258 C  
BRANCH  17  18
HETATM   18  N   UNL     1     -10.885  13.397  66.957  1.00  0.00    -0.271 NA 
HETATM   19  C   UNL     1     -11.808  13.923  65.950  1.00  0.00    -0.382 C  
HETATM   20  C   UNL     1     -11.610  12.522  67.886  1.00  0.00    -0.347 C  
ENDBRANCH  17  18
ENDBRANCH  16  17
ENDBRANCH   7   9
ENDBRANCH   2   3
TORSDOF 4
ENDMDL
MODEL      158
REMARK 921   NORMALIZED FREE ENERGY PREDICTED BY IDOCK:   -3.14 KCAL/MOL
REMARK 922        TOTAL FREE ENERGY PREDICTED BY IDOCK:   -4.71 KCAL/MOL
REMARK 923 INTER-LIGAND FREE ENERGY PREDICTED BY IDOCK:   -4.32 KCAL/MOL
REMARK 924 INTRA-LIGAND FREE ENERGY PREDICTED BY IDOCK:   -0.40 KCAL/MOL
REMARK 927      BINDING AFFINITY PREDICTED BY RF-SCORE:    0.00 PKD
ROOT
HETATM    1  C   UNL     1      -6.497   9.798  68.748  1.00  0.00    -0.046 C  
HETATM    2  O   UNL     1      -7.480  10.092  69.731  1.00  0.00    -0.115 OA 
ENDROOT
BRANCH   2   3
HETATM    3  C   UNL     1      -7.412   9.401  70.911  1.00  0.00    -0.072 A  
HETATM    4  C   UNL     1      -6.280   9.187  71.680  1.00  0.00    -0.056 A  
HETATM    5  C   UNL     1      -6.374   8.433  72.852  1.00  0.00    -0.102 A  
HETATM    6  C   UNL     1      -7.597   7.873  73.238  1.00  0.00    -0.169 A  
HETATM    7  C   UNL     1      -8.763   8.056  72.469  1.00  0.00    -0.232 A  
HETATM    8  C   UNL     1      -8.642   8.863  71.325  1.00  0.00    -0.259 A  
BRANCH   7   9
HETATM    9  C   UNL     1     -10.077   7.373  72.891  1.00  0.00    -0.244 C  
HETATM   10  O   UNL     1     -10.046   7.338  74.329  1.00  0.00    -0.433 OA 
HETATM   11  C   UNL     1     -11.373   8.138  72.517  1.00  0.00    -0.469 C  
HETATM   12  C   UNL     1     -11.778   8.048  71.042  1.00  0.00    -0.295 C  
HETATM   13  H   UNL     1     -10.857   6.917  74.589  1.00  0.00     0.000 HD 
HETATM   14  C   UNL     1     -11.658   6.656  70.432  1.00  0.00    -0.457 C  
HETATM   15  C   UNL     1     -10.379   5.927  70.831  1.00  0.00    -0.288 C  
HETATM   16  C   UNL     1     -10.170   5.900  72.358  1.00  0.00    -0.217 C  
BRANCH  16  17
HETATM   17  C   UNL     1     -11.274   5.077  73.091  1.00  0.00    -0.335 C  
BRANCH  17  18
HETATM   18  N   UNL     1     -10.793   3.989  73.974  1.00  0.00    -0.229 NA 
HETATM   19  C   UNL     1     -11.265   2.678  73.524  1.00  0.00    -0.202 C  
HETATM   20  C   UNL     1      -9.326   4.002  74.014  1.00  0.00    -0.098 C  
ENDBRANCH  17  18
ENDBRANCH  16  17
ENDBRANCH   7   9
ENDBRANCH   2   3
TORSDOF 4
ENDMDL
MODEL      159
REMARK 921   NORMALIZED FREE ENERGY PREDICTED BY IDOCK:   -3.12 KCAL/MOL
REMARK 922        TOTAL FREE ENERGY PREDICTED BY IDOCK:   -4.70 KCAL/MOL
REMARK 923 INTER-LIGAND FREE ENERGY PREDICTED BY IDOCK:   -3.96 KCAL/MOL
REMARK 924 INTRA-LIGAND FREE ENERGY PREDICTED BY IDOCK:   -0.73 KCAL/MOL
REMARK 927      BINDING AFFINITY PREDICTED BY RF-SCORE:    0.00 PKD
ROOT
HETATM    1  C   UNL     1     -11.698  13.232  65.414  1.00  0.00    -0.343 C  
HETATM    2  O   UNL     1     -11.866  11.948  64.832  1.00  0.00    -0.277 OA 
ENDROOT
BRANCH   2   3
HETATM    3  C   UNL     1     -10.757  11.355  64.291  1.00  0.00    -0.356 A  
HETATM    4  C   UNL     1     -10.241  11.569  63.023  1.00  0.00    -0.312 A  
HETATM    5  C   UNL     1      -9.110  10.861  62.610  1.00  0.00    -0.364 A  
HETATM    6  C   UNL     1      -8.514   9.921  63.458  1.00  0.00    -0.183 A  
HETATM    7  C   UNL     1      -9.025   9.666  64.745  1.00  0.00    -0.268 A  
HETATM    8  C   UNL     1     -10.131  10.434  65.147  1.00  0.00    -0.379 A  
BRANCH   7   9
HETATM    9  C   UNL     1      -8.380   8.580  65.627  1.00  0.00    -0.148 C  
HETATM   10  O   UNL     1      -9.158   7.391  65.399  1.00  0.00    -0.380 OA 
HETATM   11  C   UNL     1      -6.921   8.206  65.260  1.00  0.00    -0.063 C  
HETATM   12  C   UNL     1      -5.860   9.219  65.698  1.00  0.00    -0.054 C  
HETATM   13  H   UNL     1      -8.760   6.721  65.943  1.00  0.00     0.000 HD 
HETATM   14  C   UNL     1      -6.044   9.763  67.111  1.00  0.00    -0.059 C  
HETATM   15  C   UNL     1      -7.493  10.109  67.443  1.00  0.00    -0.094 C  
HETATM   16  C   UNL     1      -8.456   8.942  67.152  1.00  0.00    -0.106 C  
BRANCH  16  17
HETATM   17  C   UNL     1      -8.182   7.707  68.064  1.00  0.00    -0.124 C  
BRANCH  17  18
HETATM   18  N   UNL     1      -9.216   7.412  69.085  1.00  0.00    -0.147 NA 
HETATM   19  C   UNL     1      -8.880   8.004  70.382  1.00  0.00    -0.141 C  
HETATM   20  C   UNL     1     -10.515   7.920  68.628  1.00  0.00    -0.167 C  
ENDBRANCH  17  18
ENDBRANCH  16  17
ENDBRANCH   7   9
ENDBRANCH   2   3
TORSDOF 4
ENDMDL
MODEL      160
REMARK 921   NORMALIZED FREE ENERGY PREDICTED BY IDOCK:   -3.12 KCAL/MOL
REMARK 922        TOTAL FREE ENERGY PREDICTED BY IDOCK:   -4.69 KCAL/MOL
REMARK 923 INTER-LIGAND FREE ENERGY PREDICTED BY IDOCK:   -3.95 KCAL/MOL
REMARK 924 INTRA-LIGAND FREE ENERGY PREDICTED BY IDOCK:   -0.75 KCAL/MOL
REMARK 927      BINDING AFFINITY PREDICTED BY RF-SCORE:    0.00 PKD
ROOT
HETATM    1  C   UNL     1     -13.610   9.366  72.424  1.00  0.00    -0.429 C  
HETATM    2  O   UNL     1     -12.619   9.126  71.436  1.00  0.00    -0.312 OA 
ENDROOT
BRANCH   2   3
HETATM    3  C   UNL     1     -11.821   8.026  71.603  1.00  0.00    -0.289 A  
HETATM    4  C   UNL     1     -11.407   7.480  72.808  1.00  0.00    -0.388 A  
HETATM    5  C   UNL     1     -10.566   6.364  72.806  1.00  0.00    -0.254 A  
HETATM    6  C   UNL     1     -10.121   5.814  71.599  1.00  0.00    -0.241 A  
HETATM    7  C   UNL     1     -10.508   6.357  70.359  1.00  0.00    -0.269 A  
HETATM    8  C   UNL     1     -11.395   7.445  70.397  1.00  0.00    -0.273 A  
BRANCH   7   9
HETATM    9  C   UNL     1      -9.948   5.763  69.052  1.00  0.00    -0.169 C  
HETATM   10  O   UNL     1     -10.251   4.357  69.109  1.00  0.00    -0.050 OA 
HETATM   11  C   UNL     1     -10.609   6.283  67.750  1.00  0.00    -0.329 C  
HETATM   12  C   UNL     1     -10.178   7.688  67.319  1.00  0.00    -0.342 C  
HETATM   13  H   UNL     1      -9.906   3.992  68.303  1.00  0.00     0.000 HD 
HETATM   14  C   UNL     1      -8.681   7.957  67.427  1.00  0.00    -0.128 C  
HETATM   15  C   UNL     1      -8.061   7.421  68.714  1.00  0.00    -0.128 C  
HETATM   16  C   UNL     1      -8.392   5.935  68.950  1.00  0.00    -0.102 C  
BRANCH  16  17
HETATM   17  C   UNL     1      -7.768   5.009  67.859  1.00  0.00    -0.084 C  
BRANCH  17  18
HETATM   18  N   UNL     1      -7.708   3.566  68.190  1.00  0.00    -0.064 NA 
HETATM   19  C   UNL     1      -7.164   2.779  67.081  1.00  0.00    -0.053 C  
HETATM   20  C   UNL     1      -6.883   3.371  69.388  1.00  0.00    -0.041 C  
ENDBRANCH  17  18
ENDBRANCH  16  17
ENDBRANCH   7   9
ENDBRANCH   2   3
TORSDOF 4
ENDMDL
MODEL      161
REMARK 921   NORMALIZED FREE ENERGY PREDICTED BY IDOCK:   -3.12 KCAL/MOL
REMARK 922        TOTAL FREE ENERGY PREDICTED BY IDOCK:   -4.69 KCAL/MOL
REMARK 923 INTER-LIGAND FREE ENERGY PREDICTED BY IDOCK:   -4.24 KCAL/MOL
REMARK 924 INTRA-LIGAND FREE ENERGY PREDICTED BY IDOCK:   -0.46 KCAL/MOL
REMARK 927      BINDING AFFINITY PREDICTED BY RF-SCORE:    0.00 PKD
ROOT
HETATM    1  C   UNL     1      -8.733  16.153  66.113  1.00  0.00    -0.323 C  
HETATM    2  O   UNL     1     -10.100  16.037  66.480  1.00  0.00    -0.263 OA 
ENDROOT
BRANCH   2   3
HETATM    3  C   UNL     1     -10.639  14.779  66.498  1.00  0.00    -0.299 A  
HETATM    4  C   UNL     1     -11.962  14.450  66.743  1.00  0.00    -0.423 A  
HETATM    5  C   UNL     1     -12.349  13.107  66.753  1.00  0.00    -0.173 A  
HETATM    6  C   UNL     1     -11.404  12.096  66.542  1.00  0.00    -0.405 A  
HETATM    7  C   UNL     1     -10.048  12.397  66.309  1.00  0.00    -0.257 A  
HETATM    8  C   UNL     1      -9.705  13.758  66.255  1.00  0.00    -0.297 A  
BRANCH   7   9
HETATM    9  C   UNL     1      -9.026  11.256  66.144  1.00  0.00    -0.202 C  
HETATM   10  O   UNL     1      -8.845  11.107  64.724  1.00  0.00    -0.358 OA 
HETATM   11  C   UNL     1      -7.615  11.541  66.720  1.00  0.00    -0.126 C  
HETATM   12  C   UNL     1      -7.503  11.446  68.244  1.00  0.00    -0.101 C  
HETATM   13  H   UNL     1      -8.214  10.403  64.623  1.00  0.00     0.000 HD 
HETATM   14  C   UNL     1      -8.216  10.247  68.861  1.00  0.00    -0.130 C  
HETATM   15  C   UNL     1      -9.595   9.988  68.263  1.00  0.00    -0.151 C  
HETATM   16  C   UNL     1      -9.561   9.901  66.725  1.00  0.00    -0.231 C  
BRANCH  16  17
HETATM   17  C   UNL     1      -8.735   8.677  66.220  1.00  0.00    -0.143 C  
BRANCH  17  18
HETATM   18  N   UNL     1      -8.757   7.477  67.089  1.00  0.00    -0.120 NA 
HETATM   19  C   UNL     1      -9.551   6.397  66.500  1.00  0.00    -0.145 C  
HETATM   20  C   UNL     1      -7.383   7.014  67.321  1.00  0.00    -0.091 C  
ENDBRANCH  17  18
ENDBRANCH  16  17
ENDBRANCH   7   9
ENDBRANCH   2   3
TORSDOF 4
ENDMDL
MODEL      162
REMARK 921   NORMALIZED FREE ENERGY PREDICTED BY IDOCK:   -3.11 KCAL/MOL
REMARK 922        TOTAL FREE ENERGY PREDICTED BY IDOCK:   -4.68 KCAL/MOL
REMARK 923 INTER-LIGAND FREE ENERGY PREDICTED BY IDOCK:   -4.06 KCAL/MOL
REMARK 924 INTRA-LIGAND FREE ENERGY PREDICTED BY IDOCK:   -0.63 KCAL/MOL
REMARK 927      BINDING AFFINITY PREDICTED BY RF-SCORE:    0.00 PKD
ROOT
HETATM    1  C   UNL     1      -6.976   5.653  64.865  1.00  0.00    -0.056 C  
HETATM    2  O   UNL     1      -7.352   6.689  65.760  1.00  0.00    -0.072 OA 
ENDROOT
BRANCH   2   3
HETATM    3  C   UNL     1      -8.494   6.501  66.493  1.00  0.00    -0.120 A  
HETATM    4  C   UNL     1      -9.578   5.711  66.146  1.00  0.00    -0.142 A  
HETATM    5  C   UNL     1     -10.685   5.646  66.997  1.00  0.00    -0.332 A  
HETATM    6  C   UNL     1     -10.713   6.394  68.180  1.00  0.00    -0.359 A  
HETATM    7  C   UNL     1      -9.636   7.221  68.551  1.00  0.00    -0.140 A  
HETATM    8  C   UNL     1      -8.519   7.221  67.699  1.00  0.00    -0.116 A  
BRANCH   7   9
HETATM    9  C   UNL     1      -9.729   8.077  69.828  1.00  0.00    -0.176 C  
HETATM   10  O   UNL     1      -9.580   7.153  70.921  1.00  0.00    -0.167 OA 
HETATM   11  C   UNL     1      -8.602   9.126  70.009  1.00  0.00    -0.172 C  
HETATM   12  C   UNL     1      -8.733  10.378  69.137  1.00  0.00    -0.173 C  
HETATM   13  H   UNL     1      -9.638   7.681  71.708  1.00  0.00     0.000 HD 
HETATM   14  C   UNL     1     -10.141  10.959  69.065  1.00  0.00    -0.212 C  
HETATM   15  C   UNL     1     -11.226   9.899  68.900  1.00  0.00    -0.126 C  
HETATM   16  C   UNL     1     -11.124   8.785  69.959  1.00  0.00    -0.169 C  
BRANCH  16  17
HETATM   17  C   UNL     1     -11.381   9.316  71.404  1.00  0.00    -0.364 C  
BRANCH  17  18
HETATM   18  N   UNL     1     -12.484   8.663  72.148  1.00  0.00    -0.366 NA 
HETATM   19  C   UNL     1     -13.661   9.529  72.241  1.00  0.00    -0.418 C  
HETATM   20  C   UNL     1     -12.845   7.404  71.485  1.00  0.00    -0.375 C  
ENDBRANCH  17  18
ENDBRANCH  16  17
ENDBRANCH   7   9
ENDBRANCH   2   3
TORSDOF 4
ENDMDL
MODEL      163
REMARK 921   NORMALIZED FREE ENERGY PREDICTED BY IDOCK:   -3.10 KCAL/MOL
REMARK 922        TOTAL FREE ENERGY PREDICTED BY IDOCK:   -4.67 KCAL/MOL
REMARK 923 INTER-LIGAND FREE ENERGY PREDICTED BY IDOCK:   -5.51 KCAL/MOL
REMARK 924 INTRA-LIGAND FREE ENERGY PREDICTED BY IDOCK:    0.83 KCAL/MOL
REMARK 927      BINDING AFFINITY PREDICTED BY RF-SCORE:    0.00 PKD
ROOT
HETATM    1  C   UNL     1     -13.302  11.941  71.958  1.00  0.00    -0.320 C  
HETATM    2  O   UNL     1     -12.639  12.672  70.936  1.00  0.00    -0.338 OA 
ENDROOT
BRANCH   2   3
HETATM    3  C   UNL     1     -12.046  11.951  69.935  1.00  0.00    -0.272 A  
HETATM    4  C   UNL     1     -11.893  12.341  68.614  1.00  0.00    -0.354 A  
HETATM    5  C   UNL     1     -11.286  11.472  67.704  1.00  0.00    -0.343 A  
HETATM    6  C   UNL     1     -10.857  10.204  68.113  1.00  0.00    -0.310 A  
HETATM    7  C   UNL     1     -11.015   9.770  69.443  1.00  0.00    -0.241 A  
HETATM    8  C   UNL     1     -11.582  10.689  70.342  1.00  0.00    -0.441 A  
BRANCH   7   9
HETATM    9  C   UNL     1     -10.588   8.344  69.842  1.00  0.00    -0.228 C  
HETATM   10  O   UNL     1     -10.827   7.533  68.678  1.00  0.00    -0.390 OA 
HETATM   11  C   UNL     1      -9.084   8.171  70.175  1.00  0.00    -0.147 C  
HETATM   12  C   UNL     1      -8.656   8.703  71.546  1.00  0.00    -0.256 C  
HETATM   13  H   UNL     1     -10.564   6.654  68.925  1.00  0.00     0.000 HD 
HETATM   14  C   UNL     1      -9.607   8.362  72.688  1.00  0.00    -0.337 C  
HETATM   15  C   UNL     1     -11.079   8.532  72.322  1.00  0.00    -0.430 C  
HETATM   16  C   UNL     1     -11.452   7.785  71.027  1.00  0.00    -0.298 C  
BRANCH  16  17
HETATM   17  C   UNL     1     -11.313   6.238  71.176  1.00  0.00    -0.303 C  
BRANCH  17  18
HETATM   18  N   UNL     1      -9.985   5.670  70.847  1.00  0.00    -0.185 NA 
HETATM   19  C   UNL     1      -9.352   5.059  72.018  1.00  0.00    -0.137 C  
HETATM   20  C   UNL     1     -10.128   4.671  69.782  1.00  0.00    -0.173 C  
ENDBRANCH  17  18
ENDBRANCH  16  17
ENDBRANCH   7   9
ENDBRANCH   2   3
TORSDOF 4
ENDMDL
MODEL      164
REMARK 921   NORMALIZED FREE ENERGY PREDICTED BY IDOCK:   -3.09 KCAL/MOL
REMARK 922        TOTAL FREE ENERGY PREDICTED BY IDOCK:   -4.65 KCAL/MOL
REMARK 923 INTER-LIGAND FREE ENERGY PREDICTED BY IDOCK:   -3.85 KCAL/MOL
REMARK 924 INTRA-LIGAND FREE ENERGY PREDICTED BY IDOCK:   -0.80 KCAL/MOL
REMARK 927      BINDING AFFINITY PREDICTED BY RF-SCORE:    0.00 PKD
ROOT
HETATM    1  C   UNL     1      -5.765  13.467  68.671  1.00  0.00    -0.084 C  
HETATM    2  O   UNL     1      -6.627  12.431  68.224  1.00  0.00    -0.055 OA 
ENDROOT
BRANCH   2   3
HETATM    3  C   UNL     1      -6.852  11.389  69.082  1.00  0.00    -0.111 A  
HETATM    4  C   UNL     1      -5.924  10.793  69.921  1.00  0.00    -0.082 A  
HETATM    5  C   UNL     1      -6.309   9.714  70.721  1.00  0.00    -0.097 A  
HETATM    6  C   UNL     1      -7.616   9.219  70.660  1.00  0.00    -0.161 A  
HETATM    7  C   UNL     1      -8.578   9.789  69.805  1.00  0.00    -0.215 A  
HETATM    8  C   UNL     1      -8.171  10.905  69.054  1.00  0.00    -0.126 A  
BRANCH   7   9
HETATM    9  C   UNL     1      -9.989   9.177  69.718  1.00  0.00    -0.193 C  
HETATM   10  O   UNL     1     -10.698   9.687  70.862  1.00  0.00    -0.302 OA 
HETATM   11  C   UNL     1     -10.823   9.603  68.482  1.00  0.00    -0.202 C  
HETATM   12  C   UNL     1     -10.428   8.926  67.167  1.00  0.00    -0.344 C  
HETATM   13  H   UNL     1     -11.569   9.309  70.808  1.00  0.00     0.000 HD 
HETATM   14  C   UNL     1     -10.165   7.428  67.275  1.00  0.00    -0.330 C  
HETATM   15  C   UNL     1      -9.354   7.043  68.509  1.00  0.00    -0.135 C  
HETATM   16  C   UNL     1      -9.955   7.611  69.808  1.00  0.00    -0.184 C  
BRANCH  16  17
HETATM   17  C   UNL     1     -11.360   7.009  70.122  1.00  0.00    -0.277 C  
BRANCH  17  18
HETATM   18  N   UNL     1     -11.887   7.268  71.482  1.00  0.00    -0.288 NA 
HETATM   19  C   UNL     1     -13.352   7.263  71.506  1.00  0.00    -0.369 C  
HETATM   20  C   UNL     1     -11.373   6.253  72.409  1.00  0.00    -0.292 C  
ENDBRANCH  17  18
ENDBRANCH  16  17
ENDBRANCH   7   9
ENDBRANCH   2   3
TORSDOF 4
ENDMDL
MODEL      165
REMARK 921   NORMALIZED FREE ENERGY PREDICTED BY IDOCK:   -3.08 KCAL/MOL
REMARK 922        TOTAL FREE ENERGY PREDICTED BY IDOCK:   -4.64 KCAL/MOL
REMARK 923 INTER-LIGAND FREE ENERGY PREDICTED BY IDOCK:   -4.31 KCAL/MOL
REMARK 924 INTRA-LIGAND FREE ENERGY PREDICTED BY IDOCK:   -0.33 KCAL/MOL
REMARK 927      BINDING AFFINITY PREDICTED BY RF-SCORE:    0.00 PKD
ROOT
HETATM    1  C   UNL     1      -5.196  15.400  67.760  1.00  0.00    -0.079 C  
HETATM    2  O   UNL     1      -6.349  14.697  67.323  1.00  0.00    -0.303 OA 
ENDROOT
BRANCH   2   3
HETATM    3  C   UNL     1      -6.527  13.427  67.801  1.00  0.00    -0.162 A  
HETATM    4  C   UNL     1      -5.536  12.492  68.056  1.00  0.00    -0.082 A  
HETATM    5  C   UNL     1      -5.889  11.222  68.520  1.00  0.00    -0.042 A  
HETATM    6  C   UNL     1      -7.234  10.882  68.703  1.00  0.00    -0.088 A  
HETATM    7  C   UNL     1      -8.266  11.803  68.435  1.00  0.00    -0.154 A  
HETATM    8  C   UNL     1      -7.873  13.086  68.020  1.00  0.00    -0.146 A  
BRANCH   7   9
HETATM    9  C   UNL     1      -9.737  11.373  68.588  1.00  0.00    -0.176 C  
HETATM   10  O   UNL     1     -10.354  12.399  69.386  1.00  0.00    -0.393 OA 
HETATM   11  C   UNL     1     -10.553  11.317  67.271  1.00  0.00    -0.271 C  
HETATM   12  C   UNL     1     -10.271  10.102  66.382  1.00  0.00    -0.288 C  
HETATM   13  H   UNL     1     -11.262  12.134  69.480  1.00  0.00     0.000 HD 
HETATM   14  C   UNL     1     -10.171   8.776  67.129  1.00  0.00    -0.346 C  
HETATM   15  C   UNL     1      -9.373   8.871  68.426  1.00  0.00    -0.140 C  
HETATM   16  C   UNL     1      -9.872  10.004  69.342  1.00  0.00    -0.240 C  
BRANCH  16  17
HETATM   17  C   UNL     1     -11.326   9.755  69.853  1.00  0.00    -0.192 C  
BRANCH  17  18
HETATM   18  N   UNL     1     -11.567  10.040  71.287  1.00  0.00    -0.370 NA 
HETATM   19  C   UNL     1     -12.857  10.702  71.497  1.00  0.00    -0.462 C  
HETATM   20  C   UNL     1     -11.521   8.788  72.051  1.00  0.00    -0.371 C  
ENDBRANCH  17  18
ENDBRANCH  16  17
ENDBRANCH   7   9
ENDBRANCH   2   3
TORSDOF 4
ENDMDL
MODEL      166
REMARK 921   NORMALIZED FREE ENERGY PREDICTED BY IDOCK:   -3.06 KCAL/MOL
REMARK 922        TOTAL FREE ENERGY PREDICTED BY IDOCK:   -4.63 KCAL/MOL
REMARK 923 INTER-LIGAND FREE ENERGY PREDICTED BY IDOCK:   -3.76 KCAL/MOL
REMARK 924 INTRA-LIGAND FREE ENERGY PREDICTED BY IDOCK:   -0.86 KCAL/MOL
REMARK 927      BINDING AFFINITY PREDICTED BY RF-SCORE:    0.00 PKD
ROOT
HETATM    1  C   UNL     1     -11.085  11.118  67.163  1.00  0.00    -0.287 C  
HETATM    2  O   UNL     1      -9.673  10.988  67.235  1.00  0.00    -0.164 OA 
ENDROOT
BRANCH   2   3
HETATM    3  C   UNL     1      -9.159  10.346  68.330  1.00  0.00    -0.145 A  
HETATM    4  C   UNL     1      -7.994  10.670  69.007  1.00  0.00    -0.140 A  
HETATM    5  C   UNL     1      -7.591   9.893  70.096  1.00  0.00    -0.185 A  
HETATM    6  C   UNL     1      -8.341   8.780  70.489  1.00  0.00    -0.161 A  
HETATM    7  C   UNL     1      -9.519   8.413  69.810  1.00  0.00    -0.162 A  
HETATM    8  C   UNL     1      -9.923   9.246  68.753  1.00  0.00    -0.193 A  
BRANCH   7   9
HETATM    9  C   UNL     1     -10.286   7.144  70.231  1.00  0.00    -0.198 C  
HETATM   10  O   UNL     1     -10.956   7.491  71.456  1.00  0.00    -0.228 OA 
HETATM   11  C   UNL     1     -11.401   6.688  69.256  1.00  0.00    -0.301 C  
HETATM   12  C   UNL     1     -10.908   5.991  67.984  1.00  0.00    -0.374 C  
HETATM   13  H   UNL     1     -11.428   6.708  71.716  1.00  0.00     0.000 HD 
HETATM   14  C   UNL     1      -9.797   4.971  68.207  1.00  0.00    -0.211 C  
HETATM   15  C   UNL     1      -8.723   5.447  69.181  1.00  0.00    -0.104 C  
HETATM   16  C   UNL     1      -9.318   5.942  70.514  1.00  0.00    -0.185 C  
BRANCH  16  17
HETATM   17  C   UNL     1     -10.018   4.798  71.310  1.00  0.00    -0.200 C  
BRANCH  17  18
HETATM   18  N   UNL     1     -10.165   5.018  72.768  1.00  0.00    -0.174 NA 
HETATM   19  C   UNL     1     -11.183   4.140  73.348  1.00  0.00    -0.244 C  
HETATM   20  C   UNL     1      -8.876   4.789  73.431  1.00  0.00    -0.105 C  
ENDBRANCH  17  18
ENDBRANCH  16  17
ENDBRANCH   7   9
ENDBRANCH   2   3
TORSDOF 4
ENDMDL
MODEL      167
REMARK 921   NORMALIZED FREE ENERGY PREDICTED BY IDOCK:   -3.05 KCAL/MOL
REMARK 922        TOTAL FREE ENERGY PREDICTED BY IDOCK:   -4.61 KCAL/MOL
REMARK 923 INTER-LIGAND FREE ENERGY PREDICTED BY IDOCK:   -3.98 KCAL/MOL
REMARK 924 INTRA-LIGAND FREE ENERGY PREDICTED BY IDOCK:   -0.63 KCAL/MOL
REMARK 927      BINDING AFFINITY PREDICTED BY RF-SCORE:    0.00 PKD
ROOT
HETATM    1  C   UNL     1     -13.139  13.623  71.919  1.00  0.00    -0.387 C  
HETATM    2  O   UNL     1     -12.844  12.515  71.081  1.00  0.00    -0.320 OA 
ENDROOT
BRANCH   2   3
HETATM    3  C   UNL     1     -12.051  12.749  69.989  1.00  0.00    -0.285 A  
HETATM    4  C   UNL     1     -12.169  13.796  69.090  1.00  0.00    -0.289 A  
HETATM    5  C   UNL     1     -11.291  13.878  68.006  1.00  0.00    -0.317 A  
HETATM    6  C   UNL     1     -10.313  12.896  67.811  1.00  0.00    -0.223 A  
HETATM    7  C   UNL     1     -10.179  11.809  68.696  1.00  0.00    -0.211 A  
HETATM    8  C   UNL     1     -11.044  11.787  69.803  1.00  0.00    -0.066 A  
BRANCH   7   9
HETATM    9  C   UNL     1      -9.132  10.714  68.415  1.00  0.00    -0.156 C  
HETATM   10  O   UNL     1      -7.898  11.215  68.959  1.00  0.00    -0.172 OA 
HETATM   11  C   UNL     1      -9.383   9.358  69.123  1.00  0.00    -0.159 C  
HETATM   12  C   UNL     1     -10.483   8.493  68.500  1.00  0.00    -0.205 C  
HETATM   13  H   UNL     1      -7.253  10.540  68.786  1.00  0.00     0.000 HD 
HETATM   14  C   UNL     1     -10.452   8.423  66.976  1.00  0.00    -0.375 C  
HETATM   15  C   UNL     1     -10.190   9.773  66.314  1.00  0.00    -0.282 C  
HETATM   16  C   UNL     1      -8.938  10.470  66.877  1.00  0.00    -0.151 C  
BRANCH  16  17
HETATM   17  C   UNL     1      -7.630   9.678  66.568  1.00  0.00    -0.098 C  
BRANCH  17  18
HETATM   18  N   UNL     1      -7.496   9.161  65.186  1.00  0.00    -0.096 NA 
HETATM   19  C   UNL     1      -6.586   9.984  64.386  1.00  0.00    -0.130 C  
HETATM   20  C   UNL     1      -7.009   7.777  65.224  1.00  0.00    -0.059 C  
ENDBRANCH  17  18
ENDBRANCH  16  17
ENDBRANCH   7   9
ENDBRANCH   2   3
TORSDOF 4
ENDMDL
MODEL      168
REMARK 921   NORMALIZED FREE ENERGY PREDICTED BY IDOCK:   -3.05 KCAL/MOL
REMARK 922        TOTAL FREE ENERGY PREDICTED BY IDOCK:   -4.60 KCAL/MOL
REMARK 923 INTER-LIGAND FREE ENERGY PREDICTED BY IDOCK:   -4.57 KCAL/MOL
REMARK 924 INTRA-LIGAND FREE ENERGY PREDICTED BY IDOCK:   -0.04 KCAL/MOL
REMARK 927      BINDING AFFINITY PREDICTED BY RF-SCORE:    0.00 PKD
ROOT
HETATM    1  C   UNL     1      -5.938   7.504  66.943  1.00  0.00    -0.046 C  
HETATM    2  O   UNL     1      -6.952   7.063  66.052  1.00  0.00    -0.062 OA 
ENDROOT
BRANCH   2   3
HETATM    3  C   UNL     1      -8.250   7.183  66.472  1.00  0.00    -0.117 A  
HETATM    4  C   UNL     1      -9.204   6.178  66.509  1.00  0.00    -0.161 A  
HETATM    5  C   UNL     1     -10.499   6.473  66.941  1.00  0.00    -0.347 A  
HETATM    6  C   UNL     1     -10.844   7.778  67.311  1.00  0.00    -0.225 A  
HETATM    7  C   UNL     1      -9.903   8.825  67.266  1.00  0.00    -0.260 A  
HETATM    8  C   UNL     1      -8.598   8.483  66.876  1.00  0.00    -0.121 A  
BRANCH   7   9
HETATM    9  C   UNL     1     -10.335  10.261  67.619  1.00  0.00    -0.220 C  
HETATM   10  O   UNL     1     -11.692  10.149  68.085  1.00  0.00    -0.694 OA 
HETATM   11  C   UNL     1      -9.546  10.925  68.777  1.00  0.00    -0.195 C  
HETATM   12  C   UNL     1      -8.143  11.417  68.409  1.00  0.00    -0.145 C  
HETATM   13  H   UNL     1     -11.957  11.035  68.303  1.00  0.00     0.000 HD 
HETATM   14  C   UNL     1      -8.053  12.147  67.073  1.00  0.00    -0.154 C  
HETATM   15  C   UNL     1      -8.851  11.473  65.960  1.00  0.00    -0.144 C  
HETATM   16  C   UNL     1     -10.313  11.204  66.366  1.00  0.00    -0.300 C  
BRANCH  16  17
HETATM   17  C   UNL     1     -11.111  12.523  66.608  1.00  0.00    -0.283 C  
BRANCH  17  18
HETATM   18  N   UNL     1     -11.474  13.294  65.396  1.00  0.00    -0.300 NA 
HETATM   19  C   UNL     1     -12.870  13.736  65.433  1.00  0.00    -0.410 C  
HETATM   20  C   UNL     1     -10.588  14.458  65.271  1.00  0.00    -0.382 C  
ENDBRANCH  17  18
ENDBRANCH  16  17
ENDBRANCH   7   9
ENDBRANCH   2   3
TORSDOF 4
ENDMDL
MODEL      169
REMARK 921   NORMALIZED FREE ENERGY PREDICTED BY IDOCK:   -3.03 KCAL/MOL
REMARK 922        TOTAL FREE ENERGY PREDICTED BY IDOCK:   -4.58 KCAL/MOL
REMARK 923 INTER-LIGAND FREE ENERGY PREDICTED BY IDOCK:   -4.44 KCAL/MOL
REMARK 924 INTRA-LIGAND FREE ENERGY PREDICTED BY IDOCK:   -0.15 KCAL/MOL
REMARK 927      BINDING AFFINITY PREDICTED BY RF-SCORE:    0.00 PKD
ROOT
HETATM    1  C   UNL     1     -12.257  15.061  69.616  1.00  0.00    -0.258 C  
HETATM    2  O   UNL     1     -11.957  15.915  68.522  1.00  0.00    -0.306 OA 
ENDROOT
BRANCH   2   3
HETATM    3  C   UNL     1     -10.726  15.777  67.940  1.00  0.00    -0.302 A  
HETATM    4  C   UNL     1      -9.934  16.793  67.428  1.00  0.00    -0.267 A  
HETATM    5  C   UNL     1      -8.707  16.480  66.838  1.00  0.00    -0.233 A  
HETATM    6  C   UNL     1      -8.286  15.149  66.739  1.00  0.00    -0.225 A  
HETATM    7  C   UNL     1      -9.076  14.092  67.233  1.00  0.00    -0.218 A  
HETATM    8  C   UNL     1     -10.279  14.447  67.866  1.00  0.00    -0.232 A  
BRANCH   7   9
HETATM    9  C   UNL     1      -8.610  12.635  67.051  1.00  0.00    -0.181 C  
HETATM   10  O   UNL     1      -7.186  12.710  66.855  1.00  0.00    -0.373 OA 
HETATM   11  C   UNL     1      -8.817  11.713  68.279  1.00  0.00    -0.167 C  
HETATM   12  C   UNL     1     -10.258  11.245  68.504  1.00  0.00    -0.214 C  
HETATM   13  H   UNL     1      -6.899  11.812  66.743  1.00  0.00     0.000 HD 
HETATM   14  C   UNL     1     -10.988  10.801  67.241  1.00  0.00    -0.359 C  
HETATM   15  C   UNL     1     -10.751  11.723  66.049  1.00  0.00    -0.324 C  
HETATM   16  C   UNL     1      -9.254  11.968  65.785  1.00  0.00    -0.064 C  
BRANCH  16  17
HETATM   17  C   UNL     1      -8.506  10.665  65.362  1.00  0.00    -0.160 C  
BRANCH  17  18
HETATM   18  N   UNL     1      -9.255   9.749  64.470  1.00  0.00    -0.256 NA 
HETATM   19  C   UNL     1      -9.326  10.263  63.101  1.00  0.00    -0.312 C  
HETATM   20  C   UNL     1      -8.612   8.429  64.472  1.00  0.00     0.012 C  
ENDBRANCH  17  18
ENDBRANCH  16  17
ENDBRANCH   7   9
ENDBRANCH   2   3
TORSDOF 4
ENDMDL
MODEL      170
REMARK 921   NORMALIZED FREE ENERGY PREDICTED BY IDOCK:   -3.01 KCAL/MOL
REMARK 922        TOTAL FREE ENERGY PREDICTED BY IDOCK:   -4.56 KCAL/MOL
REMARK 923 INTER-LIGAND FREE ENERGY PREDICTED BY IDOCK:   -4.09 KCAL/MOL
REMARK 924 INTRA-LIGAND FREE ENERGY PREDICTED BY IDOCK:   -0.47 KCAL/MOL
REMARK 927      BINDING AFFINITY PREDICTED BY RF-SCORE:    0.00 PKD
ROOT
HETATM    1  C   UNL     1      -9.275   3.055  71.652  1.00  0.00    -0.115 C  
HETATM    2  O   UNL     1      -9.443   4.276  72.358  1.00  0.00    -0.122 OA 
ENDROOT
BRANCH   2   3
HETATM    3  C   UNL     1     -10.287   5.205  71.811  1.00  0.00    -0.209 A  
HETATM    4  C   UNL     1     -11.421   5.741  72.400  1.00  0.00    -0.343 A  
HETATM    5  C   UNL     1     -12.195   6.664  71.693  1.00  0.00    -0.401 A  
HETATM    6  C   UNL     1     -11.846   7.030  70.388  1.00  0.00    -0.295 A  
HETATM    7  C   UNL     1     -10.711   6.489  69.754  1.00  0.00    -0.322 A  
HETATM    8  C   UNL     1      -9.927   5.604  70.513  1.00  0.00    -0.265 A  
BRANCH   7   9
HETATM    9  C   UNL     1     -10.393   6.867  68.294  1.00  0.00    -0.193 C  
HETATM   10  O   UNL     1     -11.477   6.331  67.515  1.00  0.00    -0.626 OA 
HETATM   11  C   UNL     1     -10.369   8.387  67.992  1.00  0.00    -0.270 C  
HETATM   12  C   UNL     1      -9.118   9.127  68.476  1.00  0.00    -0.132 C  
HETATM   13  H   UNL     1     -11.281   6.564  66.615  1.00  0.00     0.000 HD 
HETATM   14  C   UNL     1      -7.804   8.400  68.207  1.00  0.00    -0.110 C  
HETATM   15  C   UNL     1      -7.867   6.905  68.503  1.00  0.00    -0.118 C  
HETATM   16  C   UNL     1      -9.053   6.217  67.800  1.00  0.00    -0.117 C  
BRANCH  16  17
HETATM   17  C   UNL     1      -8.921   6.252  66.245  1.00  0.00    -0.155 C  
BRANCH  17  18
HETATM   18  N   UNL     1      -8.404   5.017  65.610  1.00  0.00    -0.116 NA 
HETATM   19  C   UNL     1      -6.970   5.111  65.331  1.00  0.00    -0.062 C  
HETATM   20  C   UNL     1      -8.666   3.869  66.485  1.00  0.00    -0.115 C  
ENDBRANCH  17  18
ENDBRANCH  16  17
ENDBRANCH   7   9
ENDBRANCH   2   3
TORSDOF 4
ENDMDL
MODEL      171
REMARK 921   NORMALIZED FREE ENERGY PREDICTED BY IDOCK:   -3.00 KCAL/MOL
REMARK 922        TOTAL FREE ENERGY PREDICTED BY IDOCK:   -4.55 KCAL/MOL
REMARK 923 INTER-LIGAND FREE ENERGY PREDICTED BY IDOCK:   -4.01 KCAL/MOL
REMARK 924 INTRA-LIGAND FREE ENERGY PREDICTED BY IDOCK:   -0.53 KCAL/MOL
REMARK 927      BINDING AFFINITY PREDICTED BY RF-SCORE:    0.00 PKD
ROOT
HETATM    1  C   UNL     1      -6.927  10.778  66.641  1.00  0.00    -0.129 C  
HETATM    2  O   UNL     1      -7.664  10.843  67.853  1.00  0.00    -0.100 OA 
ENDROOT
BRANCH   2   3
HETATM    3  C   UNL     1      -8.803  11.603  67.854  1.00  0.00    -0.155 A  
HETATM    4  C   UNL     1     -10.087  11.169  68.142  1.00  0.00    -0.193 A  
HETATM    5  C   UNL     1     -11.152  12.071  68.071  1.00  0.00    -0.292 A  
HETATM    6  C   UNL     1     -10.932  13.399  67.687  1.00  0.00    -0.277 A  
HETATM    7  C   UNL     1      -9.642  13.866  67.369  1.00  0.00    -0.235 A  
HETATM    8  C   UNL     1      -8.588  12.946  67.502  1.00  0.00    -0.188 A  
BRANCH   7   9
HETATM    9  C   UNL     1      -9.447  15.317  66.890  1.00  0.00    -0.234 C  
HETATM   10  O   UNL     1      -9.352  15.237  65.456  1.00  0.00    -0.382 OA 
HETATM   11  C   UNL     1     -10.629  16.277  67.180  1.00  0.00    -0.291 C  
HETATM   12  C   UNL     1     -10.740  16.751  68.632  1.00  0.00    -0.352 C  
HETATM   13  H   UNL     1      -9.232  16.132  65.161  1.00  0.00     0.000 HD 
HETATM   14  C   UNL     1      -9.416  17.155  69.273  1.00  0.00     0.025 C  
HETATM   15  C   UNL     1      -8.273  16.196  68.956  1.00  0.00    -0.244 C  
HETATM   16  C   UNL     1      -8.120  15.944  67.444  1.00  0.00    -0.187 C  
BRANCH  16  17
HETATM   17  C   UNL     1      -7.709  17.233  66.668  1.00  0.00    -0.263 C  
BRANCH  17  18
HETATM   18  N   UNL     1      -6.272  17.591  66.718  1.00  0.00    -0.164 NA 
HETATM   19  C   UNL     1      -5.812  18.166  65.453  1.00  0.00    -0.165 C  
HETATM   20  C   UNL     1      -6.041  18.544  67.810  1.00  0.00    -0.189 C  
ENDBRANCH  17  18
ENDBRANCH  16  17
ENDBRANCH   7   9
ENDBRANCH   2   3
TORSDOF 4
ENDMDL
MODEL      172
REMARK 921   NORMALIZED FREE ENERGY PREDICTED BY IDOCK:   -3.00 KCAL/MOL
REMARK 922        TOTAL FREE ENERGY PREDICTED BY IDOCK:   -4.54 KCAL/MOL
REMARK 923 INTER-LIGAND FREE ENERGY PREDICTED BY IDOCK:   -5.39 KCAL/MOL
REMARK 924 INTRA-LIGAND FREE ENERGY PREDICTED BY IDOCK:    0.85 KCAL/MOL
REMARK 927      BINDING AFFINITY PREDICTED BY RF-SCORE:    0.00 PKD
ROOT
HETATM    1  C   UNL     1     -10.318  10.767  63.416  1.00  0.00    -0.129 C  
HETATM    2  O   UNL     1     -10.434  12.143  63.083  1.00  0.00    -0.386 OA 
ENDROOT
BRANCH   2   3
HETATM    3  C   UNL     1     -11.006  12.967  64.014  1.00  0.00    -0.389 A  
HETATM    4  C   UNL     1     -12.361  13.187  64.203  1.00  0.00    -0.418 A  
HETATM    5  C   UNL     1     -12.783  14.086  65.186  1.00  0.00    -0.419 A  
HETATM    6  C   UNL     1     -11.847  14.781  65.960  1.00  0.00    -0.201 A  
HETATM    7  C   UNL     1     -10.463  14.594  65.780  1.00  0.00    -0.338 A  
HETATM    8  C   UNL     1     -10.075  13.645  64.820  1.00  0.00    -0.268 A  
BRANCH   7   9
HETATM    9  C   UNL     1      -9.462  15.422  66.608  1.00  0.00    -0.259 C  
HETATM   10  O   UNL     1      -8.258  14.636  66.650  1.00  0.00    -0.384 OA 
HETATM   11  C   UNL     1      -9.054  16.783  65.988  1.00  0.00    -0.226 C  
HETATM   12  C   UNL     1     -10.102  17.893  66.109  1.00  0.00    -0.322 C  
HETATM   13  H   UNL     1      -7.640  15.147  67.161  1.00  0.00     0.000 HD 
HETATM   14  C   UNL     1     -10.773  17.989  67.475  1.00  0.00    -0.352 C  
HETATM   15  C   UNL     1     -11.150  16.631  68.061  1.00  0.00    -0.255 C  
HETATM   16  C   UNL     1      -9.963  15.649  68.077  1.00  0.00    -0.222 C  
BRANCH  16  17
HETATM   17  C   UNL     1      -8.816  16.123  69.023  1.00  0.00    -0.251 C  
BRANCH  17  18
HETATM   18  N   UNL     1      -7.628  16.709  68.359  1.00  0.00    -0.187 NA 
HETATM   19  C   UNL     1      -7.449  18.118  68.713  1.00  0.00    -0.274 C  
HETATM   20  C   UNL     1      -6.431  15.947  68.734  1.00  0.00    -0.116 C  
ENDBRANCH  17  18
ENDBRANCH  16  17
ENDBRANCH   7   9
ENDBRANCH   2   3
TORSDOF 4
ENDMDL
MODEL      173
REMARK 921   NORMALIZED FREE ENERGY PREDICTED BY IDOCK:   -2.99 KCAL/MOL
REMARK 922        TOTAL FREE ENERGY PREDICTED BY IDOCK:   -4.54 KCAL/MOL
REMARK 923 INTER-LIGAND FREE ENERGY PREDICTED BY IDOCK:   -4.05 KCAL/MOL
REMARK 924 INTRA-LIGAND FREE ENERGY PREDICTED BY IDOCK:   -0.49 KCAL/MOL
REMARK 927      BINDING AFFINITY PREDICTED BY RF-SCORE:    0.00 PKD
ROOT
HETATM    1  C   UNL     1     -11.193  12.624  63.604  1.00  0.00    -0.466 C  
HETATM    2  O   UNL     1     -11.243  11.525  64.502  1.00  0.00    -0.305 OA 
ENDROOT
BRANCH   2   3
HETATM    3  C   UNL     1     -10.230  10.607  64.427  1.00  0.00    -0.330 A  
HETATM    4  C   UNL     1      -9.439  10.337  63.322  1.00  0.00    -0.342 A  
HETATM    5  C   UNL     1      -8.458   9.345  63.401  1.00  0.00    -0.202 A  
HETATM    6  C   UNL     1      -8.290   8.607  64.579  1.00  0.00    -0.157 A  
HETATM    7  C   UNL     1      -9.091   8.844  65.713  1.00  0.00    -0.276 A  
HETATM    8  C   UNL     1     -10.030   9.884  65.615  1.00  0.00    -0.353 A  
BRANCH   7   9
HETATM    9  C   UNL     1      -8.919   7.971  66.970  1.00  0.00    -0.138 C  
HETATM   10  O   UNL     1      -8.029   8.706  67.829  1.00  0.00    -0.105 OA 
HETATM   11  C   UNL     1     -10.208   7.740  67.800  1.00  0.00    -0.271 C  
HETATM   12  C   UNL     1     -11.191   6.726  67.206  1.00  0.00    -0.279 C  
HETATM   13  H   UNL     1      -7.923   8.167  68.604  1.00  0.00     0.000 HD 
HETATM   14  C   UNL     1     -10.545   5.456  66.662  1.00  0.00    -0.359 C  
HETATM   15  C   UNL     1      -9.272   5.719  65.863  1.00  0.00    -0.128 C  
HETATM   16  C   UNL     1      -8.261   6.586  66.636  1.00  0.00    -0.112 C  
BRANCH  16  17
HETATM   17  C   UNL     1      -7.720   5.869  67.912  1.00  0.00    -0.100 C  
BRANCH  17  18
HETATM   18  N   UNL     1      -7.014   4.586  67.685  1.00  0.00    -0.059 NA 
HETATM   19  C   UNL     1      -5.961   4.719  66.677  1.00  0.00    -0.027 C  
HETATM   20  C   UNL     1      -6.436   4.114  68.949  1.00  0.00    -0.040 C  
ENDBRANCH  17  18
ENDBRANCH  16  17
ENDBRANCH   7   9
ENDBRANCH   2   3
TORSDOF 4
ENDMDL
MODEL      174
REMARK 921   NORMALIZED FREE ENERGY PREDICTED BY IDOCK:   -2.99 KCAL/MOL
REMARK 922        TOTAL FREE ENERGY PREDICTED BY IDOCK:   -4.54 KCAL/MOL
REMARK 923 INTER-LIGAND FREE ENERGY PREDICTED BY IDOCK:   -3.88 KCAL/MOL
REMARK 924 INTRA-LIGAND FREE ENERGY PREDICTED BY IDOCK:   -0.66 KCAL/MOL
REMARK 927      BINDING AFFINITY PREDICTED BY RF-SCORE:    0.00 PKD
ROOT
HETATM    1  C   UNL     1      -7.847  14.055  67.519  1.00  0.00    -0.184 C  
HETATM    2  O   UNL     1      -8.991  14.175  68.351  1.00  0.00    -0.183 OA 
ENDROOT
BRANCH   2   3
HETATM    3  C   UNL     1      -9.828  13.094  68.425  1.00  0.00    -0.206 A  
HETATM    4  C   UNL     1     -11.201  13.121  68.608  1.00  0.00    -0.314 A  
HETATM    5  C   UNL     1     -11.910  11.920  68.690  1.00  0.00    -0.365 A  
HETATM    6  C   UNL     1     -11.239  10.694  68.614  1.00  0.00    -0.337 A  
HETATM    7  C   UNL     1      -9.842  10.632  68.448  1.00  0.00    -0.170 A  
HETATM    8  C   UNL     1      -9.168  11.858  68.317  1.00  0.00    -0.187 A  
BRANCH   7   9
HETATM    9  C   UNL     1      -9.130   9.266  68.432  1.00  0.00    -0.128 C  
HETATM   10  O   UNL     1      -9.592   8.607  67.239  1.00  0.00    -0.151 OA 
HETATM   11  C   UNL     1      -7.586   9.324  68.309  1.00  0.00    -0.083 C  
HETATM   12  C   UNL     1      -6.846   9.716  69.591  1.00  0.00    -0.067 C  
HETATM   13  H   UNL     1      -9.153   7.765  67.230  1.00  0.00     0.000 HD 
HETATM   14  C   UNL     1      -7.362   9.039  70.857  1.00  0.00    -0.119 C  
HETATM   15  C   UNL     1      -8.884   8.989  70.939  1.00  0.00    -0.294 C  
HETATM   16  C   UNL     1      -9.521   8.387  69.672  1.00  0.00    -0.166 C  
BRANCH  16  17
HETATM   17  C   UNL     1      -9.140   6.887  69.473  1.00  0.00    -0.142 C  
BRANCH  17  18
HETATM   18  N   UNL     1     -10.166   5.898  69.879  1.00  0.00    -0.199 NA 
HETATM   19  C   UNL     1      -9.777   5.185  71.098  1.00  0.00    -0.174 C  
HETATM   20  C   UNL     1     -11.448   6.580  70.090  1.00  0.00    -0.415 C  
ENDBRANCH  17  18
ENDBRANCH  16  17
ENDBRANCH   7   9
ENDBRANCH   2   3
TORSDOF 4
ENDMDL
MODEL      175
REMARK 921   NORMALIZED FREE ENERGY PREDICTED BY IDOCK:   -2.98 KCAL/MOL
REMARK 922        TOTAL FREE ENERGY PREDICTED BY IDOCK:   -4.53 KCAL/MOL
REMARK 923 INTER-LIGAND FREE ENERGY PREDICTED BY IDOCK:   -3.88 KCAL/MOL
REMARK 924 INTRA-LIGAND FREE ENERGY PREDICTED BY IDOCK:   -0.65 KCAL/MOL
REMARK 927      BINDING AFFINITY PREDICTED BY RF-SCORE:    0.00 PKD
ROOT
HETATM    1  C   UNL     1      -6.539   8.525  65.295  1.00  0.00    -0.063 C  
HETATM    2  O   UNL     1      -6.224   8.247  66.652  1.00  0.00    -0.052 OA 
ENDROOT
BRANCH   2   3
HETATM    3  C   UNL     1      -6.983   7.304  67.291  1.00  0.00    -0.079 A  
HETATM    4  C   UNL     1      -6.684   5.959  67.432  1.00  0.00    -0.058 A  
HETATM    5  C   UNL     1      -7.583   5.118  68.093  1.00  0.00    -0.080 A  
HETATM    6  C   UNL     1      -8.791   5.621  68.589  1.00  0.00    -0.109 A  
HETATM    7  C   UNL     1      -9.133   6.980  68.445  1.00  0.00    -0.127 A  
HETATM    8  C   UNL     1      -8.183   7.806  67.822  1.00  0.00    -0.126 A  
BRANCH   7   9
HETATM    9  C   UNL     1     -10.498   7.486  68.948  1.00  0.00    -0.203 C  
HETATM   10  O   UNL     1     -11.274   7.737  67.762  1.00  0.00    -0.435 OA 
HETATM   11  C   UNL     1     -11.319   6.467  69.780  1.00  0.00    -0.494 C  
HETATM   12  C   UNL     1     -10.840   6.268  71.221  1.00  0.00    -0.317 C  
HETATM   13  H   UNL     1     -12.116   8.049  68.073  1.00  0.00     0.000 HD 
HETATM   14  C   UNL     1     -10.485   7.556  71.957  1.00  0.00    -0.245 C  
HETATM   15  C   UNL     1      -9.689   8.540  71.106  1.00  0.00    -0.257 C  
HETATM   16  C   UNL     1     -10.366   8.827  69.752  1.00  0.00    -0.214 C  
BRANCH  16  17
HETATM   17  C   UNL     1     -11.738   9.551  69.918  1.00  0.00     0.098 C  
BRANCH  17  18
HETATM   18  N   UNL     1     -11.723  10.792  70.727  1.00  0.00    -0.328 NA 
HETATM   19  C   UNL     1     -11.789  11.988  69.885  1.00  0.00    -0.331 C  
HETATM   20  C   UNL     1     -12.854  10.781  71.663  1.00  0.00    -0.457 C  
ENDBRANCH  17  18
ENDBRANCH  16  17
ENDBRANCH   7   9
ENDBRANCH   2   3
TORSDOF 4
ENDMDL
MODEL      176
REMARK 921   NORMALIZED FREE ENERGY PREDICTED BY IDOCK:   -2.97 KCAL/MOL
REMARK 922        TOTAL FREE ENERGY PREDICTED BY IDOCK:   -4.50 KCAL/MOL
REMARK 923 INTER-LIGAND FREE ENERGY PREDICTED BY IDOCK:   -4.23 KCAL/MOL
REMARK 924 INTRA-LIGAND FREE ENERGY PREDICTED BY IDOCK:   -0.28 KCAL/MOL
REMARK 927      BINDING AFFINITY PREDICTED BY RF-SCORE:    0.00 PKD
ROOT
HETATM    1  C   UNL     1     -11.991  12.576  63.369  1.00  0.00    -0.514 C  
HETATM    2  O   UNL     1     -12.609  13.268  64.445  1.00  0.00    -0.609 OA 
ENDROOT
BRANCH   2   3
HETATM    3  C   UNL     1     -12.056  13.117  65.688  1.00  0.00    -0.449 A  
HETATM    4  C   UNL     1     -12.390  13.820  66.833  1.00  0.00    -0.328 A  
HETATM    5  C   UNL     1     -11.707  13.563  68.025  1.00  0.00    -0.394 A  
HETATM    6  C   UNL     1     -10.673  12.620  68.060  1.00  0.00    -0.243 A  
HETATM    7  C   UNL     1     -10.297  11.902  66.909  1.00  0.00    -0.238 A  
HETATM    8  C   UNL     1     -11.039  12.148  65.742  1.00  0.00    -0.362 A  
BRANCH   7   9
HETATM    9  C   UNL     1      -9.113  10.917  66.971  1.00  0.00    -0.149 C  
HETATM   10  O   UNL     1      -8.063  11.624  67.655  1.00  0.00    -0.128 OA 
HETATM   11  C   UNL     1      -9.363   9.630  67.797  1.00  0.00    -0.142 C  
HETATM   12  C   UNL     1     -10.231   8.573  67.108  1.00  0.00    -0.355 C  
HETATM   13  H   UNL     1      -7.334  11.016  67.693  1.00  0.00     0.000 HD 
HETATM   14  C   UNL     1      -9.899   8.335  65.639  1.00  0.00     0.478 C  
HETATM   15  C   UNL     1      -9.647   9.622  64.859  1.00  0.00    -0.244 C  
HETATM   16  C   UNL     1      -8.602  10.526  65.540  1.00  0.00    -0.187 C  
BRANCH  16  17
HETATM   17  C   UNL     1      -7.187   9.869  65.580  1.00  0.00    -0.113 C  
BRANCH  17  18
HETATM   18  N   UNL     1      -6.694   9.312  64.299  1.00  0.00    -0.085 NA 
HETATM   19  C   UNL     1      -5.560  10.077  63.777  1.00  0.00    -0.116 C  
HETATM   20  C   UNL     1      -6.302   7.911  64.491  1.00  0.00    -0.052 C  
ENDBRANCH  17  18
ENDBRANCH  16  17
ENDBRANCH   7   9
ENDBRANCH   2   3
TORSDOF 4
ENDMDL
MODEL      177
REMARK 921   NORMALIZED FREE ENERGY PREDICTED BY IDOCK:   -2.96 KCAL/MOL
REMARK 922        TOTAL FREE ENERGY PREDICTED BY IDOCK:   -4.49 KCAL/MOL
REMARK 923 INTER-LIGAND FREE ENERGY PREDICTED BY IDOCK:   -4.34 KCAL/MOL
REMARK 924 INTRA-LIGAND FREE ENERGY PREDICTED BY IDOCK:   -0.15 KCAL/MOL
REMARK 927      BINDING AFFINITY PREDICTED BY RF-SCORE:    0.00 PKD
ROOT
HETATM    1  C   UNL     1     -10.756   5.527  68.377  1.00  0.00    -0.085 C  
HETATM    2  O   UNL     1      -9.939   6.523  67.778  1.00  0.00    -0.123 OA 
ENDROOT
BRANCH   2   3
HETATM    3  C   UNL     1      -9.973   7.775  68.330  1.00  0.00    -0.178 A  
HETATM    4  C   UNL     1     -10.422   8.109  69.597  1.00  0.00    -0.224 A  
HETATM    5  C   UNL     1     -10.415   9.446  70.002  1.00  0.00    -0.266 A  
HETATM    6  C   UNL     1      -9.982  10.449  69.127  1.00  0.00    -0.237 A  
HETATM    7  C   UNL     1      -9.537  10.145  67.826  1.00  0.00    -0.168 A  
HETATM    8  C   UNL     1      -9.508   8.786  67.472  1.00  0.00    -0.173 A  
BRANCH   7   9
HETATM    9  C   UNL     1      -9.126  11.281  66.870  1.00  0.00    -0.167 C  
HETATM   10  O   UNL     1      -8.250  12.128  67.635  1.00  0.00    -0.143 OA 
HETATM   11  C   UNL     1      -8.308  10.840  65.629  1.00  0.00    -0.144 C  
HETATM   12  C   UNL     1      -9.122  10.172  64.517  1.00  0.00    -0.280 C  
HETATM   13  H   UNL     1      -7.997  12.828  67.045  1.00  0.00     0.000 HD 
HETATM   14  C   UNL     1     -10.448  10.856  64.199  1.00  0.00    -0.397 C  
HETATM   15  C   UNL     1     -11.220  11.288  65.443  1.00  0.00    -0.066 C  
HETATM   16  C   UNL     1     -10.361  12.130  66.405  1.00  0.00    -0.246 C  
BRANCH  16  17
HETATM   17  C   UNL     1      -9.934  13.494  65.778  1.00  0.00    -0.252 C  
BRANCH  17  18
HETATM   18  N   UNL     1     -10.789  14.657  66.112  1.00  0.00    -0.314 NA 
HETATM   19  C   UNL     1     -10.772  15.664  65.050  1.00  0.00    -0.436 C  
HETATM   20  C   UNL     1     -12.165  14.204  66.345  1.00  0.00    -0.446 C  
ENDBRANCH  17  18
ENDBRANCH  16  17
ENDBRANCH   7   9
ENDBRANCH   2   3
TORSDOF 4
ENDMDL
MODEL      178
REMARK 921   NORMALIZED FREE ENERGY PREDICTED BY IDOCK:   -2.95 KCAL/MOL
REMARK 922        TOTAL FREE ENERGY PREDICTED BY IDOCK:   -4.48 KCAL/MOL
REMARK 923 INTER-LIGAND FREE ENERGY PREDICTED BY IDOCK:   -3.79 KCAL/MOL
REMARK 924 INTRA-LIGAND FREE ENERGY PREDICTED BY IDOCK:   -0.69 KCAL/MOL
REMARK 927      BINDING AFFINITY PREDICTED BY RF-SCORE:    0.00 PKD
ROOT
HETATM    1  C   UNL     1     -11.602  13.354  65.570  1.00  0.00    -0.325 C  
HETATM    2  O   UNL     1     -11.722  14.652  66.134  1.00  0.00    -0.365 OA 
ENDROOT
BRANCH   2   3
HETATM    3  C   UNL     1     -11.231  14.833  67.399  1.00  0.00    -0.339 A  
HETATM    4  C   UNL     1     -11.911  14.628  68.588  1.00  0.00    -0.305 A  
HETATM    5  C   UNL     1     -11.271  14.887  69.803  1.00  0.00    -0.308 A  
HETATM    6  C   UNL     1      -9.960  15.375  69.823  1.00  0.00    -0.251 A  
HETATM    7  C   UNL     1      -9.247  15.612  68.632  1.00  0.00    -0.205 A  
HETATM    8  C   UNL     1      -9.903  15.292  67.431  1.00  0.00    -0.217 A  
BRANCH   7   9
HETATM    9  C   UNL     1      -7.828  16.209  68.691  1.00  0.00    -0.188 C  
HETATM   10  O   UNL     1      -8.016  17.632  68.789  1.00  0.00    -0.285 OA 
HETATM   11  C   UNL     1      -6.991  15.808  69.933  1.00  0.00    -0.010 C  
HETATM   12  C   UNL     1      -6.414  14.390  69.898  1.00  0.00    -0.152 C  
HETATM   13  H   UNL     1      -7.140  18.000  68.825  1.00  0.00     0.000 HD 
HETATM   14  C   UNL     1      -5.808  13.982  68.559  1.00  0.00    -0.093 C  
HETATM   15  C   UNL     1      -6.651  14.403  67.359  1.00  0.00     0.043 C  
HETATM   16  C   UNL     1      -7.009  15.901  67.389  1.00  0.00    -0.233 C  
BRANCH  16  17
HETATM   17  C   UNL     1      -5.749  16.812  67.257  1.00  0.00    -0.162 C  
BRANCH  17  18
HETATM   18  N   UNL     1      -5.828  17.885  66.239  1.00  0.00    -0.172 NA 
HETATM   19  C   UNL     1      -7.137  17.913  65.583  1.00  0.00    -0.063 C  
HETATM   20  C   UNL     1      -5.561  19.183  66.870  1.00  0.00    -0.159 C  
ENDBRANCH  17  18
ENDBRANCH  16  17
ENDBRANCH   7   9
ENDBRANCH   2   3
TORSDOF 4
ENDMDL
MODEL      179
REMARK 921   NORMALIZED FREE ENERGY PREDICTED BY IDOCK:   -2.93 KCAL/MOL
REMARK 922        TOTAL FREE ENERGY PREDICTED BY IDOCK:   -4.47 KCAL/MOL
REMARK 923 INTER-LIGAND FREE ENERGY PREDICTED BY IDOCK:   -4.28 KCAL/MOL
REMARK 924 INTRA-LIGAND FREE ENERGY PREDICTED BY IDOCK:   -0.18 KCAL/MOL
REMARK 927      BINDING AFFINITY PREDICTED BY RF-SCORE:    0.00 PKD
ROOT
HETATM    1  C   UNL     1      -9.607  11.906  68.061  1.00  0.00    -0.193 C  
HETATM    2  O   UNL     1      -8.660  12.198  67.044  1.00  0.00    -0.180 OA 
ENDROOT
BRANCH   2   3
HETATM    3  C   UNL     1      -7.632  13.042  67.369  1.00  0.00    -0.137 A  
HETATM    4  C   UNL     1      -6.339  12.679  67.708  1.00  0.00    -0.130 A  
HETATM    5  C   UNL     1      -5.409  13.667  68.042  1.00  0.00    -0.112 A  
HETATM    6  C   UNL     1      -5.784  15.015  68.059  1.00  0.00    -0.149 A  
HETATM    7  C   UNL     1      -7.096  15.416  67.738  1.00  0.00    -0.185 A  
HETATM    8  C   UNL     1      -7.989  14.401  67.357  1.00  0.00    -0.220 A  
BRANCH   7   9
HETATM    9  C   UNL     1      -7.489  16.903  67.830  1.00  0.00    -0.164 C  
HETATM   10  O   UNL     1      -8.773  16.920  68.478  1.00  0.00    -0.234 OA 
HETATM   11  C   UNL     1      -6.562  17.782  68.708  1.00  0.00    -0.227 C  
HETATM   12  C   UNL     1      -5.222  18.156  68.068  1.00  0.00    -0.156 C  
HETATM   13  H   UNL     1      -9.015  17.837  68.534  1.00  0.00     0.000 HD 
HETATM   14  C   UNL     1      -5.311  18.583  66.607  1.00  0.00    -0.160 C  
HETATM   15  C   UNL     1      -6.241  17.705  65.775  1.00  0.00    -0.134 C  
HETATM   16  C   UNL     1      -7.636  17.558  66.412  1.00  0.00    -0.329 C  
BRANCH  16  17
HETATM   17  C   UNL     1      -8.406  18.914  66.467  1.00  0.00    -0.302 C  
BRANCH  17  18
HETATM   18  N   UNL     1      -9.816  18.878  66.014  1.00  0.00    -0.498 NA 
HETATM   19  C   UNL     1     -10.358  17.517  66.037  1.00  0.00    -0.306 C  
HETATM   20  C   UNL     1     -10.629  19.750  66.870  1.00  0.00    -0.466 C  
ENDBRANCH  17  18
ENDBRANCH  16  17
ENDBRANCH   7   9
ENDBRANCH   2   3
TORSDOF 4
ENDMDL
MODEL      180
REMARK 921   NORMALIZED FREE ENERGY PREDICTED BY IDOCK:   -2.91 KCAL/MOL
REMARK 922        TOTAL FREE ENERGY PREDICTED BY IDOCK:   -4.43 KCAL/MOL
REMARK 923 INTER-LIGAND FREE ENERGY PREDICTED BY IDOCK:   -4.14 KCAL/MOL
REMARK 924 INTRA-LIGAND FREE ENERGY PREDICTED BY IDOCK:   -0.30 KCAL/MOL
REMARK 927      BINDING AFFINITY PREDICTED BY RF-SCORE:    0.00 PKD
ROOT
HETATM    1  C   UNL     1      -5.125  13.165  67.294  1.00  0.00     0.241 C  
HETATM    2  O   UNL     1      -6.154  12.829  68.213  1.00  0.00    -0.063 OA 
ENDROOT
BRANCH   2   3
HETATM    3  C   UNL     1      -7.149  13.749  68.404  1.00  0.00    -0.105 A  
HETATM    4  C   UNL     1      -6.989  15.108  68.620  1.00  0.00    -0.113 A  
HETATM    5  C   UNL     1      -8.113  15.912  68.826  1.00  0.00    -0.190 A  
HETATM    6  C   UNL     1      -9.394  15.349  68.839  1.00  0.00    -0.218 A  
HETATM    7  C   UNL     1      -9.590  13.968  68.641  1.00  0.00    -0.159 A  
HETATM    8  C   UNL     1      -8.442  13.199  68.386  1.00  0.00    -0.126 A  
BRANCH   7   9
HETATM    9  C   UNL     1     -11.009  13.374  68.724  1.00  0.00    -0.257 C  
HETATM   10  O   UNL     1     -11.435  13.590  70.082  1.00  0.00    -0.492 OA 
HETATM   11  C   UNL     1     -12.072  14.066  67.834  1.00  0.00    -0.314 C  
HETATM   12  C   UNL     1     -11.995  13.723  66.343  1.00  0.00    -0.473 C  
HETATM   13  H   UNL     1     -12.310  13.223  70.133  1.00  0.00     0.000 HD 
HETATM   14  C   UNL     1     -11.772  12.245  66.041  1.00  0.00    -0.451 C  
HETATM   15  C   UNL     1     -10.729  11.592  66.944  1.00  0.00    -0.295 C  
HETATM   16  C   UNL     1     -11.015  11.831  68.439  1.00  0.00    -0.274 C  
BRANCH  16  17
HETATM   17  C   UNL     1     -12.341  11.152  68.903  1.00  0.00     0.118 C  
BRANCH  17  18
HETATM   18  N   UNL     1     -12.253  10.329  70.132  1.00  0.00    -0.219 NA 
HETATM   19  C   UNL     1     -10.891   9.843  70.361  1.00  0.00    -0.319 C  
HETATM   20  C   UNL     1     -12.698  11.121  71.285  1.00  0.00    -0.426 C  
ENDBRANCH  17  18
ENDBRANCH  16  17
ENDBRANCH   7   9
ENDBRANCH   2   3
TORSDOF 4
ENDMDL
MODEL      181
REMARK 921   NORMALIZED FREE ENERGY PREDICTED BY IDOCK:   -2.89 KCAL/MOL
REMARK 922        TOTAL FREE ENERGY PREDICTED BY IDOCK:   -4.41 KCAL/MOL
REMARK 923 INTER-LIGAND FREE ENERGY PREDICTED BY IDOCK:   -4.09 KCAL/MOL
REMARK 924 INTRA-LIGAND FREE ENERGY PREDICTED BY IDOCK:   -0.33 KCAL/MOL
REMARK 927      BINDING AFFINITY PREDICTED BY RF-SCORE:    0.00 PKD
ROOT
HETATM    1  C   UNL     1     -13.310  11.919  72.195  1.00  0.00    -0.256 C  
HETATM    2  O   UNL     1     -13.414  12.993  71.271  1.00  0.00    -0.113 OA 
ENDROOT
BRANCH   2   3
HETATM    3  C   UNL     1     -12.499  13.034  70.254  1.00  0.00    -0.147 A  
HETATM    4  C   UNL     1     -12.077  14.161  69.566  1.00  0.00    -0.388 A  
HETATM    5  C   UNL     1     -11.151  14.029  68.528  1.00  0.00    -0.279 A  
HETATM    6  C   UNL     1     -10.669  12.766  68.164  1.00  0.00    -0.243 A  
HETATM    7  C   UNL     1     -11.092  11.600  68.831  1.00  0.00    -0.287 A  
HETATM    8  C   UNL     1     -11.984  11.775  69.903  1.00  0.00    -0.405 A  
BRANCH   7   9
HETATM    9  C   UNL     1     -10.588  10.222  68.363  1.00  0.00    -0.216 C  
HETATM   10  O   UNL     1     -11.581   9.745  67.436  1.00  0.00    -0.222 OA 
HETATM   11  C   UNL     1      -9.252  10.235  67.577  1.00  0.00    -0.153 C  
HETATM   12  C   UNL     1      -7.997  10.425  68.433  1.00  0.00    -0.110 C  
HETATM   13  H   UNL     1     -11.270   8.895  67.148  1.00  0.00     0.000 HD 
HETATM   14  C   UNL     1      -7.973   9.607  69.720  1.00  0.00    -0.154 C  
HETATM   15  C   UNL     1      -9.307   9.605  70.460  1.00  0.00    -0.227 C  
HETATM   16  C   UNL     1     -10.483   9.202  69.551  1.00  0.00    -0.226 C  
BRANCH  16  17
HETATM   17  C   UNL     1     -10.368   7.728  69.052  1.00  0.00    -0.211 C  
BRANCH  17  18
HETATM   18  N   UNL     1      -9.331   6.900  69.711  1.00  0.00    -0.147 NA 
HETATM   19  C   UNL     1      -9.912   5.999  70.709  1.00  0.00    -0.191 C  
HETATM   20  C   UNL     1      -8.609   6.120  68.699  1.00  0.00    -0.113 C  
ENDBRANCH  17  18
ENDBRANCH  16  17
ENDBRANCH   7   9
ENDBRANCH   2   3
TORSDOF 4
ENDMDL
MODEL      182
REMARK 921   NORMALIZED FREE ENERGY PREDICTED BY IDOCK:   -2.89 KCAL/MOL
REMARK 922        TOTAL FREE ENERGY PREDICTED BY IDOCK:   -4.41 KCAL/MOL
REMARK 923 INTER-LIGAND FREE ENERGY PREDICTED BY IDOCK:   -3.81 KCAL/MOL
REMARK 924 INTRA-LIGAND FREE ENERGY PREDICTED BY IDOCK:   -0.61 KCAL/MOL
REMARK 927      BINDING AFFINITY PREDICTED BY RF-SCORE:    0.00 PKD
ROOT
HETATM    1  C   UNL     1      -7.587  14.529  67.362  1.00  0.00    -0.184 C  
HETATM    2  O   UNL     1      -8.977  14.301  67.546  1.00  0.00    -0.179 OA 
ENDROOT
BRANCH   2   3
HETATM    3  C   UNL     1      -9.501  13.157  67.006  1.00  0.00    -0.242 A  
HETATM    4  C   UNL     1     -10.539  13.074  66.093  1.00  0.00    -0.289 A  
HETATM    5  C   UNL     1     -10.977  11.820  65.657  1.00  0.00    -0.348 A  
HETATM    6  C   UNL     1     -10.389  10.652  66.156  1.00  0.00    -0.291 A  
HETATM    7  C   UNL     1      -9.344  10.702  67.099  1.00  0.00    -0.172 A  
HETATM    8  C   UNL     1      -8.895  11.979  67.475  1.00  0.00    -0.172 A  
BRANCH   7   9
HETATM    9  C   UNL     1      -8.764   9.395  67.672  1.00  0.00    -0.116 C  
HETATM   10  O   UNL     1      -8.093   8.758  66.570  1.00  0.00    -0.101 OA 
HETATM   11  C   UNL     1      -7.687   9.574  68.773  1.00  0.00    -0.080 C  
HETATM   12  C   UNL     1      -8.226   9.963  70.153  1.00  0.00    -0.162 C  
HETATM   13  H   UNL     1      -7.736   7.952  66.925  1.00  0.00     0.000 HD 
HETATM   14  C   UNL     1      -9.468   9.193  70.592  1.00  0.00    -0.316 C  
HETATM   15  C   UNL     1     -10.500   9.025  69.481  1.00  0.00    -0.223 C  
HETATM   16  C   UNL     1      -9.889   8.435  68.196  1.00  0.00    -0.196 C  
BRANCH  16  17
HETATM   17  C   UNL     1      -9.370   6.978  68.403  1.00  0.00    -0.130 C  
BRANCH  17  18
HETATM   18  N   UNL     1     -10.367   5.900  68.208  1.00  0.00    -0.192 NA 
HETATM   19  C   UNL     1     -10.686   5.707  66.792  1.00  0.00    -0.284 C  
HETATM   20  C   UNL     1      -9.854   4.648  68.776  1.00  0.00    -0.131 C  
ENDBRANCH  17  18
ENDBRANCH  16  17
ENDBRANCH   7   9
ENDBRANCH   2   3
TORSDOF 4
ENDMDL
MODEL      183
REMARK 921   NORMALIZED FREE ENERGY PREDICTED BY IDOCK:   -2.87 KCAL/MOL
REMARK 922        TOTAL FREE ENERGY PREDICTED BY IDOCK:   -4.39 KCAL/MOL
REMARK 923 INTER-LIGAND FREE ENERGY PREDICTED BY IDOCK:   -3.52 KCAL/MOL
REMARK 924 INTRA-LIGAND FREE ENERGY PREDICTED BY IDOCK:   -0.87 KCAL/MOL
REMARK 927      BINDING AFFINITY PREDICTED BY RF-SCORE:    0.00 PKD
ROOT
HETATM    1  C   UNL     1     -10.251  11.193  63.986  1.00  0.00    -0.361 C  
HETATM    2  O   UNL     1     -10.530  10.561  65.226  1.00  0.00    -0.262 OA 
ENDROOT
BRANCH   2   3
HETATM    3  C   UNL     1      -9.468  10.040  65.917  1.00  0.00    -0.205 A  
HETATM    4  C   UNL     1      -8.334   9.458  65.374  1.00  0.00    -0.143 A  
HETATM    5  C   UNL     1      -7.348   8.947  66.222  1.00  0.00    -0.087 A  
HETATM    6  C   UNL     1      -7.512   8.997  67.611  1.00  0.00    -0.085 A  
HETATM    7  C   UNL     1      -8.661   9.565  68.194  1.00  0.00    -0.120 A  
HETATM    8  C   UNL     1      -9.607  10.116  67.313  1.00  0.00    -0.189 A  
BRANCH   7   9
HETATM    9  C   UNL     1      -8.836   9.547  69.724  1.00  0.00    -0.199 C  
HETATM   10  O   UNL     1      -7.996  10.606  70.218  1.00  0.00    -0.360 OA 
HETATM   11  C   UNL     1     -10.264   9.871  70.233  1.00  0.00    -0.322 C  
HETATM   12  C   UNL     1     -11.281   8.736  70.084  1.00  0.00    -0.162 C  
HETATM   13  H   UNL     1      -8.104  10.594  71.162  1.00  0.00     0.000 HD 
HETATM   14  C   UNL     1     -10.759   7.358  70.478  1.00  0.00    -0.247 C  
HETATM   15  C   UNL     1      -9.347   7.077  69.972  1.00  0.00    -0.158 C  
HETATM   16  C   UNL     1      -8.355   8.192  70.352  1.00  0.00    -0.120 C  
BRANCH  16  17
HETATM   17  C   UNL     1      -8.149   8.300  71.895  1.00  0.00    -0.141 C  
BRANCH  17  18
HETATM   18  N   UNL     1      -6.782   8.655  72.345  1.00  0.00    -0.210 NA 
HETATM   19  C   UNL     1      -6.495   8.123  73.678  1.00  0.00    -0.116 C  
HETATM   20  C   UNL     1      -5.800   8.141  71.383  1.00  0.00    -0.035 C  
ENDBRANCH  17  18
ENDBRANCH  16  17
ENDBRANCH   7   9
ENDBRANCH   2   3
TORSDOF 4
ENDMDL
MODEL      184
REMARK 921   NORMALIZED FREE ENERGY PREDICTED BY IDOCK:   -2.86 KCAL/MOL
REMARK 922        TOTAL FREE ENERGY PREDICTED BY IDOCK:   -4.38 KCAL/MOL
REMARK 923 INTER-LIGAND FREE ENERGY PREDICTED BY IDOCK:   -4.08 KCAL/MOL
REMARK 924 INTRA-LIGAND FREE ENERGY PREDICTED BY IDOCK:   -0.30 KCAL/MOL
REMARK 927      BINDING AFFINITY PREDICTED BY RF-SCORE:    0.00 PKD
ROOT
HETATM    1  C   UNL     1      -9.519  12.863  68.156  1.00  0.00    -0.218 C  
HETATM    2  O   UNL     1     -10.902  12.561  68.270  1.00  0.00    -0.216 OA 
ENDROOT
BRANCH   2   3
HETATM    3  C   UNL     1     -11.296  11.830  69.359  1.00  0.00    -0.272 A  
HETATM    4  C   UNL     1     -12.274  12.175  70.277  1.00  0.00    -0.344 A  
HETATM    5  C   UNL     1     -12.539  11.326  71.355  1.00  0.00    -0.456 A  
HETATM    6  C   UNL     1     -11.807  10.146  71.524  1.00  0.00    -0.356 A  
HETATM    7  C   UNL     1     -10.793   9.776  70.619  1.00  0.00    -0.396 A  
HETATM    8  C   UNL     1     -10.590  10.626  69.519  1.00  0.00    -0.265 A  
BRANCH   7   9
HETATM    9  C   UNL     1      -9.966   8.501  70.871  1.00  0.00    -0.191 C  
HETATM   10  O   UNL     1     -10.435   7.983  72.129  1.00  0.00    -0.227 OA 
HETATM   11  C   UNL     1     -10.173   7.360  69.842  1.00  0.00    -0.212 C  
HETATM   12  C   UNL     1      -9.478   7.567  68.493  1.00  0.00    -0.146 C  
HETATM   13  H   UNL     1      -9.924   7.197  72.284  1.00  0.00     0.000 HD 
HETATM   14  C   UNL     1      -8.049   8.093  68.587  1.00  0.00    -0.124 C  
HETATM   15  C   UNL     1      -7.879   9.205  69.617  1.00  0.00    -0.084 C  
HETATM   16  C   UNL     1      -8.434   8.814  71.000  1.00  0.00    -0.219 C  
BRANCH  16  17
HETATM   17  C   UNL     1      -7.644   7.631  71.641  1.00  0.00    -0.085 C  
BRANCH  17  18
HETATM   18  N   UNL     1      -7.468   7.689  73.112  1.00  0.00    -0.092 NA 
HETATM   19  C   UNL     1      -7.681   6.381  73.734  1.00  0.00    -0.091 C  
HETATM   20  C   UNL     1      -6.119   8.174  73.426  1.00  0.00    -0.085 C  
ENDBRANCH  17  18
ENDBRANCH  16  17
ENDBRANCH   7   9
ENDBRANCH   2   3
TORSDOF 4
ENDMDL
MODEL      185
REMARK 921   NORMALIZED FREE ENERGY PREDICTED BY IDOCK:   -2.86 KCAL/MOL
REMARK 922        TOTAL FREE ENERGY PREDICTED BY IDOCK:   -4.37 KCAL/MOL
REMARK 923 INTER-LIGAND FREE ENERGY PREDICTED BY IDOCK:   -4.17 KCAL/MOL
REMARK 924 INTRA-LIGAND FREE ENERGY PREDICTED BY IDOCK:   -0.20 KCAL/MOL
REMARK 927      BINDING AFFINITY PREDICTED BY RF-SCORE:    0.00 PKD
ROOT
HETATM    1  C   UNL     1      -6.752   8.836  71.480  1.00  0.00    -0.081 C  
HETATM    2  O   UNL     1      -7.884   8.983  72.325  1.00  0.00    -0.353 OA 
ENDROOT
BRANCH   2   3
HETATM    3  C   UNL     1      -9.074   8.481  71.871  1.00  0.00    -0.244 A  
HETATM    4  C   UNL     1     -10.151   8.081  72.644  1.00  0.00    -0.370 A  
HETATM    5  C   UNL     1     -11.291   7.561  72.024  1.00  0.00    -0.314 A  
HETATM    6  C   UNL     1     -11.338   7.421  70.632  1.00  0.00    -0.304 A  
HETATM    7  C   UNL     1     -10.253   7.802  69.820  1.00  0.00    -0.211 A  
HETATM    8  C   UNL     1      -9.145   8.368  70.472  1.00  0.00    -0.163 A  
BRANCH   7   9
HETATM    9  C   UNL     1     -10.317   7.575  68.297  1.00  0.00    -0.195 C  
HETATM   10  O   UNL     1     -11.529   6.834  68.071  1.00  0.00    -0.547 OA 
HETATM   11  C   UNL     1     -10.442   8.860  67.439  1.00  0.00    -0.347 C  
HETATM   12  C   UNL     1      -9.150   9.667  67.284  1.00  0.00    -0.150 C  
HETATM   13  H   UNL     1     -11.568   6.694  67.132  1.00  0.00     0.000 HD 
HETATM   14  C   UNL     1      -7.906   8.830  67.004  1.00  0.00    -0.095 C  
HETATM   15  C   UNL     1      -7.821   7.568  67.857  1.00  0.00    -0.117 C  
HETATM   16  C   UNL     1      -9.106   6.721  67.781  1.00  0.00    -0.117 C  
BRANCH  16  17
HETATM   17  C   UNL     1      -9.355   6.151  66.350  1.00  0.00    -0.152 C  
BRANCH  17  18
HETATM   18  N   UNL     1      -9.228   4.682  66.206  1.00  0.00    -0.127 NA 
HETATM   19  C   UNL     1      -7.925   4.303  65.654  1.00  0.00    -0.094 C  
HETATM   20  C   UNL     1      -9.418   4.042  67.513  1.00  0.00    -0.188 C  
ENDBRANCH  17  18
ENDBRANCH  16  17
ENDBRANCH   7   9
ENDBRANCH   2   3
TORSDOF 4
ENDMDL
MODEL      186
REMARK 921   NORMALIZED FREE ENERGY PREDICTED BY IDOCK:   -2.85 KCAL/MOL
REMARK 922        TOTAL FREE ENERGY PREDICTED BY IDOCK:   -4.36 KCAL/MOL
REMARK 923 INTER-LIGAND FREE ENERGY PREDICTED BY IDOCK:   -3.84 KCAL/MOL
REMARK 924 INTRA-LIGAND FREE ENERGY PREDICTED BY IDOCK:   -0.53 KCAL/MOL
REMARK 927      BINDING AFFINITY PREDICTED BY RF-SCORE:    0.00 PKD
ROOT
HETATM    1  C   UNL     1      -7.413   8.865  66.183  1.00  0.00    -0.090 C  
HETATM    2  O   UNL     1      -8.577   9.564  65.771  1.00  0.00    -0.129 OA 
ENDROOT
BRANCH   2   3
HETATM    3  C   UNL     1      -9.527   9.817  66.724  1.00  0.00    -0.163 A  
HETATM    4  C   UNL     1     -10.520  10.781  66.668  1.00  0.00    -0.302 A  
HETATM    5  C   UNL     1     -11.400  10.929  67.743  1.00  0.00    -0.366 A  
HETATM    6  C   UNL     1     -11.267  10.128  68.882  1.00  0.00    -0.220 A  
HETATM    7  C   UNL     1     -10.257   9.151  68.979  1.00  0.00    -0.219 A  
HETATM    8  C   UNL     1      -9.424   8.994  67.859  1.00  0.00    -0.159 A  
BRANCH   7   9
HETATM    9  C   UNL     1     -10.103   8.331  70.273  1.00  0.00    -0.192 C  
HETATM   10  O   UNL     1     -10.061   9.299  71.337  1.00  0.00    -0.314 OA 
HETATM   11  C   UNL     1     -11.288   7.389  70.608  1.00  0.00    -0.304 C  
HETATM   12  C   UNL     1     -11.351   6.104  69.778  1.00  0.00    -0.452 C  
HETATM   13  H   UNL     1      -9.965   8.792  72.136  1.00  0.00     0.000 HD 
HETATM   14  C   UNL     1     -10.011   5.402  69.588  1.00  0.00    -0.297 C  
HETATM   15  C   UNL     1      -8.865   6.359  69.273  1.00  0.00    -0.128 C  
HETATM   16  C   UNL     1      -8.766   7.511  70.291  1.00  0.00    -0.145 C  
BRANCH  16  17
HETATM   17  C   UNL     1      -8.404   7.005  71.722  1.00  0.00    -0.110 C  
BRANCH  17  18
HETATM   18  N   UNL     1      -7.649   7.954  72.574  1.00  0.00    -0.098 NA 
HETATM   19  C   UNL     1      -7.139   7.307  73.785  1.00  0.00    -0.079 C  
HETATM   20  C   UNL     1      -6.535   8.522  71.807  1.00  0.00    -0.070 C  
ENDBRANCH  17  18
ENDBRANCH  16  17
ENDBRANCH   7   9
ENDBRANCH   2   3
TORSDOF 4
ENDMDL
MODEL      187
REMARK 921   NORMALIZED FREE ENERGY PREDICTED BY IDOCK:   -2.80 KCAL/MOL
REMARK 922        TOTAL FREE ENERGY PREDICTED BY IDOCK:   -4.30 KCAL/MOL
REMARK 923 INTER-LIGAND FREE ENERGY PREDICTED BY IDOCK:   -3.46 KCAL/MOL
REMARK 924 INTRA-LIGAND FREE ENERGY PREDICTED BY IDOCK:   -0.84 KCAL/MOL
REMARK 927      BINDING AFFINITY PREDICTED BY RF-SCORE:    0.00 PKD
ROOT
HETATM    1  C   UNL     1      -8.522   9.302  62.915  1.00  0.00    -0.212 C  
HETATM    2  O   UNL     1      -7.911   8.142  63.460  1.00  0.00    -0.149 OA 
ENDROOT
BRANCH   2   3
HETATM    3  C   UNL     1      -8.373   7.702  64.672  1.00  0.00     0.003 A  
HETATM    4  C   UNL     1      -8.421   6.388  65.111  1.00  0.00    -0.072 A  
HETATM    5  C   UNL     1      -8.950   6.101  66.372  1.00  0.00    -0.156 A  
HETATM    6  C   UNL     1      -9.452   7.128  67.180  1.00  0.00    -0.180 A  
HETATM    7  C   UNL     1      -9.434   8.470  66.756  1.00  0.00    -0.253 A  
HETATM    8  C   UNL     1      -8.848   8.728  65.505  1.00  0.00    -0.229 A  
BRANCH   7   9
HETATM    9  C   UNL     1     -10.052   9.566  67.645  1.00  0.00    -0.205 C  
HETATM   10  O   UNL     1     -11.240   9.994  66.956  1.00  0.00    -0.127 OA 
HETATM   11  C   UNL     1     -10.525   9.096  69.045  1.00  0.00    -0.238 C  
HETATM   12  C   UNL     1      -9.407   8.870  70.067  1.00  0.00    -0.184 C  
HETATM   13  H   UNL     1     -11.621  10.669  67.504  1.00  0.00     0.000 HD 
HETATM   14  C   UNL     1      -8.332   9.952  70.085  1.00  0.00    -0.156 C  
HETATM   15  C   UNL     1      -7.900  10.400  68.691  1.00  0.00    -0.108 C  
HETATM   16  C   UNL     1      -9.096  10.799  67.806  1.00  0.00    -0.151 C  
BRANCH  16  17
HETATM   17  C   UNL     1      -9.843  12.056  68.352  1.00  0.00    -0.204 C  
BRANCH  17  18
HETATM   18  N   UNL     1     -10.526  12.895  67.340  1.00  0.00    -0.232 NA 
HETATM   19  C   UNL     1     -11.858  13.306  67.788  1.00  0.00    -0.353 C  
HETATM   20  C   UNL     1      -9.711  14.081  67.054  1.00  0.00    -0.256 C  
ENDBRANCH  17  18
ENDBRANCH  16  17
ENDBRANCH   7   9
ENDBRANCH   2   3
TORSDOF 4
ENDMDL
MODEL      188
REMARK 921   NORMALIZED FREE ENERGY PREDICTED BY IDOCK:   -2.78 KCAL/MOL
REMARK 922        TOTAL FREE ENERGY PREDICTED BY IDOCK:   -4.28 KCAL/MOL
REMARK 923 INTER-LIGAND FREE ENERGY PREDICTED BY IDOCK:   -3.65 KCAL/MOL
REMARK 924 INTRA-LIGAND FREE ENERGY PREDICTED BY IDOCK:   -0.63 KCAL/MOL
REMARK 927      BINDING AFFINITY PREDICTED BY RF-SCORE:    0.00 PKD
ROOT
HETATM    1  C   UNL     1     -10.554   3.724  64.359  1.00  0.00    -0.196 C  
HETATM    2  O   UNL     1     -11.010   4.607  65.374  1.00  0.00    -0.242 OA 
ENDROOT
BRANCH   2   3
HETATM    3  C   UNL     1     -10.404   4.520  66.598  1.00  0.00    -0.079 A  
HETATM    4  C   UNL     1      -9.708   3.433  67.101  1.00  0.00     0.001 A  
HETATM    5  C   UNL     1      -9.169   3.494  68.389  1.00  0.00    -0.225 A  
HETATM    6  C   UNL     1      -9.349   4.635  69.179  1.00  0.00    -0.206 A  
HETATM    7  C   UNL     1     -10.068   5.750  68.705  1.00  0.00    -0.227 A  
HETATM    8  C   UNL     1     -10.550   5.673  67.387  1.00  0.00    -0.312 A  
BRANCH   7   9
HETATM    9  C   UNL     1     -10.300   6.963  69.625  1.00  0.00    -0.206 C  
HETATM   10  O   UNL     1     -11.729   7.091  69.736  1.00  0.00    -0.556 OA 
HETATM   11  C   UNL     1      -9.778   6.805  71.076  1.00  0.00    -0.182 C  
HETATM   12  C   UNL     1      -8.262   6.946  71.241  1.00  0.00    -0.114 C  
HETATM   13  H   UNL     1     -11.872   7.839  70.303  1.00  0.00     0.000 HD 
HETATM   14  C   UNL     1      -7.642   8.100  70.460  1.00  0.00    -0.079 C  
HETATM   15  C   UNL     1      -8.187   8.234  69.041  1.00  0.00    -0.119 C  
HETATM   16  C   UNL     1      -9.726   8.285  69.007  1.00  0.00    -0.167 C  
BRANCH  16  17
HETATM   17  C   UNL     1     -10.291   9.558  69.711  1.00  0.00    -0.230 C  
BRANCH  17  18
HETATM   18  N   UNL     1     -10.978  10.534  68.834  1.00  0.00    -0.230 NA 
HETATM   19  C   UNL     1     -10.275  11.818  68.797  1.00  0.00    -0.160 C  
HETATM   20  C   UNL     1     -11.082   9.986  67.476  1.00  0.00    -0.120 C  
ENDBRANCH  17  18
ENDBRANCH  16  17
ENDBRANCH   7   9
ENDBRANCH   2   3
TORSDOF 4
ENDMDL
MODEL      189
REMARK 921   NORMALIZED FREE ENERGY PREDICTED BY IDOCK:   -2.77 KCAL/MOL
REMARK 922        TOTAL FREE ENERGY PREDICTED BY IDOCK:   -4.27 KCAL/MOL
REMARK 923 INTER-LIGAND FREE ENERGY PREDICTED BY IDOCK:   -4.52 KCAL/MOL
REMARK 924 INTRA-LIGAND FREE ENERGY PREDICTED BY IDOCK:    0.25 KCAL/MOL
REMARK 927      BINDING AFFINITY PREDICTED BY RF-SCORE:    0.00 PKD
ROOT
HETATM    1  C   UNL     1     -11.524  10.981  68.770  1.00  0.00    -0.305 C  
HETATM    2  O   UNL     1     -11.887  11.211  70.123  1.00  0.00    -0.305 OA 
ENDROOT
BRANCH   2   3
HETATM    3  C   UNL     1     -11.895  10.130  70.962  1.00  0.00    -0.383 A  
HETATM    4  C   UNL     1     -12.870   9.811  71.893  1.00  0.00    -0.520 A  
HETATM    5  C   UNL     1     -12.714   8.678  72.696  1.00  0.00    -0.268 A  
HETATM    6  C   UNL     1     -11.569   7.882  72.583  1.00  0.00    -0.435 A  
HETATM    7  C   UNL     1     -10.550   8.189  71.660  1.00  0.00    -0.292 A  
HETATM    8  C   UNL     1     -10.765   9.304  70.833  1.00  0.00    -0.371 A  
BRANCH   7   9
HETATM    9  C   UNL     1      -9.276   7.325  71.607  1.00  0.00    -0.146 C  
HETATM   10  O   UNL     1      -8.921   7.251  70.214  1.00  0.00    -0.150 OA 
HETATM   11  C   UNL     1      -8.038   7.923  72.325  1.00  0.00    -0.161 C  
HETATM   12  C   UNL     1      -8.064   7.825  73.853  1.00  0.00    -0.246 C  
HETATM   13  H   UNL     1      -8.135   6.719  70.182  1.00  0.00     0.000 HD 
HETATM   14  C   UNL     1      -8.532   6.480  74.398  1.00  0.00    -0.152 C  
HETATM   15  C   UNL     1      -9.742   5.915  73.660  1.00  0.00    -0.160 C  
HETATM   16  C   UNL     1      -9.532   5.870  72.135  1.00  0.00    -0.161 C  
BRANCH  16  17
HETATM   17  C   UNL     1      -8.392   4.886  71.724  1.00  0.00    -0.118 C  
BRANCH  17  18
HETATM   18  N   UNL     1      -8.641   4.077  70.508  1.00  0.00    -0.069 NA 
HETATM   19  C   UNL     1      -9.815   4.553  69.772  1.00  0.00    -0.225 C  
HETATM   20  C   UNL     1      -7.459   4.121  69.639  1.00  0.00    -0.053 C  
ENDBRANCH  17  18
ENDBRANCH  16  17
ENDBRANCH   7   9
ENDBRANCH   2   3
TORSDOF 4
ENDMDL
MODEL      190
REMARK 921   NORMALIZED FREE ENERGY PREDICTED BY IDOCK:   -2.77 KCAL/MOL
REMARK 922        TOTAL FREE ENERGY PREDICTED BY IDOCK:   -4.26 KCAL/MOL
REMARK 923 INTER-LIGAND FREE ENERGY PREDICTED BY IDOCK:   -3.72 KCAL/MOL
REMARK 924 INTRA-LIGAND FREE ENERGY PREDICTED BY IDOCK:   -0.55 KCAL/MOL
REMARK 927      BINDING AFFINITY PREDICTED BY RF-SCORE:    0.00 PKD
ROOT
HETATM    1  C   UNL     1     -11.786   5.919  72.007  1.00  0.00    -0.193 C  
HETATM    2  O   UNL     1     -12.514   7.050  71.552  1.00  0.00    -0.349 OA 
ENDROOT
BRANCH   2   3
HETATM    3  C   UNL     1     -11.809   8.034  70.912  1.00  0.00    -0.224 A  
HETATM    4  C   UNL     1     -11.748   9.372  71.266  1.00  0.00    -0.432 A  
HETATM    5  C   UNL     1     -10.999  10.258  70.487  1.00  0.00    -0.343 A  
HETATM    6  C   UNL     1     -10.333   9.807  69.342  1.00  0.00    -0.232 A  
HETATM    7  C   UNL     1     -10.390   8.457  68.945  1.00  0.00    -0.231 A  
HETATM    8  C   UNL     1     -11.109   7.585  69.779  1.00  0.00    -0.143 A  
BRANCH   7   9
HETATM    9  C   UNL     1      -9.697   8.009  67.644  1.00  0.00    -0.158 C  
HETATM   10  O   UNL     1     -10.742   7.454  66.825  1.00  0.00    -0.472 OA 
HETATM   11  C   UNL     1      -9.063   9.146  66.803  1.00  0.00    -0.176 C  
HETATM   12  C   UNL     1      -7.738   9.693  67.344  1.00  0.00    -0.095 C  
HETATM   13  H   UNL     1     -10.314   7.177  66.023  1.00  0.00     0.000 HD 
HETATM   14  C   UNL     1      -6.757   8.628  67.822  1.00  0.00    -0.066 C  
HETATM   15  C   UNL     1      -7.416   7.518  68.634  1.00  0.00    -0.101 C  
HETATM   16  C   UNL     1      -8.623   6.895  67.907  1.00  0.00    -0.122 C  
BRANCH  16  17
HETATM   17  C   UNL     1      -8.208   6.158  66.596  1.00  0.00    -0.110 C  
BRANCH  17  18
HETATM   18  N   UNL     1      -8.304   4.679  66.624  1.00  0.00    -0.106 NA 
HETATM   19  C   UNL     1      -7.075   4.048  66.138  1.00  0.00    -0.067 C  
HETATM   20  C   UNL     1      -8.583   4.233  67.994  1.00  0.00    -0.096 C  
ENDBRANCH  17  18
ENDBRANCH  16  17
ENDBRANCH   7   9
ENDBRANCH   2   3
TORSDOF 4
ENDMDL
MODEL      191
REMARK 921   NORMALIZED FREE ENERGY PREDICTED BY IDOCK:   -2.77 KCAL/MOL
REMARK 922        TOTAL FREE ENERGY PREDICTED BY IDOCK:   -4.26 KCAL/MOL
REMARK 923 INTER-LIGAND FREE ENERGY PREDICTED BY IDOCK:   -4.08 KCAL/MOL
REMARK 924 INTRA-LIGAND FREE ENERGY PREDICTED BY IDOCK:   -0.18 KCAL/MOL
REMARK 927      BINDING AFFINITY PREDICTED BY RF-SCORE:    0.00 PKD
ROOT
HETATM    1  C   UNL     1     -10.282  11.511  63.140  1.00  0.00    -0.345 C  
HETATM    2  O   UNL     1      -9.984  10.167  63.489  1.00  0.00    -0.123 OA 
ENDROOT
BRANCH   2   3
HETATM    3  C   UNL     1      -9.427   9.949  64.721  1.00  0.00    -0.291 A  
HETATM    4  C   UNL     1      -8.697   8.839  65.113  1.00  0.00    -0.202 A  
HETATM    5  C   UNL     1      -8.217   8.757  66.423  1.00  0.00    -0.111 A  
HETATM    6  C   UNL     1      -8.492   9.774  67.344  1.00  0.00    -0.121 A  
HETATM    7  C   UNL     1      -9.247  10.906  66.982  1.00  0.00    -0.165 A  
HETATM    8  C   UNL     1      -9.669  10.981  65.644  1.00  0.00    -0.276 A  
BRANCH   7   9
HETATM    9  C   UNL     1      -9.583  11.976  68.038  1.00  0.00    -0.199 C  
HETATM   10  O   UNL     1      -8.718  11.697  69.154  1.00  0.00    -0.367 OA 
HETATM   11  C   UNL     1      -9.276  13.438  67.624  1.00  0.00    -0.212 C  
HETATM   12  C   UNL     1     -10.278  14.061  66.647  1.00  0.00    -0.275 C  
HETATM   13  H   UNL     1      -8.925  12.357  69.805  1.00  0.00     0.000 HD 
HETATM   14  C   UNL     1     -11.742  13.782  66.972  1.00  0.00    -0.420 C  
HETATM   15  C   UNL     1     -12.005  12.338  67.388  1.00  0.00    -0.204 C  
HETATM   16  C   UNL     1     -11.072  11.874  68.523  1.00  0.00    -0.290 C  
BRANCH  16  17
HETATM   17  C   UNL     1     -11.315  12.661  69.848  1.00  0.00     0.036 C  
BRANCH  17  18
HETATM   18  N   UNL     1     -12.656  12.506  70.458  1.00  0.00    -0.163 NA 
HETATM   19  C   UNL     1     -12.632  11.577  71.590  1.00  0.00    -0.194 C  
HETATM   20  C   UNL     1     -13.148  13.816  70.902  1.00  0.00    -0.152 C  
ENDBRANCH  17  18
ENDBRANCH  16  17
ENDBRANCH   7   9
ENDBRANCH   2   3
TORSDOF 4
ENDMDL
MODEL      192
REMARK 921   NORMALIZED FREE ENERGY PREDICTED BY IDOCK:   -2.75 KCAL/MOL
REMARK 922        TOTAL FREE ENERGY PREDICTED BY IDOCK:   -4.23 KCAL/MOL
REMARK 923 INTER-LIGAND FREE ENERGY PREDICTED BY IDOCK:   -3.78 KCAL/MOL
REMARK 924 INTRA-LIGAND FREE ENERGY PREDICTED BY IDOCK:   -0.46 KCAL/MOL
REMARK 927      BINDING AFFINITY PREDICTED BY RF-SCORE:    0.00 PKD
ROOT
HETATM    1  C   UNL     1      -8.694   9.470  63.584  1.00  0.00    -0.221 C  
HETATM    2  O   UNL     1      -8.187   9.224  64.888  1.00  0.00    -0.129 OA 
ENDROOT
BRANCH   2   3
HETATM    3  C   UNL     1      -9.055   9.373  65.936  1.00  0.00    -0.195 A  
HETATM    4  C   UNL     1     -10.040  10.338  66.063  1.00  0.00    -0.311 A  
HETATM    5  C   UNL     1     -10.830  10.370  67.216  1.00  0.00    -0.324 A  
HETATM    6  C   UNL     1     -10.615   9.451  68.248  1.00  0.00    -0.256 A  
HETATM    7  C   UNL     1      -9.609   8.469  68.158  1.00  0.00    -0.158 A  
HETATM    8  C   UNL     1      -8.870   8.433  66.964  1.00  0.00    -0.146 A  
BRANCH   7   9
HETATM    9  C   UNL     1      -9.360   7.513  69.340  1.00  0.00    -0.152 C  
HETATM   10  O   UNL     1      -7.967   7.160  69.259  1.00  0.00    -0.115 OA 
HETATM   11  C   UNL     1      -9.556   8.133  70.747  1.00  0.00    -0.185 C  
HETATM   12  C   UNL     1     -11.013   8.317  71.179  1.00  0.00    -0.286 C  
HETATM   13  H   UNL     1      -7.814   6.571  69.988  1.00  0.00     0.000 HD 
HETATM   14  C   UNL     1     -11.924   7.134  70.869  1.00  0.00    -0.375 C  
HETATM   15  C   UNL     1     -11.696   6.541  69.482  1.00  0.00    -0.162 C  
HETATM   16  C   UNL     1     -10.215   6.203  69.225  1.00  0.00    -0.251 C  
BRANCH  16  17
HETATM   17  C   UNL     1      -9.693   5.075  70.168  1.00  0.00    -0.210 C  
BRANCH  17  18
HETATM   18  N   UNL     1      -8.670   4.170  69.594  1.00  0.00    -0.075 NA 
HETATM   19  C   UNL     1      -8.059   3.323  70.620  1.00  0.00    -0.052 C  
HETATM   20  C   UNL     1      -9.284   3.331  68.558  1.00  0.00    -0.175 C  
ENDBRANCH  17  18
ENDBRANCH  16  17
ENDBRANCH   7   9
ENDBRANCH   2   3
TORSDOF 4
ENDMDL
MODEL      193
REMARK 921   NORMALIZED FREE ENERGY PREDICTED BY IDOCK:   -2.72 KCAL/MOL
REMARK 922        TOTAL FREE ENERGY PREDICTED BY IDOCK:   -4.20 KCAL/MOL
REMARK 923 INTER-LIGAND FREE ENERGY PREDICTED BY IDOCK:   -3.60 KCAL/MOL
REMARK 924 INTRA-LIGAND FREE ENERGY PREDICTED BY IDOCK:   -0.61 KCAL/MOL
REMARK 927      BINDING AFFINITY PREDICTED BY RF-SCORE:    0.00 PKD
ROOT
HETATM    1  C   UNL     1      -7.240   6.567  63.478  1.00  0.00    -0.064 C  
HETATM    2  O   UNL     1      -7.474   7.587  64.438  1.00  0.00    -0.082 OA 
ENDROOT
BRANCH   2   3
HETATM    3  C   UNL     1      -8.292   7.280  65.492  1.00  0.00    -0.133 A  
HETATM    4  C   UNL     1      -9.070   6.142  65.631  1.00  0.00    -0.005 A  
HETATM    5  C   UNL     1      -9.875   5.992  66.763  1.00  0.00    -0.198 A  
HETATM    6  C   UNL     1      -9.920   6.993  67.740  1.00  0.00    -0.186 A  
HETATM    7  C   UNL     1      -9.156   8.170  67.619  1.00  0.00    -0.142 A  
HETATM    8  C   UNL     1      -8.318   8.264  66.495  1.00  0.00    -0.112 A  
BRANCH   7   9
HETATM    9  C   UNL     1      -9.278   9.278  68.682  1.00  0.00    -0.135 C  
HETATM   10  O   UNL     1      -8.824   8.680  69.911  1.00  0.00    -0.138 OA 
HETATM   11  C   UNL     1      -8.372  10.516  68.458  1.00  0.00    -0.129 C  
HETATM   12  C   UNL     1      -8.851  11.482  67.369  1.00  0.00    -0.157 C  
HETATM   13  H   UNL     1      -8.900   9.364  70.566  1.00  0.00     0.000 HD 
HETATM   14  C   UNL     1     -10.346  11.779  67.394  1.00  0.00    -0.228 C  
HETATM   15  C   UNL     1     -11.206  10.540  67.629  1.00  0.00    -0.338 C  
HETATM   16  C   UNL     1     -10.763   9.746  68.873  1.00  0.00    -0.241 C  
BRANCH  16  17
HETATM   17  C   UNL     1     -10.960  10.555  70.193  1.00  0.00    -0.270 C  
BRANCH  17  18
HETATM   18  N   UNL     1     -12.356  10.927  70.523  1.00  0.00    -0.346 NA 
HETATM   19  C   UNL     1     -12.806  10.290  71.763  1.00  0.00    -0.460 C  
HETATM   20  C   UNL     1     -12.458  12.385  70.648  1.00  0.00    -0.234 C  
ENDBRANCH  17  18
ENDBRANCH  16  17
ENDBRANCH   7   9
ENDBRANCH   2   3
TORSDOF 4
ENDMDL
MODEL      194
REMARK 921   NORMALIZED FREE ENERGY PREDICTED BY IDOCK:   -2.70 KCAL/MOL
REMARK 922        TOTAL FREE ENERGY PREDICTED BY IDOCK:   -4.18 KCAL/MOL
REMARK 923 INTER-LIGAND FREE ENERGY PREDICTED BY IDOCK:   -4.00 KCAL/MOL
REMARK 924 INTRA-LIGAND FREE ENERGY PREDICTED BY IDOCK:   -0.18 KCAL/MOL
REMARK 927      BINDING AFFINITY PREDICTED BY RF-SCORE:    0.00 PKD
ROOT
HETATM    1  C   UNL     1      -5.298  14.004  67.998  1.00  0.00    -0.104 C  
HETATM    2  O   UNL     1      -5.219  12.906  68.896  1.00  0.00    -0.066 OA 
ENDROOT
BRANCH   2   3
HETATM    3  C   UNL     1      -5.791  11.728  68.497  1.00  0.00    -0.049 A  
HETATM    4  C   UNL     1      -5.375  10.451  68.837  1.00  0.00    -0.041 A  
HETATM    5  C   UNL     1      -6.055   9.344  68.321  1.00  0.00    -0.048 A  
HETATM    6  C   UNL     1      -7.133   9.520  67.446  1.00  0.00    -0.086 A  
HETATM    7  C   UNL     1      -7.569  10.804  67.067  1.00  0.00    -0.114 A  
HETATM    8  C   UNL     1      -6.896  11.893  67.645  1.00  0.00    -0.112 A  
BRANCH   7   9
HETATM    9  C   UNL     1      -8.719  10.958  66.054  1.00  0.00    -0.186 C  
HETATM   10  O   UNL     1      -8.089  10.975  64.760  1.00  0.00    -0.363 OA 
HETATM   11  C   UNL     1      -9.730   9.783  66.014  1.00  0.00    -0.319 C  
HETATM   12  C   UNL     1     -10.730   9.747  67.173  1.00  0.00    -0.273 C  
HETATM   13  H   UNL     1      -8.799  11.070  64.135  1.00  0.00     0.000 HD 
HETATM   14  C   UNL     1     -11.335  11.099  67.535  1.00  0.00    -0.351 C  
HETATM   15  C   UNL     1     -10.315  12.234  67.552  1.00  0.00    -0.214 C  
HETATM   16  C   UNL     1      -9.496  12.307  66.250  1.00  0.00    -0.234 C  
BRANCH  16  17
HETATM   17  C   UNL     1     -10.380  12.662  65.014  1.00  0.00    -0.299 C  
BRANCH  17  18
HETATM   18  N   UNL     1     -11.814  12.907  65.291  1.00  0.00    -0.367 NA 
HETATM   19  C   UNL     1     -12.129  14.337  65.293  1.00  0.00    -0.400 C  
HETATM   20  C   UNL     1     -12.633  12.219  64.286  1.00  0.00    -0.372 C  
ENDBRANCH  17  18
ENDBRANCH  16  17
ENDBRANCH   7   9
ENDBRANCH   2   3
TORSDOF 4
ENDMDL
MODEL      195
REMARK 921   NORMALIZED FREE ENERGY PREDICTED BY IDOCK:   -2.70 KCAL/MOL
REMARK 922        TOTAL FREE ENERGY PREDICTED BY IDOCK:   -4.17 KCAL/MOL
REMARK 923 INTER-LIGAND FREE ENERGY PREDICTED BY IDOCK:   -3.69 KCAL/MOL
REMARK 924 INTRA-LIGAND FREE ENERGY PREDICTED BY IDOCK:   -0.48 KCAL/MOL
REMARK 927      BINDING AFFINITY PREDICTED BY RF-SCORE:    0.00 PKD
ROOT
HETATM    1  C   UNL     1     -11.453  11.678  67.094  1.00  0.00    -0.271 C  
HETATM    2  O   UNL     1     -11.119  10.305  67.235  1.00  0.00    -0.264 OA 
ENDROOT
BRANCH   2   3
HETATM    3  C   UNL     1      -9.975  10.006  67.924  1.00  0.00    -0.154 A  
HETATM    4  C   UNL     1      -8.859  10.815  68.065  1.00  0.00    -0.132 A  
HETATM    5  C   UNL     1      -7.755  10.349  68.783  1.00  0.00    -0.104 A  
HETATM    6  C   UNL     1      -7.760   9.063  69.335  1.00  0.00    -0.083 A  
HETATM    7  C   UNL     1      -8.870   8.208  69.192  1.00  0.00    -0.144 A  
HETATM    8  C   UNL     1      -9.983   8.729  68.511  1.00  0.00    -0.200 A  
BRANCH   7   9
HETATM    9  C   UNL     1      -8.816   6.777  69.759  1.00  0.00    -0.141 C  
HETATM   10  O   UNL     1      -7.612   6.199  69.225  1.00  0.00    -0.093 OA 
HETATM   11  C   UNL     1      -8.682   6.678  71.301  1.00  0.00    -0.129 C  
HETATM   12  C   UNL     1      -9.968   6.960  72.084  1.00  0.00    -0.176 C  
HETATM   13  H   UNL     1      -7.579   5.316  69.575  1.00  0.00     0.000 HD 
HETATM   14  C   UNL     1     -11.221   6.309  71.508  1.00  0.00    -0.344 C  
HETATM   15  C   UNL     1     -11.314   6.414  69.988  1.00  0.00    -0.496 C  
HETATM   16  C   UNL     1     -10.037   5.913  69.286  1.00  0.00    -0.251 C  
BRANCH  16  17
HETATM   17  C   UNL     1      -9.800   4.387  69.509  1.00  0.00    -0.188 C  
BRANCH  17  18
HETATM   18  N   UNL     1      -9.113   3.669  68.410  1.00  0.00    -0.133 NA 
HETATM   19  C   UNL     1      -9.402   2.234  68.436  1.00  0.00    -0.203 C  
HETATM   20  C   UNL     1      -9.527   4.236  67.121  1.00  0.00    -0.181 C  
ENDBRANCH  17  18
ENDBRANCH  16  17
ENDBRANCH   7   9
ENDBRANCH   2   3
TORSDOF 4
ENDMDL
MODEL      196
REMARK 921   NORMALIZED FREE ENERGY PREDICTED BY IDOCK:   -2.64 KCAL/MOL
REMARK 922        TOTAL FREE ENERGY PREDICTED BY IDOCK:   -4.11 KCAL/MOL
REMARK 923 INTER-LIGAND FREE ENERGY PREDICTED BY IDOCK:   -3.50 KCAL/MOL
REMARK 924 INTRA-LIGAND FREE ENERGY PREDICTED BY IDOCK:   -0.61 KCAL/MOL
REMARK 927      BINDING AFFINITY PREDICTED BY RF-SCORE:    0.00 PKD
ROOT
HETATM    1  C   UNL     1      -9.311   6.079  69.738  1.00  0.00    -0.149 C  
HETATM    2  O   UNL     1      -9.038   6.060  68.344  1.00  0.00    -0.114 OA 
ENDROOT
BRANCH   2   3
HETATM    3  C   UNL     1      -8.476   7.183  67.801  1.00  0.00    -0.120 A  
HETATM    4  C   UNL     1      -7.381   7.233  66.953  1.00  0.00    -0.092 A  
HETATM    5  C   UNL     1      -6.910   8.470  66.506  1.00  0.00    -0.071 A  
HETATM    6  C   UNL     1      -7.522   9.656  66.928  1.00  0.00    -0.091 A  
HETATM    7  C   UNL     1      -8.625   9.641  67.803  1.00  0.00    -0.125 A  
HETATM    8  C   UNL     1      -9.103   8.378  68.192  1.00  0.00    -0.138 A  
BRANCH   7   9
HETATM    9  C   UNL     1      -9.234  10.967  68.296  1.00  0.00    -0.165 C  
HETATM   10  O   UNL     1      -8.602  11.232  69.561  1.00  0.00    -0.327 OA 
HETATM   11  C   UNL     1      -8.935  12.204  67.410  1.00  0.00    -0.180 C  
HETATM   12  C   UNL     1      -9.750  12.289  66.116  1.00  0.00    -0.256 C  
HETATM   13  H   UNL     1      -8.977  12.050  69.865  1.00  0.00     0.000 HD 
HETATM   14  C   UNL     1     -11.230  11.957  66.272  1.00  0.00    -0.392 C  
HETATM   15  C   UNL     1     -11.488  10.743  67.160  1.00  0.00     0.044 C  
HETATM   16  C   UNL     1     -10.781  10.852  68.525  1.00  0.00    -0.239 C  
BRANCH  16  17
HETATM   17  C   UNL     1     -11.338  12.029  69.386  1.00  0.00    -0.251 C  
BRANCH  17  18
HETATM   18  N   UNL     1     -11.968  11.650  70.672  1.00  0.00    -0.329 NA 
HETATM   19  C   UNL     1     -12.811  12.725  71.199  1.00  0.00    -0.226 C  
HETATM   20  C   UNL     1     -12.771  10.436  70.486  1.00  0.00    -0.278 C  
ENDBRANCH  17  18
ENDBRANCH  16  17
ENDBRANCH   7   9
ENDBRANCH   2   3
TORSDOF 4
ENDMDL
MODEL      197
REMARK 921   NORMALIZED FREE ENERGY PREDICTED BY IDOCK:   -2.62 KCAL/MOL
REMARK 922        TOTAL FREE ENERGY PREDICTED BY IDOCK:   -4.08 KCAL/MOL
REMARK 923 INTER-LIGAND FREE ENERGY PREDICTED BY IDOCK:   -3.72 KCAL/MOL
REMARK 924 INTRA-LIGAND FREE ENERGY PREDICTED BY IDOCK:   -0.36 KCAL/MOL
REMARK 927      BINDING AFFINITY PREDICTED BY RF-SCORE:    0.00 PKD
ROOT
HETATM    1  C   UNL     1      -8.595   7.883  65.538  1.00  0.00    -0.116 C  
HETATM    2  O   UNL     1      -9.825   8.567  65.726  1.00  0.00    -0.070 OA 
ENDROOT
BRANCH   2   3
HETATM    3  C   UNL     1     -10.202   8.838  67.014  1.00  0.00    -0.281 A  
HETATM    4  C   UNL     1     -10.595  10.066  67.520  1.00  0.00    -0.336 A  
HETATM    5  C   UNL     1     -10.924  10.181  68.873  1.00  0.00    -0.261 A  
HETATM    6  C   UNL     1     -10.834   9.072  69.721  1.00  0.00    -0.215 A  
HETATM    7  C   UNL     1     -10.420   7.814  69.242  1.00  0.00    -0.221 A  
HETATM    8  C   UNL     1     -10.147   7.722  67.867  1.00  0.00    -0.232 A  
BRANCH   7   9
HETATM    9  C   UNL     1     -10.273   6.630  70.217  1.00  0.00    -0.188 C  
HETATM   10  O   UNL     1     -11.382   6.744  71.127  1.00  0.00    -0.266 OA 
HETATM   11  C   UNL     1     -10.396   5.224  69.577  1.00  0.00    -0.333 C  
HETATM   12  C   UNL     1      -9.166   4.756  68.794  1.00  0.00    -0.170 C  
HETATM   13  H   UNL     1     -11.291   6.014  71.728  1.00  0.00     0.000 HD 
HETATM   14  C   UNL     1      -7.832   5.032  69.478  1.00  0.00    -0.068 C  
HETATM   15  C   UNL     1      -7.750   6.420  70.108  1.00  0.00    -0.098 C  
HETATM   16  C   UNL     1      -8.940   6.712  71.041  1.00  0.00    -0.146 C  
BRANCH  16  17
HETATM   17  C   UNL     1      -8.960   5.773  72.287  1.00  0.00    -0.139 C  
BRANCH  17  18
HETATM   18  N   UNL     1      -9.220   6.429  73.590  1.00  0.00    -0.128 NA 
HETATM   19  C   UNL     1      -8.961   7.869  73.532  1.00  0.00    -0.281 C  
HETATM   20  C   UNL     1     -10.611   6.190  73.990  1.00  0.00    -0.173 C  
ENDBRANCH  17  18
ENDBRANCH  16  17
ENDBRANCH   7   9
ENDBRANCH   2   3
TORSDOF 4
ENDMDL
MODEL      198
REMARK 921   NORMALIZED FREE ENERGY PREDICTED BY IDOCK:   -2.61 KCAL/MOL
REMARK 922        TOTAL FREE ENERGY PREDICTED BY IDOCK:   -4.07 KCAL/MOL
REMARK 923 INTER-LIGAND FREE ENERGY PREDICTED BY IDOCK:   -5.15 KCAL/MOL
REMARK 924 INTRA-LIGAND FREE ENERGY PREDICTED BY IDOCK:    1.08 KCAL/MOL
REMARK 927      BINDING AFFINITY PREDICTED BY RF-SCORE:    0.00 PKD
ROOT
HETATM    1  C   UNL     1     -11.534  16.016  64.476  1.00  0.00    -0.271 C  
HETATM    2  O   UNL     1     -11.277  17.412  64.496  1.00  0.00    -1.018 OA 
ENDROOT
BRANCH   2   3
HETATM    3  C   UNL     1     -10.642  17.916  65.600  1.00  0.00    -0.109 A  
HETATM    4  C   UNL     1     -10.605  19.242  66.000  1.00  0.00    -0.550 A  
HETATM    5  C   UNL     1      -9.886  19.598  67.143  1.00  0.00    -0.489 A  
HETATM    6  C   UNL     1      -9.184  18.629  67.869  1.00  0.00    -0.316 A  
HETATM    7  C   UNL     1      -9.186  17.276  67.479  1.00  0.00    -0.227 A  
HETATM    8  C   UNL     1      -9.962  16.946  66.355  1.00  0.00    -0.321 A  
BRANCH   7   9
HETATM    9  C   UNL     1      -8.351  16.248  68.266  1.00  0.00    -0.185 C  
HETATM   10  O   UNL     1      -7.428  17.025  69.050  1.00  0.00    -0.239 OA 
HETATM   11  C   UNL     1      -9.145  15.386  69.281  1.00  0.00    -0.260 C  
HETATM   12  C   UNL     1      -9.983  14.263  68.665  1.00  0.00    -0.234 C  
HETATM   13  H   UNL     1      -6.913  16.390  69.535  1.00  0.00     0.000 HD 
HETATM   14  C   UNL     1      -9.279  13.472  67.567  1.00  0.00    -0.219 C  
HETATM   15  C   UNL     1      -8.498  14.349  66.594  1.00  0.00     0.036 C  
HETATM   16  C   UNL     1      -7.531  15.308  67.314  1.00  0.00    -0.236 C  
BRANCH  16  17
HETATM   17  C   UNL     1      -6.399  14.547  68.072  1.00  0.00    -0.154 C  
BRANCH  17  18
HETATM   18  N   UNL     1      -6.767  13.983  69.392  1.00  0.00    -0.118 NA 
HETATM   19  C   UNL     1      -6.576  12.531  69.432  1.00  0.00    -0.073 C  
HETATM   20  C   UNL     1      -5.960  14.619  70.440  1.00  0.00    -0.165 C  
ENDBRANCH  17  18
ENDBRANCH  16  17
ENDBRANCH   7   9
ENDBRANCH   2   3
TORSDOF 4
ENDMDL
MODEL      199
REMARK 921   NORMALIZED FREE ENERGY PREDICTED BY IDOCK:   -2.61 KCAL/MOL
REMARK 922        TOTAL FREE ENERGY PREDICTED BY IDOCK:   -4.07 KCAL/MOL
REMARK 923 INTER-LIGAND FREE ENERGY PREDICTED BY IDOCK:   -3.71 KCAL/MOL
REMARK 924 INTRA-LIGAND FREE ENERGY PREDICTED BY IDOCK:   -0.36 KCAL/MOL
REMARK 927      BINDING AFFINITY PREDICTED BY RF-SCORE:    0.00 PKD
ROOT
HETATM    1  C   UNL     1      -9.569  11.513  63.069  1.00  0.00    -0.346 C  
HETATM    2  O   UNL     1      -9.409  10.197  62.559  1.00  0.00    -0.284 OA 
ENDROOT
BRANCH   2   3
HETATM    3  C   UNL     1      -8.778   9.286  63.363  1.00  0.00    -0.177 A  
HETATM    4  C   UNL     1      -8.062   8.174  62.950  1.00  0.00    -0.143 A  
HETATM    5  C   UNL     1      -7.499   7.323  63.904  1.00  0.00    -0.100 A  
HETATM    6  C   UNL     1      -7.674   7.574  65.270  1.00  0.00    -0.112 A  
HETATM    7  C   UNL     1      -8.412   8.685  65.722  1.00  0.00    -0.165 A  
HETATM    8  C   UNL     1      -8.920   9.548  64.736  1.00  0.00    -0.263 A  
BRANCH   7   9
HETATM    9  C   UNL     1      -8.637   8.895  67.232  1.00  0.00    -0.118 C  
HETATM   10  O   UNL     1      -7.872   7.863  67.880  1.00  0.00    -0.121 OA 
HETATM   11  C   UNL     1      -8.105  10.235  67.803  1.00  0.00    -0.103 C  
HETATM   12  C   UNL     1      -8.962  11.463  67.484  1.00  0.00    -0.150 C  
HETATM   13  H   UNL     1      -8.011   7.993  68.811  1.00  0.00     0.000 HD 
HETATM   14  C   UNL     1     -10.464  11.251  67.645  1.00  0.00    -0.225 C  
HETATM   15  C   UNL     1     -10.951   9.918  67.084  1.00  0.00    -0.147 C  
HETATM   16  C   UNL     1     -10.145   8.723  67.628  1.00  0.00    -0.273 C  
BRANCH  16  17
HETATM   17  C   UNL     1     -10.331   8.535  69.166  1.00  0.00    -0.217 C  
BRANCH  17  18
HETATM   18  N   UNL     1     -10.125   7.161  69.681  1.00  0.00    -0.188 NA 
HETATM   19  C   UNL     1     -10.216   7.111  71.142  1.00  0.00    -0.191 C  
HETATM   20  C   UNL     1     -11.122   6.260  69.090  1.00  0.00    -0.390 C  
ENDBRANCH  17  18
ENDBRANCH  16  17
ENDBRANCH   7   9
ENDBRANCH   2   3
TORSDOF 4
ENDMDL
MODEL      200
REMARK 921   NORMALIZED FREE ENERGY PREDICTED BY IDOCK:   -2.61 KCAL/MOL
REMARK 922        TOTAL FREE ENERGY PREDICTED BY IDOCK:   -4.06 KCAL/MOL
REMARK 923 INTER-LIGAND FREE ENERGY PREDICTED BY IDOCK:   -3.36 KCAL/MOL
REMARK 924 INTRA-LIGAND FREE ENERGY PREDICTED BY IDOCK:   -0.70 KCAL/MOL
REMARK 927      BINDING AFFINITY PREDICTED BY RF-SCORE:    0.00 PKD
ROOT
HETATM    1  C   UNL     1     -10.529  20.393  68.173  1.00  0.00    -0.038 C  
HETATM    2  O   UNL     1     -10.020  19.244  68.834  1.00  0.00    -0.422 OA 
ENDROOT
BRANCH   2   3
HETATM    3  C   UNL     1      -8.752  18.842  68.506  1.00  0.00    -0.347 A  
HETATM    4  C   UNL     1      -7.659  19.661  68.278  1.00  0.00    -0.351 A  
HETATM    5  C   UNL     1      -6.432  19.092  67.923  1.00  0.00    -0.244 A  
HETATM    6  C   UNL     1      -6.311  17.706  67.775  1.00  0.00    -0.177 A  
HETATM    7  C   UNL     1      -7.408  16.848  67.981  1.00  0.00    -0.175 A  
HETATM    8  C   UNL     1      -8.611  17.450  68.387  1.00  0.00    -0.270 A  
BRANCH   7   9
HETATM    9  C   UNL     1      -7.254  15.333  67.747  1.00  0.00    -0.165 C  
HETATM   10  O   UNL     1      -7.770  15.095  66.425  1.00  0.00    -0.178 OA 
HETATM   11  C   UNL     1      -5.795  14.809  67.729  1.00  0.00    -0.105 C  
HETATM   12  C   UNL     1      -5.132  14.684  69.104  1.00  0.00    -0.086 C  
HETATM   13  H   UNL     1      -7.675  14.161  66.281  1.00  0.00     0.000 HD 
HETATM   14  C   UNL     1      -6.017  14.072  70.185  1.00  0.00    -0.151 C  
HETATM   15  C   UNL     1      -7.449  14.600  70.165  1.00  0.00     0.352 C  
HETATM   16  C   UNL     1      -8.095  14.493  68.771  1.00  0.00    -0.146 C  
BRANCH  16  17
HETATM   17  C   UNL     1      -8.272  13.012  68.313  1.00  0.00    -0.150 C  
BRANCH  17  18
HETATM   18  N   UNL     1      -9.637  12.622  67.890  1.00  0.00    -0.204 NA 
HETATM   19  C   UNL     1     -10.638  13.598  68.325  1.00  0.00    -0.253 C  
HETATM   20  C   UNL     1      -9.679  12.485  66.430  1.00  0.00    -0.249 C  
ENDBRANCH  17  18
ENDBRANCH  16  17
ENDBRANCH   7   9
ENDBRANCH   2   3
TORSDOF 4
ENDMDL
MODEL      201
REMARK 921   NORMALIZED FREE ENERGY PREDICTED BY IDOCK:   -2.59 KCAL/MOL
REMARK 922        TOTAL FREE ENERGY PREDICTED BY IDOCK:   -4.05 KCAL/MOL
REMARK 923 INTER-LIGAND FREE ENERGY PREDICTED BY IDOCK:   -4.27 KCAL/MOL
REMARK 924 INTRA-LIGAND FREE ENERGY PREDICTED BY IDOCK:    0.22 KCAL/MOL
REMARK 927      BINDING AFFINITY PREDICTED BY RF-SCORE:    0.00 PKD
ROOT
HETATM    1  C   UNL     1     -12.189  13.632  63.735  1.00  0.00    -0.356 C  
HETATM    2  O   UNL     1     -11.635  14.693  64.499  1.00  0.00    -0.397 OA 
ENDROOT
BRANCH   2   3
HETATM    3  C   UNL     1     -10.701  14.363  65.444  1.00  0.00    -0.348 A  
HETATM    4  C   UNL     1      -9.858  15.234  66.114  1.00  0.00    -0.333 A  
HETATM    5  C   UNL     1      -8.936  14.731  67.036  1.00  0.00    -0.258 A  
HETATM    6  C   UNL     1      -8.845  13.354  67.267  1.00  0.00    -0.220 A  
HETATM    7  C   UNL     1      -9.674  12.440  66.589  1.00  0.00    -0.229 A  
HETATM    8  C   UNL     1     -10.624  12.985  65.708  1.00  0.00    -0.291 A  
BRANCH   7   9
HETATM    9  C   UNL     1      -9.502  10.927  66.822  1.00  0.00    -0.177 C  
HETATM   10  O   UNL     1     -10.195  10.648  68.052  1.00  0.00    -0.165 OA 
HETATM   11  C   UNL     1     -10.156  10.012  65.754  1.00  0.00    -0.320 C  
HETATM   12  C   UNL     1      -9.395   9.914  64.429  1.00  0.00    -0.326 C  
HETATM   13  H   UNL     1     -10.089   9.715  68.195  1.00  0.00     0.000 HD 
HETATM   14  C   UNL     1      -7.885   9.753  64.571  1.00  0.00    -0.137 C  
HETATM   15  C   UNL     1      -7.278  10.658  65.639  1.00  0.00    -0.084 C  
HETATM   16  C   UNL     1      -7.995  10.529  66.996  1.00  0.00    -0.118 C  
BRANCH  16  17
HETATM   17  C   UNL     1      -7.830   9.108  67.619  1.00  0.00    -0.096 C  
BRANCH  17  18
HETATM   18  N   UNL     1      -8.977   8.186  67.445  1.00  0.00    -0.136 NA 
HETATM   19  C   UNL     1      -8.615   7.018  66.638  1.00  0.00    -0.124 C  
HETATM   20  C   UNL     1      -9.460   7.750  68.761  1.00  0.00    -0.149 C  
ENDBRANCH  17  18
ENDBRANCH  16  17
ENDBRANCH   7   9
ENDBRANCH   2   3
TORSDOF 4
ENDMDL
MODEL      202
REMARK 921   NORMALIZED FREE ENERGY PREDICTED BY IDOCK:   -2.58 KCAL/MOL
REMARK 922        TOTAL FREE ENERGY PREDICTED BY IDOCK:   -4.03 KCAL/MOL
REMARK 923 INTER-LIGAND FREE ENERGY PREDICTED BY IDOCK:   -3.41 KCAL/MOL
REMARK 924 INTRA-LIGAND FREE ENERGY PREDICTED BY IDOCK:   -0.62 KCAL/MOL
REMARK 927      BINDING AFFINITY PREDICTED BY RF-SCORE:    0.00 PKD
ROOT
HETATM    1  C   UNL     1     -11.326  12.658  63.576  1.00  0.00    -0.463 C  
HETATM    2  O   UNL     1     -11.505  11.737  64.641  1.00  0.00    -0.304 OA 
ENDROOT
BRANCH   2   3
HETATM    3  C   UNL     1     -10.451  10.917  64.944  1.00  0.00    -0.282 A  
HETATM    4  C   UNL     1      -9.747  10.114  64.061  1.00  0.00    -0.273 A  
HETATM    5  C   UNL     1      -8.708   9.310  64.537  1.00  0.00    -0.218 A  
HETATM    6  C   UNL     1      -8.393   9.293  65.901  1.00  0.00    -0.122 A  
HETATM    7  C   UNL     1      -9.102  10.083  66.827  1.00  0.00    -0.159 A  
HETATM    8  C   UNL     1     -10.105  10.917  66.306  1.00  0.00    -0.284 A  
BRANCH   7   9
HETATM    9  C   UNL     1      -8.769   9.991  68.328  1.00  0.00    -0.119 C  
HETATM   10  O   UNL     1      -7.387  10.378  68.439  1.00  0.00    -0.081 OA 
HETATM   11  C   UNL     1      -9.554  10.966  69.243  1.00  0.00    -0.067 C  
HETATM   12  C   UNL     1     -11.006  10.569  69.521  1.00  0.00    -0.312 C  
HETATM   13  H   UNL     1      -7.183  10.321  69.365  1.00  0.00     0.000 HD 
HETATM   14  C   UNL     1     -11.214   9.091  69.834  1.00  0.00    -0.092 C  
HETATM   15  C   UNL     1     -10.418   8.161  68.924  1.00  0.00    -0.202 C  
HETATM   16  C   UNL     1      -8.923   8.528  68.874  1.00  0.00    -0.146 C  
BRANCH  16  17
HETATM   17  C   UNL     1      -8.220   8.338  70.254  1.00  0.00    -0.121 C  
BRANCH  17  18
HETATM   18  N   UNL     1      -7.335   7.156  70.374  1.00  0.00    -0.078 NA 
HETATM   19  C   UNL     1      -6.608   6.895  69.130  1.00  0.00    -0.048 C  
HETATM   20  C   UNL     1      -6.382   7.366  71.471  1.00  0.00    -0.036 C  
ENDBRANCH  17  18
ENDBRANCH  16  17
ENDBRANCH   7   9
ENDBRANCH   2   3
TORSDOF 4
ENDMDL
MODEL      203
REMARK 921   NORMALIZED FREE ENERGY PREDICTED BY IDOCK:   -2.56 KCAL/MOL
REMARK 922        TOTAL FREE ENERGY PREDICTED BY IDOCK:   -4.00 KCAL/MOL
REMARK 923 INTER-LIGAND FREE ENERGY PREDICTED BY IDOCK:   -3.63 KCAL/MOL
REMARK 924 INTRA-LIGAND FREE ENERGY PREDICTED BY IDOCK:   -0.37 KCAL/MOL
REMARK 927      BINDING AFFINITY PREDICTED BY RF-SCORE:    0.00 PKD
ROOT
HETATM    1  C   UNL     1      -8.603   8.603  65.834  1.00  0.00    -0.157 C  
HETATM    2  O   UNL     1      -9.907   9.087  66.120  1.00  0.00    -0.271 OA 
ENDROOT
BRANCH   2   3
HETATM    3  C   UNL     1     -10.265   9.181  67.438  1.00  0.00    -0.247 A  
HETATM    4  C   UNL     1     -11.024  10.183  68.020  1.00  0.00    -0.326 A  
HETATM    5  C   UNL     1     -11.280  10.146  69.393  1.00  0.00    -0.265 A  
HETATM    6  C   UNL     1     -10.754   9.119  70.185  1.00  0.00    -0.263 A  
HETATM    7  C   UNL     1      -9.963   8.095  69.627  1.00  0.00    -0.193 A  
HETATM    8  C   UNL     1      -9.770   8.136  68.236  1.00  0.00    -0.175 A  
BRANCH   7   9
HETATM    9  C   UNL     1      -9.349   7.016  70.539  1.00  0.00    -0.159 C  
HETATM   10  O   UNL     1      -9.850   5.763  70.039  1.00  0.00    -0.164 OA 
HETATM   11  C   UNL     1      -7.804   6.903  70.486  1.00  0.00    -0.105 C  
HETATM   12  C   UNL     1      -7.046   7.998  71.240  1.00  0.00    -0.057 C  
HETATM   13  H   UNL     1      -9.471   5.098  70.602  1.00  0.00     0.000 HD 
HETATM   14  C   UNL     1      -7.615   8.337  72.614  1.00  0.00    -0.160 C  
HETATM   15  C   UNL     1      -9.138   8.428  72.632  1.00  0.00    -0.311 C  
HETATM   16  C   UNL     1      -9.808   7.179  72.030  1.00  0.00    -0.174 C  
BRANCH  16  17
HETATM   17  C   UNL     1      -9.533   5.895  72.874  1.00  0.00    -0.151 C  
BRANCH  17  18
HETATM   18  N   UNL     1     -10.728   5.134  73.306  1.00  0.00    -0.239 NA 
HETATM   19  C   UNL     1     -11.951   5.648  72.685  1.00  0.00    -0.056 C  
HETATM   20  C   UNL     1     -10.557   3.716  72.966  1.00  0.00    -0.163 C  
ENDBRANCH  17  18
ENDBRANCH  16  17
ENDBRANCH   7   9
ENDBRANCH   2   3
TORSDOF 4
ENDMDL
MODEL      204
REMARK 921   NORMALIZED FREE ENERGY PREDICTED BY IDOCK:   -2.51 KCAL/MOL
REMARK 922        TOTAL FREE ENERGY PREDICTED BY IDOCK:   -3.94 KCAL/MOL
REMARK 923 INTER-LIGAND FREE ENERGY PREDICTED BY IDOCK:   -3.88 KCAL/MOL
REMARK 924 INTRA-LIGAND FREE ENERGY PREDICTED BY IDOCK:   -0.07 KCAL/MOL
REMARK 927      BINDING AFFINITY PREDICTED BY RF-SCORE:    0.00 PKD
ROOT
HETATM    1  C   UNL     1      -8.056   6.536  64.594  1.00  0.00    -0.092 C  
HETATM    2  O   UNL     1      -8.589   7.296  65.669  1.00  0.00    -0.148 OA 
ENDROOT
BRANCH   2   3
HETATM    3  C   UNL     1      -9.075   6.603  66.745  1.00  0.00    -0.142 A  
HETATM    4  C   UNL     1      -9.372   5.251  66.793  1.00  0.00    -0.134 A  
HETATM    5  C   UNL     1      -9.889   4.699  67.968  1.00  0.00    -0.174 A  
HETATM    6  C   UNL     1     -10.130   5.508  69.084  1.00  0.00    -0.286 A  
HETATM    7  C   UNL     1      -9.856   6.889  69.062  1.00  0.00    -0.152 A  
HETATM    8  C   UNL     1      -9.289   7.400  67.883  1.00  0.00    -0.138 A  
BRANCH   7   9
HETATM    9  C   UNL     1     -10.193   7.759  70.288  1.00  0.00    -0.199 C  
HETATM   10  O   UNL     1      -9.683   9.069  69.980  1.00  0.00    -0.170 OA 
HETATM   11  C   UNL     1     -11.705   7.952  70.570  1.00  0.00    -0.097 C  
HETATM   12  C   UNL     1     -12.406   6.749  71.208  1.00  0.00    -0.395 C  
HETATM   13  H   UNL     1      -9.890   9.605  70.736  1.00  0.00     0.000 HD 
HETATM   14  C   UNL     1     -11.626   6.080  72.334  1.00  0.00    -0.349 C  
HETATM   15  C   UNL     1     -10.140   5.918  72.028  1.00  0.00    -0.223 C  
HETATM   16  C   UNL     1      -9.483   7.240  71.587  1.00  0.00    -0.161 C  
BRANCH  16  17
HETATM   17  C   UNL     1      -9.483   8.308  72.725  1.00  0.00    -0.273 C  
BRANCH  17  18
HETATM   18  N   UNL     1      -8.155   8.676  73.269  1.00  0.00    -0.410 NA 
HETATM   19  C   UNL     1      -7.906   8.041  74.565  1.00  0.00    -0.240 C  
HETATM   20  C   UNL     1      -7.109   8.286  72.316  1.00  0.00    -0.095 C  
ENDBRANCH  17  18
ENDBRANCH  16  17
ENDBRANCH   7   9
ENDBRANCH   2   3
TORSDOF 4
ENDMDL
MODEL      205
REMARK 921   NORMALIZED FREE ENERGY PREDICTED BY IDOCK:   -2.48 KCAL/MOL
REMARK 922        TOTAL FREE ENERGY PREDICTED BY IDOCK:   -3.91 KCAL/MOL
REMARK 923 INTER-LIGAND FREE ENERGY PREDICTED BY IDOCK:   -3.38 KCAL/MOL
REMARK 924 INTRA-LIGAND FREE ENERGY PREDICTED BY IDOCK:   -0.52 KCAL/MOL
REMARK 927      BINDING AFFINITY PREDICTED BY RF-SCORE:    0.00 PKD
ROOT
HETATM    1  C   UNL     1      -7.848  15.578  66.961  1.00  0.00    -0.225 C  
HETATM    2  O   UNL     1      -9.233  15.295  67.088  1.00  0.00    -0.196 OA 
ENDROOT
BRANCH   2   3
HETATM    3  C   UNL     1      -9.711  14.196  66.426  1.00  0.00    -0.298 A  
HETATM    4  C   UNL     1     -10.709  14.179  65.464  1.00  0.00    -0.330 A  
HETATM    5  C   UNL     1     -11.102  12.962  64.900  1.00  0.00    -0.326 A  
HETATM    6  C   UNL     1     -10.514  11.764  65.319  1.00  0.00    -0.320 A  
HETATM    7  C   UNL     1      -9.511  11.745  66.308  1.00  0.00    -0.238 A  
HETATM    8  C   UNL     1      -9.103  12.991  66.815  1.00  0.00    -0.212 A  
BRANCH   7   9
HETATM    9  C   UNL     1      -8.930  10.402  66.788  1.00  0.00    -0.140 C  
HETATM   10  O   UNL     1      -9.938   9.833  67.644  1.00  0.00    -0.159 OA 
HETATM   11  C   UNL     1      -8.680   9.351  65.677  1.00  0.00    -0.179 C  
HETATM   12  C   UNL     1      -7.439   9.600  64.814  1.00  0.00    -0.122 C  
HETATM   13  H   UNL     1      -9.580   9.005  67.940  1.00  0.00     0.000 HD 
HETATM   14  C   UNL     1      -6.196  10.016  65.592  1.00  0.00    -0.088 C  
HETATM   15  C   UNL     1      -6.480  11.042  66.685  1.00  0.00    -0.129 C  
HETATM   16  C   UNL     1      -7.617  10.597  67.625  1.00  0.00    -0.092 C  
BRANCH  16  17
HETATM   17  C   UNL     1      -7.245   9.321  68.442  1.00  0.00    -0.076 C  
BRANCH  17  18
HETATM   18  N   UNL     1      -7.288   9.459  69.917  1.00  0.00    -0.076 NA 
HETATM   19  C   UNL     1      -8.361   8.654  70.504  1.00  0.00    -0.140 C  
HETATM   20  C   UNL     1      -5.997   9.056  70.485  1.00  0.00    -0.038 C  
ENDBRANCH  17  18
ENDBRANCH  16  17
ENDBRANCH   7   9
ENDBRANCH   2   3
TORSDOF 4
ENDMDL
MODEL      206
REMARK 921   NORMALIZED FREE ENERGY PREDICTED BY IDOCK:   -2.43 KCAL/MOL
REMARK 922        TOTAL FREE ENERGY PREDICTED BY IDOCK:   -3.84 KCAL/MOL
REMARK 923 INTER-LIGAND FREE ENERGY PREDICTED BY IDOCK:   -3.37 KCAL/MOL
REMARK 924 INTRA-LIGAND FREE ENERGY PREDICTED BY IDOCK:   -0.48 KCAL/MOL
REMARK 927      BINDING AFFINITY PREDICTED BY RF-SCORE:    0.00 PKD
ROOT
HETATM    1  C   UNL     1      -9.531   3.709  66.940  1.00  0.00    -0.187 C  
HETATM    2  O   UNL     1      -8.991   4.283  65.759  1.00  0.00    -0.121 OA 
ENDROOT
BRANCH   2   3
HETATM    3  C   UNL     1      -8.629   5.602  65.813  1.00  0.00    -0.148 A  
HETATM    4  C   UNL     1      -7.993   6.327  64.817  1.00  0.00    -0.124 A  
HETATM    5  C   UNL     1      -7.666   7.667  65.041  1.00  0.00    -0.109 A  
HETATM    6  C   UNL     1      -7.953   8.270  66.271  1.00  0.00    -0.100 A  
HETATM    7  C   UNL     1      -8.581   7.556  67.310  1.00  0.00    -0.118 A  
HETATM    8  C   UNL     1      -8.943   6.228  67.031  1.00  0.00    -0.115 A  
BRANCH   7   9
HETATM    9  C   UNL     1      -8.825   8.235  68.671  1.00  0.00    -0.133 C  
HETATM   10  O   UNL     1      -8.371   7.290  69.657  1.00  0.00    -0.129 OA 
HETATM   11  C   UNL     1      -8.009   9.529  68.923  1.00  0.00    -0.091 C  
HETATM   12  C   UNL     1      -8.521  10.773  68.189  1.00  0.00    -0.125 C  
HETATM   13  H   UNL     1      -8.522   7.709  70.496  1.00  0.00     0.000 HD 
HETATM   14  C   UNL     1     -10.035  10.954  68.222  1.00  0.00    -0.187 C  
HETATM   15  C   UNL     1     -10.805   9.659  67.983  1.00  0.00    -0.250 C  
HETATM   16  C   UNL     1     -10.347   8.523  68.917  1.00  0.00    -0.226 C  
BRANCH  16  17
HETATM   17  C   UNL     1     -10.652   8.830  70.417  1.00  0.00    -0.221 C  
BRANCH  17  18
HETATM   18  N   UNL     1     -11.905   8.251  70.956  1.00  0.00    -0.279 NA 
HETATM   19  C   UNL     1     -11.773   6.815  71.208  1.00  0.00    -0.336 C  
HETATM   20  C   UNL     1     -12.270   8.942  72.198  1.00  0.00    -0.367 C  
ENDBRANCH  17  18
ENDBRANCH  16  17
ENDBRANCH   7   9
ENDBRANCH   2   3
TORSDOF 4
ENDMDL
MODEL      207
REMARK 921   NORMALIZED FREE ENERGY PREDICTED BY IDOCK:   -2.41 KCAL/MOL
REMARK 922        TOTAL FREE ENERGY PREDICTED BY IDOCK:   -3.81 KCAL/MOL
REMARK 923 INTER-LIGAND FREE ENERGY PREDICTED BY IDOCK:   -3.40 KCAL/MOL
REMARK 924 INTRA-LIGAND FREE ENERGY PREDICTED BY IDOCK:   -0.42 KCAL/MOL
REMARK 927      BINDING AFFINITY PREDICTED BY RF-SCORE:    0.00 PKD
ROOT
HETATM    1  C   UNL     1      -8.849   9.680  63.399  1.00  0.00    -0.232 C  
HETATM    2  O   UNL     1      -8.268   9.002  64.503  1.00  0.00    -0.142 OA 
ENDROOT
BRANCH   2   3
HETATM    3  C   UNL     1      -9.004   8.938  65.656  1.00  0.00    -0.201 A  
HETATM    4  C   UNL     1      -9.506  10.008  66.378  1.00  0.00    -0.235 A  
HETATM    5  C   UNL     1     -10.219   9.772  67.557  1.00  0.00    -0.271 A  
HETATM    6  C   UNL     1     -10.406   8.465  68.022  1.00  0.00    -0.270 A  
HETATM    7  C   UNL     1      -9.893   7.357  67.321  1.00  0.00    -0.230 A  
HETATM    8  C   UNL     1      -9.226   7.628  66.114  1.00  0.00    -0.168 A  
BRANCH   7   9
HETATM    9  C   UNL     1     -10.064   5.938  67.895  1.00  0.00    -0.162 C  
HETATM   10  O   UNL     1     -11.149   6.034  68.835  1.00  0.00    -0.343 OA 
HETATM   11  C   UNL     1     -10.488   4.853  66.872  1.00  0.00    -0.202 C  
HETATM   12  C   UNL     1      -9.373   4.364  65.944  1.00  0.00    -0.161 C  
HETATM   13  H   UNL     1     -11.254   5.158  69.189  1.00  0.00     0.000 HD 
HETATM   14  C   UNL     1      -8.038   4.104  66.634  1.00  0.00    -0.101 C  
HETATM   15  C   UNL     1      -7.658   5.183  67.643  1.00  0.00    -0.087 C  
HETATM   16  C   UNL     1      -8.781   5.457  68.661  1.00  0.00    -0.097 C  
BRANCH  16  17
HETATM   17  C   UNL     1      -9.068   4.223  69.572  1.00  0.00    -0.120 C  
BRANCH  17  18
HETATM   18  N   UNL     1      -9.516   4.525  70.952  1.00  0.00    -0.153 NA 
HETATM   19  C   UNL     1      -9.966   3.320  71.651  1.00  0.00    -0.099 C  
HETATM   20  C   UNL     1      -8.417   5.151  71.698  1.00  0.00    -0.125 C  
ENDBRANCH  17  18
ENDBRANCH  16  17
ENDBRANCH   7   9
ENDBRANCH   2   3
TORSDOF 4
ENDMDL
MODEL      208
REMARK 921   NORMALIZED FREE ENERGY PREDICTED BY IDOCK:   -2.40 KCAL/MOL
REMARK 922        TOTAL FREE ENERGY PREDICTED BY IDOCK:   -3.80 KCAL/MOL
REMARK 923 INTER-LIGAND FREE ENERGY PREDICTED BY IDOCK:   -3.17 KCAL/MOL
REMARK 924 INTRA-LIGAND FREE ENERGY PREDICTED BY IDOCK:   -0.63 KCAL/MOL
REMARK 927      BINDING AFFINITY PREDICTED BY RF-SCORE:    0.00 PKD
ROOT
HETATM    1  C   UNL     1     -11.258   1.966  63.017  1.00  0.00    -0.261 C  
HETATM    2  O   UNL     1     -10.663   3.196  63.405  1.00  0.00    -0.224 OA 
ENDROOT
BRANCH   2   3
HETATM    3  C   UNL     1      -9.751   3.156  64.425  1.00  0.00    -0.154 A  
HETATM    4  C   UNL     1      -9.053   2.045  64.868  1.00  0.00    -0.130 A  
HETATM    5  C   UNL     1      -8.172   2.168  65.946  1.00  0.00    -0.089 A  
HETATM    6  C   UNL     1      -8.012   3.398  66.594  1.00  0.00    -0.081 A  
HETATM    7  C   UNL     1      -8.721   4.542  66.180  1.00  0.00    -0.114 A  
HETATM    8  C   UNL     1      -9.558   4.394  65.061  1.00  0.00    -0.175 A  
BRANCH   7   9
HETATM    9  C   UNL     1      -8.567   5.864  66.956  1.00  0.00    -0.110 C  
HETATM   10  O   UNL     1      -7.282   6.386  66.570  1.00  0.00    -0.070 OA 
HETATM   11  C   UNL     1      -9.594   6.968  66.598  1.00  0.00    -0.220 C  
HETATM   12  C   UNL     1     -10.995   6.766  67.183  1.00  0.00    -0.458 C  
HETATM   13  H   UNL     1      -7.187   7.201  67.049  1.00  0.00     0.000 HD 
HETATM   14  C   UNL     1     -11.019   6.319  68.641  1.00  0.00    -0.423 C  
HETATM   15  C   UNL     1      -9.987   5.242  68.960  1.00  0.00    -0.260 C  
HETATM   16  C   UNL     1      -8.568   5.635  68.508  1.00  0.00    -0.107 C  
BRANCH  16  17
HETATM   17  C   UNL     1      -8.021   6.873  69.285  1.00  0.00    -0.116 C  
BRANCH  17  18
HETATM   18  N   UNL     1      -7.088   6.580  70.398  1.00  0.00    -0.070 NA 
HETATM   19  C   UNL     1      -5.741   7.083  70.122  1.00  0.00    -0.023 C  
HETATM   20  C   UNL     1      -7.597   7.181  71.637  1.00  0.00    -0.087 C  
ENDBRANCH  17  18
ENDBRANCH  16  17
ENDBRANCH   7   9
ENDBRANCH   2   3
TORSDOF 4
ENDMDL
MODEL      209
REMARK 921   NORMALIZED FREE ENERGY PREDICTED BY IDOCK:   -2.38 KCAL/MOL
REMARK 922        TOTAL FREE ENERGY PREDICTED BY IDOCK:   -3.78 KCAL/MOL
REMARK 923 INTER-LIGAND FREE ENERGY PREDICTED BY IDOCK:   -3.62 KCAL/MOL
REMARK 924 INTRA-LIGAND FREE ENERGY PREDICTED BY IDOCK:   -0.16 KCAL/MOL
REMARK 927      BINDING AFFINITY PREDICTED BY RF-SCORE:    0.00 PKD
ROOT
HETATM    1  C   UNL     1     -10.895   2.810  63.007  1.00  0.00    -0.210 C  
HETATM    2  O   UNL     1     -10.469   3.930  63.769  1.00  0.00    -0.228 OA 
ENDROOT
BRANCH   2   3
HETATM    3  C   UNL     1      -9.656   3.684  64.842  1.00  0.00    -0.173 A  
HETATM    4  C   UNL     1      -9.034   2.485  65.152  1.00  0.00    -0.133 A  
HETATM    5  C   UNL     1      -8.253   2.391  66.307  1.00  0.00    -0.088 A  
HETATM    6  C   UNL     1      -8.117   3.491  67.162  1.00  0.00    -0.087 A  
HETATM    7  C   UNL     1      -8.751   4.717  66.885  1.00  0.00    -0.107 A  
HETATM    8  C   UNL     1      -9.485   4.792  65.690  1.00  0.00    -0.173 A  
BRANCH   7   9
HETATM    9  C   UNL     1      -8.629   5.887  67.881  1.00  0.00    -0.105 C  
HETATM   10  O   UNL     1      -7.638   5.473  68.839  1.00  0.00    -0.083 OA 
HETATM   11  C   UNL     1      -8.105   7.217  67.282  1.00  0.00    -0.112 C  
HETATM   12  C   UNL     1      -9.126   8.003  66.454  1.00  0.00    -0.226 C  
HETATM   13  H   UNL     1      -7.564   6.194  69.452  1.00  0.00     0.000 HD 
HETATM   14  C   UNL     1     -10.519   8.084  67.068  1.00  0.00    -0.410 C  
HETATM   15  C   UNL     1     -10.998   6.761  67.659  1.00  0.00    -0.346 C  
HETATM   16  C   UNL     1      -9.977   6.152  68.639  1.00  0.00    -0.176 C  
BRANCH  16  17
HETATM   17  C   UNL     1      -9.773   7.039  69.907  1.00  0.00    -0.163 C  
BRANCH  17  18
HETATM   18  N   UNL     1     -10.444   6.569  71.142  1.00  0.00    -0.216 NA 
HETATM   19  C   UNL     1     -11.885   6.830  71.109  1.00  0.00    -0.360 C  
HETATM   20  C   UNL     1     -10.204   5.131  71.314  1.00  0.00    -0.222 C  
ENDBRANCH  17  18
ENDBRANCH  16  17
ENDBRANCH   7   9
ENDBRANCH   2   3
TORSDOF 4
ENDMDL
MODEL      210
REMARK 921   NORMALIZED FREE ENERGY PREDICTED BY IDOCK:   -2.32 KCAL/MOL
REMARK 922        TOTAL FREE ENERGY PREDICTED BY IDOCK:   -3.71 KCAL/MOL
REMARK 923 INTER-LIGAND FREE ENERGY PREDICTED BY IDOCK:   -3.12 KCAL/MOL
REMARK 924 INTRA-LIGAND FREE ENERGY PREDICTED BY IDOCK:   -0.59 KCAL/MOL
REMARK 927      BINDING AFFINITY PREDICTED BY RF-SCORE:    0.00 PKD
ROOT
HETATM    1  C   UNL     1      -9.607   3.143  71.482  1.00  0.00    -0.157 C  
HETATM    2  O   UNL     1      -9.825   4.227  72.374  1.00  0.00    -0.145 OA 
ENDROOT
BRANCH   2   3
HETATM    3  C   UNL     1     -10.355   5.375  71.847  1.00  0.00    -0.212 A  
HETATM    4  C   UNL     1     -11.501   6.027  72.270  1.00  0.00    -0.364 A  
HETATM    5  C   UNL     1     -11.925   7.180  71.604  1.00  0.00    -0.353 A  
HETATM    6  C   UNL     1     -11.213   7.663  70.500  1.00  0.00    -0.275 A  
HETATM    7  C   UNL     1     -10.054   7.013  70.034  1.00  0.00    -0.196 A  
HETATM    8  C   UNL     1      -9.629   5.887  70.758  1.00  0.00    -0.203 A  
BRANCH   7   9
HETATM    9  C   UNL     1      -9.332   7.537  68.778  1.00  0.00    -0.147 C  
HETATM   10  O   UNL     1      -9.303   6.427  67.862  1.00  0.00    -0.117 OA 
HETATM   11  C   UNL     1     -10.055   8.684  68.026  1.00  0.00    -0.241 C  
HETATM   12  C   UNL     1      -9.948  10.062  68.686  1.00  0.00    -0.176 C  
HETATM   13  H   UNL     1      -8.858   6.750  67.088  1.00  0.00     0.000 HD 
HETATM   14  C   UNL     1      -8.558  10.413  69.205  1.00  0.00    -0.169 C  
HETATM   15  C   UNL     1      -7.871   9.259  69.927  1.00  0.00    -0.109 C  
HETATM   16  C   UNL     1      -7.856   7.967  69.088  1.00  0.00    -0.109 C  
BRANCH  16  17
HETATM   17  C   UNL     1      -7.001   8.115  67.791  1.00  0.00    -0.078 C  
BRANCH  17  18
HETATM   18  N   UNL     1      -5.697   7.411  67.789  1.00  0.00    -0.029 NA 
HETATM   19  C   UNL     1      -5.813   6.056  68.332  1.00  0.00    -0.012 C  
HETATM   20  C   UNL     1      -5.171   7.355  66.420  1.00  0.00    -0.024 C  
ENDBRANCH  17  18
ENDBRANCH  16  17
ENDBRANCH   7   9
ENDBRANCH   2   3
TORSDOF 4
ENDMDL
MODEL      211
REMARK 921   NORMALIZED FREE ENERGY PREDICTED BY IDOCK:   -2.29 KCAL/MOL
REMARK 922        TOTAL FREE ENERGY PREDICTED BY IDOCK:   -3.68 KCAL/MOL
REMARK 923 INTER-LIGAND FREE ENERGY PREDICTED BY IDOCK:   -2.92 KCAL/MOL
REMARK 924 INTRA-LIGAND FREE ENERGY PREDICTED BY IDOCK:   -0.76 KCAL/MOL
REMARK 927      BINDING AFFINITY PREDICTED BY RF-SCORE:    0.00 PKD
ROOT
HETATM    1  C   UNL     1      -6.171  14.353  68.011  1.00  0.00    -0.155 C  
HETATM    2  O   UNL     1      -7.170  13.522  67.439  1.00  0.00    -0.166 OA 
ENDROOT
BRANCH   2   3
HETATM    3  C   UNL     1      -7.399  12.313  68.041  1.00  0.00    -0.105 A  
HETATM    4  C   UNL     1      -6.874  11.876  69.246  1.00  0.00    -0.080 A  
HETATM    5  C   UNL     1      -7.186  10.596  69.711  1.00  0.00    -0.135 A  
HETATM    6  C   UNL     1      -8.003   9.747  68.956  1.00  0.00    -0.096 A  
HETATM    7  C   UNL     1      -8.536  10.154  67.717  1.00  0.00    -0.118 A  
HETATM    8  C   UNL     1      -8.245  11.465  67.306  1.00  0.00    -0.150 A  
BRANCH   7   9
HETATM    9  C   UNL     1      -9.379   9.170  66.884  1.00  0.00    -0.156 C  
HETATM   10  O   UNL     1     -10.552   8.905  67.675  1.00  0.00    -0.319 OA 
HETATM   11  C   UNL     1      -9.900   9.722  65.532  1.00  0.00    -0.378 C  
HETATM   12  C   UNL     1      -8.854   9.801  64.416  1.00  0.00    -0.258 C  
HETATM   13  H   UNL     1     -11.071   8.298  67.160  1.00  0.00     0.000 HD 
HETATM   14  C   UNL     1      -7.950   8.578  64.302  1.00  0.00    -0.149 C  
HETATM   15  C   UNL     1      -7.467   8.054  65.651  1.00  0.00    -0.081 C  
HETATM   16  C   UNL     1      -8.626   7.816  66.638  1.00  0.00    -0.138 C  
BRANCH  16  17
HETATM   17  C   UNL     1      -9.589   6.686  66.158  1.00  0.00     0.036 C  
BRANCH  17  18
HETATM   18  N   UNL     1     -10.041   5.732  67.199  1.00  0.00    -0.160 NA 
HETATM   19  C   UNL     1      -9.970   4.347  66.731  1.00  0.00    -0.195 C  
HETATM   20  C   UNL     1      -9.216   5.893  68.402  1.00  0.00    -0.117 C  
ENDBRANCH  17  18
ENDBRANCH  16  17
ENDBRANCH   7   9
ENDBRANCH   2   3
TORSDOF 4
ENDMDL
MODEL      212
REMARK 921   NORMALIZED FREE ENERGY PREDICTED BY IDOCK:   -2.29 KCAL/MOL
REMARK 922        TOTAL FREE ENERGY PREDICTED BY IDOCK:   -3.67 KCAL/MOL
REMARK 923 INTER-LIGAND FREE ENERGY PREDICTED BY IDOCK:   -3.26 KCAL/MOL
REMARK 924 INTRA-LIGAND FREE ENERGY PREDICTED BY IDOCK:   -0.41 KCAL/MOL
REMARK 927      BINDING AFFINITY PREDICTED BY RF-SCORE:    0.00 PKD
ROOT
HETATM    1  C   UNL     1     -10.182   9.170  68.026  1.00  0.00    -0.211 C  
HETATM    2  O   UNL     1      -9.896   9.479  69.382  1.00  0.00    -0.170 OA 
ENDROOT
BRANCH   2   3
HETATM    3  C   UNL     1     -10.477   8.694  70.341  1.00  0.00    -0.208 A  
HETATM    4  C   UNL     1     -11.785   8.772  70.793  1.00  0.00    -0.253 A  
HETATM    5  C   UNL     1     -12.218   7.909  71.803  1.00  0.00    -0.344 A  
HETATM    6  C   UNL     1     -11.335   6.987  72.375  1.00  0.00    -0.307 A  
HETATM    7  C   UNL     1      -9.995   6.895  71.951  1.00  0.00    -0.183 A  
HETATM    8  C   UNL     1      -9.608   7.742  70.899  1.00  0.00    -0.173 A  
BRANCH   7   9
HETATM    9  C   UNL     1      -9.034   5.912  72.647  1.00  0.00    -0.131 C  
HETATM   10  O   UNL     1      -7.751   6.563  72.643  1.00  0.00    -0.101 OA 
HETATM   11  C   UNL     1      -9.351   5.616  74.135  1.00  0.00    -0.136 C  
HETATM   12  C   UNL     1     -10.527   4.664  74.373  1.00  0.00    -0.330 C  
HETATM   13  H   UNL     1      -7.159   5.956  73.072  1.00  0.00     0.000 HD 
HETATM   14  C   UNL     1     -10.555   3.445  73.458  1.00  0.00    -0.286 C  
HETATM   15  C   UNL     1     -10.226   3.770  72.004  1.00  0.00    -0.157 C  
HETATM   16  C   UNL     1      -8.911   4.559  71.862  1.00  0.00    -0.137 C  
BRANCH  16  17
HETATM   17  C   UNL     1      -7.670   3.728  72.314  1.00  0.00    -0.067 C  
BRANCH  17  18
HETATM   18  N   UNL     1      -6.604   3.551  71.301  1.00  0.00    -0.026 NA 
HETATM   19  C   UNL     1      -7.034   4.006  69.977  1.00  0.00    -0.041 C  
HETATM   20  C   UNL     1      -5.405   4.289  71.715  1.00  0.00     0.000 C  
ENDBRANCH  17  18
ENDBRANCH  16  17
ENDBRANCH   7   9
ENDBRANCH   2   3
TORSDOF 4
ENDMDL
MODEL      213
REMARK 921   NORMALIZED FREE ENERGY PREDICTED BY IDOCK:   -2.29 KCAL/MOL
REMARK 922        TOTAL FREE ENERGY PREDICTED BY IDOCK:   -3.67 KCAL/MOL
REMARK 923 INTER-LIGAND FREE ENERGY PREDICTED BY IDOCK:   -3.36 KCAL/MOL
REMARK 924 INTRA-LIGAND FREE ENERGY PREDICTED BY IDOCK:   -0.32 KCAL/MOL
REMARK 927      BINDING AFFINITY PREDICTED BY RF-SCORE:    0.00 PKD
ROOT
HETATM    1  C   UNL     1     -10.747   1.846  63.506  1.00  0.00    -0.123 C  
HETATM    2  O   UNL     1     -11.070   3.153  63.958  1.00  0.00    -0.206 OA 
ENDROOT
BRANCH   2   3
HETATM    3  C   UNL     1     -10.075   3.868  64.569  1.00  0.00    -0.218 A  
HETATM    4  C   UNL     1      -8.714   3.759  64.335  1.00  0.00    -0.110 A  
HETATM    5  C   UNL     1      -7.823   4.547  65.067  1.00  0.00    -0.090 A  
HETATM    6  C   UNL     1      -8.295   5.424  66.050  1.00  0.00    -0.120 A  
HETATM    7  C   UNL     1      -9.671   5.545  66.326  1.00  0.00    -0.172 A  
HETATM    8  C   UNL     1     -10.541   4.776  65.535  1.00  0.00    -0.169 A  
BRANCH   7   9
HETATM    9  C   UNL     1     -10.150   6.474  67.457  1.00  0.00    -0.155 C  
HETATM   10  O   UNL     1     -11.054   7.403  66.833  1.00  0.00    -0.535 OA 
HETATM   11  C   UNL     1     -10.964   5.786  68.582  1.00  0.00    -0.198 C  
HETATM   12  C   UNL     1     -10.136   4.968  69.578  1.00  0.00    -0.301 C  
HETATM   13  H   UNL     1     -11.349   7.976  67.531  1.00  0.00     0.000 HD 
HETATM   14  C   UNL     1      -8.850   5.643  70.041  1.00  0.00    -0.136 C  
HETATM   15  C   UNL     1      -8.080   6.321  68.912  1.00  0.00    -0.110 C  
HETATM   16  C   UNL     1      -8.964   7.281  68.093  1.00  0.00    -0.132 C  
BRANCH  16  17
HETATM   17  C   UNL     1      -9.464   8.493  68.940  1.00  0.00    -0.147 C  
BRANCH  17  18
HETATM   18  N   UNL     1      -8.825   9.797  68.648  1.00  0.00    -0.123 NA 
HETATM   19  C   UNL     1      -8.308   9.852  67.280  1.00  0.00    -0.121 C  
HETATM   20  C   UNL     1      -9.796  10.877  68.856  1.00  0.00    -0.192 C  
ENDBRANCH  17  18
ENDBRANCH  16  17
ENDBRANCH   7   9
ENDBRANCH   2   3
TORSDOF 4
ENDMDL
MODEL      214
REMARK 921   NORMALIZED FREE ENERGY PREDICTED BY IDOCK:   -2.25 KCAL/MOL
REMARK 922        TOTAL FREE ENERGY PREDICTED BY IDOCK:   -3.62 KCAL/MOL
REMARK 923 INTER-LIGAND FREE ENERGY PREDICTED BY IDOCK:   -3.33 KCAL/MOL
REMARK 924 INTRA-LIGAND FREE ENERGY PREDICTED BY IDOCK:   -0.29 KCAL/MOL
REMARK 927      BINDING AFFINITY PREDICTED BY RF-SCORE:    0.00 PKD
ROOT
HETATM    1  C   UNL     1      -7.029   5.340  64.746  1.00  0.00    -0.050 C  
HETATM    2  O   UNL     1      -7.569   6.396  65.526  1.00  0.00    -0.080 OA 
ENDROOT
BRANCH   2   3
HETATM    3  C   UNL     1      -8.623   6.095  66.345  1.00  0.00    -0.131 A  
HETATM    4  C   UNL     1      -9.516   5.046  66.193  1.00  0.00    -0.166 A  
HETATM    5  C   UNL     1     -10.561   4.891  67.108  1.00  0.00    -0.041 A  
HETATM    6  C   UNL     1     -10.723   5.800  68.158  1.00  0.00    -0.288 A  
HETATM    7  C   UNL     1      -9.845   6.887  68.330  1.00  0.00    -0.143 A  
HETATM    8  C   UNL     1      -8.776   6.983  67.423  1.00  0.00    -0.120 A  
BRANCH   7   9
HETATM    9  C   UNL     1     -10.092   7.904  69.461  1.00  0.00    -0.195 C  
HETATM   10  O   UNL     1     -11.510   7.873  69.701  1.00  0.00    -0.443 OA 
HETATM   11  C   UNL     1      -9.428   7.560  70.820  1.00  0.00    -0.163 C  
HETATM   12  C   UNL     1      -7.920   7.819  70.890  1.00  0.00    -0.097 C  
HETATM   13  H   UNL     1     -11.662   8.500  70.398  1.00  0.00     0.000 HD 
HETATM   14  C   UNL     1      -7.471   9.140  70.275  1.00  0.00    -0.099 C  
HETATM   15  C   UNL     1      -8.153   9.452  68.947  1.00  0.00    -0.103 C  
HETATM   16  C   UNL     1      -9.688   9.360  69.038  1.00  0.00    -0.166 C  
BRANCH  16  17
HETATM   17  C   UNL     1     -10.290  10.438  69.993  1.00  0.00    -0.128 C  
BRANCH  17  18
HETATM   18  N   UNL     1     -11.566  11.051  69.556  1.00  0.00    -0.282 NA 
HETATM   19  C   UNL     1     -12.476  11.266  70.683  1.00  0.00    -0.348 C  
HETATM   20  C   UNL     1     -11.294  12.328  68.887  1.00  0.00    -0.287 C  
ENDBRANCH  17  18
ENDBRANCH  16  17
ENDBRANCH   7   9
ENDBRANCH   2   3
TORSDOF 4
ENDMDL
MODEL      215
REMARK 921   NORMALIZED FREE ENERGY PREDICTED BY IDOCK:   -2.18 KCAL/MOL
REMARK 922        TOTAL FREE ENERGY PREDICTED BY IDOCK:   -3.54 KCAL/MOL
REMARK 923 INTER-LIGAND FREE ENERGY PREDICTED BY IDOCK:   -2.97 KCAL/MOL
REMARK 924 INTRA-LIGAND FREE ENERGY PREDICTED BY IDOCK:   -0.57 KCAL/MOL
REMARK 927      BINDING AFFINITY PREDICTED BY RF-SCORE:    0.00 PKD
ROOT
HETATM    1  C   UNL     1      -6.909   8.857  71.558  1.00  0.00    -0.075 C  
HETATM    2  O   UNL     1      -8.251   9.136  71.929  1.00  0.00    -0.336 OA 
ENDROOT
BRANCH   2   3
HETATM    3  C   UNL     1      -9.240   8.632  71.128  1.00  0.00    -0.213 A  
HETATM    4  C   UNL     1     -10.560   8.411  71.485  1.00  0.00    -0.307 A  
HETATM    5  C   UNL     1     -11.444   7.861  70.552  1.00  0.00    -0.204 A  
HETATM    6  C   UNL     1     -10.997   7.511  69.273  1.00  0.00    -0.057 A  
HETATM    7  C   UNL     1      -9.657   7.706  68.886  1.00  0.00    -0.150 A  
HETATM    8  C   UNL     1      -8.810   8.308  69.830  1.00  0.00    -0.138 A  
BRANCH   7   9
HETATM    9  C   UNL     1      -9.187   7.251  67.491  1.00  0.00    -0.130 C  
HETATM   10  O   UNL     1      -9.925   8.058  66.556  1.00  0.00    -0.324 OA 
HETATM   11  C   UNL     1      -7.690   7.508  67.179  1.00  0.00    -0.112 C  
HETATM   12  C   UNL     1      -6.711   6.537  67.847  1.00  0.00    -0.068 C  
HETATM   13  H   UNL     1      -9.634   7.777  65.696  1.00  0.00     0.000 HD 
HETATM   14  C   UNL     1      -7.133   5.073  67.797  1.00  0.00    -0.066 C  
HETATM   15  C   UNL     1      -8.613   4.858  68.097  1.00  0.00    -0.104 C  
HETATM   16  C   UNL     1      -9.523   5.742  67.223  1.00  0.00    -0.116 C  
BRANCH  16  17
HETATM   17  C   UNL     1      -9.425   5.378  65.709  1.00  0.00    -0.087 C  
BRANCH  17  18
HETATM   18  N   UNL     1      -9.763   3.979  65.355  1.00  0.00    -0.186 NA 
HETATM   19  C   UNL     1     -10.786   3.918  64.308  1.00  0.00    -0.199 C  
HETATM   20  C   UNL     1      -8.553   3.279  64.908  1.00  0.00    -0.103 C  
ENDBRANCH  17  18
ENDBRANCH  16  17
ENDBRANCH   7   9
ENDBRANCH   2   3
TORSDOF 4
ENDMDL
MODEL      216
REMARK 921   NORMALIZED FREE ENERGY PREDICTED BY IDOCK:   -2.18 KCAL/MOL
REMARK 922        TOTAL FREE ENERGY PREDICTED BY IDOCK:   -3.54 KCAL/MOL
REMARK 923 INTER-LIGAND FREE ENERGY PREDICTED BY IDOCK:   -3.65 KCAL/MOL
REMARK 924 INTRA-LIGAND FREE ENERGY PREDICTED BY IDOCK:    0.11 KCAL/MOL
REMARK 927      BINDING AFFINITY PREDICTED BY RF-SCORE:    0.00 PKD
ROOT
HETATM    1  C   UNL     1      -9.565  19.995  67.953  1.00  0.00    -0.367 C  
HETATM    2  O   UNL     1     -10.734  19.469  67.342  1.00  0.00    -0.468 OA 
ENDROOT
BRANCH   2   3
HETATM    3  C   UNL     1     -10.652  18.210  66.812  1.00  0.00    -0.291 A  
HETATM    4  C   UNL     1     -11.022  17.824  65.534  1.00  0.00     0.249 A  
HETATM    5  C   UNL     1     -10.899  16.485  65.154  1.00  0.00    -0.247 A  
HETATM    6  C   UNL     1     -10.429  15.531  66.063  1.00  0.00    -0.335 A  
HETATM    7  C   UNL     1     -10.061  15.887  67.375  1.00  0.00    -0.252 A  
HETATM    8  C   UNL     1     -10.148  17.250  67.706  1.00  0.00    -0.311 A  
BRANCH   7   9
HETATM    9  C   UNL     1      -9.607  14.800  68.368  1.00  0.00    -0.213 C  
HETATM   10  O   UNL     1      -9.219  15.507  69.560  1.00  0.00    -0.269 OA 
HETATM   11  C   UNL     1     -10.708  13.802  68.810  1.00  0.00    -0.267 C  
HETATM   12  C   UNL     1     -11.070  12.733  67.775  1.00  0.00    -0.289 C  
HETATM   13  H   UNL     1      -8.939  14.837  70.171  1.00  0.00     0.000 HD 
HETATM   14  C   UNL     1      -9.876  12.097  67.072  1.00  0.00    -0.212 C  
HETATM   15  C   UNL     1      -8.806  13.105  66.662  1.00  0.00    -0.076 C  
HETATM   16  C   UNL     1      -8.366  14.002  67.835  1.00  0.00    -0.168 C  
BRANCH  16  17
HETATM   17  C   UNL     1      -7.657  13.192  68.965  1.00  0.00     0.133 C  
BRANCH  17  18
HETATM   18  N   UNL     1      -6.252  13.569  69.249  1.00  0.00    -0.100 NA 
HETATM   19  C   UNL     1      -5.319  12.908  68.334  1.00  0.00    -0.067 C  
HETATM   20  C   UNL     1      -6.103  15.025  69.144  1.00  0.00    -0.103 C  
ENDBRANCH  17  18
ENDBRANCH  16  17
ENDBRANCH   7   9
ENDBRANCH   2   3
TORSDOF 4
ENDMDL
MODEL      217
REMARK 921   NORMALIZED FREE ENERGY PREDICTED BY IDOCK:   -2.15 KCAL/MOL
REMARK 922        TOTAL FREE ENERGY PREDICTED BY IDOCK:   -3.50 KCAL/MOL
REMARK 923 INTER-LIGAND FREE ENERGY PREDICTED BY IDOCK:   -2.99 KCAL/MOL
REMARK 924 INTRA-LIGAND FREE ENERGY PREDICTED BY IDOCK:   -0.51 KCAL/MOL
REMARK 927      BINDING AFFINITY PREDICTED BY RF-SCORE:    0.00 PKD
ROOT
HETATM    1  C   UNL     1      -6.922   4.650  63.504  1.00  0.00    -0.044 C  
HETATM    2  O   UNL     1      -7.183   5.652  64.475  1.00  0.00    -0.055 OA 
ENDROOT
BRANCH   2   3
HETATM    3  C   UNL     1      -8.302   5.497  65.250  1.00  0.00    -0.144 A  
HETATM    4  C   UNL     1      -9.360   4.636  65.011  1.00  0.00    -0.142 A  
HETATM    5  C   UNL     1     -10.446   4.617  65.890  1.00  0.00    -0.305 A  
HETATM    6  C   UNL     1     -10.481   5.479  66.992  1.00  0.00    -0.336 A  
HETATM    7  C   UNL     1      -9.430   6.380  67.252  1.00  0.00    -0.135 A  
HETATM    8  C   UNL     1      -8.331   6.334  66.378  1.00  0.00    -0.118 A  
BRANCH   7   9
HETATM    9  C   UNL     1      -9.531   7.357  68.439  1.00  0.00    -0.143 C  
HETATM   10  O   UNL     1      -9.300   8.663  67.880  1.00  0.00    -0.141 OA 
HETATM   11  C   UNL     1     -10.921   7.432  69.121  1.00  0.00    -0.057 C  
HETATM   12  C   UNL     1     -11.259   6.253  70.038  1.00  0.00    -0.480 C  
HETATM   13  H   UNL     1      -9.362   9.265  68.612  1.00  0.00     0.000 HD 
HETATM   14  C   UNL     1     -10.121   5.810  70.952  1.00  0.00    -0.256 C  
HETATM   15  C   UNL     1      -8.766   5.761  70.252  1.00  0.00    -0.137 C  
HETATM   16  C   UNL     1      -8.433   7.077  69.524  1.00  0.00    -0.134 C  
BRANCH  16  17
HETATM   17  C   UNL     1      -8.263   8.273  70.511  1.00  0.00    -0.114 C  
BRANCH  17  18
HETATM   18  N   UNL     1      -6.908   8.869  70.581  1.00  0.00    -0.049 NA 
HETATM   19  C   UNL     1      -6.924  10.291  70.233  1.00  0.00    -0.129 C  
HETATM   20  C   UNL     1      -6.365   8.694  71.934  1.00  0.00    -0.073 C  
ENDBRANCH  17  18
ENDBRANCH  16  17
ENDBRANCH   7   9
ENDBRANCH   2   3
TORSDOF 4
ENDMDL
MODEL      218
REMARK 921   NORMALIZED FREE ENERGY PREDICTED BY IDOCK:   -2.15 KCAL/MOL
REMARK 922        TOTAL FREE ENERGY PREDICTED BY IDOCK:   -3.50 KCAL/MOL
REMARK 923 INTER-LIGAND FREE ENERGY PREDICTED BY IDOCK:   -3.01 KCAL/MOL
REMARK 924 INTRA-LIGAND FREE ENERGY PREDICTED BY IDOCK:   -0.48 KCAL/MOL
REMARK 927      BINDING AFFINITY PREDICTED BY RF-SCORE:    0.00 PKD
ROOT
HETATM    1  C   UNL     1      -8.593   8.600  66.415  1.00  0.00    -0.119 C  
HETATM    2  O   UNL     1      -9.846   9.023  66.933  1.00  0.00    -0.185 OA 
ENDROOT
BRANCH   2   3
HETATM    3  C   UNL     1      -9.956   9.134  68.293  1.00  0.00    -0.175 A  
HETATM    4  C   UNL     1     -10.799   9.986  68.988  1.00  0.00    -0.253 A  
HETATM    5  C   UNL     1     -10.771   9.997  70.385  1.00  0.00    -0.369 A  
HETATM    6  C   UNL     1      -9.880   9.172  71.082  1.00  0.00    -0.371 A  
HETATM    7  C   UNL     1      -8.997   8.309  70.405  1.00  0.00    -0.146 A  
HETATM    8  C   UNL     1      -9.090   8.286  69.003  1.00  0.00    -0.147 A  
BRANCH   7   9
HETATM    9  C   UNL     1      -7.988   7.462  71.203  1.00  0.00    -0.100 C  
HETATM   10  O   UNL     1      -6.784   7.457  70.414  1.00  0.00    -0.046 OA 
HETATM   11  C   UNL     1      -7.583   8.038  72.584  1.00  0.00    -0.149 C  
HETATM   12  C   UNL     1      -8.628   7.870  73.691  1.00  0.00    -0.316 C  
HETATM   13  H   UNL     1      -6.162   6.935  70.907  1.00  0.00     0.000 HD 
HETATM   14  C   UNL     1      -9.288   6.496  73.740  1.00  0.00    -0.167 C  
HETATM   15  C   UNL     1      -9.661   5.954  72.363  1.00  0.00    -0.175 C  
HETATM   16  C   UNL     1      -8.476   5.982  71.380  1.00  0.00    -0.128 C  
BRANCH  16  17
HETATM   17  C   UNL     1      -7.320   5.030  71.820  1.00  0.00    -0.076 C  
BRANCH  17  18
HETATM   18  N   UNL     1      -6.846   4.069  70.796  1.00  0.00    -0.032 NA 
HETATM   19  C   UNL     1      -7.481   4.304  69.498  1.00  0.00    -0.054 C  
HETATM   20  C   UNL     1      -5.388   4.175  70.662  1.00  0.00    -0.004 C  
ENDBRANCH  17  18
ENDBRANCH  16  17
ENDBRANCH   7   9
ENDBRANCH   2   3
TORSDOF 4
ENDMDL
MODEL      219
REMARK 921   NORMALIZED FREE ENERGY PREDICTED BY IDOCK:   -2.13 KCAL/MOL
REMARK 922        TOTAL FREE ENERGY PREDICTED BY IDOCK:   -3.48 KCAL/MOL
REMARK 923 INTER-LIGAND FREE ENERGY PREDICTED BY IDOCK:   -2.92 KCAL/MOL
REMARK 924 INTRA-LIGAND FREE ENERGY PREDICTED BY IDOCK:   -0.56 KCAL/MOL
REMARK 927      BINDING AFFINITY PREDICTED BY RF-SCORE:    0.00 PKD
ROOT
HETATM    1  C   UNL     1     -11.008   8.879  71.507  1.00  0.00    -0.328 C  
HETATM    2  O   UNL     1     -11.541   7.570  71.648  1.00  0.00    -0.254 OA 
ENDROOT
BRANCH   2   3
HETATM    3  C   UNL     1     -10.810   6.537  71.126  1.00  0.00    -0.249 A  
HETATM    4  C   UNL     1     -10.439   5.373  71.779  1.00  0.00    -0.288 A  
HETATM    5  C   UNL     1      -9.665   4.422  71.110  1.00  0.00    -0.256 A  
HETATM    6  C   UNL     1      -9.243   4.651  69.795  1.00  0.00    -0.185 A  
HETATM    7  C   UNL     1      -9.588   5.831  69.109  1.00  0.00    -0.171 A  
HETATM    8  C   UNL     1     -10.410   6.741  69.794  1.00  0.00    -0.226 A  
BRANCH   7   9
HETATM    9  C   UNL     1      -9.053   6.076  67.685  1.00  0.00    -0.109 C  
HETATM   10  O   UNL     1     -10.013   5.464  66.805  1.00  0.00    -0.154 OA 
HETATM   11  C   UNL     1      -8.975   7.563  67.252  1.00  0.00    -0.130 C  
HETATM   12  C   UNL     1      -7.805   8.352  67.847  1.00  0.00    -0.107 C  
HETATM   13  H   UNL     1      -9.683   5.615  65.927  1.00  0.00     0.000 HD 
HETATM   14  C   UNL     1      -6.471   7.614  67.844  1.00  0.00    -0.054 C  
HETATM   15  C   UNL     1      -6.587   6.151  68.262  1.00  0.00    -0.058 C  
HETATM   16  C   UNL     1      -7.660   5.393  67.457  1.00  0.00    -0.088 C  
BRANCH  16  17
HETATM   17  C   UNL     1      -7.297   5.287  65.943  1.00  0.00    -0.081 C  
BRANCH  17  18
HETATM   18  N   UNL     1      -7.001   3.925  65.440  1.00  0.00    -0.060 NA 
HETATM   19  C   UNL     1      -8.226   3.163  65.188  1.00  0.00    -0.094 C  
HETATM   20  C   UNL     1      -6.212   4.018  64.206  1.00  0.00    -0.026 C  
ENDBRANCH  17  18
ENDBRANCH  16  17
ENDBRANCH   7   9
ENDBRANCH   2   3
TORSDOF 4
ENDMDL
MODEL      220
REMARK 921   NORMALIZED FREE ENERGY PREDICTED BY IDOCK:   -2.12 KCAL/MOL
REMARK 922        TOTAL FREE ENERGY PREDICTED BY IDOCK:   -3.46 KCAL/MOL
REMARK 923 INTER-LIGAND FREE ENERGY PREDICTED BY IDOCK:   -3.27 KCAL/MOL
REMARK 924 INTRA-LIGAND FREE ENERGY PREDICTED BY IDOCK:   -0.18 KCAL/MOL
REMARK 927      BINDING AFFINITY PREDICTED BY RF-SCORE:    0.00 PKD
ROOT
HETATM    1  C   UNL     1      -7.856  14.044  67.515  1.00  0.00    -0.184 C  
HETATM    2  O   UNL     1      -8.945  14.092  68.424  1.00  0.00    -0.183 OA 
ENDROOT
BRANCH   2   3
HETATM    3  C   UNL     1      -9.963  13.198  68.229  1.00  0.00    -0.236 A  
HETATM    4  C   UNL     1     -11.322  13.466  68.279  1.00  0.00    -0.330 A  
HETATM    5  C   UNL     1     -12.238  12.429  68.083  1.00  0.00     0.138 A  
HETATM    6  C   UNL     1     -11.791  11.122  67.863  1.00  0.00    -0.162 A  
HETATM    7  C   UNL     1     -10.418  10.812  67.825  1.00  0.00    -0.243 A  
HETATM    8  C   UNL     1      -9.526  11.887  67.973  1.00  0.00    -0.197 A  
BRANCH   7   9
HETATM    9  C   UNL     1      -9.964   9.351  67.642  1.00  0.00    -0.190 C  
HETATM   10  O   UNL     1     -11.070   8.548  68.094  1.00  0.00    -0.452 OA 
HETATM   11  C   UNL     1      -9.698   8.916  66.178  1.00  0.00    -0.338 C  
HETATM   12  C   UNL     1      -8.382   9.420  65.579  1.00  0.00    -0.139 C  
HETATM   13  H   UNL     1     -10.789   7.647  67.981  1.00  0.00     0.000 HD 
HETATM   14  C   UNL     1      -7.177   9.311  66.507  1.00  0.00    -0.086 C  
HETATM   15  C   UNL     1      -7.477   9.735  67.942  1.00  0.00    -0.086 C  
HETATM   16  C   UNL     1      -8.709   9.014  68.521  1.00  0.00    -0.133 C  
BRANCH  16  17
HETATM   17  C   UNL     1      -8.484   7.476  68.659  1.00  0.00    -0.129 C  
BRANCH  17  18
HETATM   18  N   UNL     1      -8.261   6.973  70.035  1.00  0.00    -0.131 NA 
HETATM   19  C   UNL     1      -6.855   6.638  70.268  1.00  0.00    -0.058 C  
HETATM   20  C   UNL     1      -8.698   7.986  71.004  1.00  0.00    -0.135 C  
ENDBRANCH  17  18
ENDBRANCH  16  17
ENDBRANCH   7   9
ENDBRANCH   2   3
TORSDOF 4
ENDMDL
MODEL      221
REMARK 921   NORMALIZED FREE ENERGY PREDICTED BY IDOCK:   -2.11 KCAL/MOL
REMARK 922        TOTAL FREE ENERGY PREDICTED BY IDOCK:   -3.45 KCAL/MOL
REMARK 923 INTER-LIGAND FREE ENERGY PREDICTED BY IDOCK:   -2.91 KCAL/MOL
REMARK 924 INTRA-LIGAND FREE ENERGY PREDICTED BY IDOCK:   -0.54 KCAL/MOL
REMARK 927      BINDING AFFINITY PREDICTED BY RF-SCORE:    0.00 PKD
ROOT
HETATM    1  C   UNL     1     -11.701   9.331  71.256  1.00  0.00    -0.346 C  
HETATM    2  O   UNL     1     -10.338   9.337  71.654  1.00  0.00    -0.340 OA 
ENDROOT
BRANCH   2   3
HETATM    3  C   UNL     1      -9.833   8.178  72.179  1.00  0.00    -0.246 A  
HETATM    4  C   UNL     1      -9.320   8.002  73.454  1.00  0.00    -0.323 A  
HETATM    5  C   UNL     1      -8.816   6.753  73.829  1.00  0.00    -0.164 A  
HETATM    6  C   UNL     1      -8.804   5.692  72.917  1.00  0.00    -0.124 A  
HETATM    7  C   UNL     1      -9.301   5.843  71.608  1.00  0.00    -0.162 A  
HETATM    8  C   UNL     1      -9.847   7.096  71.283  1.00  0.00    -0.178 A  
BRANCH   7   9
HETATM    9  C   UNL     1      -9.214   4.671  70.613  1.00  0.00    -0.136 C  
HETATM   10  O   UNL     1      -9.845   3.559  71.274  1.00  0.00    -0.182 OA 
HETATM   11  C   UNL     1      -9.990   4.867  69.286  1.00  0.00    -0.270 C  
HETATM   12  C   UNL     1      -9.321   5.802  68.273  1.00  0.00    -0.123 C  
HETATM   13  H   UNL     1      -9.791   2.837  70.660  1.00  0.00     0.000 HD 
HETATM   14  C   UNL     1      -7.819   5.594  68.110  1.00  0.00    -0.096 C  
HETATM   15  C   UNL     1      -7.089   5.391  69.435  1.00  0.00    -0.063 C  
HETATM   16  C   UNL     1      -7.727   4.283  70.294  1.00  0.00    -0.045 C  
BRANCH  16  17
HETATM   17  C   UNL     1      -7.617   2.877  69.624  1.00  0.00    -0.044 C  
BRANCH  17  18
HETATM   18  N   UNL     1      -6.249   2.435  69.265  1.00  0.00    -0.025 NA 
HETATM   19  C   UNL     1      -5.641   1.637  70.332  1.00  0.00    -0.016 C  
HETATM   20  C   UNL     1      -6.296   1.653  68.024  1.00  0.00    -0.025 C  
ENDBRANCH  17  18
ENDBRANCH  16  17
ENDBRANCH   7   9
ENDBRANCH   2   3
TORSDOF 4
ENDMDL
MODEL      222
REMARK 921   NORMALIZED FREE ENERGY PREDICTED BY IDOCK:   -2.10 KCAL/MOL
REMARK 922        TOTAL FREE ENERGY PREDICTED BY IDOCK:   -3.43 KCAL/MOL
REMARK 923 INTER-LIGAND FREE ENERGY PREDICTED BY IDOCK:   -2.70 KCAL/MOL
REMARK 924 INTRA-LIGAND FREE ENERGY PREDICTED BY IDOCK:   -0.74 KCAL/MOL
REMARK 927      BINDING AFFINITY PREDICTED BY RF-SCORE:    0.00 PKD
ROOT
HETATM    1  C   UNL     1     -11.341  10.689  67.108  1.00  0.00     0.036 C  
HETATM    2  O   UNL     1     -11.978  10.439  68.352  1.00  0.00    -0.270 OA 
ENDROOT
BRANCH   2   3
HETATM    3  C   UNL     1     -11.187  10.023  69.389  1.00  0.00    -0.188 A  
HETATM    4  C   UNL     1     -11.607   9.673  70.662  1.00  0.00    -0.371 A  
HETATM    5  C   UNL     1     -10.664   9.293  71.620  1.00  0.00    -0.393 A  
HETATM    6  C   UNL     1      -9.300   9.288  71.309  1.00  0.00    -0.200 A  
HETATM    7  C   UNL     1      -8.838   9.655  70.030  1.00  0.00    -0.259 A  
HETATM    8  C   UNL     1      -9.817   9.982  69.077  1.00  0.00    -0.203 A  
BRANCH   7   9
HETATM    9  C   UNL     1      -7.325   9.698  69.742  1.00  0.00    -0.104 C  
HETATM   10  O   UNL     1      -6.917  11.046  70.038  1.00  0.00    -0.302 OA 
HETATM   11  C   UNL     1      -6.452   8.787  70.642  1.00  0.00    -0.043 C  
HETATM   12  C   UNL     1      -6.496   7.296  70.294  1.00  0.00    -0.042 C  
HETATM   13  H   UNL     1      -5.984  11.072  69.860  1.00  0.00     0.000 HD 
HETATM   14  C   UNL     1      -6.416   6.987  68.803  1.00  0.00    -0.032 C  
HETATM   15  C   UNL     1      -7.277   7.911  67.946  1.00  0.00    -0.091 C  
HETATM   16  C   UNL     1      -7.008   9.400  68.235  1.00  0.00    -0.071 C  
BRANCH  16  17
HETATM   17  C   UNL     1      -5.558   9.825  67.844  1.00  0.00    -0.040 C  
BRANCH  17  18
HETATM   18  N   UNL     1      -5.433  10.659  66.625  1.00  0.00    -0.052 NA 
HETATM   19  C   UNL     1      -5.247   9.840  65.426  1.00  0.00    -0.048 C  
HETATM   20  C   UNL     1      -6.631  11.493  66.476  1.00  0.00    -0.022 C  
ENDBRANCH  17  18
ENDBRANCH  16  17
ENDBRANCH   7   9
ENDBRANCH   2   3
TORSDOF 4
ENDMDL
MODEL      223
REMARK 921   NORMALIZED FREE ENERGY PREDICTED BY IDOCK:   -2.07 KCAL/MOL
REMARK 922        TOTAL FREE ENERGY PREDICTED BY IDOCK:   -3.40 KCAL/MOL
REMARK 923 INTER-LIGAND FREE ENERGY PREDICTED BY IDOCK:   -3.19 KCAL/MOL
REMARK 924 INTRA-LIGAND FREE ENERGY PREDICTED BY IDOCK:   -0.21 KCAL/MOL
REMARK 927      BINDING AFFINITY PREDICTED BY RF-SCORE:    0.00 PKD
ROOT
HETATM    1  C   UNL     1      -6.377   5.928  63.584  1.00  0.00    -0.029 C  
HETATM    2  O   UNL     1      -6.548   7.327  63.408  1.00  0.00    -0.051 OA 
ENDROOT
BRANCH   2   3
HETATM    3  C   UNL     1      -7.535   7.935  64.136  1.00  0.00    -0.105 A  
HETATM    4  C   UNL     1      -8.321   9.002  63.735  1.00  0.00    -0.178 A  
HETATM    5  C   UNL     1      -9.273   9.527  64.614  1.00  0.00    -0.247 A  
HETATM    6  C   UNL     1      -9.418   8.997  65.901  1.00  0.00    -0.317 A  
HETATM    7  C   UNL     1      -8.621   7.924  66.346  1.00  0.00    -0.156 A  
HETATM    8  C   UNL     1      -7.712   7.388  65.419  1.00  0.00    -0.110 A  
BRANCH   7   9
HETATM    9  C   UNL     1      -8.765   7.407  67.790  1.00  0.00    -0.126 C  
HETATM   10  O   UNL     1      -9.076   6.008  67.667  1.00  0.00    -0.112 OA 
HETATM   11  C   UNL     1      -7.478   7.478  68.651  1.00  0.00    -0.101 C  
HETATM   12  C   UNL     1      -7.116   8.874  69.166  1.00  0.00    -0.063 C  
HETATM   13  H   UNL     1      -9.165   5.690  68.558  1.00  0.00     0.000 HD 
HETATM   14  C   UNL     1      -8.293   9.678  69.708  1.00  0.00    -0.183 C  
HETATM   15  C   UNL     1      -9.546   9.576  68.843  1.00  0.00    -0.156 C  
HETATM   16  C   UNL     1      -9.940   8.116  68.551  1.00  0.00    -0.204 C  
BRANCH  16  17
HETATM   17  C   UNL     1     -10.353   7.345  69.843  1.00  0.00    -0.218 C  
BRANCH  17  18
HETATM   18  N   UNL     1     -11.500   7.907  70.595  1.00  0.00    -0.267 NA 
HETATM   19  C   UNL     1     -12.535   6.900  70.836  1.00  0.00    -0.262 C  
HETATM   20  C   UNL     1     -11.028   8.450  71.874  1.00  0.00    -0.305 C  
ENDBRANCH  17  18
ENDBRANCH  16  17
ENDBRANCH   7   9
ENDBRANCH   2   3
TORSDOF 4
ENDMDL
MODEL      224
REMARK 921   NORMALIZED FREE ENERGY PREDICTED BY IDOCK:   -1.99 KCAL/MOL
REMARK 922        TOTAL FREE ENERGY PREDICTED BY IDOCK:   -3.30 KCAL/MOL
REMARK 923 INTER-LIGAND FREE ENERGY PREDICTED BY IDOCK:   -2.76 KCAL/MOL
REMARK 924 INTRA-LIGAND FREE ENERGY PREDICTED BY IDOCK:   -0.54 KCAL/MOL
REMARK 927      BINDING AFFINITY PREDICTED BY RF-SCORE:    0.00 PKD
ROOT
HETATM    1  C   UNL     1     -11.210  11.149  67.159  1.00  0.00    -0.249 C  
HETATM    2  O   UNL     1      -9.821  10.852  67.183  1.00  0.00    -0.179 OA 
ENDROOT
BRANCH   2   3
HETATM    3  C   UNL     1      -9.378  10.011  68.168  1.00  0.00    -0.131 A  
HETATM    4  C   UNL     1      -8.628  10.361  69.280  1.00  0.00    -0.159 A  
HETATM    5  C   UNL     1      -8.230   9.373  70.183  1.00  0.00    -0.180 A  
HETATM    6  C   UNL     1      -8.562   8.032  69.958  1.00  0.00    -0.134 A  
HETATM    7  C   UNL     1      -9.307   7.641  68.829  1.00  0.00    -0.148 A  
HETATM    8  C   UNL     1      -9.735   8.667  67.970  1.00  0.00    -0.184 A  
BRANCH   7   9
HETATM    9  C   UNL     1      -9.600   6.149  68.581  1.00  0.00    -0.127 C  
HETATM   10  O   UNL     1     -10.924   5.928  69.099  1.00  0.00    -0.333 OA 
HETATM   11  C   UNL     1      -9.654   5.721  67.092  1.00  0.00    -0.134 C  
HETATM   12  C   UNL     1      -8.293   5.587  66.404  1.00  0.00    -0.111 C  
HETATM   13  H   UNL     1     -11.105   5.008  68.946  1.00  0.00     0.000 HD 
HETATM   14  C   UNL     1      -7.227   4.880  67.234  1.00  0.00    -0.074 C  
HETATM   15  C   UNL     1      -7.210   5.315  68.696  1.00  0.00    -0.062 C  
HETATM   16  C   UNL     1      -8.600   5.219  69.353  1.00  0.00    -0.102 C  
BRANCH  16  17
HETATM   17  C   UNL     1      -9.112   3.748  69.440  1.00  0.00    -0.132 C  
BRANCH  17  18
HETATM   18  N   UNL     1      -9.384   3.235  70.804  1.00  0.00    -0.140 NA 
HETATM   19  C   UNL     1      -9.128   1.797  70.903  1.00  0.00    -0.087 C  
HETATM   20  C   UNL     1      -8.551   3.956  71.774  1.00  0.00    -0.094 C  
ENDBRANCH  17  18
ENDBRANCH  16  17
ENDBRANCH   7   9
ENDBRANCH   2   3
TORSDOF 4
ENDMDL
MODEL      225
REMARK 921   NORMALIZED FREE ENERGY PREDICTED BY IDOCK:   -1.94 KCAL/MOL
REMARK 922        TOTAL FREE ENERGY PREDICTED BY IDOCK:   -3.24 KCAL/MOL
REMARK 923 INTER-LIGAND FREE ENERGY PREDICTED BY IDOCK:   -4.04 KCAL/MOL
REMARK 924 INTRA-LIGAND FREE ENERGY PREDICTED BY IDOCK:    0.80 KCAL/MOL
REMARK 927      BINDING AFFINITY PREDICTED BY RF-SCORE:    0.00 PKD
ROOT
HETATM    1  C   UNL     1     -11.753  15.727  63.985  1.00  0.00     0.093 C  
HETATM    2  O   UNL     1     -11.170  16.806  64.701  1.00  0.00    -0.835 OA 
ENDROOT
BRANCH   2   3
HETATM    3  C   UNL     1     -10.899  16.603  66.028  1.00  0.00    -0.041 A  
HETATM    4  C   UNL     1     -10.447  17.548  66.934  1.00  0.00    -0.285 A  
HETATM    5  C   UNL     1     -10.190  17.171  68.255  1.00  0.00    -0.334 A  
HETATM    6  C   UNL     1     -10.364  15.842  68.658  1.00  0.00    -0.229 A  
HETATM    7  C   UNL     1     -10.805  14.853  67.757  1.00  0.00    -0.286 A  
HETATM    8  C   UNL     1     -11.102  15.279  66.452  1.00  0.00    -0.273 A  
BRANCH   7   9
HETATM    9  C   UNL     1     -10.924  13.389  68.221  1.00  0.00    -0.259 C  
HETATM   10  O   UNL     1     -11.694  13.434  69.436  1.00  0.00    -0.288 OA 
HETATM   11  C   UNL     1     -11.703  12.451  67.264  1.00  0.00    -0.419 C  
HETATM   12  C   UNL     1     -10.933  12.012  66.015  1.00  0.00    -0.346 C  
HETATM   13  H   UNL     1     -11.768  12.531  69.722  1.00  0.00     0.000 HD 
HETATM   14  C   UNL     1      -9.484  11.608  66.269  1.00  0.00    -0.233 C  
HETATM   15  C   UNL     1      -8.752  12.545  67.224  1.00  0.00    -0.193 C  
HETATM   16  C   UNL     1      -9.523  12.760  68.541  1.00  0.00    -0.094 C  
BRANCH  16  17
HETATM   17  C   UNL     1      -9.644  11.448  69.376  1.00  0.00     0.419 C  
BRANCH  17  18
HETATM   18  N   UNL     1     -10.458  10.367  68.772  1.00  0.00    -0.187 NA 
HETATM   19  C   UNL     1      -9.662   9.163  68.524  1.00  0.00    -0.155 C  
HETATM   20  C   UNL     1     -11.582  10.045  69.659  1.00  0.00    -0.096 C  
ENDBRANCH  17  18
ENDBRANCH  16  17
ENDBRANCH   7   9
ENDBRANCH   2   3
TORSDOF 4
ENDMDL
MODEL      226
REMARK 921   NORMALIZED FREE ENERGY PREDICTED BY IDOCK:   -1.92 KCAL/MOL
REMARK 922        TOTAL FREE ENERGY PREDICTED BY IDOCK:   -3.21 KCAL/MOL
REMARK 923 INTER-LIGAND FREE ENERGY PREDICTED BY IDOCK:   -3.10 KCAL/MOL
REMARK 924 INTRA-LIGAND FREE ENERGY PREDICTED BY IDOCK:   -0.11 KCAL/MOL
REMARK 927      BINDING AFFINITY PREDICTED BY RF-SCORE:    0.00 PKD
ROOT
HETATM    1  C   UNL     1     -11.851  11.909  64.280  1.00  0.00    -0.279 C  
HETATM    2  O   UNL     1     -12.095  13.005  65.149  1.00  0.00    -0.378 OA 
ENDROOT
BRANCH   2   3
HETATM    3  C   UNL     1     -11.168  13.247  66.127  1.00  0.00    -0.296 A  
HETATM    4  C   UNL     1     -11.045  14.402  66.882  1.00  0.00    -0.325 A  
HETATM    5  C   UNL     1     -10.022  14.502  67.829  1.00  0.00    -0.225 A  
HETATM    6  C   UNL     1      -9.110  13.454  67.999  1.00  0.00    -0.205 A  
HETATM    7  C   UNL     1      -9.197  12.274  67.235  1.00  0.00    -0.185 A  
HETATM    8  C   UNL     1     -10.268  12.187  66.330  1.00  0.00    -0.245 A  
BRANCH   7   9
HETATM    9  C   UNL     1      -8.138  11.168  67.406  1.00  0.00    -0.132 C  
HETATM   10  O   UNL     1      -8.770   9.959  66.947  1.00  0.00    -0.128 OA 
HETATM   11  C   UNL     1      -6.862  11.331  66.541  1.00  0.00    -0.101 C  
HETATM   12  C   UNL     1      -5.869  12.385  67.039  1.00  0.00     0.028 C  
HETATM   13  H   UNL     1      -8.117   9.278  67.053  1.00  0.00     0.000 HD 
HETATM   14  C   UNL     1      -5.623  12.367  68.545  1.00  0.00    -0.054 C  
HETATM   15  C   UNL     1      -6.898  12.193  69.364  1.00  0.00    -0.010 C  
HETATM   16  C   UNL     1      -7.728  10.978  68.909  1.00  0.00    -0.140 C  
BRANCH  16  17
HETATM   17  C   UNL     1      -6.981   9.629  69.148  1.00  0.00    -0.050 C  
BRANCH  17  18
HETATM   18  N   UNL     1      -7.482   8.800  70.270  1.00  0.00    -0.061 NA 
HETATM   19  C   UNL     1      -6.595   8.872  71.433  1.00  0.00    -0.081 C  
HETATM   20  C   UNL     1      -8.830   9.244  70.644  1.00  0.00    -0.237 C  
ENDBRANCH  17  18
ENDBRANCH  16  17
ENDBRANCH   7   9
ENDBRANCH   2   3
TORSDOF 4
ENDMDL
MODEL      227
REMARK 921   NORMALIZED FREE ENERGY PREDICTED BY IDOCK:   -1.86 KCAL/MOL
REMARK 922        TOTAL FREE ENERGY PREDICTED BY IDOCK:   -3.14 KCAL/MOL
REMARK 923 INTER-LIGAND FREE ENERGY PREDICTED BY IDOCK:   -2.53 KCAL/MOL
REMARK 924 INTRA-LIGAND FREE ENERGY PREDICTED BY IDOCK:   -0.62 KCAL/MOL
REMARK 927      BINDING AFFINITY PREDICTED BY RF-SCORE:    0.00 PKD
ROOT
HETATM    1  C   UNL     1      -9.904   2.610  63.930  1.00  0.00    -0.145 C  
HETATM    2  O   UNL     1      -9.902   3.623  64.925  1.00  0.00    -0.175 OA 
ENDROOT
BRANCH   2   3
HETATM    3  C   UNL     1      -8.921   3.563  65.879  1.00  0.00    -0.142 A  
HETATM    4  C   UNL     1      -7.714   2.889  65.782  1.00  0.00    -0.081 A  
HETATM    5  C   UNL     1      -6.828   2.904  66.862  1.00  0.00    -0.048 A  
HETATM    6  C   UNL     1      -7.163   3.572  68.045  1.00  0.00    -0.051 A  
HETATM    7  C   UNL     1      -8.390   4.250  68.182  1.00  0.00    -0.097 A  
HETATM    8  C   UNL     1      -9.234   4.258  67.059  1.00  0.00    -0.163 A  
BRANCH   7   9
HETATM    9  C   UNL     1      -8.752   4.921  69.521  1.00  0.00    -0.086 C  
HETATM   10  O   UNL     1      -9.513   3.939  70.247  1.00  0.00    -0.152 OA 
HETATM   11  C   UNL     1      -7.549   5.278  70.431  1.00  0.00    -0.075 C  
HETATM   12  C   UNL     1      -6.755   6.516  70.004  1.00  0.00    -0.049 C  
HETATM   13  H   UNL     1      -9.737   4.353  71.073  1.00  0.00     0.000 HD 
HETATM   14  C   UNL     1      -7.610   7.705  69.577  1.00  0.00    -0.098 C  
HETATM   15  C   UNL     1      -8.791   7.316  68.694  1.00  0.00    -0.129 C  
HETATM   16  C   UNL     1      -9.645   6.194  69.315  1.00  0.00    -0.153 C  
BRANCH  16  17
HETATM   17  C   UNL     1     -10.341   6.644  70.637  1.00  0.00    -0.202 C  
BRANCH  17  18
HETATM   18  N   UNL     1     -11.594   7.420  70.479  1.00  0.00    -0.264 NA 
HETATM   19  C   UNL     1     -12.740   6.724  71.068  1.00  0.00    -0.132 C  
HETATM   20  C   UNL     1     -11.437   8.738  71.106  1.00  0.00    -0.286 C  
ENDBRANCH  17  18
ENDBRANCH  16  17
ENDBRANCH   7   9
ENDBRANCH   2   3
TORSDOF 4
ENDMDL
MODEL      228
REMARK 921   NORMALIZED FREE ENERGY PREDICTED BY IDOCK:   -1.86 KCAL/MOL
REMARK 922        TOTAL FREE ENERGY PREDICTED BY IDOCK:   -3.14 KCAL/MOL
REMARK 923 INTER-LIGAND FREE ENERGY PREDICTED BY IDOCK:   -2.39 KCAL/MOL
REMARK 924 INTRA-LIGAND FREE ENERGY PREDICTED BY IDOCK:   -0.75 KCAL/MOL
REMARK 927      BINDING AFFINITY PREDICTED BY RF-SCORE:    0.00 PKD
ROOT
HETATM    1  C   UNL     1     -10.898   5.586  66.401  1.00  0.00    -0.122 C  
HETATM    2  O   UNL     1      -9.655   5.457  65.725  1.00  0.00    -0.139 OA 
ENDROOT
BRANCH   2   3
HETATM    3  C   UNL     1      -8.535   5.881  66.388  1.00  0.00    -0.120 A  
HETATM    4  C   UNL     1      -7.361   5.167  66.568  1.00  0.00    -0.086 A  
HETATM    5  C   UNL     1      -6.313   5.735  67.298  1.00  0.00    -0.042 A  
HETATM    6  C   UNL     1      -6.453   7.006  67.867  1.00  0.00    -0.051 A  
HETATM    7  C   UNL     1      -7.640   7.749  67.719  1.00  0.00    -0.113 A  
HETATM    8  C   UNL     1      -8.653   7.170  66.936  1.00  0.00    -0.124 A  
BRANCH   7   9
HETATM    9  C   UNL     1      -7.782   9.118  68.412  1.00  0.00    -0.094 C  
HETATM   10  O   UNL     1      -8.518   8.860  69.621  1.00  0.00    -0.121 OA 
HETATM   11  C   UNL     1      -6.452   9.775  68.861  1.00  0.00    -0.045 C  
HETATM   12  C   UNL     1      -5.627  10.408  67.736  1.00  0.00    -0.044 C  
HETATM   13  H   UNL     1      -8.605   9.704  70.048  1.00  0.00     0.000 HD 
HETATM   14  C   UNL     1      -6.437  11.224  66.734  1.00  0.00    -0.136 C  
HETATM   15  C   UNL     1      -7.745  10.554  66.324  1.00  0.00    -0.135 C  
HETATM   16  C   UNL     1      -8.596  10.135  67.538  1.00  0.00    -0.118 C  
BRANCH  16  17
HETATM   17  C   UNL     1      -9.087  11.362  68.368  1.00  0.00    -0.179 C  
BRANCH  17  18
HETATM   18  N   UNL     1     -10.518  11.716  68.218  1.00  0.00    -0.196 NA 
HETATM   19  C   UNL     1     -10.714  12.766  67.216  1.00  0.00    -0.237 C  
HETATM   20  C   UNL     1     -11.282  10.521  67.841  1.00  0.00    -0.289 C  
ENDBRANCH  17  18
ENDBRANCH  16  17
ENDBRANCH   7   9
ENDBRANCH   2   3
TORSDOF 4
ENDMDL
MODEL      229
REMARK 921   NORMALIZED FREE ENERGY PREDICTED BY IDOCK:   -1.85 KCAL/MOL
REMARK 922        TOTAL FREE ENERGY PREDICTED BY IDOCK:   -3.13 KCAL/MOL
REMARK 923 INTER-LIGAND FREE ENERGY PREDICTED BY IDOCK:   -2.99 KCAL/MOL
REMARK 924 INTRA-LIGAND FREE ENERGY PREDICTED BY IDOCK:   -0.14 KCAL/MOL
REMARK 927      BINDING AFFINITY PREDICTED BY RF-SCORE:    0.00 PKD
ROOT
HETATM    1  C   UNL     1      -5.684  13.510  68.651  1.00  0.00    -0.085 C  
HETATM    2  O   UNL     1      -6.255  12.251  68.327  1.00  0.00    -0.050 OA 
ENDROOT
BRANCH   2   3
HETATM    3  C   UNL     1      -6.367  11.335  69.339  1.00  0.00    -0.092 A  
HETATM    4  C   UNL     1      -5.421  11.057  70.312  1.00  0.00    -0.091 A  
HETATM    5  C   UNL     1      -5.681  10.068  71.264  1.00  0.00    -0.037 A  
HETATM    6  C   UNL     1      -6.878   9.343  71.224  1.00  0.00     0.010 A  
HETATM    7  C   UNL     1      -7.852   9.588  70.237  1.00  0.00    -0.180 A  
HETATM    8  C   UNL     1      -7.580  10.625  69.328  1.00  0.00    -0.138 A  
BRANCH   7   9
HETATM    9  C   UNL     1      -9.128   8.728  70.186  1.00  0.00    -0.167 C  
HETATM   10  O   UNL     1      -8.875   7.614  71.061  1.00  0.00    -0.139 OA 
HETATM   11  C   UNL     1     -10.410   9.409  70.732  1.00  0.00    -0.366 C  
HETATM   12  C   UNL     1     -11.046  10.442  69.797  1.00  0.00    -0.352 C  
HETATM   13  H   UNL     1      -9.662   7.084  71.030  1.00  0.00     0.000 HD 
HETATM   14  C   UNL     1     -11.121  10.017  68.335  1.00  0.00    -0.236 C  
HETATM   15  C   UNL     1      -9.849   9.339  67.835  1.00  0.00    -0.200 C  
HETATM   16  C   UNL     1      -9.406   8.177  68.744  1.00  0.00    -0.143 C  
BRANCH  16  17
HETATM   17  C   UNL     1     -10.437   7.005  68.750  1.00  0.00    -0.206 C  
BRANCH  17  18
HETATM   18  N   UNL     1     -10.055   5.801  67.976  1.00  0.00    -0.148 NA 
HETATM   19  C   UNL     1     -10.684   5.785  66.654  1.00  0.00    -0.262 C  
HETATM   20  C   UNL     1      -8.595   5.753  67.833  1.00  0.00    -0.101 C  
ENDBRANCH  17  18
ENDBRANCH  16  17
ENDBRANCH   7   9
ENDBRANCH   2   3
TORSDOF 4
ENDMDL
MODEL      230
REMARK 921   NORMALIZED FREE ENERGY PREDICTED BY IDOCK:   -1.83 KCAL/MOL
REMARK 922        TOTAL FREE ENERGY PREDICTED BY IDOCK:   -3.10 KCAL/MOL
REMARK 923 INTER-LIGAND FREE ENERGY PREDICTED BY IDOCK:   -2.50 KCAL/MOL
REMARK 924 INTRA-LIGAND FREE ENERGY PREDICTED BY IDOCK:   -0.60 KCAL/MOL
REMARK 927      BINDING AFFINITY PREDICTED BY RF-SCORE:    0.00 PKD
ROOT
HETATM    1  C   UNL     1      -9.998   8.732  70.186  1.00  0.00    -0.184 C  
HETATM    2  O   UNL     1      -9.476  10.041  70.006  1.00  0.00    -0.224 OA 
ENDROOT
BRANCH   2   3
HETATM    3  C   UNL     1      -8.822  10.297  68.831  1.00  0.00    -0.157 A  
HETATM    4  C   UNL     1      -8.275  11.507  68.436  1.00  0.00    -0.152 A  
HETATM    5  C   UNL     1      -7.659  11.611  67.186  1.00  0.00    -0.152 A  
HETATM    6  C   UNL     1      -7.616  10.510  66.324  1.00  0.00    -0.133 A  
HETATM    7  C   UNL     1      -8.180   9.272  66.687  1.00  0.00    -0.115 A  
HETATM    8  C   UNL     1      -8.743   9.189  67.971  1.00  0.00    -0.129 A  
BRANCH   7   9
HETATM    9  C   UNL     1      -8.169   8.100  65.687  1.00  0.00    -0.133 C  
HETATM   10  O   UNL     1      -9.286   8.334  64.810  1.00  0.00    -0.246 OA 
HETATM   11  C   UNL     1      -6.922   8.021  64.769  1.00  0.00    -0.070 C  
HETATM   12  C   UNL     1      -5.654   7.487  65.439  1.00  0.00    -0.033 C  
HETATM   13  H   UNL     1      -9.279   7.611  64.194  1.00  0.00     0.000 HD 
HETATM   14  C   UNL     1      -5.869   6.267  66.330  1.00  0.00    -0.024 C  
HETATM   15  C   UNL     1      -7.111   6.372  67.210  1.00  0.00    -0.073 C  
HETATM   16  C   UNL     1      -8.376   6.718  66.402  1.00  0.00    -0.121 C  
BRANCH  16  17
HETATM   17  C   UNL     1      -8.764   5.589  65.398  1.00  0.00    -0.148 C  
BRANCH  17  18
HETATM   18  N   UNL     1      -9.713   4.569  65.903  1.00  0.00    -0.186 NA 
HETATM   19  C   UNL     1     -10.869   5.184  66.559  1.00  0.00    -0.070 C  
HETATM   20  C   UNL     1     -10.165   3.725  64.791  1.00  0.00    -0.150 C  
ENDBRANCH  17  18
ENDBRANCH  16  17
ENDBRANCH   7   9
ENDBRANCH   2   3
TORSDOF 4
ENDMDL
MODEL      231
REMARK 921   NORMALIZED FREE ENERGY PREDICTED BY IDOCK:   -1.83 KCAL/MOL
REMARK 922        TOTAL FREE ENERGY PREDICTED BY IDOCK:   -3.10 KCAL/MOL
REMARK 923 INTER-LIGAND FREE ENERGY PREDICTED BY IDOCK:   -2.55 KCAL/MOL
REMARK 924 INTRA-LIGAND FREE ENERGY PREDICTED BY IDOCK:   -0.55 KCAL/MOL
REMARK 927      BINDING AFFINITY PREDICTED BY RF-SCORE:    0.00 PKD
ROOT
HETATM    1  C   UNL     1      -5.910  13.430  69.267  1.00  0.00    -0.087 C  
HETATM    2  O   UNL     1      -6.402  12.235  68.678  1.00  0.00    -0.063 OA 
ENDROOT
BRANCH   2   3
HETATM    3  C   UNL     1      -6.517  11.139  69.490  1.00  0.00    -0.117 A  
HETATM    4  C   UNL     1      -5.641  10.755  70.492  1.00  0.00    -0.106 A  
HETATM    5  C   UNL     1      -5.889   9.587  71.216  1.00  0.00    -0.075 A  
HETATM    6  C   UNL     1      -7.002   8.792  70.919  1.00  0.00    -0.072 A  
HETATM    7  C   UNL     1      -7.902   9.144  69.894  1.00  0.00    -0.091 A  
HETATM    8  C   UNL     1      -7.650  10.351  69.222  1.00  0.00    -0.132 A  
BRANCH   7   9
HETATM    9  C   UNL     1      -9.080   8.212  69.553  1.00  0.00    -0.151 C  
HETATM   10  O   UNL     1      -9.723   7.932  70.810  1.00  0.00    -0.172 OA 
HETATM   11  C   UNL     1     -10.177   8.832  68.649  1.00  0.00    -0.214 C  
HETATM   12  C   UNL     1      -9.810   8.943  67.166  1.00  0.00    -0.267 C  
HETATM   13  H   UNL     1     -10.450   7.358  70.599  1.00  0.00     0.000 HD 
HETATM   14  C   UNL     1      -9.124   7.711  66.586  1.00  0.00    -0.198 C  
HETATM   15  C   UNL     1      -8.061   7.120  67.507  1.00  0.00    -0.113 C  
HETATM   16  C   UNL     1      -8.594   6.858  68.928  1.00  0.00    -0.131 C  
BRANCH  16  17
HETATM   17  C   UNL     1      -9.710   5.766  68.949  1.00  0.00    -0.136 C  
BRANCH  17  18
HETATM   18  N   UNL     1      -9.566   4.712  69.981  1.00  0.00    -0.169 NA 
HETATM   19  C   UNL     1      -9.521   3.375  69.386  1.00  0.00    -0.151 C  
HETATM   20  C   UNL     1      -8.346   4.951  70.760  1.00  0.00    -0.102 C  
ENDBRANCH  17  18
ENDBRANCH  16  17
ENDBRANCH   7   9
ENDBRANCH   2   3
TORSDOF 4
ENDMDL
MODEL      232
REMARK 921   NORMALIZED FREE ENERGY PREDICTED BY IDOCK:   -1.71 KCAL/MOL
REMARK 922        TOTAL FREE ENERGY PREDICTED BY IDOCK:   -2.96 KCAL/MOL
REMARK 923 INTER-LIGAND FREE ENERGY PREDICTED BY IDOCK:   -2.63 KCAL/MOL
REMARK 924 INTRA-LIGAND FREE ENERGY PREDICTED BY IDOCK:   -0.33 KCAL/MOL
REMARK 927      BINDING AFFINITY PREDICTED BY RF-SCORE:    0.00 PKD
ROOT
HETATM    1  C   UNL     1     -11.470  11.904  67.073  1.00  0.00    -0.316 C  
HETATM    2  O   UNL     1     -11.109  10.531  67.103  1.00  0.00    -0.265 OA 
ENDROOT
BRANCH   2   3
HETATM    3  C   UNL     1      -9.968  10.197  67.782  1.00  0.00    -0.168 A  
HETATM    4  C   UNL     1      -8.917  11.042  68.099  1.00  0.00    -0.152 A  
HETATM    5  C   UNL     1      -7.805  10.536  68.778  1.00  0.00    -0.116 A  
HETATM    6  C   UNL     1      -7.738   9.179  69.116  1.00  0.00    -0.081 A  
HETATM    7  C   UNL     1      -8.782   8.291  68.792  1.00  0.00    -0.137 A  
HETATM    8  C   UNL     1      -9.906   8.844  68.157  1.00  0.00    -0.193 A  
BRANCH   7   9
HETATM    9  C   UNL     1      -8.646   6.793  69.125  1.00  0.00    -0.131 C  
HETATM   10  O   UNL     1      -7.759   6.730  70.256  1.00  0.00    -0.097 OA 
HETATM   11  C   UNL     1      -9.953   6.092  69.577  1.00  0.00    -0.225 C  
HETATM   12  C   UNL     1     -10.942   5.772  68.452  1.00  0.00    -0.159 C  
HETATM   13  H   UNL     1      -7.675   5.806  70.460  1.00  0.00     0.000 HD 
HETATM   14  C   UNL     1     -10.308   5.192  67.192  1.00  0.00    -0.246 C  
HETATM   15  C   UNL     1      -9.018   5.897  66.784  1.00  0.00    -0.120 C  
HETATM   16  C   UNL     1      -8.006   5.986  67.941  1.00  0.00    -0.106 C  
BRANCH  16  17
HETATM   17  C   UNL     1      -7.499   4.581  68.394  1.00  0.00    -0.065 C  
BRANCH  17  18
HETATM   18  N   UNL     1      -6.057   4.312  68.182  1.00  0.00    -0.030 NA 
HETATM   19  C   UNL     1      -5.451   5.291  67.276  1.00  0.00    -0.012 C  
HETATM   20  C   UNL     1      -5.359   4.333  69.473  1.00  0.00    -0.008 C  
ENDBRANCH  17  18
ENDBRANCH  16  17
ENDBRANCH   7   9
ENDBRANCH   2   3
TORSDOF 4
ENDMDL
MODEL      233
REMARK 921   NORMALIZED FREE ENERGY PREDICTED BY IDOCK:   -1.67 KCAL/MOL
REMARK 922        TOTAL FREE ENERGY PREDICTED BY IDOCK:   -2.91 KCAL/MOL
REMARK 923 INTER-LIGAND FREE ENERGY PREDICTED BY IDOCK:   -2.83 KCAL/MOL
REMARK 924 INTRA-LIGAND FREE ENERGY PREDICTED BY IDOCK:   -0.08 KCAL/MOL
REMARK 927      BINDING AFFINITY PREDICTED BY RF-SCORE:    0.00 PKD
ROOT
HETATM    1  C   UNL     1      -6.707  10.427  65.520  1.00  0.00    -0.121 C  
HETATM    2  O   UNL     1      -7.636  11.023  66.413  1.00  0.00    -0.143 OA 
ENDROOT
BRANCH   2   3
HETATM    3  C   UNL     1      -7.554  10.667  67.732  1.00  0.00    -0.095 A  
HETATM    4  C   UNL     1      -6.712  11.213  68.686  1.00  0.00    -0.062 A  
HETATM    5  C   UNL     1      -6.732  10.715  69.991  1.00  0.00    -0.156 A  
HETATM    6  C   UNL     1      -7.578   9.654  70.332  1.00  0.00    -0.176 A  
HETATM    7  C   UNL     1      -8.433   9.064  69.381  1.00  0.00    -0.117 A  
HETATM    8  C   UNL     1      -8.424   9.624  68.093  1.00  0.00    -0.118 A  
BRANCH   7   9
HETATM    9  C   UNL     1      -9.305   7.856  69.776  1.00  0.00    -0.153 C  
HETATM   10  O   UNL     1      -9.609   7.184  68.541  1.00  0.00    -0.139 OA 
HETATM   11  C   UNL     1      -8.608   6.799  70.671  1.00  0.00    -0.142 C  
HETATM   12  C   UNL     1      -8.454   7.193  72.143  1.00  0.00    -0.118 C  
HETATM   13  H   UNL     1     -10.147   6.439  68.785  1.00  0.00     0.000 HD 
HETATM   14  C   UNL     1      -9.687   7.842  72.761  1.00  0.00    -0.322 C  
HETATM   15  C   UNL     1     -10.354   8.867  71.849  1.00  0.00    -0.407 C  
HETATM   16  C   UNL     1     -10.651   8.301  70.448  1.00  0.00    -0.231 C  
BRANCH  16  17
HETATM   17  C   UNL     1     -11.699   7.146  70.486  1.00  0.00    -0.272 C  
BRANCH  17  18
HETATM   18  N   UNL     1     -12.739   7.247  71.537  1.00  0.00    -0.370 NA 
HETATM   19  C   UNL     1     -14.058   7.527  70.968  1.00  0.00    -0.006 C  
HETATM   20  C   UNL     1     -12.784   5.998  72.305  1.00  0.00     0.318 C  
ENDBRANCH  17  18
ENDBRANCH  16  17
ENDBRANCH   7   9
ENDBRANCH   2   3
TORSDOF 4
ENDMDL
MODEL      234
REMARK 921   NORMALIZED FREE ENERGY PREDICTED BY IDOCK:   -1.65 KCAL/MOL
REMARK 922        TOTAL FREE ENERGY PREDICTED BY IDOCK:   -2.88 KCAL/MOL
REMARK 923 INTER-LIGAND FREE ENERGY PREDICTED BY IDOCK:   -2.66 KCAL/MOL
REMARK 924 INTRA-LIGAND FREE ENERGY PREDICTED BY IDOCK:   -0.22 KCAL/MOL
REMARK 927      BINDING AFFINITY PREDICTED BY RF-SCORE:    0.00 PKD
ROOT
HETATM    1  C   UNL     1     -12.600  14.353  71.377  1.00  0.00    -0.354 C  
HETATM    2  O   UNL     1     -12.368  13.789  70.094  1.00  0.00    -0.335 OA 
ENDROOT
BRANCH   2   3
HETATM    3  C   UNL     1     -11.082  13.810  69.624  1.00  0.00    -0.038 A  
HETATM    4  C   UNL     1     -10.228  14.900  69.599  1.00  0.00    -0.112 A  
HETATM    5  C   UNL     1      -8.947  14.761  69.058  1.00  0.00    -0.135 A  
HETATM    6  C   UNL     1      -8.534  13.537  68.521  1.00  0.00    -0.092 A  
HETATM    7  C   UNL     1      -9.385  12.415  68.514  1.00  0.00    -0.090 A  
HETATM    8  C   UNL     1     -10.645  12.576  69.113  1.00  0.00    -0.000 A  
BRANCH   7   9
HETATM    9  C   UNL     1      -8.918  11.101  67.858  1.00  0.00    -0.143 C  
HETATM   10  O   UNL     1     -10.003  10.694  67.004  1.00  0.00    -0.189 OA 
HETATM   11  C   UNL     1      -7.679  11.224  66.934  1.00  0.00    -0.152 C  
HETATM   12  C   UNL     1      -6.338  11.359  67.661  1.00  0.00    -0.062 C  
HETATM   13  H   UNL     1      -9.715   9.884  66.600  1.00  0.00     0.000 HD 
HETATM   14  C   UNL     1      -6.160  10.420  68.849  1.00  0.00    -0.040 C  
HETATM   15  C   UNL     1      -7.402  10.314  69.729  1.00  0.00    -0.167 C  
HETATM   16  C   UNL     1      -8.667   9.973  68.919  1.00  0.00    -0.146 C  
BRANCH  16  17
HETATM   17  C   UNL     1      -8.589   8.558  68.266  1.00  0.00    -0.139 C  
BRANCH  17  18
HETATM   18  N   UNL     1      -9.198   7.452  69.041  1.00  0.00    -0.146 NA 
HETATM   19  C   UNL     1      -9.033   7.645  70.483  1.00  0.00    -0.151 C  
HETATM   20  C   UNL     1     -10.626   7.352  68.714  1.00  0.00    -0.168 C  
ENDBRANCH  17  18
ENDBRANCH  16  17
ENDBRANCH   7   9
ENDBRANCH   2   3
TORSDOF 4
ENDMDL
MODEL      235
REMARK 921   NORMALIZED FREE ENERGY PREDICTED BY IDOCK:   -1.61 KCAL/MOL
REMARK 922        TOTAL FREE ENERGY PREDICTED BY IDOCK:   -2.83 KCAL/MOL
REMARK 923 INTER-LIGAND FREE ENERGY PREDICTED BY IDOCK:   -2.99 KCAL/MOL
REMARK 924 INTRA-LIGAND FREE ENERGY PREDICTED BY IDOCK:    0.17 KCAL/MOL
REMARK 927      BINDING AFFINITY PREDICTED BY RF-SCORE:    0.00 PKD
ROOT
HETATM    1  C   UNL     1     -11.177  10.891  67.486  1.00  0.00    -0.293 C  
HETATM    2  O   UNL     1     -10.781   9.682  68.117  1.00  0.00    -0.229 OA 
ENDROOT
BRANCH   2   3
HETATM    3  C   UNL     1      -9.580   9.682  68.773  1.00  0.00    -0.152 A  
HETATM    4  C   UNL     1      -8.526  10.558  68.569  1.00  0.00    -0.131 A  
HETATM    5  C   UNL     1      -7.349  10.406  69.307  1.00  0.00    -0.106 A  
HETATM    6  C   UNL     1      -7.221   9.361  70.229  1.00  0.00    -0.104 A  
HETATM    7  C   UNL     1      -8.266   8.442  70.445  1.00  0.00    -0.115 A  
HETATM    8  C   UNL     1      -9.453   8.656  69.725  1.00  0.00    -0.166 A  
BRANCH   7   9
HETATM    9  C   UNL     1      -8.066   7.267  71.421  1.00  0.00    -0.102 C  
HETATM   10  O   UNL     1      -6.839   6.635  71.014  1.00  0.00    -0.059 OA 
HETATM   11  C   UNL     1      -7.862   7.664  72.906  1.00  0.00    -0.135 C  
HETATM   12  C   UNL     1      -9.134   8.088  73.646  1.00  0.00    -0.299 C  
HETATM   13  H   UNL     1      -6.716   5.911  71.616  1.00  0.00     0.000 HD 
HETATM   14  C   UNL     1     -10.349   7.204  73.382  1.00  0.00    -0.391 C  
HETATM   15  C   UNL     1     -10.512   6.822  71.914  1.00  0.00    -0.221 C  
HETATM   16  C   UNL     1      -9.226   6.216  71.319  1.00  0.00    -0.157 C  
BRANCH  16  17
HETATM   17  C   UNL     1      -8.850   4.856  71.986  1.00  0.00    -0.128 C  
BRANCH  17  18
HETATM   18  N   UNL     1      -9.803   4.345  72.998  1.00  0.00    -0.137 NA 
HETATM   19  C   UNL     1     -10.570   3.204  72.493  1.00  0.00     0.024 C  
HETATM   20  C   UNL     1      -9.070   3.953  74.208  1.00  0.00    -0.092 C  
ENDBRANCH  17  18
ENDBRANCH  16  17
ENDBRANCH   7   9
ENDBRANCH   2   3
TORSDOF 4
ENDMDL
MODEL      236
REMARK 921   NORMALIZED FREE ENERGY PREDICTED BY IDOCK:   -1.44 KCAL/MOL
REMARK 922        TOTAL FREE ENERGY PREDICTED BY IDOCK:   -2.63 KCAL/MOL
REMARK 923 INTER-LIGAND FREE ENERGY PREDICTED BY IDOCK:   -3.47 KCAL/MOL
REMARK 924 INTRA-LIGAND FREE ENERGY PREDICTED BY IDOCK:    0.84 KCAL/MOL
REMARK 927      BINDING AFFINITY PREDICTED BY RF-SCORE:    0.00 PKD
ROOT
HETATM    1  C   UNL     1     -10.474  20.534  68.613  1.00  0.00     0.248 C  
HETATM    2  O   UNL     1     -10.017  19.369  69.286  1.00  0.00    -0.404 OA 
ENDROOT
BRANCH   2   3
HETATM    3  C   UNL     1      -9.227  18.505  68.576  1.00  0.00    -0.335 A  
HETATM    4  C   UNL     1      -7.920  18.721  68.171  1.00  0.00    -0.317 A  
HETATM    5  C   UNL     1      -7.258  17.743  67.425  1.00  0.00    -0.201 A  
HETATM    6  C   UNL     1      -7.915  16.561  67.064  1.00  0.00    -0.239 A  
HETATM    7  C   UNL     1      -9.250  16.319  67.444  1.00  0.00    -0.217 A  
HETATM    8  C   UNL     1      -9.867  17.301  68.237  1.00  0.00    -0.304 A  
BRANCH   7   9
HETATM    9  C   UNL     1      -9.961  15.035  66.975  1.00  0.00    -0.242 C  
HETATM   10  O   UNL     1     -11.026  15.480  66.116  1.00  0.00    -0.316 OA 
HETATM   11  C   UNL     1      -9.099  14.075  66.115  1.00  0.00     0.043 C  
HETATM   12  C   UNL     1      -8.075  13.246  66.896  1.00  0.00     0.079 C  
HETATM   13  H   UNL     1     -11.464  14.688  65.827  1.00  0.00     0.000 HD 
HETATM   14  C   UNL     1      -8.599  12.644  68.195  1.00  0.00    -0.188 C  
HETATM   15  C   UNL     1      -9.453  13.612  69.010  1.00  0.00     0.247 C  
HETATM   16  C   UNL     1     -10.585  14.241  68.175  1.00  0.00    -0.246 C  
BRANCH  16  17
HETATM   17  C   UNL     1     -11.628  13.182  67.701  1.00  0.00    -0.349 C  
BRANCH  17  18
HETATM   18  N   UNL     1     -11.084  12.025  66.953  1.00  0.00    -0.284 NA 
HETATM   19  C   UNL     1     -11.255  10.773  67.693  1.00  0.00    -0.299 C  
HETATM   20  C   UNL     1     -11.750  11.926  65.649  1.00  0.00    -0.145 C  
ENDBRANCH  17  18
ENDBRANCH  16  17
ENDBRANCH   7   9
ENDBRANCH   2   3
TORSDOF 4
ENDMDL
MODEL      237
REMARK 921   NORMALIZED FREE ENERGY PREDICTED BY IDOCK:   -1.40 KCAL/MOL
REMARK 922        TOTAL FREE ENERGY PREDICTED BY IDOCK:   -2.57 KCAL/MOL
REMARK 923 INTER-LIGAND FREE ENERGY PREDICTED BY IDOCK:   -2.00 KCAL/MOL
REMARK 924 INTRA-LIGAND FREE ENERGY PREDICTED BY IDOCK:   -0.58 KCAL/MOL
REMARK 927      BINDING AFFINITY PREDICTED BY RF-SCORE:    0.00 PKD
ROOT
HETATM    1  C   UNL     1      -5.981  12.293  68.045  1.00  0.00    -0.067 C  
HETATM    2  O   UNL     1      -5.238  11.100  68.250  1.00  0.00    -0.040 OA 
ENDROOT
BRANCH   2   3
HETATM    3  C   UNL     1      -5.555  10.346  69.348  1.00  0.00    -0.037 A  
HETATM    4  C   UNL     1      -5.170  10.586  70.656  1.00  0.00    -0.071 A  
HETATM    5  C   UNL     1      -5.558   9.699  71.664  1.00  0.00    -0.056 A  
HETATM    6  C   UNL     1      -6.309   8.560  71.355  1.00  0.00    -0.050 A  
HETATM    7  C   UNL     1      -6.701   8.276  70.032  1.00  0.00    -0.042 A  
HETATM    8  C   UNL     1      -6.338   9.216  69.053  1.00  0.00    -0.043 A  
BRANCH   7   9
HETATM    9  C   UNL     1      -7.473   6.981  69.720  1.00  0.00    -0.098 C  
HETATM   10  O   UNL     1      -6.467   5.964  69.562  1.00  0.00    -0.038 OA 
HETATM   11  C   UNL     1      -8.407   6.476  70.850  1.00  0.00    -0.126 C  
HETATM   12  C   UNL     1      -9.722   7.247  70.999  1.00  0.00    -0.169 C  
HETATM   13  H   UNL     1      -6.944   5.165  69.370  1.00  0.00     0.000 HD 
HETATM   14  C   UNL     1     -10.425   7.568  69.684  1.00  0.00    -0.235 C  
HETATM   15  C   UNL     1      -9.475   8.049  68.591  1.00  0.00    -0.147 C  
HETATM   16  C   UNL     1      -8.287   7.091  68.383  1.00  0.00    -0.124 C  
BRANCH  16  17
HETATM   17  C   UNL     1      -8.739   5.695  67.852  1.00  0.00    -0.107 C  
BRANCH  17  18
HETATM   18  N   UNL     1      -9.213   5.657  66.449  1.00  0.00    -0.148 NA 
HETATM   19  C   UNL     1      -8.430   4.722  65.638  1.00  0.00    -0.121 C  
HETATM   20  C   UNL     1     -10.629   5.274  66.420  1.00  0.00    -0.276 C  
ENDBRANCH  17  18
ENDBRANCH  16  17
ENDBRANCH   7   9
ENDBRANCH   2   3
TORSDOF 4
ENDMDL
MODEL      238
REMARK 921   NORMALIZED FREE ENERGY PREDICTED BY IDOCK:   -0.97 KCAL/MOL
REMARK 922        TOTAL FREE ENERGY PREDICTED BY IDOCK:   -2.05 KCAL/MOL
REMARK 923 INTER-LIGAND FREE ENERGY PREDICTED BY IDOCK:   -1.54 KCAL/MOL
REMARK 924 INTRA-LIGAND FREE ENERGY PREDICTED BY IDOCK:   -0.50 KCAL/MOL
REMARK 927      BINDING AFFINITY PREDICTED BY RF-SCORE:    0.00 PKD
ROOT
HETATM    1  C   UNL     1      -8.535  17.209  66.133  1.00  0.00    -0.203 C  
HETATM    2  O   UNL     1      -8.378  15.798  66.125  1.00  0.00    -0.243 OA 
ENDROOT
BRANCH   2   3
HETATM    3  C   UNL     1      -9.474  15.047  65.792  1.00  0.00    -0.225 A  
HETATM    4  C   UNL     1     -10.073  14.967  64.545  1.00  0.00     0.605 A  
HETATM    5  C   UNL     1     -11.209  14.171  64.376  1.00  0.00    -0.290 A  
HETATM    6  C   UNL     1     -11.756  13.477  65.461  1.00  0.00    -0.361 A  
HETATM    7  C   UNL     1     -11.182  13.552  66.745  1.00  0.00    -0.327 A  
HETATM    8  C   UNL     1     -10.011  14.320  66.867  1.00  0.00    -0.263 A  
BRANCH   7   9
HETATM    9  C   UNL     1     -11.847  12.825  67.928  1.00  0.00    -0.339 C  
HETATM   10  O   UNL     1     -13.145  13.431  68.070  1.00  0.00     1.015 OA 
HETATM   11  C   UNL     1     -12.111  11.312  67.715  1.00  0.00     0.230 C  
HETATM   12  C   UNL     1     -10.876  10.414  67.833  1.00  0.00    -0.331 C  
HETATM   13  H   UNL     1     -13.555  12.983  68.800  1.00  0.00     0.000 HD 
HETATM   14  C   UNL     1      -9.958  10.744  69.005  1.00  0.00    -0.214 C  
HETATM   15  C   UNL     1      -9.731  12.241  69.194  1.00  0.00     0.430 C  
HETATM   16  C   UNL     1     -11.051  13.031  69.265  1.00  0.00    -0.194 C  
BRANCH  16  17
HETATM   17  C   UNL     1     -11.900  12.654  70.519  1.00  0.00    -0.052 C  
BRANCH  17  18
HETATM   18  N   UNL     1     -12.332  13.784  71.373  1.00  0.00    -0.308 NA 
HETATM   19  C   UNL     1     -11.886  15.071  70.835  1.00  0.00    -0.324 C  
HETATM   20  C   UNL     1     -13.795  13.777  71.494  1.00  0.00    -0.151 C  
ENDBRANCH  17  18
ENDBRANCH  16  17
ENDBRANCH   7   9
ENDBRANCH   2   3
TORSDOF 4
ENDMDL
MODEL      239
REMARK 921   NORMALIZED FREE ENERGY PREDICTED BY IDOCK:    0.65 KCAL/MOL
REMARK 922        TOTAL FREE ENERGY PREDICTED BY IDOCK:   -0.04 KCAL/MOL
REMARK 923 INTER-LIGAND FREE ENERGY PREDICTED BY IDOCK:   -1.18 KCAL/MOL
REMARK 924 INTRA-LIGAND FREE ENERGY PREDICTED BY IDOCK:    1.14 KCAL/MOL
REMARK 927      BINDING AFFINITY PREDICTED BY RF-SCORE:    0.00 PKD
ROOT
HETATM    1  C   UNL     1     -10.276  13.148  68.484  1.00  0.00    -0.215 C  
HETATM    2  O   UNL     1     -10.525  14.375  69.154  1.00  0.00    -0.238 OA 
ENDROOT
BRANCH   2   3
HETATM    3  C   UNL     1     -10.546  15.512  68.392  1.00  0.00    -0.252 A  
HETATM    4  C   UNL     1     -11.607  15.980  67.633  1.00  0.00     0.092 A  
HETATM    5  C   UNL     1     -11.458  17.151  66.885  1.00  0.00     0.982 A  
HETATM    6  C   UNL     1     -10.238  17.837  66.880  1.00  0.00    -0.346 A  
HETATM    7  C   UNL     1      -9.135  17.378  67.625  1.00  0.00    -0.234 A  
HETATM    8  C   UNL     1      -9.337  16.227  68.406  1.00  0.00    -0.210 A  
BRANCH   7   9
HETATM    9  C   UNL     1      -7.789  18.124  67.545  1.00  0.00    -0.222 C  
HETATM   10  O   UNL     1      -8.108  19.511  67.758  1.00  0.00    -0.281 OA 
HETATM   11  C   UNL     1      -6.759  17.755  68.643  1.00  0.00    -0.230 C  
HETATM   12  C   UNL     1      -6.049  16.413  68.443  1.00  0.00    -0.119 C  
HETATM   13  H   UNL     1      -7.278  19.971  67.709  1.00  0.00     0.000 HD 
HETATM   14  C   UNL     1      -5.586  16.144  67.015  1.00  0.00     0.110 C  
HETATM   15  C   UNL     1      -6.618  16.531  65.960  1.00  0.00     1.107 C  
HETATM   16  C   UNL     1      -7.121  17.977  66.133  1.00  0.00    -0.330 C  
BRANCH  16  17
HETATM   17  C   UNL     1      -5.990  19.027  65.905  1.00  0.00    -0.175 C  
BRANCH  17  18
HETATM   18  N   UNL     1      -6.332  20.430  66.236  1.00  0.00    -0.202 NA 
HETATM   19  C   UNL     1      -5.915  20.783  67.595  1.00  0.00    -0.270 C  
HETATM   20  C   UNL     1      -5.692  21.332  65.272  1.00  0.00    -0.145 C  
ENDBRANCH  17  18
ENDBRANCH  16  17
ENDBRANCH   7   9
ENDBRANCH   2   3
TORSDOF 4
ENDMDL
MODEL      240
REMARK 921   NORMALIZED FREE ENERGY PREDICTED BY IDOCK:    2.87 KCAL/MOL
REMARK 922        TOTAL FREE ENERGY PREDICTED BY IDOCK:    2.70 KCAL/MOL
REMARK 923 INTER-LIGAND FREE ENERGY PREDICTED BY IDOCK:    3.07 KCAL/MOL
REMARK 924 INTRA-LIGAND FREE ENERGY PREDICTED BY IDOCK:   -0.37 KCAL/MOL
REMARK 927      BINDING AFFINITY PREDICTED BY RF-SCORE:    0.00 PKD
ROOT
HETATM    1  C   UNL     1      -9.835  15.465  72.430  1.00  0.00     4.705 C  
HETATM    2  O   UNL     1     -11.234  15.558  72.655  1.00  0.00    -0.281 OA 
ENDROOT
BRANCH   2   3
HETATM    3  C   UNL     1     -12.060  15.153  71.641  1.00  0.00    -0.359 A  
HETATM    4  C   UNL     1     -13.436  15.004  71.705  1.00  0.00    -0.504 A  
HETATM    5  C   UNL     1     -14.134  14.552  70.582  1.00  0.00     0.542 A  
HETATM    6  C   UNL     1     -13.449  14.227  69.406  1.00  0.00     2.527 A  
HETATM    7  C   UNL     1     -12.049  14.350  69.314  1.00  0.00    -0.336 A  
HETATM    8  C   UNL     1     -11.386  14.856  70.445  1.00  0.00    -0.287 A  
BRANCH   7   9
HETATM    9  C   UNL     1     -11.323  13.923  68.024  1.00  0.00    -0.288 C  
HETATM   10  O   UNL     1     -11.615  14.953  67.062  1.00  0.00    -0.362 OA 
HETATM   11  C   UNL     1      -9.777  13.865  68.121  1.00  0.00    -0.222 C  
HETATM   12  C   UNL     1      -9.218  12.646  68.861  1.00  0.00     0.296 C  
HETATM   13  H   UNL     1     -11.167  14.690  66.267  1.00  0.00     0.000 HD 
HETATM   14  C   UNL     1      -9.887  11.323  68.506  1.00  0.00    -0.198 C  
HETATM   15  C   UNL     1     -11.407  11.420  68.407  1.00  0.00    -0.346 C  
HETATM   16  C   UNL     1     -11.862  12.557  67.473  1.00  0.00    -0.389 C  
BRANCH  16  17
HETATM   17  C   UNL     1     -11.438  12.312  65.991  1.00  0.00    -0.381 C  
BRANCH  17  18
HETATM   18  N   UNL     1     -12.119  13.147  64.975  1.00  0.00    -0.389 NA 
HETATM   19  C   UNL     1     -11.200  14.104  64.356  1.00  0.00    -0.278 C  
HETATM   20  C   UNL     1     -12.706  12.284  63.943  1.00  0.00    -0.382 C  
ENDBRANCH  17  18
ENDBRANCH  16  17
ENDBRANCH   7   9
ENDBRANCH   2   3
TORSDOF 4
ENDMDL
MODEL      241
REMARK 921   NORMALIZED FREE ENERGY PREDICTED BY IDOCK:    6.43 KCAL/MOL
REMARK 922        TOTAL FREE ENERGY PREDICTED BY IDOCK:    7.08 KCAL/MOL
REMARK 923 INTER-LIGAND FREE ENERGY PREDICTED BY IDOCK:    6.38 KCAL/MOL
REMARK 924 INTRA-LIGAND FREE ENERGY PREDICTED BY IDOCK:    0.71 KCAL/MOL
REMARK 927      BINDING AFFINITY PREDICTED BY RF-SCORE:    0.00 PKD
ROOT
HETATM    1  C   UNL     1     -13.706  13.878  71.501  1.00  0.00    -0.247 C  
HETATM    2  O   UNL     1     -13.024  14.076  70.272  1.00  0.00    -0.210 OA 
ENDROOT
BRANCH   2   3
HETATM    3  C   UNL     1     -12.463  15.306  70.058  1.00  0.00    -0.293 A  
HETATM    4  C   UNL     1     -12.713  16.465  70.774  1.00  0.00     1.434 A  
HETATM    5  C   UNL     1     -12.074  17.654  70.409  1.00  0.00     6.100 A  
HETATM    6  C   UNL     1     -11.206  17.683  69.311  1.00  0.00     1.179 A  
HETATM    7  C   UNL     1     -10.945  16.527  68.551  1.00  0.00    -0.350 A  
HETATM    8  C   UNL     1     -11.563  15.339  68.979  1.00  0.00    -0.360 A  
BRANCH   7   9
HETATM    9  C   UNL     1     -10.033  16.611  67.313  1.00  0.00    -0.270 C  
HETATM   10  O   UNL     1     -10.304  15.418  66.556  1.00  0.00    -0.273 OA 
HETATM   11  C   UNL     1     -10.323  17.793  66.353  1.00  0.00    -0.351 C  
HETATM   12  C   UNL     1      -9.826  19.159  66.836  1.00  0.00    -0.403 C  
HETATM   13  H   UNL     1      -9.742  15.470  65.792  1.00  0.00     0.000 HD 
HETATM   14  C   UNL     1      -8.424  19.151  67.435  1.00  0.00    -0.308 C  
HETATM   15  C   UNL     1      -8.168  17.968  68.364  1.00  0.00    -0.305 C  
HETATM   16  C   UNL     1      -8.513  16.619  67.704  1.00  0.00    -0.200 C  
BRANCH  16  17
HETATM   17  C   UNL     1      -7.590  16.303  66.486  1.00  0.00    -0.183 C  
BRANCH  17  18
HETATM   18  N   UNL     1      -6.409  17.182  66.322  1.00  0.00    -0.217 NA 
HETATM   19  C   UNL     1      -5.186  16.409  66.096  1.00  0.00     1.392 C  
HETATM   20  C   UNL     1      -6.632  18.098  65.198  1.00  0.00     0.240 C  
ENDBRANCH  17  18
ENDBRANCH  16  17
ENDBRANCH   7   9
ENDBRANCH   2   3
TORSDOF 4
ENDMDL
MODEL      242
REMARK 921   NORMALIZED FREE ENERGY PREDICTED BY IDOCK:    8.61 KCAL/MOL
REMARK 922        TOTAL FREE ENERGY PREDICTED BY IDOCK:    9.78 KCAL/MOL
REMARK 923 INTER-LIGAND FREE ENERGY PREDICTED BY IDOCK:    6.38 KCAL/MOL
REMARK 924 INTRA-LIGAND FREE ENERGY PREDICTED BY IDOCK:    3.41 KCAL/MOL
REMARK 927      BINDING AFFINITY PREDICTED BY RF-SCORE:    0.00 PKD
ROOT
HETATM    1  C   UNL     1     -11.718  11.902  72.571  1.00  0.00     5.457 C  
HETATM    2  O   UNL     1     -11.677  12.078  71.162  1.00  0.00     0.416 OA 
ENDROOT
BRANCH   2   3
HETATM    3  C   UNL     1     -11.667  10.947  70.390  1.00  0.00    -0.350 A  
HETATM    4  C   UNL     1     -12.274  10.782  69.156  1.00  0.00    -0.122 A  
HETATM    5  C   UNL     1     -12.192   9.548  68.505  1.00  0.00     2.614 A  
HETATM    6  C   UNL     1     -11.522   8.475  69.104  1.00  0.00     0.675 A  
HETATM    7  C   UNL     1     -10.910   8.604  70.366  1.00  0.00    -0.250 A  
HETATM    8  C   UNL     1     -10.968   9.873  70.967  1.00  0.00    -0.360 A  
BRANCH   7   9
HETATM    9  C   UNL     1     -10.237   7.384  71.022  1.00  0.00    -0.191 C  
HETATM   10  O   UNL     1     -11.281   6.406  71.174  1.00  0.00    -0.275 OA 
HETATM   11  C   UNL     1      -9.137   6.696  70.172  1.00  0.00    -0.155 C  
HETATM   12  C   UNL     1      -7.796   7.435  70.124  1.00  0.00    -0.099 C  
HETATM   13  H   UNL     1     -10.865   5.654  71.579  1.00  0.00     0.000 HD 
HETATM   14  C   UNL     1      -7.320   7.979  71.466  1.00  0.00    -0.073 C  
HETATM   15  C   UNL     1      -8.430   8.637  72.281  1.00  0.00    -0.149 C  
HETATM   16  C   UNL     1      -9.661   7.725  72.441  1.00  0.00    -0.238 C  
BRANCH  16  17
HETATM   17  C   UNL     1      -9.343   6.443  73.271  1.00  0.00    -0.131 C  
BRANCH  17  18
HETATM   18  N   UNL     1      -8.078   6.466  74.042  1.00  0.00    -0.107 NA 
HETATM   19  C   UNL     1      -7.012   5.734  73.355  1.00  0.00    -0.085 C  
HETATM   20  C   UNL     1      -7.663   7.856  74.262  1.00  0.00    -0.202 C  
ENDBRANCH  17  18
ENDBRANCH  16  17
ENDBRANCH   7   9
ENDBRANCH   2   3
TORSDOF 4
ENDMDL
MODEL      243
REMARK 921   NORMALIZED FREE ENERGY PREDICTED BY IDOCK:   14.02 KCAL/MOL
REMARK 922        TOTAL FREE ENERGY PREDICTED BY IDOCK:   16.45 KCAL/MOL
REMARK 923 INTER-LIGAND FREE ENERGY PREDICTED BY IDOCK:    6.25 KCAL/MOL
REMARK 924 INTRA-LIGAND FREE ENERGY PREDICTED BY IDOCK:   10.20 KCAL/MOL
REMARK 927      BINDING AFFINITY PREDICTED BY RF-SCORE:    0.00 PKD
ROOT
HETATM    1  C   UNL     1     -13.552  15.708  69.066  1.00  0.00     3.512 C  
HETATM    2  O   UNL     1     -13.155  16.840  68.306  1.00  0.00     2.616 OA 
ENDROOT
BRANCH   2   3
HETATM    3  C   UNL     1     -11.811  17.061  68.168  1.00  0.00     0.981 A  
HETATM    4  C   UNL     1     -11.161  18.282  68.253  1.00  0.00     0.418 A  
HETATM    5  C   UNL     1      -9.778  18.342  68.060  1.00  0.00    -0.336 A  
HETATM    6  C   UNL     1      -9.054  17.184  67.757  1.00  0.00    -0.233 A  
HETATM    7  C   UNL     1      -9.687  15.931  67.646  1.00  0.00    -0.223 A  
HETATM    8  C   UNL     1     -11.069  15.899  67.897  1.00  0.00    -0.317 A  
BRANCH   7   9
HETATM    9  C   UNL     1      -8.868  14.688  67.250  1.00  0.00    -0.207 C  
HETATM   10  O   UNL     1      -7.788  15.184  66.438  1.00  0.00    -0.190 OA 
HETATM   11  C   UNL     1      -8.197  13.932  68.426  1.00  0.00    -0.153 C  
HETATM   12  C   UNL     1      -9.142  13.067  69.265  1.00  0.00     0.932 C  
HETATM   13  H   UNL     1      -7.283  14.417  66.194  1.00  0.00     0.000 HD 
HETATM   14  C   UNL     1     -10.134  12.238  68.456  1.00  0.00    -0.192 C  
HETATM   15  C   UNL     1     -10.765  13.008  67.300  1.00  0.00    -0.261 C  
HETATM   16  C   UNL     1      -9.712  13.677  66.396  1.00  0.00    -0.300 C  
BRANCH  16  17
HETATM   17  C   UNL     1      -8.813  12.634  65.662  1.00  0.00     0.707 C  
BRANCH  17  18
HETATM   18  N   UNL     1      -8.505  11.398  66.418  1.00  0.00    -0.174 NA 
HETATM   19  C   UNL     1      -9.146  11.394  67.734  1.00  0.00    -0.158 C  
HETATM   20  C   UNL     1      -8.945  10.228  65.648  1.00  0.00    -0.172 C  
ENDBRANCH  17  18
ENDBRANCH  16  17
ENDBRANCH   7   9
ENDBRANCH   2   3
TORSDOF 4
ENDMDL
MODEL      244
REMARK 921   NORMALIZED FREE ENERGY PREDICTED BY IDOCK:   14.93 KCAL/MOL
REMARK 922        TOTAL FREE ENERGY PREDICTED BY IDOCK:   17.57 KCAL/MOL
REMARK 923 INTER-LIGAND FREE ENERGY PREDICTED BY IDOCK:   12.93 KCAL/MOL
REMARK 924 INTRA-LIGAND FREE ENERGY PREDICTED BY IDOCK:    4.64 KCAL/MOL
REMARK 927      BINDING AFFINITY PREDICTED BY RF-SCORE:    0.00 PKD
ROOT
HETATM    1  C   UNL     1     -11.692  18.647  72.684  1.00  0.00     5.594 C  
HETATM    2  O   UNL     1     -12.433  17.751  71.868  1.00  0.00     5.025 OA 
ENDROOT
BRANCH   2   3
HETATM    3  C   UNL     1     -11.864  16.536  71.596  1.00  0.00    -0.098 A  
HETATM    4  C   UNL     1     -11.093  15.772  72.457  1.00  0.00     0.387 A  
HETATM    5  C   UNL     1     -10.560  14.559  72.013  1.00  0.00     2.521 A  
HETATM    6  C   UNL     1     -10.779  14.126  70.701  1.00  0.00     1.035 A  
HETATM    7  C   UNL     1     -11.542  14.889  69.795  1.00  0.00    -0.339 A  
HETATM    8  C   UNL     1     -12.106  16.076  70.290  1.00  0.00    -0.180 A  
BRANCH   7   9
HETATM    9  C   UNL     1     -11.710  14.412  68.340  1.00  0.00    -0.332 C  
HETATM   10  O   UNL     1     -13.041  13.871  68.265  1.00  0.00     0.891 OA 
HETATM   11  C   UNL     1     -11.648  15.526  67.264  1.00  0.00    -0.012 C  
HETATM   12  C   UNL     1     -10.244  16.050  66.951  1.00  0.00    -0.280 C  
HETATM   13  H   UNL     1     -13.144  13.577  67.368  1.00  0.00     0.000 HD 
HETATM   14  C   UNL     1      -9.177  14.969  66.813  1.00  0.00    -0.280 C  
HETATM   15  C   UNL     1      -9.275  13.882  67.880  1.00  0.00    -0.198 C  
HETATM   16  C   UNL     1     -10.689  13.278  67.974  1.00  0.00    -0.254 C  
BRANCH  16  17
HETATM   17  C   UNL     1     -11.095  12.518  66.673  1.00  0.00    -0.283 C  
BRANCH  17  18
HETATM   18  N   UNL     1     -10.067  12.459  65.608  1.00  0.00    -0.256 NA 
HETATM   19  C   UNL     1     -10.340  13.419  64.537  1.00  0.00    -0.373 C  
HETATM   20  C   UNL     1      -8.745  12.725  66.187  1.00  0.00     0.361 C  
ENDBRANCH  17  18
ENDBRANCH  16  17
ENDBRANCH   7   9
ENDBRANCH   2   3
TORSDOF 4
ENDMDL
MODEL      245
REMARK 921   NORMALIZED FREE ENERGY PREDICTED BY IDOCK:   23.32 KCAL/MOL
REMARK 922        TOTAL FREE ENERGY PREDICTED BY IDOCK:   27.93 KCAL/MOL
REMARK 923 INTER-LIGAND FREE ENERGY PREDICTED BY IDOCK:   16.43 KCAL/MOL
REMARK 924 INTRA-LIGAND FREE ENERGY PREDICTED BY IDOCK:   11.50 KCAL/MOL
REMARK 927      BINDING AFFINITY PREDICTED BY RF-SCORE:    0.00 PKD
ROOT
HETATM    1  C   UNL     1     -11.091  11.973  72.591  1.00  0.00    10.671 C  
HETATM    2  O   UNL     1     -11.445  12.358  71.270  1.00  0.00     1.403 OA 
ENDROOT
BRANCH   2   3
HETATM    3  C   UNL     1     -11.878  11.372  70.425  1.00  0.00    -0.335 A  
HETATM    4  C   UNL     1     -12.931  10.498  70.644  1.00  0.00    -0.362 A  
HETATM    5  C   UNL     1     -13.230   9.524  69.688  1.00  0.00     2.251 A  
HETATM    6  C   UNL     1     -12.458   9.412  68.526  1.00  0.00     4.097 A  
HETATM    7  C   UNL     1     -11.370  10.272  68.282  1.00  0.00    -0.245 A  
HETATM    8  C   UNL     1     -11.131  11.272  69.239  1.00  0.00    -0.314 A  
BRANCH   7   9
HETATM    9  C   UNL     1     -10.505  10.079  67.022  1.00  0.00    -0.238 C  
HETATM   10  O   UNL     1     -10.039   8.719  67.083  1.00  0.00    -0.205 OA 
HETATM   11  C   UNL     1     -11.258  10.205  65.673  1.00  0.00     1.196 C  
HETATM   12  C   UNL     1     -11.593  11.637  65.247  1.00  0.00    -0.105 C  
HETATM   13  H   UNL     1      -9.505   8.600  66.306  1.00  0.00     0.000 HD 
HETATM   14  C   UNL     1     -10.462  12.641  65.444  1.00  0.00    -0.306 C  
HETATM   15  C   UNL     1      -9.734  12.480  66.775  1.00  0.00    -0.234 C  
HETATM   16  C   UNL     1      -9.260  11.034  67.014  1.00  0.00    -0.164 C  
BRANCH  16  17
HETATM   17  C   UNL     1      -8.182  10.586  65.980  1.00  0.00    -0.150 C  
BRANCH  17  18
HETATM   18  N   UNL     1      -8.571  10.683  64.553  1.00  0.00    -0.150 NA 
HETATM   19  C   UNL     1      -8.809   9.362  63.966  1.00  0.00    -0.177 C  
HETATM   20  C   UNL     1      -9.780  11.506  64.430  1.00  0.00    -0.200 C  
ENDBRANCH  17  18
ENDBRANCH  16  17
ENDBRANCH   7   9
ENDBRANCH   2   3
TORSDOF 4
ENDMDL
MODEL      246
REMARK 921   NORMALIZED FREE ENERGY PREDICTED BY IDOCK:   46.27 KCAL/MOL
REMARK 922        TOTAL FREE ENERGY PREDICTED BY IDOCK:   56.25 KCAL/MOL
REMARK 923 INTER-LIGAND FREE ENERGY PREDICTED BY IDOCK:   55.89 KCAL/MOL
REMARK 924 INTRA-LIGAND FREE ENERGY PREDICTED BY IDOCK:    0.36 KCAL/MOL
REMARK 927      BINDING AFFINITY PREDICTED BY RF-SCORE:    0.00 PKD
ROOT
HETATM    1  C   UNL     1     -12.056  18.335  73.069  1.00  0.00     4.588 C  
HETATM    2  O   UNL     1     -11.736  17.135  72.380  1.00  0.00     0.095 OA 
ENDROOT
BRANCH   2   3
HETATM    3  C   UNL     1     -10.415  16.780  72.321  1.00  0.00     4.157 A  
HETATM    4  C   UNL     1      -9.396  17.244  73.137  1.00  0.00    14.109 A  
HETATM    5  C   UNL     1      -8.088  16.800  72.927  1.00  0.00    18.639 A  
HETATM    6  C   UNL     1      -7.799  15.911  71.886  1.00  0.00     7.307 A  
HETATM    7  C   UNL     1      -8.809  15.435  71.027  1.00  0.00     2.753 A  
HETATM    8  C   UNL     1     -10.120  15.861  71.299  1.00  0.00     1.702 A  
BRANCH   7   9
HETATM    9  C   UNL     1      -8.445  14.507  69.853  1.00  0.00     0.698 C  
HETATM   10  O   UNL     1      -8.443  13.177  70.403  1.00  0.00     3.057 OA 
HETATM   11  C   UNL     1      -9.466  14.479  68.687  1.00  0.00    -0.205 C  
HETATM   12  C   UNL     1      -9.428  15.698  67.761  1.00  0.00    -0.208 C  
HETATM   13  H   UNL     1      -8.218  12.605  69.678  1.00  0.00     0.000 HD 
HETATM   14  C   UNL     1      -8.027  16.160  67.373  1.00  0.00    -0.185 C  
HETATM   15  C   UNL     1      -7.046  16.163  68.541  1.00  0.00    -0.139 C  
HETATM   16  C   UNL     1      -7.015  14.814  69.285  1.00  0.00    -0.149 C  
BRANCH  16  17
HETATM   17  C   UNL     1      -6.476  13.656  68.389  1.00  0.00    -0.095 C  
BRANCH  17  18
HETATM   18  N   UNL     1      -7.356  12.470  68.263  1.00  0.00    -0.106 NA 
HETATM   19  C   UNL     1      -7.693  12.193  66.865  1.00  0.00    -0.049 C  
HETATM   20  C   UNL     1      -6.694  11.302  68.854  1.00  0.00    -0.081 C  
ENDBRANCH  17  18
ENDBRANCH  16  17
ENDBRANCH   7   9
ENDBRANCH   2   3
TORSDOF 4
ENDMDL
